MODEL 1
REMARK VINA RESULT:     -13.4      0.000      0.000
REMARK SMILES O=C(NCCCCNC(=O)[C@H]1CCCN(C(=O)C2CC[NH+](Cc3ccco3)CC2)C1)c1ccc(-c2c3nc(c(-c4c(F)c(F)c(F)c(F)c4F)c4ccc([nH]4)c(-c4c(F)c(F)c(F)c(F)c4F)c4nc(c(-c5c(F)c(F)c(F)c(F)c5F)c5ccc2[nH]5)C=C4)C=C3)cc1
REMARK SMILES IDX 6 1 5 2 4 3 3 4 1 5 2 6 31 8 32 9 93 10 33 11 92 12 34 13
REMARK SMILES IDX 35 14 36 15 86 16 37 17 91 18 85 19 87 20 38 21 90 22 84 23
REMARK SMILES IDX 83 24 39 26 71 27 51 28 70 29 52 30 55 31 69 32 88 33 53 34
REMARK SMILES IDX 54 35 68 37 89 38 56 39 40 40 41 41 49 42 42 43 43 44 47 45
REMARK SMILES IDX 50 46 44 47 45 48 48 49 46 50 72 51 73 52 81 53 74 54 75 55
REMARK SMILES IDX 79 56 82 57 76 58 77 59 80 60 78 61 57 62 58 63 66 64 59 65
REMARK SMILES IDX 60 66 64 67 67 68 61 69 62 70 65 71 63 72 7 73 8 74 9 75
REMARK SMILES IDX 10 77 11 78 12 79 30 80 13 81 15 82 14 83 16 84 17 85 18 86
REMARK SMILES IDX 19 87 29 88 20 89 28 90 21 91 22 93 23 94 24 95 27 96 25 97
REMARK SMILES IDX 26 98
REMARK H PARENT 3 7 87 25 55 36 8 76 21 92
REMARK Flexibility Score: inf
ROOT
ATOM      1  C   UNL A   1      32.156  30.468  26.863  1.00  0.00     0.023 C 
ENDROOT
BRANCH   1   2
ATOM      2  C   UNL A   1      31.829  31.957  26.876  1.00  0.00     0.023 C 
BRANCH   2   3
ATOM      3  C   UNL A   1      32.894  32.822  27.516  1.00  0.00     0.116 C 
BRANCH   3   4
ATOM      4  N   UNL A   1      32.484  34.203  27.723  1.00  0.00    -0.352 N 
ATOM      5  O   UNL A   1      32.566  36.225  28.752  1.00  0.00    -0.269 OA
ATOM      6  C   UNL A   1      33.021  35.106  28.614  1.00  0.00     0.251 C 
ATOM      7  H   UNL A   1      31.740  34.528  27.166  1.00  0.00     0.163 HD
BRANCH   6   8
ATOM      8  C   UNL A   1      34.146  34.634  29.443  1.00  0.00     0.039 A 
ATOM      9  C   UNL A   1      35.434  34.615  28.908  1.00  0.00     0.014 A 
ATOM     10  C   UNL A   1      33.871  34.068  30.689  1.00  0.00     0.014 A 
ATOM     11  C   UNL A   1      36.416  33.878  29.545  1.00  0.00     0.010 A 
ATOM     12  C   UNL A   1      34.891  33.411  31.376  1.00  0.00     0.010 A 
ATOM     13  C   UNL A   1      36.158  33.273  30.788  1.00  0.00    -0.014 A 
BRANCH  13  14
ATOM     14  C   UNL A   1      37.250  32.536  31.465  1.00  0.00     0.031 A 
ATOM     15  C   UNL A   1      38.001  31.440  30.767  1.00  0.00     0.074 A 
ATOM     16  C   UNL A   1      37.585  32.911  32.713  1.00  0.00     0.049 A 
ATOM     17  N   UNL A   1      38.995  30.712  31.212  1.00  0.00    -0.248 NA
ATOM     18  C   UNL A   1      37.581  31.103  29.398  1.00  0.00     0.031 C 
ATOM     19  C   UNL A   1      36.913  33.962  33.482  1.00  0.00     0.029 A 
ATOM     20  N   UNL A   1      38.586  32.480  33.543  1.00  0.00    -0.354 N 
ATOM     21  C   UNL A   1      39.292  29.811  30.199  1.00  0.00     0.074 A 
ATOM     22  C   UNL A   1      38.369  30.075  29.116  1.00  0.00     0.031 C 
ATOM     23  C   UNL A   1      37.563  34.143  34.640  1.00  0.00     0.029 A 
ATOM     24  C   UNL A   1      38.650  33.175  34.723  1.00  0.00     0.049 A 
ATOM     25  H   UNL A   1      39.200  31.746  33.313  1.00  0.00     0.167 HD
ATOM     26  C   UNL A   1      40.249  28.852  30.182  1.00  0.00     0.037 A 
ATOM     27  C   UNL A   1      39.488  33.042  35.766  1.00  0.00     0.037 A 
ATOM     28  C   UNL A   1      41.187  28.626  31.252  1.00  0.00     0.049 A 
ATOM     29  C   UNL A   1      40.551  31.987  35.707  1.00  0.00     0.074 A 
ATOM     30  C   UNL A   1      42.221  27.707  31.317  1.00  0.00     0.029 A 
ATOM     31  N   UNL A   1      41.209  29.334  32.446  1.00  0.00    -0.354 N 
ATOM     32  N   UNL A   1      40.828  31.148  34.739  1.00  0.00    -0.248 NA
ATOM     33  C   UNL A   1      41.410  31.854  36.889  1.00  0.00     0.031 C 
ATOM     34  C   UNL A   1      42.844  27.835  32.563  1.00  0.00     0.029 A 
ATOM     35  C   UNL A   1      42.227  28.862  33.259  1.00  0.00     0.049 A 
ATOM     36  H   UNL A   1      40.591  30.064  32.680  1.00  0.00     0.167 HD
ATOM     37  C   UNL A   1      41.901  30.393  35.188  1.00  0.00     0.074 A 
ATOM     38  C   UNL A   1      42.238  30.892  36.506  1.00  0.00     0.031 C 
ATOM     39  C   UNL A   1      42.543  29.375  34.567  1.00  0.00     0.037 A 
BRANCH  26  40
ATOM     40  C   UNL A   1      40.320  27.955  28.981  1.00  0.00     0.064 A 
ATOM     41  C   UNL A   1      39.619  26.742  28.917  1.00  0.00     0.173 A 
ATOM     42  C   UNL A   1      41.064  28.341  27.854  1.00  0.00     0.173 A 
ATOM     43  F   UNL A   1      38.903  26.321  29.972  1.00  0.00    -0.203 F 
ATOM     44  C   UNL A   1      39.674  25.940  27.779  1.00  0.00     0.198 A 
ATOM     45  C   UNL A   1      41.097  27.549  26.709  1.00  0.00     0.198 A 
ATOM     46  F   UNL A   1      41.749  29.494  27.860  1.00  0.00    -0.203 F 
ATOM     47  F   UNL A   1      39.025  24.768  27.756  1.00  0.00    -0.200 F 
ATOM     48  C   UNL A   1      40.407  26.347  26.674  1.00  0.00     0.200 A 
ATOM     49  F   UNL A   1      41.798  27.949  25.639  1.00  0.00    -0.200 F 
ATOM     50  F   UNL A   1      40.452  25.578  25.578  1.00  0.00    -0.200 F 
ENDBRANCH  26  40
BRANCH  27  51
ATOM     51  C   UNL A   1      39.351  33.944  36.935  1.00  0.00     0.064 A 
ATOM     52  C   UNL A   1      38.631  33.545  38.069  1.00  0.00     0.173 A 
ATOM     53  C   UNL A   1      39.968  35.204  36.961  1.00  0.00     0.173 A 
ATOM     54  F   UNL A   1      38.013  32.355  38.084  1.00  0.00    -0.203 F 
ATOM     55  C   UNL A   1      38.527  34.375  39.182  1.00  0.00     0.198 A 
ATOM     56  C   UNL A   1      39.887  36.021  38.084  1.00  0.00     0.198 A 
ATOM     57  F   UNL A   1      40.676  35.626  35.902  1.00  0.00    -0.203 F 
ATOM     58  F   UNL A   1      37.808  33.983  40.242  1.00  0.00    -0.200 F 
ATOM     59  C   UNL A   1      39.161  35.609  39.192  1.00  0.00     0.200 A 
ATOM     60  F   UNL A   1      40.517  37.203  38.097  1.00  0.00    -0.200 F 
ATOM     61  F   UNL A   1      39.072  36.402  40.269  1.00  0.00    -0.200 F 
ENDBRANCH  27  51
BRANCH  39  62
ATOM     62  C   UNL A   1      43.690  28.754  35.306  1.00  0.00     0.064 A 
ATOM     63  C   UNL A   1      43.506  27.644  36.143  1.00  0.00     0.173 A 
ATOM     64  C   UNL A   1      44.986  29.272  35.169  1.00  0.00     0.173 A 
ATOM     65  F   UNL A   1      42.280  27.128  36.320  1.00  0.00    -0.203 F 
ATOM     66  C   UNL A   1      44.577  27.092  36.839  1.00  0.00     0.198 A 
ATOM     67  C   UNL A   1      46.058  28.701  35.847  1.00  0.00     0.198 A 
ATOM     68  F   UNL A   1      45.211  30.332  34.377  1.00  0.00    -0.203 F 
ATOM     69  F   UNL A   1      44.372  26.063  37.673  1.00  0.00    -0.200 F 
ATOM     70  C   UNL A   1      45.852  27.617  36.687  1.00  0.00     0.200 A 
ATOM     71  F   UNL A   1      47.290  29.205  35.693  1.00  0.00    -0.200 F 
ATOM     72  F   UNL A   1      46.881  27.086  37.361  1.00  0.00    -0.200 F 
ENDBRANCH  39  62
ENDBRANCH  13  14
ENDBRANCH   6   8
ENDBRANCH   3   4
ENDBRANCH   2   3
ENDBRANCH   1   2
BRANCH   1  73
ATOM     73  C   UNL A   1      32.439  29.881  25.477  1.00  0.00     0.116 C 
BRANCH  73  74
ATOM     74  N   UNL A   1      31.271  29.972  24.625  1.00  0.00    -0.356 N 
ATOM     75  C   UNL A   1      30.652  28.987  23.917  1.00  0.00     0.224 C 
ATOM     76  H   UNL A   1      30.871  30.867  24.547  1.00  0.00     0.163 HD
ATOM     77  O   UNL A   1      29.713  29.318  23.190  1.00  0.00    -0.275 OA
BRANCH  75  78
ATOM     78  C   UNL A   1      31.109  27.539  24.064  1.00  0.00     0.098 C 
ATOM     79  C   UNL A   1      29.951  26.690  24.628  1.00  0.00     0.017 C 
ATOM     80  C   UNL A   1      31.619  26.984  22.723  1.00  0.00     0.133 C 
ATOM     81  C   UNL A   1      30.270  25.203  24.574  1.00  0.00     0.022 C 
ATOM     82  N   UNL A   1      31.826  25.540  22.744  1.00  0.00    -0.342 N 
ATOM     83  C   UNL A   1      30.635  24.838  23.147  1.00  0.00     0.119 C 
BRANCH  82  84
ATOM     84  C   UNL A   1      33.054  25.011  22.389  1.00  0.00     0.226 C 
ATOM     85  O   UNL A   1      33.279  24.745  21.198  1.00  0.00    -0.275 OA
BRANCH  84  86
ATOM     86  C   UNL A   1      34.177  24.667  23.394  1.00  0.00     0.090 C 
ATOM     87  C   UNL A   1      34.858  23.333  23.119  1.00  0.00     0.075 C 
ATOM     88  C   UNL A   1      33.964  24.904  24.887  1.00  0.00     0.075 C 
ATOM     89  C   UNL A   1      34.144  22.179  23.794  1.00  0.00     0.263 C 
ATOM     90  C   UNL A   1      33.647  23.672  25.755  1.00  0.00     0.263 C 
ATOM     91  N   UNL A   1      33.992  22.349  25.234  1.00  0.00    -0.329 N 
ATOM     92  H   UNL A   1      34.966  22.273  25.530  1.00  0.00     0.348 HD
BRANCH  91  93
ATOM     93  C   UNL A   1      33.225  21.257  25.880  1.00  0.00     0.338 C 
BRANCH  93  94
ATOM     94  C   UNL A   1      33.321  19.904  25.232  1.00  0.00     0.157 A 
ATOM     95  C   UNL A   1      34.387  19.138  24.795  1.00  0.00     0.052 A 
ATOM     96  O   UNL A   1      32.153  19.229  25.003  1.00  0.00    -0.463 OA
ATOM     97  C   UNL A   1      33.843  17.949  24.251  1.00  0.00     0.042 A 
ATOM     98  C   UNL A   1      32.482  18.044  24.419  1.00  0.00     0.195 A 
ENDBRANCH  93  94
ENDBRANCH  91  93
ENDBRANCH  84  86
ENDBRANCH  82  84
ENDBRANCH  75  78
ENDBRANCH  73  74
ENDBRANCH   1  73
TORSDOF 15
ENDMDL
MODEL 2
REMARK VINA RESULT:     -13.4      0.971      2.281
REMARK SMILES O=C(NCCCCNC(=O)[C@H]1CCCN(C(=O)C2CC[NH+](Cc3ccco3)CC2)C1)c1ccc(-c2c3nc(c(-c4c(F)c(F)c(F)c(F)c4F)c4ccc([nH]4)c(-c4c(F)c(F)c(F)c(F)c4F)c4nc(c(-c5c(F)c(F)c(F)c(F)c5F)c5ccc2[nH]5)C=C4)C=C3)cc1
REMARK SMILES IDX 6 1 5 2 4 3 3 4 1 5 2 6 31 8 32 9 93 10 33 11 92 12 34 13
REMARK SMILES IDX 35 14 36 15 86 16 37 17 91 18 85 19 87 20 38 21 90 22 84 23
REMARK SMILES IDX 83 24 39 26 71 27 51 28 70 29 52 30 55 31 69 32 88 33 53 34
REMARK SMILES IDX 54 35 68 37 89 38 56 39 40 40 41 41 49 42 42 43 43 44 47 45
REMARK SMILES IDX 50 46 44 47 45 48 48 49 46 50 72 51 73 52 81 53 74 54 75 55
REMARK SMILES IDX 79 56 82 57 76 58 77 59 80 60 78 61 57 62 58 63 66 64 59 65
REMARK SMILES IDX 60 66 64 67 67 68 61 69 62 70 65 71 63 72 7 73 8 74 9 75
REMARK SMILES IDX 10 77 11 78 12 79 30 80 13 81 15 82 14 83 16 84 17 85 18 86
REMARK SMILES IDX 19 87 29 88 20 89 28 90 21 91 22 93 23 94 24 95 27 96 25 97
REMARK SMILES IDX 26 98
REMARK H PARENT 3 7 87 25 55 36 8 76 21 92
REMARK Flexibility Score: inf
ROOT
ATOM      1  C   UNL A   1      32.035  30.448  26.934  1.00  0.00     0.023 C 
ENDROOT
BRANCH   1   2
ATOM      2  C   UNL A   1      31.920  31.950  26.707  1.00  0.00     0.023 C 
BRANCH   2   3
ATOM      3  C   UNL A   1      32.927  32.776  27.479  1.00  0.00     0.116 C 
BRANCH   3   4
ATOM      4  N   UNL A   1      32.502  34.147  27.721  1.00  0.00    -0.352 N 
ATOM      5  O   UNL A   1      32.568  36.145  28.795  1.00  0.00    -0.269 OA
ATOM      6  C   UNL A   1      33.035  35.034  28.629  1.00  0.00     0.251 C 
ATOM      7  H   UNL A   1      31.752  34.476  27.175  1.00  0.00     0.163 HD
BRANCH   6   8
ATOM      8  C   UNL A   1      34.169  34.556  29.441  1.00  0.00     0.039 A 
ATOM      9  C   UNL A   1      35.466  34.658  28.937  1.00  0.00     0.014 A 
ATOM     10  C   UNL A   1      33.904  33.867  30.625  1.00  0.00     0.014 A 
ATOM     11  C   UNL A   1      36.478  33.925  29.532  1.00  0.00     0.010 A 
ATOM     12  C   UNL A   1      34.949  33.212  31.277  1.00  0.00     0.010 A 
ATOM     13  C   UNL A   1      36.232  33.200  30.711  1.00  0.00    -0.014 A 
BRANCH  13  14
ATOM     14  C   UNL A   1      37.353  32.469  31.347  1.00  0.00     0.031 A 
ATOM     15  C   UNL A   1      38.114  31.409  30.606  1.00  0.00     0.074 A 
ATOM     16  C   UNL A   1      37.703  32.818  32.599  1.00  0.00     0.049 A 
ATOM     17  N   UNL A   1      39.133  30.692  31.012  1.00  0.00    -0.248 NA
ATOM     18  C   UNL A   1      37.675  31.099  29.236  1.00  0.00     0.031 C 
ATOM     19  C   UNL A   1      37.023  33.833  33.408  1.00  0.00     0.029 A 
ATOM     20  N   UNL A   1      38.730  32.388  33.397  1.00  0.00    -0.354 N 
ATOM     21  C   UNL A   1      39.430  29.825  29.970  1.00  0.00     0.074 A 
ATOM     22  C   UNL A   1      38.481  30.097  28.912  1.00  0.00     0.031 C 
ATOM     23  C   UNL A   1      37.691  33.997  34.558  1.00  0.00     0.029 A 
ATOM     24  C   UNL A   1      38.800  33.052  34.595  1.00  0.00     0.049 A 
ATOM     25  H   UNL A   1      39.355  31.674  33.137  1.00  0.00     0.167 HD
ATOM     26  C   UNL A   1      40.407  28.888  29.909  1.00  0.00     0.037 A 
ATOM     27  C   UNL A   1      39.661  32.910  35.618  1.00  0.00     0.037 A 
ATOM     28  C   UNL A   1      41.370  28.655  30.955  1.00  0.00     0.049 A 
ATOM     29  C   UNL A   1      40.746  31.881  35.511  1.00  0.00     0.074 A 
ATOM     30  C   UNL A   1      42.424  27.758  30.976  1.00  0.00     0.029 A 
ATOM     31  N   UNL A   1      41.399  29.331  32.167  1.00  0.00    -0.354 N 
ATOM     32  N   UNL A   1      41.023  31.075  34.515  1.00  0.00    -0.248 NA
ATOM     33  C   UNL A   1      41.630  31.736  36.672  1.00  0.00     0.031 C 
ATOM     34  C   UNL A   1      43.069  27.867  32.213  1.00  0.00     0.029 A 
ATOM     35  C   UNL A   1      42.442  28.861  32.948  1.00  0.00     0.049 A 
ATOM     36  H   UNL A   1      40.770  30.041  32.432  1.00  0.00     0.167 HD
ATOM     37  C   UNL A   1      42.120  30.332  34.923  1.00  0.00     0.074 A 
ATOM     38  C   UNL A   1      42.471  30.803  36.249  1.00  0.00     0.031 C 
ATOM     39  C   UNL A   1      42.773  29.345  34.263  1.00  0.00     0.037 A 
BRANCH  26  40
ATOM     40  C   UNL A   1      40.474  28.025  28.683  1.00  0.00     0.064 A 
ATOM     41  C   UNL A   1      41.225  28.391  27.558  1.00  0.00     0.173 A 
ATOM     42  C   UNL A   1      39.812  26.787  28.655  1.00  0.00     0.173 A 
ATOM     43  F   UNL A   1      41.866  29.570  27.528  1.00  0.00    -0.203 F 
ATOM     44  C   UNL A   1      41.298  27.559  26.442  1.00  0.00     0.198 A 
ATOM     45  C   UNL A   1      39.907  25.947  27.549  1.00  0.00     0.198 A 
ATOM     46  F   UNL A   1      39.084  26.386  29.708  1.00  0.00    -0.203 F 
ATOM     47  F   UNL A   1      41.993  27.946  25.364  1.00  0.00    -0.200 F 
ATOM     48  C   UNL A   1      40.645  26.336  26.441  1.00  0.00     0.200 A 
ATOM     49  F   UNL A   1      39.282  24.760  27.554  1.00  0.00    -0.200 F 
ATOM     50  F   UNL A   1      40.722  25.534  25.371  1.00  0.00    -0.200 F 
ENDBRANCH  26  40
BRANCH  27  51
ATOM     51  C   UNL A   1      39.527  33.777  36.814  1.00  0.00     0.064 A 
ATOM     52  C   UNL A   1      40.113  35.050  36.847  1.00  0.00     0.173 A 
ATOM     53  C   UNL A   1      38.779  33.371  37.929  1.00  0.00     0.173 A 
ATOM     54  F   UNL A   1      40.848  35.475  35.809  1.00  0.00    -0.203 F 
ATOM     55  C   UNL A   1      39.962  35.880  37.955  1.00  0.00     0.198 A 
ATOM     56  C   UNL A   1      38.606  34.212  39.023  1.00  0.00     0.198 A 
ATOM     57  F   UNL A   1      38.191  32.165  37.939  1.00  0.00    -0.203 F 
ATOM     58  F   UNL A   1      40.558  37.080  37.974  1.00  0.00    -0.200 F 
ATOM     59  C   UNL A   1      39.202  35.464  39.039  1.00  0.00     0.200 A 
ATOM     60  F   UNL A   1      37.855  33.815  40.059  1.00  0.00    -0.200 F 
ATOM     61  F   UNL A   1      39.047  36.269  40.098  1.00  0.00    -0.200 F 
ENDBRANCH  27  51
BRANCH  39  62
ATOM     62  C   UNL A   1      43.946  28.731  34.964  1.00  0.00     0.064 A 
ATOM     63  C   UNL A   1      45.239  29.258  34.827  1.00  0.00     0.173 A 
ATOM     64  C   UNL A   1      43.773  27.610  35.788  1.00  0.00     0.173 A 
ATOM     65  F   UNL A   1      45.454  30.319  34.034  1.00  0.00    -0.203 F 
ATOM     66  C   UNL A   1      46.322  28.665  35.469  1.00  0.00     0.198 A 
ATOM     67  C   UNL A   1      44.855  27.035  36.447  1.00  0.00     0.198 A 
ATOM     68  F   UNL A   1      42.554  27.072  35.952  1.00  0.00    -0.203 F 
ATOM     69  F   UNL A   1      47.556  29.152  35.284  1.00  0.00    -0.200 F 
ATOM     70  C   UNL A   1      46.129  27.558  36.281  1.00  0.00     0.200 A 
ATOM     71  F   UNL A   1      44.665  25.969  37.238  1.00  0.00    -0.200 F 
ATOM     72  F   UNL A   1      47.173  26.985  36.895  1.00  0.00    -0.200 F 
ENDBRANCH  39  62
ENDBRANCH  13  14
ENDBRANCH   6   8
ENDBRANCH   3   4
ENDBRANCH   2   3
ENDBRANCH   1   2
BRANCH   1  73
ATOM     73  C   UNL A   1      33.209  29.773  26.218  1.00  0.00     0.116 C 
BRANCH  73  74
ATOM     74  N   UNL A   1      33.020  29.785  24.783  1.00  0.00    -0.356 N 
ATOM     75  C   UNL A   1      32.360  28.887  24.001  1.00  0.00     0.224 C 
ATOM     76  H   UNL A   1      33.422  30.547  24.307  1.00  0.00     0.163 HD
ATOM     77  O   UNL A   1      32.399  29.061  22.781  1.00  0.00    -0.275 OA
BRANCH  75  78
ATOM     78  C   UNL A   1      31.589  27.737  24.643  1.00  0.00     0.098 C 
ATOM     79  C   UNL A   1      30.263  27.522  23.886  1.00  0.00     0.017 C 
ATOM     80  C   UNL A   1      32.440  26.455  24.675  1.00  0.00     0.133 C 
ATOM     81  C   UNL A   1      29.567  26.244  24.330  1.00  0.00     0.022 C 
ATOM     82  N   UNL A   1      31.672  25.269  25.040  1.00  0.00    -0.342 N 
ATOM     83  C   UNL A   1      30.535  25.086  24.175  1.00  0.00     0.119 C 
BRANCH  82  84
ATOM     84  C   UNL A   1      32.080  24.478  26.098  1.00  0.00     0.226 C 
ATOM     85  O   UNL A   1      31.441  24.509  27.162  1.00  0.00    -0.275 OA
BRANCH  84  86
ATOM     86  C   UNL A   1      33.335  23.575  26.077  1.00  0.00     0.090 C 
ATOM     87  C   UNL A   1      33.900  23.343  24.682  1.00  0.00     0.075 C 
ATOM     88  C   UNL A   1      33.379  22.311  26.930  1.00  0.00     0.075 C 
ATOM     89  C   UNL A   1      33.252  22.157  23.995  1.00  0.00     0.263 C 
ATOM     90  C   UNL A   1      33.151  20.969  26.209  1.00  0.00     0.263 C 
ATOM     91  N   UNL A   1      33.345  20.919  24.759  1.00  0.00    -0.329 N 
ATOM     92  H   UNL A   1      34.349  20.747  24.705  1.00  0.00     0.348 HD
BRANCH  91  93
ATOM     93  C   UNL A   1      32.644  19.779  24.123  1.00  0.00     0.338 C 
BRANCH  93  94
ATOM     94  C   UNL A   1      33.058  18.407  24.577  1.00  0.00     0.157 A 
ATOM     95  C   UNL A   1      34.207  17.658  24.396  1.00  0.00     0.052 A 
ATOM     96  O   UNL A   1      32.169  17.697  25.336  1.00  0.00    -0.463 OA
ATOM     97  C   UNL A   1      33.999  16.422  25.055  1.00  0.00     0.042 A 
ATOM     98  C   UNL A   1      32.752  16.503  25.628  1.00  0.00     0.195 A 
ENDBRANCH  93  94
ENDBRANCH  91  93
ENDBRANCH  84  86
ENDBRANCH  82  84
ENDBRANCH  75  78
ENDBRANCH  73  74
ENDBRANCH   1  73
TORSDOF 15
ENDMDL
MODEL 3
REMARK VINA RESULT:     -13.3      0.513      7.261
REMARK SMILES O=C(NCCCCNC(=O)[C@H]1CCCN(C(=O)C2CC[NH+](Cc3ccco3)CC2)C1)c1ccc(-c2c3nc(c(-c4c(F)c(F)c(F)c(F)c4F)c4ccc([nH]4)c(-c4c(F)c(F)c(F)c(F)c4F)c4nc(c(-c5c(F)c(F)c(F)c(F)c5F)c5ccc2[nH]5)C=C4)C=C3)cc1
REMARK SMILES IDX 6 1 5 2 4 3 3 4 1 5 2 6 31 8 32 9 93 10 33 11 92 12 34 13
REMARK SMILES IDX 35 14 36 15 86 16 37 17 91 18 85 19 87 20 38 21 90 22 84 23
REMARK SMILES IDX 83 24 39 26 71 27 51 28 70 29 52 30 55 31 69 32 88 33 53 34
REMARK SMILES IDX 54 35 68 37 89 38 56 39 40 40 41 41 49 42 42 43 43 44 47 45
REMARK SMILES IDX 50 46 44 47 45 48 48 49 46 50 72 51 73 52 81 53 74 54 75 55
REMARK SMILES IDX 79 56 82 57 76 58 77 59 80 60 78 61 57 62 58 63 66 64 59 65
REMARK SMILES IDX 60 66 64 67 67 68 61 69 62 70 65 71 63 72 7 73 8 74 9 75
REMARK SMILES IDX 10 77 11 78 12 79 30 80 13 81 15 82 14 83 16 84 17 85 18 86
REMARK SMILES IDX 19 87 29 88 20 89 28 90 21 91 22 93 23 94 24 95 27 96 25 97
REMARK SMILES IDX 26 98
REMARK H PARENT 3 7 87 25 55 36 8 76 21 92
REMARK Flexibility Score: inf
ROOT
ATOM      1  C   UNL A   1      32.313  30.360  26.930  1.00  0.00     0.023 C 
ENDROOT
BRANCH   1   2
ATOM      2  C   UNL A   1      31.911  31.829  26.897  1.00  0.00     0.023 C 
BRANCH   2   3
ATOM      3  C   UNL A   1      32.966  32.775  27.430  1.00  0.00     0.116 C 
BRANCH   3   4
ATOM      4  N   UNL A   1      32.468  34.114  27.712  1.00  0.00    -0.352 N 
ATOM      5  O   UNL A   1      32.443  36.089  28.829  1.00  0.00    -0.269 OA
ATOM      6  C   UNL A   1      32.970  35.012  28.628  1.00  0.00     0.251 C 
ATOM      7  H   UNL A   1      31.686  34.409  27.192  1.00  0.00     0.163 HD
BRANCH   6   8
ATOM      8  C   UNL A   1      34.150  34.585  29.401  1.00  0.00     0.039 A 
ATOM      9  C   UNL A   1      35.420  34.692  28.833  1.00  0.00     0.014 A 
ATOM     10  C   UNL A   1      33.955  33.936  30.621  1.00  0.00     0.014 A 
ATOM     11  C   UNL A   1      36.473  34.000  29.405  1.00  0.00     0.010 A 
ATOM     12  C   UNL A   1      35.041  33.324  31.246  1.00  0.00     0.010 A 
ATOM     13  C   UNL A   1      36.297  33.314  30.620  1.00  0.00    -0.014 A 
BRANCH  13  14
ATOM     14  C   UNL A   1      37.461  32.629  31.228  1.00  0.00     0.031 A 
ATOM     15  C   UNL A   1      37.910  32.944  32.625  1.00  0.00     0.074 A 
ATOM     16  C   UNL A   1      38.078  31.674  30.508  1.00  0.00     0.049 A 
ATOM     17  N   UNL A   1      38.895  32.420  33.310  1.00  0.00    -0.248 NA
ATOM     18  C   UNL A   1      37.170  33.991  33.349  1.00  0.00     0.031 C 
ATOM     19  C   UNL A   1      37.722  31.295  29.138  1.00  0.00     0.029 A 
ATOM     20  N   UNL A   1      39.106  30.829  30.830  1.00  0.00    -0.354 N 
ATOM     21  C   UNL A   1      38.919  33.094  34.523  1.00  0.00     0.074 A 
ATOM     22  C   UNL A   1      37.854  34.074  34.482  1.00  0.00     0.031 C 
ATOM     23  C   UNL A   1      38.470  30.248  28.763  1.00  0.00     0.029 A 
ATOM     24  C   UNL A   1      39.402  29.930  29.838  1.00  0.00     0.049 A 
ATOM     25  H   UNL A   1      39.584  30.862  31.690  1.00  0.00     0.167 HD
ATOM     26  C   UNL A   1      39.757  32.909  35.571  1.00  0.00     0.037 A 
ATOM     27  C   UNL A   1      40.331  28.960  29.793  1.00  0.00     0.037 A 
ATOM     28  C   UNL A   1      40.788  31.903  35.615  1.00  0.00     0.049 A 
ATOM     29  C   UNL A   1      41.228  28.763  30.978  1.00  0.00     0.074 A 
ATOM     30  C   UNL A   1      41.664  31.606  36.645  1.00  0.00     0.029 A 
ATOM     31  N   UNL A   1      41.077  31.023  34.580  1.00  0.00    -0.354 N 
ATOM     32  N   UNL A   1      41.234  29.402  32.123  1.00  0.00    -0.248 NA
ATOM     33  C   UNL A   1      42.254  27.721  30.860  1.00  0.00     0.031 C 
ATOM     34  C   UNL A   1      42.505  30.571  36.220  1.00  0.00     0.029 A 
ATOM     35  C   UNL A   1      42.127  30.194  34.942  1.00  0.00     0.049 A 
ATOM     36  H   UNL A   1      40.604  30.993  33.717  1.00  0.00     0.167 HD
ATOM     37  C   UNL A   1      42.254  28.832  32.869  1.00  0.00     0.074 A 
ATOM     38  C   UNL A   1      42.829  27.781  32.052  1.00  0.00     0.031 C 
ATOM     39  C   UNL A   1      42.681  29.155  34.113  1.00  0.00     0.037 A 
BRANCH  26  40
ATOM     40  C   UNL A   1      39.616  33.825  36.751  1.00  0.00     0.064 A 
ATOM     41  C   UNL A   1      40.213  35.093  36.783  1.00  0.00     0.173 A 
ATOM     42  C   UNL A   1      38.826  33.445  37.849  1.00  0.00     0.173 A 
ATOM     43  F   UNL A   1      40.988  35.499  35.765  1.00  0.00    -0.203 F 
ATOM     44  C   UNL A   1      40.042  35.939  37.877  1.00  0.00     0.198 A 
ATOM     45  C   UNL A   1      38.638  34.303  38.930  1.00  0.00     0.198 A 
ATOM     46  F   UNL A   1      38.228  32.245  37.868  1.00  0.00    -0.203 F 
ATOM     47  F   UNL A   1      40.653  37.132  37.900  1.00  0.00    -0.200 F 
ATOM     48  C   UNL A   1      39.250  35.547  38.945  1.00  0.00     0.200 A 
ATOM     49  F   UNL A   1      37.863  33.926  39.957  1.00  0.00    -0.200 F 
ATOM     50  F   UNL A   1      39.080  36.366  39.992  1.00  0.00    -0.200 F 
ENDBRANCH  26  40
BRANCH  27  51
ATOM     51  C   UNL A   1      40.437  28.103  28.587  1.00  0.00     0.064 A 
ATOM     52  C   UNL A   1      41.216  28.499  27.491  1.00  0.00     0.173 A 
ATOM     53  C   UNL A   1      39.798  26.856  28.520  1.00  0.00     0.173 A 
ATOM     54  F   UNL A   1      41.834  29.689  27.505  1.00  0.00    -0.203 F 
ATOM     55  C   UNL A   1      41.345  27.683  26.369  1.00  0.00     0.198 A 
ATOM     56  C   UNL A   1      39.950  26.029  27.411  1.00  0.00     0.198 A 
ATOM     57  F   UNL A   1      39.050  26.429  29.548  1.00  0.00    -0.203 F 
ATOM     58  F   UNL A   1      42.070  28.098  25.323  1.00  0.00    -0.200 F 
ATOM     59  C   UNL A   1      40.718  26.446  26.333  1.00  0.00     0.200 A 
ATOM     60  F   UNL A   1      39.360  24.827  27.388  1.00  0.00    -0.200 F 
ATOM     61  F   UNL A   1      40.854  25.655  25.260  1.00  0.00    -0.200 F 
ENDBRANCH  27  51
BRANCH  39  62
ATOM     62  C   UNL A   1      43.810  28.341  34.668  1.00  0.00     0.064 A 
ATOM     63  C   UNL A   1      43.577  27.150  35.371  1.00  0.00     0.173 A 
ATOM     64  C   UNL A   1      45.138  28.753  34.486  1.00  0.00     0.173 A 
ATOM     65  F   UNL A   1      42.322  26.727  35.586  1.00  0.00    -0.203 F 
ATOM     66  C   UNL A   1      44.635  26.415  35.898  1.00  0.00     0.198 A 
ATOM     67  C   UNL A   1      46.194  28.002  34.993  1.00  0.00     0.198 A 
ATOM     68  F   UNL A   1      45.410  29.884  33.817  1.00  0.00    -0.203 F 
ATOM     69  F   UNL A   1      44.390  25.308  36.611  1.00  0.00    -0.200 F 
ATOM     70  C   UNL A   1      45.942  26.839  35.704  1.00  0.00     0.200 A 
ATOM     71  F   UNL A   1      47.456  28.409  34.799  1.00  0.00    -0.200 F 
ATOM     72  F   UNL A   1      46.959  26.132  36.216  1.00  0.00    -0.200 F 
ENDBRANCH  39  62
ENDBRANCH  13  14
ENDBRANCH   6   8
ENDBRANCH   3   4
ENDBRANCH   2   3
ENDBRANCH   1   2
BRANCH   1  73
ATOM     73  C   UNL A   1      32.690  29.762  25.571  1.00  0.00     0.116 C 
BRANCH  73  74
ATOM     74  N   UNL A   1      31.604  29.898  24.622  1.00  0.00    -0.356 N 
ATOM     75  C   UNL A   1      30.981  28.931  23.894  1.00  0.00     0.224 C 
ATOM     76  H   UNL A   1      31.271  30.813  24.486  1.00  0.00     0.163 HD
ATOM     77  O   UNL A   1      30.128  29.295  23.082  1.00  0.00    -0.275 OA
BRANCH  75  78
ATOM     78  C   UNL A   1      31.328  27.462  24.120  1.00  0.00     0.098 C 
ATOM     79  C   UNL A   1      30.063  26.698  24.561  1.00  0.00     0.017 C 
ATOM     80  C   UNL A   1      31.953  26.845  22.857  1.00  0.00     0.133 C 
ATOM     81  C   UNL A   1      30.294  25.194  24.572  1.00  0.00     0.022 C 
ATOM     82  N   UNL A   1      32.067  25.392  22.928  1.00  0.00    -0.342 N 
ATOM     83  C   UNL A   1      30.797  24.772  23.203  1.00  0.00     0.119 C 
BRANCH  82  84
ATOM     84  C   UNL A   1      33.292  24.783  22.727  1.00  0.00     0.226 C 
ATOM     85  O   UNL A   1      33.565  24.321  21.607  1.00  0.00    -0.275 OA
BRANCH  84  86
ATOM     86  C   UNL A   1      34.355  24.579  23.831  1.00  0.00     0.090 C 
ATOM     87  C   UNL A   1      35.232  23.352  23.618  1.00  0.00     0.075 C 
ATOM     88  C   UNL A   1      33.976  24.765  25.297  1.00  0.00     0.075 C 
ATOM     89  C   UNL A   1      34.622  22.103  24.222  1.00  0.00     0.263 C 
ATOM     90  C   UNL A   1      33.751  23.489  26.131  1.00  0.00     0.263 C 
ATOM     91  N   UNL A   1      34.318  22.232  25.642  1.00  0.00    -0.329 N 
ATOM     92  H   UNL A   1      35.261  22.283  26.027  1.00  0.00     0.348 HD
BRANCH  91  93
ATOM     93  C   UNL A   1      33.650  21.038  26.213  1.00  0.00     0.338 C 
BRANCH  93  94
ATOM     94  C   UNL A   1      33.471  19.869  25.285  1.00  0.00     0.157 A 
ATOM     95  C   UNL A   1      34.360  19.006  24.670  1.00  0.00     0.052 A 
ATOM     96  O   UNL A   1      32.193  19.524  24.942  1.00  0.00    -0.463 OA
ATOM     97  C   UNL A   1      33.589  18.108  23.894  1.00  0.00     0.042 A 
ATOM     98  C   UNL A   1      32.276  18.452  24.108  1.00  0.00     0.195 A 
ENDBRANCH  93  94
ENDBRANCH  91  93
ENDBRANCH  84  86
ENDBRANCH  82  84
ENDBRANCH  75  78
ENDBRANCH  73  74
ENDBRANCH   1  73
TORSDOF 15
ENDMDL
