MODEL 1
REMARK VINA RESULT:     -13.5      0.000      0.000
REMARK SMILES O=C(NCCCCNC(=O)[C@H](CO)NC(=O)[C@H](Cc1c[nH]c2ccccc12)NC(=O)[C@H](Cc1ccc(O)cc1)NC(=O)c1ccc(F)cc1)c1ccc(-c2c3nc(c(-c4c(F)c(F)c(F)c(F)c4F)c4ccc([nH]4)c(-c4c(F)c(F)c(F)c(F)c4F)c4nc(c(-c5c(F)c(F)c(F)c(F)c5F)c5ccc2[nH]5)C=C4)C=C3)cc1
REMARK SMILES IDX 8 1 9 2 10 3 7 5 6 6 5 7 4 8 3 9 1 10 2 11 50 13 51 14
REMARK SMILES IDX 112 15 52 16 111 17 53 18 54 19 55 20 105 21 56 22 110 23
REMARK SMILES IDX 104 24 106 25 57 26 109 27 103 28 102 29 58 31 90 32 70 33
REMARK SMILES IDX 89 34 71 35 74 36 88 37 107 38 72 39 73 40 87 42 108 43
REMARK SMILES IDX 75 44 59 45 60 46 68 47 61 48 62 49 66 50 69 51 63 52 64 53
REMARK SMILES IDX 67 54 65 55 91 56 92 57 100 58 93 59 94 60 98 61 101 62
REMARK SMILES IDX 95 63 96 64 99 65 97 66 76 67 77 68 85 69 78 70 79 71 83 72
REMARK SMILES IDX 86 73 80 74 81 75 84 76 82 77 11 78 14 79 15 80 16 82 17 83
REMARK SMILES IDX 28 84 29 85 30 87 31 88 40 89 41 90 42 92 43 93 44 94 49 95
REMARK SMILES IDX 45 96 48 97 46 98 47 99 32 100 33 101 34 102 39 103 35 104
REMARK SMILES IDX 38 105 36 106 37 107 18 109 19 110 20 111 27 112 21 113
REMARK SMILES IDX 22 114 26 115 23 117 25 118 24 119 12 120 13 121
REMARK H PARENT 8 4 3 12 106 30 74 41 14 81 28 86 40 91 37 108 21 116 13 122
REMARK Flexibility Score: inf
ROOT
ATOM      1  N   UNL A   1      38.513  23.011  25.384  1.00  0.00    -0.354 N 
ATOM      2  C   UNL A   1      37.302  22.472  25.030  1.00  0.00     0.244 C 
ATOM      3  O   UNL A   1      36.761  22.949  24.024  1.00  0.00    -0.273 OA
ATOM      4  H   UNL A   1      38.891  23.736  24.834  1.00  0.00     0.163 HD
ENDROOT
BRANCH   1   5
ATOM      5  C   UNL A   1      39.243  22.560  26.516  1.00  0.00     0.116 C 
BRANCH   5   6
ATOM      6  C   UNL A   1      40.667  22.076  26.380  1.00  0.00     0.023 C 
BRANCH   6   7
ATOM      7  C   UNL A   1      40.834  20.597  26.156  1.00  0.00     0.023 C 
BRANCH   7   8
ATOM      8  C   UNL A   1      42.164  20.016  26.602  1.00  0.00     0.116 C 
BRANCH   8   9
ATOM      9  N   UNL A   1      42.892  19.240  25.600  1.00  0.00    -0.352 N 
ATOM     10  O   UNL A   1      44.493  18.870  24.023  1.00  0.00    -0.269 OA
ATOM     11  C   UNL A   1      43.978  19.626  24.836  1.00  0.00     0.251 C 
ATOM     12  H   UNL A   1      42.567  18.323  25.450  1.00  0.00     0.163 HD
BRANCH  11  13
ATOM     13  C   UNL A   1      44.459  21.012  24.989  1.00  0.00     0.039 A 
ATOM     14  C   UNL A   1      45.273  21.314  26.076  1.00  0.00     0.014 A 
ATOM     15  C   UNL A   1      43.903  22.024  24.205  1.00  0.00     0.014 A 
ATOM     16  C   UNL A   1      45.258  22.608  26.566  1.00  0.00     0.010 A 
ATOM     17  C   UNL A   1      44.068  23.354  24.595  1.00  0.00     0.010 A 
ATOM     18  C   UNL A   1      44.695  23.653  25.813  1.00  0.00    -0.014 A 
BRANCH  18  19
ATOM     19  C   UNL A   1      44.874  25.048  26.291  1.00  0.00     0.031 A 
ATOM     20  C   UNL A   1      43.742  25.848  26.876  1.00  0.00     0.074 A 
ATOM     21  C   UNL A   1      46.113  25.574  26.215  1.00  0.00     0.049 A 
ATOM     22  N   UNL A   1      43.752  27.088  27.301  1.00  0.00    -0.248 NA
ATOM     23  C   UNL A   1      42.431  25.189  26.998  1.00  0.00     0.031 C 
ATOM     24  C   UNL A   1      47.287  24.879  25.673  1.00  0.00     0.029 A 
ATOM     25  N   UNL A   1      46.609  26.787  26.612  1.00  0.00    -0.354 N 
ATOM     26  C   UNL A   1      42.456  27.364  27.719  1.00  0.00     0.074 A 
ATOM     27  C   UNL A   1      41.673  26.171  27.472  1.00  0.00     0.031 C 
ATOM     28  C   UNL A   1      48.372  25.640  25.847  1.00  0.00     0.029 A 
ATOM     29  C   UNL A   1      47.957  26.921  26.391  1.00  0.00     0.049 A 
ATOM     30  H   UNL A   1      46.052  27.492  27.015  1.00  0.00     0.167 HD
ATOM     31  C   UNL A   1      41.978  28.508  28.265  1.00  0.00     0.037 A 
ATOM     32  C   UNL A   1      48.773  27.975  26.563  1.00  0.00     0.037 A 
ATOM     33  C   UNL A   1      42.779  29.682  28.511  1.00  0.00     0.049 A 
ATOM     34  C   UNL A   1      48.192  29.247  27.095  1.00  0.00     0.074 A 
ATOM     35  C   UNL A   1      42.389  30.887  29.069  1.00  0.00     0.029 A 
ATOM     36  N   UNL A   1      44.129  29.800  28.213  1.00  0.00    -0.354 N 
ATOM     37  N   UNL A   1      46.967  29.492  27.490  1.00  0.00    -0.248 NA
ATOM     38  C   UNL A   1      49.102  30.394  27.197  1.00  0.00     0.031 C 
ATOM     39  C   UNL A   1      43.482  31.754  29.049  1.00  0.00     0.029 A 
ATOM     40  C   UNL A   1      44.579  31.068  28.552  1.00  0.00     0.049 A 
ATOM     41  H   UNL A   1      44.686  29.090  27.820  1.00  0.00     0.167 HD
ATOM     42  C   UNL A   1      46.963  30.811  27.916  1.00  0.00     0.074 A 
ATOM     43  C   UNL A   1      48.314  31.307  27.748  1.00  0.00     0.031 C 
ATOM     44  C   UNL A   1      45.930  31.543  28.396  1.00  0.00     0.037 A 
BRANCH  31  45
ATOM     45  C   UNL A   1      40.523  28.571  28.643  1.00  0.00     0.064 A 
ATOM     46  C   UNL A   1      39.572  29.064  27.735  1.00  0.00     0.173 A 
ATOM     47  C   UNL A   1      40.088  28.267  29.942  1.00  0.00     0.173 A 
ATOM     48  F   UNL A   1      39.933  29.381  26.482  1.00  0.00    -0.203 F 
ATOM     49  C   UNL A   1      38.250  29.276  28.120  1.00  0.00     0.198 A 
ATOM     50  C   UNL A   1      38.758  28.451  30.315  1.00  0.00     0.198 A 
ATOM     51  F   UNL A   1      40.952  27.787  30.848  1.00  0.00    -0.203 F 
ATOM     52  F   UNL A   1      37.374  29.797  27.249  1.00  0.00    -0.200 F 
ATOM     53  C   UNL A   1      37.844  28.968  29.409  1.00  0.00     0.200 A 
ATOM     54  F   UNL A   1      38.362  28.134  31.556  1.00  0.00    -0.200 F 
ATOM     55  F   UNL A   1      36.572  29.175  29.780  1.00  0.00    -0.200 F 
ENDBRANCH  31  45
BRANCH  32  56
ATOM     56  C   UNL A   1      50.213  27.855  26.217  1.00  0.00     0.064 A 
ATOM     57  C   UNL A   1      50.657  27.916  24.885  1.00  0.00     0.173 A 
ATOM     58  C   UNL A   1      51.173  27.642  27.213  1.00  0.00     0.173 A 
ATOM     59  F   UNL A   1      49.777  28.102  23.890  1.00  0.00    -0.203 F 
ATOM     60  C   UNL A   1      52.000  27.743  24.565  1.00  0.00     0.198 A 
ATOM     61  C   UNL A   1      52.522  27.512  26.896  1.00  0.00     0.198 A 
ATOM     62  F   UNL A   1      50.799  27.584  28.501  1.00  0.00    -0.203 F 
ATOM     63  F   UNL A   1      52.389  27.754  23.283  1.00  0.00    -0.200 F 
ATOM     64  C   UNL A   1      52.934  27.553  25.571  1.00  0.00     0.200 A 
ATOM     65  F   UNL A   1      53.424  27.355  27.874  1.00  0.00    -0.200 F 
ATOM     66  F   UNL A   1      54.231  27.413  25.267  1.00  0.00    -0.200 F 
ENDBRANCH  32  56
BRANCH  44  67
ATOM     67  C   UNL A   1      46.222  32.953  28.822  1.00  0.00     0.064 A 
ATOM     68  C   UNL A   1      46.581  33.229  30.150  1.00  0.00     0.173 A 
ATOM     69  C   UNL A   1      46.075  34.035  27.942  1.00  0.00     0.173 A 
ATOM     70  F   UNL A   1      46.730  32.231  31.033  1.00  0.00    -0.203 F 
ATOM     71  C   UNL A   1      46.760  34.538  30.587  1.00  0.00     0.198 A 
ATOM     72  C   UNL A   1      46.294  35.341  28.372  1.00  0.00     0.198 A 
ATOM     73  F   UNL A   1      45.750  33.823  26.657  1.00  0.00    -0.203 F 
ATOM     74  F   UNL A   1      47.055  34.780  31.871  1.00  0.00    -0.200 F 
ATOM     75  C   UNL A   1      46.622  35.593  29.696  1.00  0.00     0.200 A 
ATOM     76  F   UNL A   1      46.192  36.355  27.503  1.00  0.00    -0.200 F 
ATOM     77  F   UNL A   1      46.807  36.852  30.114  1.00  0.00    -0.200 F 
ENDBRANCH  44  67
ENDBRANCH  18  19
ENDBRANCH  11  13
ENDBRANCH   8   9
ENDBRANCH   7   8
ENDBRANCH   6   7
ENDBRANCH   5   6
ENDBRANCH   1   5
BRANCH   2  78
ATOM     78  C   UNL A   1      36.789  21.141  25.698  1.00  0.00     0.197 C 
BRANCH  78  79
ATOM     79  N   UNL A   1      35.068  21.024  26.183  1.00  0.00    -0.340 N 
ATOM     80  C   UNL A   1      33.374  21.987  25.800  1.00  0.00     0.243 C 
ATOM     81  H   UNL A   1      34.922  20.279  26.810  1.00  0.00     0.164 HD
ATOM     82  O   UNL A   1      32.351  22.189  26.527  1.00  0.00    -0.273 OA
BRANCH  80  83
ATOM     83  C   UNL A   1      32.902  22.689  24.113  1.00  0.00     0.175 C 
BRANCH  83  84
ATOM     84  N   UNL A   1      34.025  23.615  23.865  1.00  0.00    -0.342 N 
ATOM     85  C   UNL A   1      33.866  24.993  23.902  1.00  0.00     0.243 C 
ATOM     86  H   UNL A   1      34.915  23.242  23.669  1.00  0.00     0.164 HD
ATOM     87  O   UNL A   1      34.849  25.717  24.073  1.00  0.00    -0.273 OA
BRANCH  85  88
ATOM     88  C   UNL A   1      32.455  25.617  23.674  1.00  0.00     0.176 C 
BRANCH  88  89
ATOM     89  N   UNL A   1      31.682  25.410  24.935  1.00  0.00    -0.340 N 
ATOM     90  C   UNL A   1      31.483  26.157  26.061  1.00  0.00     0.251 C 
ATOM     91  H   UNL A   1      31.215  24.545  24.961  1.00  0.00     0.164 HD
ATOM     92  O   UNL A   1      30.753  25.698  26.938  1.00  0.00    -0.269 OA
BRANCH  90  93
ATOM     93  C   UNL A   1      32.165  27.443  26.293  1.00  0.00     0.040 A 
ATOM     94  C   UNL A   1      31.498  28.669  26.230  1.00  0.00     0.017 A 
ATOM     95  C   UNL A   1      33.525  27.399  26.636  1.00  0.00     0.017 A 
ATOM     96  C   UNL A   1      32.218  29.855  26.388  1.00  0.00     0.040 A 
ATOM     97  C   UNL A   1      34.236  28.585  26.816  1.00  0.00     0.040 A 
ATOM     98  C   UNL A   1      33.581  29.802  26.663  1.00  0.00     0.123 A 
ATOM     99  F   UNL A   1      34.272  30.940  26.791  1.00  0.00    -0.207 F 
ENDBRANCH  90  93
ENDBRANCH  88  89
BRANCH  88 100
ATOM    100  C   UNL A   1      32.366  27.084  23.107  1.00  0.00     0.070 C 
BRANCH 100 101
ATOM    101  C   UNL A   1      31.041  27.711  22.648  1.00  0.00    -0.045 A 
ATOM    102  C   UNL A   1      29.497  26.936  23.234  1.00  0.00     0.007 A 
ATOM    103  C   UNL A   1      30.983  29.385  22.006  1.00  0.00     0.007 A 
ATOM    104  C   UNL A   1      27.960  27.968  23.453  1.00  0.00     0.046 A 
ATOM    105  C   UNL A   1      29.450  30.349  22.034  1.00  0.00     0.046 A 
ATOM    106  C   UNL A   1      27.968  29.657  22.787  1.00  0.00     0.115 A 
BRANCH 106 107
ATOM    107  O   UNL A   1      26.844  30.420  22.796  1.00  0.00    -0.508 OA
ATOM    108  H   UNL A   1      26.727  31.092  22.153  1.00  0.00     0.293 HD
ENDBRANCH 106 107
ENDBRANCH 100 101
ENDBRANCH  88 100
ENDBRANCH  85  88
ENDBRANCH  83  84
BRANCH  83 109
ATOM    109  C   UNL A   1      32.272  21.970  22.833  1.00  0.00     0.072 C 
BRANCH 109 110
ATOM    110  C   UNL A   1      32.130  20.377  22.727  1.00  0.00    -0.020 A 
ATOM    111  C   UNL A   1      31.926  19.770  21.492  1.00  0.00     0.087 A 
ATOM    112  C   UNL A   1      32.305  19.223  23.658  1.00  0.00     0.003 A 
ATOM    113  N   UNL A   1      32.252  18.441  21.576  1.00  0.00    -0.361 N 
ATOM    114  C   UNL A   1      32.647  18.128  22.850  1.00  0.00     0.046 A 
ATOM    115  C   UNL A   1      32.481  19.019  25.065  1.00  0.00     0.010 A 
ATOM    116  H   UNL A   1      32.207  17.803  20.827  1.00  0.00     0.166 HD
ATOM    117  C   UNL A   1      33.311  16.977  23.315  1.00  0.00     0.026 A 
ATOM    118  C   UNL A   1      33.215  17.900  25.534  1.00  0.00     0.001 A 
ATOM    119  C   UNL A   1      33.654  16.911  24.663  1.00  0.00     0.002 A 
ENDBRANCH 109 110
ENDBRANCH  83 109
ENDBRANCH  80  83
ENDBRANCH  78  79
BRANCH  78 120
ATOM    120  C   UNL A   1      37.304  19.968  24.758  1.00  0.00     0.191 C 
BRANCH 120 121
ATOM    121  O   UNL A   1      36.669  18.710  25.044  1.00  0.00    -0.394 OA
ATOM    122  H   UNL A   1      36.288  18.736  25.935  1.00  0.00     0.210 HD
ENDBRANCH 120 121
ENDBRANCH  78 120
ENDBRANCH   2  78
TORSDOF 24
ENDMDL
MODEL 2
REMARK VINA RESULT:     -13.4      5.872     11.866
REMARK SMILES O=C(NCCCCNC(=O)[C@H](CO)NC(=O)[C@H](Cc1c[nH]c2ccccc12)NC(=O)[C@H](Cc1ccc(O)cc1)NC(=O)c1ccc(F)cc1)c1ccc(-c2c3nc(c(-c4c(F)c(F)c(F)c(F)c4F)c4ccc([nH]4)c(-c4c(F)c(F)c(F)c(F)c4F)c4nc(c(-c5c(F)c(F)c(F)c(F)c5F)c5ccc2[nH]5)C=C4)C=C3)cc1
REMARK SMILES IDX 8 1 9 2 10 3 7 5 6 6 5 7 4 8 3 9 1 10 2 11 50 13 51 14
REMARK SMILES IDX 112 15 52 16 111 17 53 18 54 19 55 20 105 21 56 22 110 23
REMARK SMILES IDX 104 24 106 25 57 26 109 27 103 28 102 29 58 31 90 32 70 33
REMARK SMILES IDX 89 34 71 35 74 36 88 37 107 38 72 39 73 40 87 42 108 43
REMARK SMILES IDX 75 44 59 45 60 46 68 47 61 48 62 49 66 50 69 51 63 52 64 53
REMARK SMILES IDX 67 54 65 55 91 56 92 57 100 58 93 59 94 60 98 61 101 62
REMARK SMILES IDX 95 63 96 64 99 65 97 66 76 67 77 68 85 69 78 70 79 71 83 72
REMARK SMILES IDX 86 73 80 74 81 75 84 76 82 77 11 78 14 79 15 80 16 82 17 83
REMARK SMILES IDX 28 84 29 85 30 87 31 88 40 89 41 90 42 92 43 93 44 94 49 95
REMARK SMILES IDX 45 96 48 97 46 98 47 99 32 100 33 101 34 102 39 103 35 104
REMARK SMILES IDX 38 105 36 106 37 107 18 109 19 110 20 111 27 112 21 113
REMARK SMILES IDX 22 114 26 115 23 117 25 118 24 119 12 120 13 121
REMARK H PARENT 8 4 3 12 106 30 74 41 14 81 28 86 40 91 37 108 21 116 13 122
REMARK Flexibility Score: inf
ROOT
ATOM      1  N   UNL A   1      32.934  31.631  27.145  1.00  0.00    -0.354 N 
ATOM      2  C   UNL A   1      32.363  30.480  26.663  1.00  0.00     0.244 C 
ATOM      3  O   UNL A   1      31.402  30.622  25.896  1.00  0.00    -0.273 OA
ATOM      4  H   UNL A   1      32.563  32.499  26.865  1.00  0.00     0.163 HD
ENDROOT
BRANCH   1   5
ATOM      5  C   UNL A   1      34.042  31.615  28.033  1.00  0.00     0.116 C 
BRANCH   5   6
ATOM      6  C   UNL A   1      34.395  32.830  28.858  1.00  0.00     0.023 C 
BRANCH   6   7
ATOM      7  C   UNL A   1      33.542  34.049  28.620  1.00  0.00     0.023 C 
BRANCH   7   8
ATOM      8  C   UNL A   1      33.899  35.266  29.455  1.00  0.00     0.116 C 
BRANCH   8   9
ATOM      9  N   UNL A   1      32.829  35.799  30.296  1.00  0.00    -0.352 N 
ATOM     10  O   UNL A   1      31.774  36.276  32.258  1.00  0.00    -0.269 OA
ATOM     11  C   UNL A   1      32.736  35.793  31.677  1.00  0.00     0.251 C 
ATOM     12  H   UNL A   1      32.077  36.219  29.819  1.00  0.00     0.163 HD
BRANCH  11  13
ATOM     13  C   UNL A   1      33.815  35.121  32.427  1.00  0.00     0.039 A 
ATOM     14  C   UNL A   1      35.055  35.746  32.505  1.00  0.00     0.014 A 
ATOM     15  C   UNL A   1      33.652  33.793  32.823  1.00  0.00     0.014 A 
ATOM     16  C   UNL A   1      36.178  34.954  32.663  1.00  0.00     0.010 A 
ATOM     17  C   UNL A   1      34.778  33.049  33.183  1.00  0.00     0.010 A 
ATOM     18  C   UNL A   1      36.058  33.607  33.047  1.00  0.00    -0.014 A 
BRANCH  18  19
ATOM     19  C   UNL A   1      37.291  32.854  33.390  1.00  0.00     0.031 A 
ATOM     20  C   UNL A   1      37.883  31.821  32.471  1.00  0.00     0.074 A 
ATOM     21  C   UNL A   1      37.894  33.155  34.559  1.00  0.00     0.049 A 
ATOM     22  N   UNL A   1      38.937  31.066  32.662  1.00  0.00    -0.248 NA
ATOM     23  C   UNL A   1      37.216  31.593  31.178  1.00  0.00     0.031 C 
ATOM     24  C   UNL A   1      37.409  34.149  35.522  1.00  0.00     0.029 A 
ATOM     25  N   UNL A   1      39.049  32.689  35.128  1.00  0.00    -0.354 N 
ATOM     26  C   UNL A   1      39.048  30.264  31.532  1.00  0.00     0.074 A 
ATOM     27  C   UNL A   1      37.938  30.603  30.668  1.00  0.00     0.031 C 
ATOM     28  C   UNL A   1      38.295  34.277  36.514  1.00  0.00     0.029 A 
ATOM     29  C   UNL A   1      39.343  33.289  36.327  1.00  0.00     0.049 A 
ATOM     30  H   UNL A   1      39.612  31.992  34.717  1.00  0.00     0.167 HD
ATOM     31  C   UNL A   1      39.999  29.341  31.251  1.00  0.00     0.037 A 
ATOM     32  C   UNL A   1      40.325  33.045  37.212  1.00  0.00     0.037 A 
ATOM     33  C   UNL A   1      41.103  29.026  32.124  1.00  0.00     0.049 A 
ATOM     34  C   UNL A   1      41.312  31.963  36.902  1.00  0.00     0.074 A 
ATOM     35  C   UNL A   1      42.124  28.114  31.923  1.00  0.00     0.029 A 
ATOM     36  N   UNL A   1      41.331  29.612  33.361  1.00  0.00    -0.354 N 
ATOM     37  N   UNL A   1      41.408  31.217  35.829  1.00  0.00    -0.248 NA
ATOM     38  C   UNL A   1      42.322  31.680  37.928  1.00  0.00     0.031 C 
ATOM     39  C   UNL A   1      42.930  28.099  33.063  1.00  0.00     0.029 A 
ATOM     40  C   UNL A   1      42.461  29.059  33.945  1.00  0.00     0.049 A 
ATOM     41  H   UNL A   1      40.773  30.316  33.765  1.00  0.00     0.167 HD
ATOM     42  C   UNL A   1      42.505  30.396  36.035  1.00  0.00     0.074 A 
ATOM     43  C   UNL A   1      43.053  30.750  37.328  1.00  0.00     0.031 C 
ATOM     44  C   UNL A   1      43.006  29.433  35.226  1.00  0.00     0.037 A 
BRANCH  31  45
ATOM     45  C   UNL A   1      39.910  28.591  29.950  1.00  0.00     0.064 A 
ATOM     46  C   UNL A   1      39.348  27.304  29.907  1.00  0.00     0.173 A 
ATOM     47  C   UNL A   1      40.494  29.087  28.775  1.00  0.00     0.173 A 
ATOM     48  F   UNL A   1      38.785  26.775  31.004  1.00  0.00    -0.203 F 
ATOM     49  C   UNL A   1      39.398  26.535  28.747  1.00  0.00     0.198 A 
ATOM     50  C   UNL A   1      40.515  28.326  27.607  1.00  0.00     0.198 A 
ATOM     51  F   UNL A   1      41.040  30.311  28.757  1.00  0.00    -0.203 F 
ATOM     52  F   UNL A   1      38.901  25.290  28.748  1.00  0.00    -0.200 F 
ATOM     53  C   UNL A   1      39.981  27.045  27.598  1.00  0.00     0.200 A 
ATOM     54  F   UNL A   1      41.060  28.829  26.491  1.00  0.00    -0.200 F 
ATOM     55  F   UNL A   1      40.031  26.303  26.483  1.00  0.00    -0.200 F 
ENDBRANCH  31  45
BRANCH  32  56
ATOM     56  C   UNL A   1      40.401  33.839  38.464  1.00  0.00     0.064 A 
ATOM     57  C   UNL A   1      41.226  34.972  38.568  1.00  0.00     0.173 A 
ATOM     58  C   UNL A   1      39.674  33.459  39.599  1.00  0.00     0.173 A 
ATOM     59  F   UNL A   1      41.957  35.371  37.516  1.00  0.00    -0.203 F 
ATOM     60  C   UNL A   1      41.338  35.675  39.763  1.00  0.00     0.198 A 
ATOM     61  C   UNL A   1      39.754  34.188  40.782  1.00  0.00     0.198 A 
ATOM     62  F   UNL A   1      38.866  32.388  39.547  1.00  0.00    -0.203 F 
ATOM     63  F   UNL A   1      42.172  36.720  39.849  1.00  0.00    -0.200 F 
ATOM     64  C   UNL A   1      40.592  35.291  40.866  1.00  0.00     0.200 A 
ATOM     65  F   UNL A   1      39.011  33.828  41.838  1.00  0.00    -0.200 F 
ATOM     66  F   UNL A   1      40.679  35.982  42.010  1.00  0.00    -0.200 F 
ENDBRANCH  32  56
BRANCH  44  67
ATOM     67  C   UNL A   1      44.241  28.715  35.689  1.00  0.00     0.064 A 
ATOM     68  C   UNL A   1      44.134  27.606  36.543  1.00  0.00     0.173 A 
ATOM     69  C   UNL A   1      45.526  29.165  35.354  1.00  0.00     0.173 A 
ATOM     70  F   UNL A   1      42.928  27.138  36.898  1.00  0.00    -0.203 F 
ATOM     71  C   UNL A   1      45.268  26.988  37.060  1.00  0.00     0.198 A 
ATOM     72  C   UNL A   1      46.659  28.521  35.842  1.00  0.00     0.198 A 
ATOM     73  F   UNL A   1      45.682  30.211  34.528  1.00  0.00    -0.203 F 
ATOM     74  F   UNL A   1      45.140  25.961  37.911  1.00  0.00    -0.200 F 
ATOM     75  C   UNL A   1      46.530  27.443  36.705  1.00  0.00     0.200 A 
ATOM     76  F   UNL A   1      47.876  28.940  35.473  1.00  0.00    -0.200 F 
ATOM     77  F   UNL A   1      47.621  26.840  37.194  1.00  0.00    -0.200 F 
ENDBRANCH  44  67
ENDBRANCH  18  19
ENDBRANCH  11  13
ENDBRANCH   8   9
ENDBRANCH   7   8
ENDBRANCH   6   7
ENDBRANCH   5   6
ENDBRANCH   1   5
BRANCH   2  78
ATOM     78  C   UNL A   1      33.079  29.089  26.851  1.00  0.00     0.197 C 
BRANCH  78  79
ATOM     79  N   UNL A   1      32.081  27.643  27.205  1.00  0.00    -0.340 N 
ATOM     80  C   UNL A   1      30.732  26.534  26.260  1.00  0.00     0.243 C 
ATOM     81  H   UNL A   1      32.247  27.308  28.115  1.00  0.00     0.164 HD
ATOM     82  O   UNL A   1      29.731  25.888  26.703  1.00  0.00    -0.273 OA
BRANCH  80  83
ATOM     83  C   UNL A   1      30.803  26.097  24.425  1.00  0.00     0.175 C 
BRANCH  83  84
ATOM     84  N   UNL A   1      30.239  24.735  24.434  1.00  0.00    -0.342 N 
ATOM     85  C   UNL A   1      31.039  23.604  24.353  1.00  0.00     0.243 C 
ATOM     86  H   UNL A   1      29.262  24.624  24.500  1.00  0.00     0.164 HD
ATOM     87  O   UNL A   1      30.604  22.518  24.739  1.00  0.00    -0.273 OA
BRANCH  85  88
ATOM     88  C   UNL A   1      32.464  23.706  23.728  1.00  0.00     0.176 C 
BRANCH  88  89
ATOM     89  N   UNL A   1      33.244  24.653  24.580  1.00  0.00    -0.340 N 
ATOM     90  C   UNL A   1      34.513  24.653  25.084  1.00  0.00     0.251 C 
ATOM     91  H   UNL A   1      32.730  25.452  24.834  1.00  0.00     0.164 HD
ATOM     92  O   UNL A   1      34.869  25.621  25.754  1.00  0.00    -0.269 OA
BRANCH  90  93
ATOM     93  C   UNL A   1      35.433  23.513  24.920  1.00  0.00     0.040 A 
ATOM     94  C   UNL A   1      36.225  23.344  23.781  1.00  0.00     0.017 A 
ATOM     95  C   UNL A   1      35.533  22.607  25.987  1.00  0.00     0.017 A 
ATOM     96  C   UNL A   1      37.020  22.203  23.659  1.00  0.00     0.040 A 
ATOM     97  C   UNL A   1      36.347  21.481  25.870  1.00  0.00     0.040 A 
ATOM     98  C   UNL A   1      37.062  21.277  24.696  1.00  0.00     0.123 A 
ATOM     99  F   UNL A   1      37.809  20.174  24.565  1.00  0.00    -0.207 F 
ENDBRANCH  90  93
ENDBRANCH  88  89
BRANCH  88 100
ATOM    100  C   UNL A   1      33.233  22.373  23.390  1.00  0.00     0.070 C 
BRANCH 100 101
ATOM    101  C   UNL A   1      32.679  20.987  23.754  1.00  0.00    -0.045 A 
ATOM    102  C   UNL A   1      32.154  19.905  22.383  1.00  0.00     0.007 A 
ATOM    103  C   UNL A   1      32.991  20.260  25.364  1.00  0.00     0.007 A 
ATOM    104  C   UNL A   1      32.246  18.052  22.569  1.00  0.00     0.046 A 
ATOM    105  C   UNL A   1      32.904  18.469  25.618  1.00  0.00     0.046 A 
ATOM    106  C   UNL A   1      32.574  17.379  24.223  1.00  0.00     0.115 A 
BRANCH 106 107
ATOM    107  O   UNL A   1      32.528  16.042  24.458  1.00  0.00    -0.508 OA
ATOM    108  H   UNL A   1      33.284  15.597  24.788  1.00  0.00     0.293 HD
ENDBRANCH 106 107
ENDBRANCH 100 101
ENDBRANCH  88 100
ENDBRANCH  85  88
ENDBRANCH  83  84
BRANCH  83 109
ATOM    109  C   UNL A   1      30.496  26.991  23.137  1.00  0.00     0.072 C 
BRANCH 109 110
ATOM    110  C   UNL A   1      29.166  27.877  23.004  1.00  0.00    -0.020 A 
ATOM    111  C   UNL A   1      27.955  27.407  23.501  1.00  0.00     0.087 A 
ATOM    112  C   UNL A   1      28.848  29.269  22.570  1.00  0.00     0.003 A 
ATOM    113  N   UNL A   1      27.087  28.456  23.660  1.00  0.00    -0.361 N 
ATOM    114  C   UNL A   1      27.676  29.625  23.254  1.00  0.00     0.046 A 
ATOM    115  C   UNL A   1      29.521  30.350  21.913  1.00  0.00     0.010 A 
ATOM    116  H   UNL A   1      26.172  28.380  24.014  1.00  0.00     0.166 HD
ATOM    117  C   UNL A   1      27.265  30.952  23.486  1.00  0.00     0.026 A 
ATOM    118  C   UNL A   1      29.161  31.691  22.202  1.00  0.00     0.001 A 
ATOM    119  C   UNL A   1      28.068  31.985  23.008  1.00  0.00     0.002 A 
ENDBRANCH 109 110
ENDBRANCH  83 109
ENDBRANCH  80  83
ENDBRANCH  78  79
BRANCH  78 120
ATOM    120  C   UNL A   1      34.057  28.943  25.607  1.00  0.00     0.191 C 
BRANCH 120 121
ATOM    121  O   UNL A   1      33.620  29.700  24.466  1.00  0.00    -0.394 OA
ATOM    122  H   UNL A   1      32.654  29.790  24.489  1.00  0.00     0.210 HD
ENDBRANCH 120 121
ENDBRANCH  78 120
ENDBRANCH   2  78
TORSDOF 24
ENDMDL
MODEL 3
REMARK VINA RESULT:     -13.3      0.591      6.589
REMARK SMILES O=C(NCCCCNC(=O)[C@H](CO)NC(=O)[C@H](Cc1c[nH]c2ccccc12)NC(=O)[C@H](Cc1ccc(O)cc1)NC(=O)c1ccc(F)cc1)c1ccc(-c2c3nc(c(-c4c(F)c(F)c(F)c(F)c4F)c4ccc([nH]4)c(-c4c(F)c(F)c(F)c(F)c4F)c4nc(c(-c5c(F)c(F)c(F)c(F)c5F)c5ccc2[nH]5)C=C4)C=C3)cc1
REMARK SMILES IDX 8 1 9 2 10 3 7 5 6 6 5 7 4 8 3 9 1 10 2 11 50 13 51 14
REMARK SMILES IDX 112 15 52 16 111 17 53 18 54 19 55 20 105 21 56 22 110 23
REMARK SMILES IDX 104 24 106 25 57 26 109 27 103 28 102 29 58 31 90 32 70 33
REMARK SMILES IDX 89 34 71 35 74 36 88 37 107 38 72 39 73 40 87 42 108 43
REMARK SMILES IDX 75 44 59 45 60 46 68 47 61 48 62 49 66 50 69 51 63 52 64 53
REMARK SMILES IDX 67 54 65 55 91 56 92 57 100 58 93 59 94 60 98 61 101 62
REMARK SMILES IDX 95 63 96 64 99 65 97 66 76 67 77 68 85 69 78 70 79 71 83 72
REMARK SMILES IDX 86 73 80 74 81 75 84 76 82 77 11 78 14 79 15 80 16 82 17 83
REMARK SMILES IDX 28 84 29 85 30 87 31 88 40 89 41 90 42 92 43 93 44 94 49 95
REMARK SMILES IDX 45 96 48 97 46 98 47 99 32 100 33 101 34 102 39 103 35 104
REMARK SMILES IDX 38 105 36 106 37 107 18 109 19 110 20 111 27 112 21 113
REMARK SMILES IDX 22 114 26 115 23 117 25 118 24 119 12 120 13 121
REMARK H PARENT 8 4 3 12 106 30 74 41 14 81 28 86 40 91 37 108 21 116 13 122
REMARK Flexibility Score: inf
ROOT
ATOM      1  N   UNL A   1      38.270  23.581  25.447  1.00  0.00    -0.354 N 
ATOM      2  C   UNL A   1      37.100  23.012  25.010  1.00  0.00     0.244 C 
ATOM      3  O   UNL A   1      36.619  23.474  23.968  1.00  0.00    -0.273 OA
ATOM      4  H   UNL A   1      38.667  24.314  24.924  1.00  0.00     0.163 HD
ENDROOT
BRANCH   1   5
ATOM      5  C   UNL A   1      38.930  23.149  26.629  1.00  0.00     0.116 C 
BRANCH   5   6
ATOM      6  C   UNL A   1      40.300  22.517  26.567  1.00  0.00     0.023 C 
BRANCH   6   7
ATOM      7  C   UNL A   1      40.321  21.021  26.397  1.00  0.00     0.023 C 
BRANCH   7   8
ATOM      8  C   UNL A   1      41.553  20.321  26.941  1.00  0.00     0.116 C 
BRANCH   8   9
ATOM      9  N   UNL A   1      42.253  19.441  26.007  1.00  0.00    -0.352 N 
ATOM     10  O   UNL A   1      43.876  18.869  24.515  1.00  0.00    -0.269 OA
ATOM     11  C   UNL A   1      43.394  19.703  25.270  1.00  0.00     0.251 C 
ATOM     12  H   UNL A   1      41.862  18.545  25.887  1.00  0.00     0.163 HD
BRANCH  11  13
ATOM     13  C   UNL A   1      43.978  21.053  25.377  1.00  0.00     0.039 A 
ATOM     14  C   UNL A   1      44.780  21.342  26.476  1.00  0.00     0.014 A 
ATOM     15  C   UNL A   1      43.526  22.067  24.530  1.00  0.00     0.014 A 
ATOM     16  C   UNL A   1      44.852  22.655  26.907  1.00  0.00     0.010 A 
ATOM     17  C   UNL A   1      43.784  23.397  24.866  1.00  0.00     0.010 A 
ATOM     18  C   UNL A   1      44.396  23.704  26.090  1.00  0.00    -0.014 A 
BRANCH  18  19
ATOM     19  C   UNL A   1      44.670  25.102  26.511  1.00  0.00     0.031 A 
ATOM     20  C   UNL A   1      46.033  25.725  26.387  1.00  0.00     0.074 A 
ATOM     21  C   UNL A   1      43.631  25.820  26.986  1.00  0.00     0.049 A 
ATOM     22  N   UNL A   1      46.419  26.924  26.748  1.00  0.00    -0.248 NA
ATOM     23  C   UNL A   1      47.106  24.910  25.793  1.00  0.00     0.031 C 
ATOM     24  C   UNL A   1      42.262  25.314  27.138  1.00  0.00     0.029 A 
ATOM     25  N   UNL A   1      43.544  27.122  27.398  1.00  0.00    -0.354 N 
ATOM     26  C   UNL A   1      47.773  27.002  26.447  1.00  0.00     0.074 A 
ATOM     27  C   UNL A   1      48.154  25.718  25.898  1.00  0.00     0.031 C 
ATOM     28  C   UNL A   1      41.462  26.310  27.529  1.00  0.00     0.029 A 
ATOM     29  C   UNL A   1      42.276  27.488  27.777  1.00  0.00     0.049 A 
ATOM     30  H   UNL A   1      44.315  27.735  27.421  1.00  0.00     0.167 HD
ATOM     31  C   UNL A   1      48.608  28.056  26.610  1.00  0.00     0.037 A 
ATOM     32  C   UNL A   1      41.816  28.631  28.312  1.00  0.00     0.037 A 
ATOM     33  C   UNL A   1      48.204  29.331  27.151  1.00  0.00     0.049 A 
ATOM     34  C   UNL A   1      42.785  29.747  28.550  1.00  0.00     0.074 A 
ATOM     35  C   UNL A   1      48.974  30.465  27.347  1.00  0.00     0.029 A 
ATOM     36  N   UNL A   1      46.922  29.641  27.583  1.00  0.00    -0.354 N 
ATOM     37  N   UNL A   1      44.060  29.809  28.256  1.00  0.00    -0.248 NA
ATOM     38  C   UNL A   1      42.256  30.951  29.202  1.00  0.00     0.031 C 
ATOM     39  C   UNL A   1      48.178  31.435  27.957  1.00  0.00     0.029 A 
ATOM     40  C   UNL A   1      46.889  30.940  28.071  1.00  0.00     0.049 A 
ATOM     41  H   UNL A   1      46.151  29.030  27.551  1.00  0.00     0.167 HD
ATOM     42  C   UNL A   1      44.482  31.066  28.659  1.00  0.00     0.074 A 
ATOM     43  C   UNL A   1      43.320  31.741  29.202  1.00  0.00     0.031 C 
ATOM     44  C   UNL A   1      45.722  31.606  28.591  1.00  0.00     0.037 A 
BRANCH  31  45
ATOM     45  C   UNL A   1      50.049  27.902  26.205  1.00  0.00     0.064 A 
ATOM     46  C   UNL A   1      51.055  27.795  27.180  1.00  0.00     0.173 A 
ATOM     47  C   UNL A   1      50.448  27.989  24.863  1.00  0.00     0.173 A 
ATOM     48  F   UNL A   1      50.731  27.719  28.480  1.00  0.00    -0.203 F 
ATOM     49  C   UNL A   1      52.403  27.809  26.828  1.00  0.00     0.198 A 
ATOM     50  C   UNL A   1      51.797  27.971  24.513  1.00  0.00     0.198 A 
ATOM     51  F   UNL A   1      49.530  28.086  23.891  1.00  0.00    -0.203 F 
ATOM     52  F   UNL A   1      53.343  27.759  27.782  1.00  0.00    -0.200 F 
ATOM     53  C   UNL A   1      52.773  27.896  25.496  1.00  0.00     0.200 A 
ATOM     54  F   UNL A   1      52.153  28.035  23.222  1.00  0.00    -0.200 F 
ATOM     55  F   UNL A   1      54.070  27.912  25.159  1.00  0.00    -0.200 F 
ENDBRANCH  31  45
BRANCH  32  56
ATOM     56  C   UNL A   1      40.377  28.757  28.656  1.00  0.00     0.064 A 
ATOM     57  C   UNL A   1      39.432  29.205  27.718  1.00  0.00     0.173 A 
ATOM     58  C   UNL A   1      39.922  28.464  29.948  1.00  0.00     0.173 A 
ATOM     59  F   UNL A   1      39.816  29.515  26.471  1.00  0.00    -0.203 F 
ATOM     60  C   UNL A   1      38.096  29.376  28.066  1.00  0.00     0.198 A 
ATOM     61  C   UNL A   1      38.577  28.595  30.283  1.00  0.00     0.198 A 
ATOM     62  F   UNL A   1      40.785  28.025  30.877  1.00  0.00    -0.203 F 
ATOM     63  F   UNL A   1      37.226  29.854  27.166  1.00  0.00    -0.200 F 
ATOM     64  C   UNL A   1      37.667  29.060  29.345  1.00  0.00     0.200 A 
ATOM     65  F   UNL A   1      38.163  28.263  31.514  1.00  0.00    -0.200 F 
ATOM     66  F   UNL A   1      36.376  29.201  29.675  1.00  0.00    -0.200 F 
ENDBRANCH  32  56
BRANCH  44  67
ATOM     67  C   UNL A   1      45.888  33.018  29.074  1.00  0.00     0.064 A 
ATOM     68  C   UNL A   1      46.203  33.272  30.418  1.00  0.00     0.173 A 
ATOM     69  C   UNL A   1      45.663  34.117  28.232  1.00  0.00     0.173 A 
ATOM     70  F   UNL A   1      46.423  32.256  31.266  1.00  0.00    -0.203 F 
ATOM     71  C   UNL A   1      46.265  34.573  30.906  1.00  0.00     0.198 A 
ATOM     72  C   UNL A   1      45.765  35.418  28.714  1.00  0.00     0.198 A 
ATOM     73  F   UNL A   1      45.375  33.927  26.935  1.00  0.00    -0.203 F 
ATOM     74  F   UNL A   1      46.519  34.789  32.203  1.00  0.00    -0.200 F 
ATOM     75  C   UNL A   1      46.051  35.646  30.052  1.00  0.00     0.200 A 
ATOM     76  F   UNL A   1      45.590  36.454  27.882  1.00  0.00    -0.200 F 
ATOM     77  F   UNL A   1      46.123  36.899  30.520  1.00  0.00    -0.200 F 
ENDBRANCH  44  67
ENDBRANCH  18  19
ENDBRANCH  11  13
ENDBRANCH   8   9
ENDBRANCH   7   8
ENDBRANCH   6   7
ENDBRANCH   5   6
ENDBRANCH   1   5
BRANCH   2  78
ATOM     78  C   UNL A   1      36.575  21.669  25.645  1.00  0.00     0.197 C 
BRANCH  78  79
ATOM     79  N   UNL A   1      34.833  21.521  26.038  1.00  0.00    -0.340 N 
ATOM     80  C   UNL A   1      33.132  22.383  25.483  1.00  0.00     0.243 C 
ATOM     81  H   UNL A   1      34.676  20.822  26.714  1.00  0.00     0.164 HD
ATOM     82  O   UNL A   1      32.061  22.600  26.132  1.00  0.00    -0.273 OA
BRANCH  80  83
ATOM     83  C   UNL A   1      32.738  22.931  23.720  1.00  0.00     0.175 C 
BRANCH  83  84
ATOM     84  N   UNL A   1      33.744  23.992  23.520  1.00  0.00    -0.342 N 
ATOM     85  C   UNL A   1      33.427  25.339  23.630  1.00  0.00     0.243 C 
ATOM     86  H   UNL A   1      34.669  23.736  23.303  1.00  0.00     0.164 HD
ATOM     87  O   UNL A   1      34.320  26.162  23.837  1.00  0.00    -0.273 OA
BRANCH  85  88
ATOM     88  C   UNL A   1      31.952  25.806  23.437  1.00  0.00     0.176 C 
BRANCH  88  89
ATOM     89  N   UNL A   1      31.219  25.450  24.690  1.00  0.00    -0.340 N 
ATOM     90  C   UNL A   1      31.190  25.969  25.953  1.00  0.00     0.251 C 
ATOM     91  H   UNL A   1      30.628  24.672  24.581  1.00  0.00     0.164 HD
ATOM     92  O   UNL A   1      30.443  25.442  26.777  1.00  0.00    -0.269 OA
BRANCH  90  93
ATOM     93  C   UNL A   1      32.068  27.072  26.380  1.00  0.00     0.040 A 
ATOM     94  C   UNL A   1      33.454  27.041  26.203  1.00  0.00     0.017 A 
ATOM     95  C   UNL A   1      31.456  28.205  26.936  1.00  0.00     0.017 A 
ATOM     96  C   UNL A   1      34.236  28.088  26.696  1.00  0.00     0.040 A 
ATOM     97  C   UNL A   1      32.239  29.260  27.406  1.00  0.00     0.040 A 
ATOM     98  C   UNL A   1      33.622  29.178  27.306  1.00  0.00     0.123 A 
ATOM     99  F   UNL A   1      34.376  30.169  27.796  1.00  0.00    -0.207 F 
ENDBRANCH  90  93
ENDBRANCH  88  89
BRANCH  88 100
ATOM    100  C   UNL A   1      31.689  27.278  22.943  1.00  0.00     0.070 C 
BRANCH 100 101
ATOM    101  C   UNL A   1      30.518  28.126  23.462  1.00  0.00    -0.045 A 
ATOM    102  C   UNL A   1      30.898  29.804  24.068  1.00  0.00     0.007 A 
ATOM    103  C   UNL A   1      28.822  27.718  23.041  1.00  0.00     0.007 A 
ATOM    104  C   UNL A   1      29.615  31.151  23.951  1.00  0.00     0.046 A 
ATOM    105  C   UNL A   1      27.513  28.969  23.099  1.00  0.00     0.046 A 
ATOM    106  C   UNL A   1      27.919  30.674  23.512  1.00  0.00     0.115 A 
BRANCH 106 107
ATOM    107  O   UNL A   1      26.907  31.581  23.533  1.00  0.00    -0.508 OA
ATOM    108  H   UNL A   1      26.566  31.923  22.730  1.00  0.00     0.293 HD
ENDBRANCH 106 107
ENDBRANCH 100 101
ENDBRANCH  88 100
ENDBRANCH  85  88
ENDBRANCH  83  84
BRANCH  83 109
ATOM    109  C   UNL A   1      32.340  22.071  22.435  1.00  0.00     0.072 C 
BRANCH 109 110
ATOM    110  C   UNL A   1      32.114  20.485  22.499  1.00  0.00    -0.020 A 
ATOM    111  C   UNL A   1      31.852  19.764  21.339  1.00  0.00     0.087 A 
ATOM    112  C   UNL A   1      32.250  19.427  23.543  1.00  0.00     0.003 A 
ATOM    113  N   UNL A   1      32.111  18.435  21.557  1.00  0.00    -0.361 N 
ATOM    114  C   UNL A   1      32.518  18.237  22.850  1.00  0.00     0.046 A 
ATOM    115  C   UNL A   1      32.446  19.361  24.961  1.00  0.00     0.010 A 
ATOM    116  H   UNL A   1      32.018  17.727  20.880  1.00  0.00     0.166 HD
ATOM    117  C   UNL A   1      33.132  17.107  23.422  1.00  0.00     0.026 A 
ATOM    118  C   UNL A   1      33.132  18.261  25.534  1.00  0.00     0.001 A 
ATOM    119  C   UNL A   1      33.501  17.164  24.764  1.00  0.00     0.002 A 
ENDBRANCH 109 110
ENDBRANCH  83 109
ENDBRANCH  80  83
ENDBRANCH  78  79
BRANCH  78 120
ATOM    120  C   UNL A   1      37.157  20.509  24.727  1.00  0.00     0.191 C 
BRANCH 120 121
ATOM    121  O   UNL A   1      36.588  19.224  25.030  1.00  0.00    -0.394 OA
ATOM    122  H   UNL A   1      37.216  18.527  24.784  1.00  0.00     0.210 HD
ENDBRANCH 120 121
ENDBRANCH  78 120
ENDBRANCH   2  78
TORSDOF 24
ENDMDL
