MODEL 1
REMARK VINA RESULT:     -11.5      0.000      0.000
REMARK SMILES O=C(C[C@H](C(=O)OC[C@@H]1CCCO1)[NH+]1CCOCC1)NCCCCNC(=O)c1ccc(-c2c3nc(c(-c4c(F)c(F)c(F)c(F)c4F)c4ccc([nH]4)c(-c4c(F)c(F)c(F)c(F)c4F)c4nc(c(-c5c(F)c(F)c(F)c(F)c5F)c5ccc2[nH]5)C=C4)C=C3)cc1
REMARK SMILES IDX 21 1 20 2 1 3 2 4 3 6 4 7 14 8 15 9 19 10 16 12 18 13 17 14
REMARK SMILES IDX 5 15 6 16 7 17 8 18 9 19 10 20 13 21 11 22 12 23 22 24 23 25
REMARK SMILES IDX 24 26 25 27 26 28 27 30 28 31 29 32 90 33 30 34 89 35 31 36
REMARK SMILES IDX 32 37 33 38 83 39 34 40 88 41 82 42 84 43 35 44 87 45 81 46
REMARK SMILES IDX 80 47 36 49 68 50 48 51 67 52 49 53 52 54 66 55 85 56 50 57
REMARK SMILES IDX 51 58 65 60 86 61 53 62 37 63 38 64 46 65 39 66 40 67 44 68
REMARK SMILES IDX 47 69 41 70 42 71 45 72 43 73 69 74 70 75 78 76 71 77 72 78
REMARK SMILES IDX 76 79 79 80 73 81 74 82 77 83 75 84 54 85 55 86 63 87 56 88
REMARK SMILES IDX 57 89 61 90 64 91 58 92 59 93 62 94 60 95
REMARK H PARENT 20 5 14 11 25 29 84 48 52 59
REMARK Flexibility Score: inf
ROOT
ATOM      1  C   UNL A   1      33.119  30.158  26.219  1.00  0.00     0.116 C 
ENDROOT
BRANCH   1   2
ATOM      2  N   UNL A   1      33.077  29.374  24.999  1.00  0.00    -0.356 N 
ATOM      3  O   UNL A   1      33.821  27.432  25.962  1.00  0.00    -0.275 OA
ATOM      4  C   UNL A   1      33.459  28.049  24.967  1.00  0.00     0.226 C 
ATOM      5  H   UNL A   1      32.767  29.801  24.168  1.00  0.00     0.163 HD
BRANCH   4   6
ATOM      6  C   UNL A   1      33.528  27.452  23.578  1.00  0.00     0.177 C 
BRANCH   6   7
ATOM      7  C   UNL A   1      32.375  26.456  23.262  1.00  0.00     0.304 C 
BRANCH   7   8
ATOM      8  N   UNL A   1      32.523  25.311  24.236  1.00  0.00    -0.319 N 
ATOM      9  C   UNL A   1      33.718  24.477  23.903  1.00  0.00     0.291 C 
ATOM     10  C   UNL A   1      31.412  24.344  24.400  1.00  0.00     0.291 C 
ATOM     11  H   UNL A   1      32.576  25.836  25.110  1.00  0.00     0.348 HD
ATOM     12  C   UNL A   1      33.502  23.515  22.719  1.00  0.00     0.221 C 
ATOM     13  C   UNL A   1      31.197  23.407  23.206  1.00  0.00     0.221 C 
ATOM     14  O   UNL A   1      32.384  22.653  22.931  1.00  0.00    -0.370 OA
ENDBRANCH   7   8
BRANCH   7  15
ATOM     15  C   UNL A   1      31.084  27.308  23.341  1.00  0.00     0.365 C 
ATOM     16  O   UNL A   1      30.444  27.481  24.373  1.00  0.00    -0.245 OA
BRANCH  15  17
ATOM     17  O   UNL A   1      30.749  27.914  22.176  1.00  0.00    -0.459 OA
BRANCH  17  18
ATOM     18  C   UNL A   1      30.862  29.349  22.171  1.00  0.00     0.265 C 
BRANCH  18  19
ATOM     19  C   UNL A   1      29.508  30.087  22.188  1.00  0.00     0.156 C 
ATOM     20  C   UNL A   1      29.141  30.870  23.442  1.00  0.00     0.038 C 
ATOM     21  O   UNL A   1      28.438  29.130  21.999  1.00  0.00    -0.375 OA
ATOM     22  C   UNL A   1      27.635  30.854  23.408  1.00  0.00     0.031 C 
ATOM     23  C   UNL A   1      27.357  29.466  22.880  1.00  0.00     0.161 C 
ENDBRANCH  18  19
ENDBRANCH  17  18
ENDBRANCH  15  17
ENDBRANCH   7  15
ENDBRANCH   6   7
ENDBRANCH   4   6
ENDBRANCH   1   2
BRANCH   1  24
ATOM     24  C   UNL A   1      31.720  30.600  26.651  1.00  0.00     0.023 C 
BRANCH  24  25
ATOM     25  C   UNL A   1      31.533  32.114  26.784  1.00  0.00     0.023 C 
BRANCH  25  26
ATOM     26  C   UNL A   1      32.766  32.888  27.238  1.00  0.00     0.116 C 
BRANCH  26  27
ATOM     27  N   UNL A   1      32.464  34.251  27.645  1.00  0.00    -0.352 N 
ATOM     28  C   UNL A   1      33.034  35.016  28.633  1.00  0.00     0.251 C 
ATOM     29  H   UNL A   1      31.744  34.689  27.138  1.00  0.00     0.163 HD
ATOM     30  O   UNL A   1      32.548  36.107  28.922  1.00  0.00    -0.269 OA
BRANCH  28  31
ATOM     31  C   UNL A   1      34.213  34.521  29.380  1.00  0.00     0.039 A 
ATOM     32  C   UNL A   1      34.014  33.909  30.620  1.00  0.00     0.014 A 
ATOM     33  C   UNL A   1      35.507  34.656  28.869  1.00  0.00     0.014 A 
ATOM     34  C   UNL A   1      35.101  33.368  31.312  1.00  0.00     0.010 A 
ATOM     35  C   UNL A   1      36.578  34.045  29.520  1.00  0.00     0.010 A 
ATOM     36  C   UNL A   1      36.387  33.392  30.748  1.00  0.00    -0.014 A 
BRANCH  36  37
ATOM     37  C   UNL A   1      37.537  32.730  31.419  1.00  0.00     0.031 A 
ATOM     38  C   UNL A   1      38.235  31.568  30.766  1.00  0.00     0.074 A 
ATOM     39  C   UNL A   1      37.912  33.132  32.649  1.00  0.00     0.049 A 
ATOM     40  N   UNL A   1      39.208  30.821  31.226  1.00  0.00    -0.248 NA
ATOM     41  C   UNL A   1      37.760  31.179  29.430  1.00  0.00     0.031 C 
ATOM     42  C   UNL A   1      37.290  34.216  33.410  1.00  0.00     0.029 A 
ATOM     43  N   UNL A   1      38.903  32.669  33.482  1.00  0.00    -0.354 N 
ATOM     44  C   UNL A   1      39.453  29.872  30.242  1.00  0.00     0.074 A 
ATOM     45  C   UNL A   1      38.488  30.099  29.189  1.00  0.00     0.031 C 
ATOM     46  C   UNL A   1      37.924  34.349  34.586  1.00  0.00     0.029 A 
ATOM     47  C   UNL A   1      38.967  33.333  34.683  1.00  0.00     0.049 A 
ATOM     48  H   UNL A   1      39.507  31.932  33.240  1.00  0.00     0.167 HD
ATOM     49  C   UNL A   1      40.411  28.914  30.211  1.00  0.00     0.037 A 
ATOM     50  C   UNL A   1      39.768  33.138  35.748  1.00  0.00     0.037 A 
ATOM     51  C   UNL A   1      41.379  28.698  31.255  1.00  0.00     0.049 A 
ATOM     52  C   UNL A   1      40.808  32.050  35.698  1.00  0.00     0.074 A 
ATOM     53  C   UNL A   1      42.420  27.788  31.292  1.00  0.00     0.029 A 
ATOM     54  N   UNL A   1      41.417  29.397  32.454  1.00  0.00    -0.354 N 
ATOM     55  N   UNL A   1      41.075  31.204  34.733  1.00  0.00    -0.248 NA
ATOM     56  C   UNL A   1      41.663  31.897  36.884  1.00  0.00     0.031 C 
ATOM     57  C   UNL A   1      43.053  27.895  32.535  1.00  0.00     0.029 A 
ATOM     58  C   UNL A   1      42.447  28.917  33.248  1.00  0.00     0.049 A 
ATOM     59  H   UNL A   1      40.804  30.125  32.703  1.00  0.00     0.167 HD
ATOM     60  C   UNL A   1      42.144  30.439  35.181  1.00  0.00     0.074 A 
ATOM     61  C   UNL A   1      42.488  30.934  36.497  1.00  0.00     0.031 C 
ATOM     62  C   UNL A   1      42.784  29.420  34.556  1.00  0.00     0.037 A 
BRANCH  49  63
ATOM     63  C   UNL A   1      40.458  28.020  29.002  1.00  0.00     0.064 A 
ATOM     64  C   UNL A   1      39.735  26.818  28.945  1.00  0.00     0.173 A 
ATOM     65  C   UNL A   1      41.208  28.386  27.874  1.00  0.00     0.173 A 
ATOM     66  F   UNL A   1      39.009  26.415  29.999  1.00  0.00    -0.203 F 
ATOM     67  C   UNL A   1      39.791  25.999  27.819  1.00  0.00     0.198 A 
ATOM     68  C   UNL A   1      41.232  27.583  26.736  1.00  0.00     0.198 A 
ATOM     69  F   UNL A   1      41.910  29.528  27.869  1.00  0.00    -0.203 F 
ATOM     70  F   UNL A   1      39.139  24.829  27.811  1.00  0.00    -0.200 F 
ATOM     71  C   UNL A   1      40.532  26.386  26.714  1.00  0.00     0.200 A 
ATOM     72  F   UNL A   1      41.936  27.966  25.662  1.00  0.00    -0.200 F 
ATOM     73  F   UNL A   1      40.580  25.600  25.629  1.00  0.00    -0.200 F 
ENDBRANCH  49  63
BRANCH  50  74
ATOM     74  C   UNL A   1      39.629  34.004  36.949  1.00  0.00     0.064 A 
ATOM     75  C   UNL A   1      38.841  33.606  38.039  1.00  0.00     0.173 A 
ATOM     76  C   UNL A   1      40.273  35.247  37.033  1.00  0.00     0.173 A 
ATOM     77  F   UNL A   1      38.188  32.434  38.000  1.00  0.00    -0.203 F 
ATOM     78  C   UNL A   1      38.686  34.426  39.154  1.00  0.00     0.198 A 
ATOM     79  C   UNL A   1      40.144  36.052  38.161  1.00  0.00     0.198 A 
ATOM     80  F   UNL A   1      41.044  35.674  36.020  1.00  0.00    -0.203 F 
ATOM     81  F   UNL A   1      37.887  34.043  40.159  1.00  0.00    -0.200 F 
ATOM     82  C   UNL A   1      39.343  35.646  39.217  1.00  0.00     0.200 A 
ATOM     83  F   UNL A   1      40.794  37.222  38.225  1.00  0.00    -0.200 F 
ATOM     84  F   UNL A   1      39.197  36.432  40.293  1.00  0.00    -0.200 F 
ENDBRANCH  50  74
BRANCH  62  85
ATOM     85  C   UNL A   1      43.949  28.794  35.270  1.00  0.00     0.064 A 
ATOM     86  C   UNL A   1      45.264  29.243  35.079  1.00  0.00     0.173 A 
ATOM     87  C   UNL A   1      43.740  27.752  36.188  1.00  0.00     0.173 A 
ATOM     88  F   UNL A   1      45.521  30.226  34.202  1.00  0.00    -0.203 F 
ATOM     89  C   UNL A   1      46.328  28.655  35.759  1.00  0.00     0.198 A 
ATOM     90  C   UNL A   1      44.802  27.191  36.893  1.00  0.00     0.198 A 
ATOM     91  F   UNL A   1      42.502  27.289  36.416  1.00  0.00    -0.203 F 
ATOM     92  F   UNL A   1      47.582  29.065  35.520  1.00  0.00    -0.200 F 
ATOM     93  C   UNL A   1      46.095  27.636  36.670  1.00  0.00     0.200 A 
ATOM     94  F   UNL A   1      44.572  26.218  37.784  1.00  0.00    -0.200 F 
ATOM     95  F   UNL A   1      47.120  27.078  37.330  1.00  0.00    -0.200 F 
ENDBRANCH  62  85
ENDBRANCH  36  37
ENDBRANCH  28  31
ENDBRANCH  26  27
ENDBRANCH  25  26
ENDBRANCH  24  25
ENDBRANCH   1  24
TORSDOF 17
ENDMDL
MODEL 2
REMARK VINA RESULT:     -11.3      0.761      1.822
REMARK SMILES O=C(C[C@H](C(=O)OC[C@@H]1CCCO1)[NH+]1CCOCC1)NCCCCNC(=O)c1ccc(-c2c3nc(c(-c4c(F)c(F)c(F)c(F)c4F)c4ccc([nH]4)c(-c4c(F)c(F)c(F)c(F)c4F)c4nc(c(-c5c(F)c(F)c(F)c(F)c5F)c5ccc2[nH]5)C=C4)C=C3)cc1
REMARK SMILES IDX 21 1 20 2 1 3 2 4 3 6 4 7 14 8 15 9 19 10 16 12 18 13 17 14
REMARK SMILES IDX 5 15 6 16 7 17 8 18 9 19 10 20 13 21 11 22 12 23 22 24 23 25
REMARK SMILES IDX 24 26 25 27 26 28 27 30 28 31 29 32 90 33 30 34 89 35 31 36
REMARK SMILES IDX 32 37 33 38 83 39 34 40 88 41 82 42 84 43 35 44 87 45 81 46
REMARK SMILES IDX 80 47 36 49 68 50 48 51 67 52 49 53 52 54 66 55 85 56 50 57
REMARK SMILES IDX 51 58 65 60 86 61 53 62 37 63 38 64 46 65 39 66 40 67 44 68
REMARK SMILES IDX 47 69 41 70 42 71 45 72 43 73 69 74 70 75 78 76 71 77 72 78
REMARK SMILES IDX 76 79 79 80 73 81 74 82 77 83 75 84 54 85 55 86 63 87 56 88
REMARK SMILES IDX 57 89 61 90 64 91 58 92 59 93 62 94 60 95
REMARK H PARENT 20 5 14 11 25 29 84 48 52 59
REMARK Flexibility Score: inf
ROOT
ATOM      1  C   UNL A   1      32.615  29.977  27.084  1.00  0.00     0.116 C 
ENDROOT
BRANCH   1   2
ATOM      2  N   UNL A   1      33.076  28.770  26.426  1.00  0.00    -0.356 N 
ATOM      3  O   UNL A   1      31.464  27.406  27.315  1.00  0.00    -0.275 OA
ATOM      4  C   UNL A   1      32.459  27.551  26.615  1.00  0.00     0.226 C 
ATOM      5  H   UNL A   1      33.855  28.822  25.824  1.00  0.00     0.163 HD
BRANCH   4   6
ATOM      6  C   UNL A   1      33.191  26.378  25.998  1.00  0.00     0.177 C 
BRANCH   6   7
ATOM      7  C   UNL A   1      32.633  25.946  24.612  1.00  0.00     0.304 C 
BRANCH   7   8
ATOM      8  N   UNL A   1      31.389  25.136  24.887  1.00  0.00    -0.319 N 
ATOM      9  C   UNL A   1      31.638  24.119  25.955  1.00  0.00     0.291 C 
ATOM     10  C   UNL A   1      30.748  24.384  23.783  1.00  0.00     0.291 C 
ATOM     11  H   UNL A   1      30.744  25.888  25.132  1.00  0.00     0.348 HD
ATOM     12  C   UNL A   1      32.409  22.876  25.471  1.00  0.00     0.221 C 
ATOM     13  C   UNL A   1      31.535  23.160  23.299  1.00  0.00     0.221 C 
ATOM     14  O   UNL A   1      31.754  22.239  24.374  1.00  0.00    -0.370 OA
ENDBRANCH   7   8
BRANCH   7  15
ATOM     15  C   UNL A   1      32.472  27.269  23.822  1.00  0.00     0.365 C 
ATOM     16  O   UNL A   1      33.390  27.827  23.233  1.00  0.00    -0.245 OA
BRANCH  15  17
ATOM     17  O   UNL A   1      31.199  27.733  23.776  1.00  0.00    -0.459 OA
BRANCH  17  18
ATOM     18  C   UNL A   1      30.727  28.113  22.471  1.00  0.00     0.265 C 
BRANCH  18  19
ATOM     19  C   UNL A   1      30.179  29.553  22.395  1.00  0.00     0.156 C 
ATOM     20  C   UNL A   1      29.378  30.072  23.582  1.00  0.00     0.038 C 
ATOM     21  O   UNL A   1      29.300  29.671  21.250  1.00  0.00    -0.375 OA
ATOM     22  C   UNL A   1      28.486  31.106  22.947  1.00  0.00     0.031 C 
ATOM     23  C   UNL A   1      28.158  30.455  21.623  1.00  0.00     0.161 C 
ENDBRANCH  18  19
ENDBRANCH  17  18
ENDBRANCH  15  17
ENDBRANCH   7  15
ENDBRANCH   6   7
ENDBRANCH   4   6
ENDBRANCH   1   2
BRANCH   1  24
ATOM     24  C   UNL A   1      31.525  30.679  26.273  1.00  0.00     0.023 C 
BRANCH  24  25
ATOM     25  C   UNL A   1      31.402  32.185  26.520  1.00  0.00     0.023 C 
BRANCH  25  26
ATOM     26  C   UNL A   1      32.554  32.817  27.294  1.00  0.00     0.116 C 
BRANCH  26  27
ATOM     27  N   UNL A   1      32.319  34.214  27.623  1.00  0.00    -0.352 N 
ATOM     28  C   UNL A   1      32.951  35.014  28.543  1.00  0.00     0.251 C 
ATOM     29  H   UNL A   1      31.601  34.649  27.110  1.00  0.00     0.163 HD
ATOM     30  O   UNL A   1      32.518  36.140  28.777  1.00  0.00    -0.269 OA
BRANCH  28  31
ATOM     31  C   UNL A   1      34.134  34.518  29.283  1.00  0.00     0.039 A 
ATOM     32  C   UNL A   1      33.947  33.955  30.548  1.00  0.00     0.014 A 
ATOM     33  C   UNL A   1      35.420  34.604  28.742  1.00  0.00     0.014 A 
ATOM     34  C   UNL A   1      35.035  33.413  31.237  1.00  0.00     0.010 A 
ATOM     35  C   UNL A   1      36.490  33.992  29.393  1.00  0.00     0.010 A 
ATOM     36  C   UNL A   1      36.309  33.387  30.647  1.00  0.00    -0.014 A 
BRANCH  36  37
ATOM     37  C   UNL A   1      37.457  32.722  31.319  1.00  0.00     0.031 A 
ATOM     38  C   UNL A   1      38.160  31.566  30.661  1.00  0.00     0.074 A 
ATOM     39  C   UNL A   1      37.827  33.116  32.553  1.00  0.00     0.049 A 
ATOM     40  N   UNL A   1      39.132  30.818  31.119  1.00  0.00    -0.248 NA
ATOM     41  C   UNL A   1      37.691  31.186  29.320  1.00  0.00     0.031 C 
ATOM     42  C   UNL A   1      37.199  34.194  33.319  1.00  0.00     0.029 A 
ATOM     43  N   UNL A   1      38.814  32.649  33.387  1.00  0.00    -0.354 N 
ATOM     44  C   UNL A   1      39.383  29.876  30.130  1.00  0.00     0.074 A 
ATOM     45  C   UNL A   1      38.423  30.108  29.074  1.00  0.00     0.031 C 
ATOM     46  C   UNL A   1      37.828  34.320  34.498  1.00  0.00     0.029 A 
ATOM     47  C   UNL A   1      38.872  33.305  34.593  1.00  0.00     0.049 A 
ATOM     48  H   UNL A   1      39.421  31.914  33.143  1.00  0.00     0.167 HD
ATOM     49  C   UNL A   1      40.342  28.919  30.096  1.00  0.00     0.037 A 
ATOM     50  C   UNL A   1      39.669  33.104  35.661  1.00  0.00     0.037 A 
ATOM     51  C   UNL A   1      41.306  28.697  31.144  1.00  0.00     0.049 A 
ATOM     52  C   UNL A   1      40.711  32.018  35.607  1.00  0.00     0.074 A 
ATOM     53  C   UNL A   1      42.349  27.789  31.179  1.00  0.00     0.029 A 
ATOM     54  N   UNL A   1      41.338  29.388  32.347  1.00  0.00    -0.354 N 
ATOM     55  N   UNL A   1      40.984  31.179  34.638  1.00  0.00    -0.248 NA
ATOM     56  C   UNL A   1      41.561  31.857  36.796  1.00  0.00     0.031 C 
ATOM     57  C   UNL A   1      42.976  27.888  32.425  1.00  0.00     0.029 A 
ATOM     58  C   UNL A   1      42.366  28.905  33.143  1.00  0.00     0.049 A 
ATOM     59  H   UNL A   1      40.723  30.114  32.598  1.00  0.00     0.167 HD
ATOM     60  C   UNL A   1      42.052  30.413  35.084  1.00  0.00     0.074 A 
ATOM     61  C   UNL A   1      42.389  30.899  36.406  1.00  0.00     0.031 C 
ATOM     62  C   UNL A   1      42.696  29.399  34.456  1.00  0.00     0.037 A 
BRANCH  49  63
ATOM     63  C   UNL A   1      40.397  28.034  28.881  1.00  0.00     0.064 A 
ATOM     64  C   UNL A   1      39.689  26.823  28.820  1.00  0.00     0.173 A 
ATOM     65  C   UNL A   1      41.137  28.417  27.753  1.00  0.00     0.173 A 
ATOM     66  F   UNL A   1      38.972  26.404  29.874  1.00  0.00    -0.203 F 
ATOM     67  C   UNL A   1      39.750  26.013  27.688  1.00  0.00     0.198 A 
ATOM     68  C   UNL A   1      41.167  27.622  26.610  1.00  0.00     0.198 A 
ATOM     69  F   UNL A   1      41.825  29.568  27.753  1.00  0.00    -0.203 F 
ATOM     70  F   UNL A   1      39.114  24.834  27.675  1.00  0.00    -0.200 F 
ATOM     71  C   UNL A   1      40.483  26.416  26.582  1.00  0.00     0.200 A 
ATOM     72  F   UNL A   1      41.862  28.021  25.536  1.00  0.00    -0.200 F 
ATOM     73  F   UNL A   1      40.536  25.638  25.492  1.00  0.00    -0.200 F 
ENDBRANCH  49  63
BRANCH  50  74
ATOM     74  C   UNL A   1      39.523  33.961  36.867  1.00  0.00     0.064 A 
ATOM     75  C   UNL A   1      40.161  35.206  36.949  1.00  0.00     0.173 A 
ATOM     76  C   UNL A   1      38.750  33.552  37.964  1.00  0.00     0.173 A 
ATOM     77  F   UNL A   1      40.928  35.634  35.935  1.00  0.00    -0.203 F 
ATOM     78  C   UNL A   1      40.050  36.000  38.089  1.00  0.00     0.198 A 
ATOM     79  C   UNL A   1      38.613  34.360  39.090  1.00  0.00     0.198 A 
ATOM     80  F   UNL A   1      38.113  32.371  37.935  1.00  0.00    -0.203 F 
ATOM     81  F   UNL A   1      40.711  37.163  38.161  1.00  0.00    -0.200 F 
ATOM     82  C   UNL A   1      39.270  35.579  39.157  1.00  0.00     0.200 A 
ATOM     83  F   UNL A   1      37.844  33.957  40.111  1.00  0.00    -0.200 F 
ATOM     84  F   UNL A   1      39.158  36.344  40.250  1.00  0.00    -0.200 F 
ENDBRANCH  50  74
BRANCH  62  85
ATOM     85  C   UNL A   1      43.859  28.769  35.170  1.00  0.00     0.064 A 
ATOM     86  C   UNL A   1      43.696  27.670  36.026  1.00  0.00     0.173 A 
ATOM     87  C   UNL A   1      45.162  29.252  34.965  1.00  0.00     0.173 A 
ATOM     88  F   UNL A   1      42.470  27.180  36.269  1.00  0.00    -0.203 F 
ATOM     89  C   UNL A   1      44.788  27.095  36.670  1.00  0.00     0.198 A 
ATOM     90  C   UNL A   1      46.255  28.651  35.583  1.00  0.00     0.198 A 
ATOM     91  F   UNL A   1      45.376  30.295  34.150  1.00  0.00    -0.203 F 
ATOM     92  F   UNL A   1      44.601  26.080  37.525  1.00  0.00    -0.200 F 
ATOM     93  C   UNL A   1      46.067  27.581  36.442  1.00  0.00     0.200 A 
ATOM     94  F   UNL A   1      47.491  29.112  35.347  1.00  0.00    -0.200 F 
ATOM     95  F   UNL A   1      47.118  27.020  37.056  1.00  0.00    -0.200 F 
ENDBRANCH  62  85
ENDBRANCH  36  37
ENDBRANCH  28  31
ENDBRANCH  26  27
ENDBRANCH  25  26
ENDBRANCH  24  25
ENDBRANCH   1  24
TORSDOF 17
ENDMDL
MODEL 3
REMARK VINA RESULT:     -11.3      0.748      7.306
REMARK SMILES O=C(C[C@H](C(=O)OC[C@@H]1CCCO1)[NH+]1CCOCC1)NCCCCNC(=O)c1ccc(-c2c3nc(c(-c4c(F)c(F)c(F)c(F)c4F)c4ccc([nH]4)c(-c4c(F)c(F)c(F)c(F)c4F)c4nc(c(-c5c(F)c(F)c(F)c(F)c5F)c5ccc2[nH]5)C=C4)C=C3)cc1
REMARK SMILES IDX 21 1 20 2 1 3 2 4 3 6 4 7 14 8 15 9 19 10 16 12 18 13 17 14
REMARK SMILES IDX 5 15 6 16 7 17 8 18 9 19 10 20 13 21 11 22 12 23 22 24 23 25
REMARK SMILES IDX 24 26 25 27 26 28 27 30 28 31 29 32 90 33 30 34 89 35 31 36
REMARK SMILES IDX 32 37 33 38 83 39 34 40 88 41 82 42 84 43 35 44 87 45 81 46
REMARK SMILES IDX 80 47 36 49 68 50 48 51 67 52 49 53 52 54 66 55 85 56 50 57
REMARK SMILES IDX 51 58 65 60 86 61 53 62 37 63 38 64 46 65 39 66 40 67 44 68
REMARK SMILES IDX 47 69 41 70 42 71 45 72 43 73 69 74 70 75 78 76 71 77 72 78
REMARK SMILES IDX 76 79 79 80 73 81 74 82 77 83 75 84 54 85 55 86 63 87 56 88
REMARK SMILES IDX 57 89 61 90 64 91 58 92 59 93 62 94 60 95
REMARK H PARENT 20 5 14 11 25 29 84 48 52 59
REMARK Flexibility Score: inf
ROOT
ATOM      1  C   UNL A   1      32.861  30.218  25.938  1.00  0.00     0.116 C 
ENDROOT
BRANCH   1   2
ATOM      2  N   UNL A   1      32.952  29.235  24.875  1.00  0.00    -0.356 N 
ATOM      3  O   UNL A   1      33.353  27.453  26.258  1.00  0.00    -0.275 OA
ATOM      4  C   UNL A   1      33.215  27.906  25.127  1.00  0.00     0.226 C 
ATOM      5  H   UNL A   1      32.822  29.528  23.943  1.00  0.00     0.163 HD
BRANCH   4   6
ATOM      6  C   UNL A   1      33.459  27.071  23.889  1.00  0.00     0.177 C 
BRANCH   6   7
ATOM      7  C   UNL A   1      32.368  25.992  23.631  1.00  0.00     0.304 C 
BRANCH   7   8
ATOM      8  N   UNL A   1      32.679  24.841  24.557  1.00  0.00    -0.319 N 
ATOM      9  C   UNL A   1      34.095  24.391  24.393  1.00  0.00     0.291 C 
ATOM     10  C   UNL A   1      31.871  23.602  24.481  1.00  0.00     0.291 C 
ATOM     11  H   UNL A   1      32.452  25.275  25.453  1.00  0.00     0.348 HD
ATOM     12  C   UNL A   1      34.337  23.523  23.143  1.00  0.00     0.221 C 
ATOM     13  C   UNL A   1      32.108  22.759  23.222  1.00  0.00     0.221 C 
ATOM     14  O   UNL A   1      33.485  22.379  23.117  1.00  0.00    -0.370 OA
ENDBRANCH   7   8
BRANCH   7  15
ATOM     15  C   UNL A   1      31.024  26.735  23.832  1.00  0.00     0.365 C 
ATOM     16  O   UNL A   1      30.271  26.538  24.779  1.00  0.00    -0.245 OA
BRANCH  15  17
ATOM     17  O   UNL A   1      30.773  27.685  22.899  1.00  0.00    -0.459 OA
BRANCH  17  18
ATOM     18  C   UNL A   1      29.516  28.372  23.039  1.00  0.00     0.265 C 
BRANCH  18  19
ATOM     19  C   UNL A   1      29.564  29.861  22.640  1.00  0.00     0.156 C 
ATOM     20  C   UNL A   1      28.709  30.839  23.436  1.00  0.00     0.038 C 
ATOM     21  O   UNL A   1      29.137  30.002  21.263  1.00  0.00    -0.375 OA
ATOM     22  C   UNL A   1      28.460  31.941  22.440  1.00  0.00     0.031 C 
ATOM     23  C   UNL A   1      28.298  31.161  21.156  1.00  0.00     0.161 C 
ENDBRANCH  18  19
ENDBRANCH  17  18
ENDBRANCH  15  17
ENDBRANCH   7  15
ENDBRANCH   6   7
ENDBRANCH   4   6
ENDBRANCH   1   2
BRANCH   1  24
ATOM     24  C   UNL A   1      31.432  30.733  26.107  1.00  0.00     0.023 C 
BRANCH  24  25
ATOM     25  C   UNL A   1      31.317  32.204  26.517  1.00  0.00     0.023 C 
BRANCH  25  26
ATOM     26  C   UNL A   1      32.544  32.787  27.210  1.00  0.00     0.116 C 
BRANCH  26  27
ATOM     27  N   UNL A   1      32.367  34.174  27.608  1.00  0.00    -0.352 N 
ATOM     28  C   UNL A   1      33.032  34.902  28.564  1.00  0.00     0.251 C 
ATOM     29  H   UNL A   1      31.666  34.663  27.120  1.00  0.00     0.163 HD
ATOM     30  O   UNL A   1      32.645  36.031  28.855  1.00  0.00    -0.269 OA
BRANCH  28  31
ATOM     31  C   UNL A   1      34.195  34.323  29.275  1.00  0.00     0.039 A 
ATOM     32  C   UNL A   1      33.965  33.510  30.387  1.00  0.00     0.014 A 
ATOM     33  C   UNL A   1      35.504  34.575  28.855  1.00  0.00     0.014 A 
ATOM     34  C   UNL A   1      35.039  32.891  31.032  1.00  0.00     0.010 A 
ATOM     35  C   UNL A   1      36.567  33.895  29.448  1.00  0.00     0.010 A 
ATOM     36  C   UNL A   1      36.347  33.043  30.541  1.00  0.00    -0.014 A 
BRANCH  36  37
ATOM     37  C   UNL A   1      37.488  32.310  31.150  1.00  0.00     0.031 A 
ATOM     38  C   UNL A   1      37.993  32.685  32.517  1.00  0.00     0.074 A 
ATOM     39  C   UNL A   1      38.115  31.348  30.445  1.00  0.00     0.049 A 
ATOM     40  N   UNL A   1      39.016  32.209  33.182  1.00  0.00    -0.248 NA
ATOM     41  C   UNL A   1      37.266  33.753  33.218  1.00  0.00     0.031 C 
ATOM     42  C   UNL A   1      37.753  30.920  29.093  1.00  0.00     0.029 A 
ATOM     43  N   UNL A   1      39.195  30.561  30.763  1.00  0.00    -0.354 N 
ATOM     44  C   UNL A   1      39.060  32.924  34.371  1.00  0.00     0.074 A 
ATOM     45  C   UNL A   1      38.000  33.906  34.311  1.00  0.00     0.031 C 
ATOM     46  C   UNL A   1      38.581  29.937  28.706  1.00  0.00     0.029 A 
ATOM     47  C   UNL A   1      39.560  29.694  29.761  1.00  0.00     0.049 A 
ATOM     48  H   UNL A   1      39.664  30.615  31.626  1.00  0.00     0.167 HD
ATOM     49  C   UNL A   1      39.894  32.761  35.427  1.00  0.00     0.037 A 
ATOM     50  C   UNL A   1      40.575  28.811  29.694  1.00  0.00     0.037 A 
ATOM     51  C   UNL A   1      40.941  31.774  35.489  1.00  0.00     0.049 A 
ATOM     52  C   UNL A   1      41.503  28.667  30.871  1.00  0.00     0.074 A 
ATOM     53  C   UNL A   1      41.804  31.496  36.535  1.00  0.00     0.029 A 
ATOM     54  N   UNL A   1      41.274  30.908  34.457  1.00  0.00    -0.354 N 
ATOM     55  N   UNL A   1      41.491  29.301  32.018  1.00  0.00    -0.248 NA
ATOM     56  C   UNL A   1      42.582  27.676  30.745  1.00  0.00     0.031 C 
ATOM     57  C   UNL A   1      42.696  30.504  36.116  1.00  0.00     0.029 A 
ATOM     58  C   UNL A   1      42.348  30.115  34.833  1.00  0.00     0.049 A 
ATOM     59  H   UNL A   1      40.815  30.863  33.588  1.00  0.00     0.167 HD
ATOM     60  C   UNL A   1      42.537  28.769  32.760  1.00  0.00     0.074 A 
ATOM     61  C   UNL A   1      43.151  27.746  31.940  1.00  0.00     0.031 C 
ATOM     62  C   UNL A   1      42.949  29.096  34.010  1.00  0.00     0.037 A 
BRANCH  49  63
ATOM     63  C   UNL A   1      39.708  33.676  36.606  1.00  0.00     0.064 A 
ATOM     64  C   UNL A   1      40.358  34.918  36.684  1.00  0.00     0.173 A 
ATOM     65  C   UNL A   1      38.844  33.323  37.653  1.00  0.00     0.173 A 
ATOM     66  F   UNL A   1      41.202  35.303  35.715  1.00  0.00    -0.203 F 
ATOM     67  C   UNL A   1      40.177  35.755  37.784  1.00  0.00     0.198 A 
ATOM     68  C   UNL A   1      38.638  34.177  38.733  1.00  0.00     0.198 A 
ATOM     69  F   UNL A   1      38.190  32.152  37.626  1.00  0.00    -0.203 F 
ATOM     70  F   UNL A   1      40.853  36.909  37.864  1.00  0.00    -0.200 F 
ATOM     71  C   UNL A   1      39.312  35.387  38.803  1.00  0.00     0.200 A 
ATOM     72  F   UNL A   1      37.789  33.828  39.710  1.00  0.00    -0.200 F 
ATOM     73  F   UNL A   1      39.135  36.195  39.857  1.00  0.00    -0.200 F 
ENDBRANCH  49  63
BRANCH  50  74
ATOM     74  C   UNL A   1      40.758  27.983  28.473  1.00  0.00     0.064 A 
ATOM     75  C   UNL A   1      40.167  26.716  28.364  1.00  0.00     0.173 A 
ATOM     76  C   UNL A   1      41.531  28.434  27.394  1.00  0.00     0.173 A 
ATOM     77  F   UNL A   1      39.434  26.230  29.378  1.00  0.00    -0.203 F 
ATOM     78  C   UNL A   1      40.359  25.925  27.234  1.00  0.00     0.198 A 
ATOM     79  C   UNL A   1      41.698  27.657  26.250  1.00  0.00     0.198 A 
ATOM     80  F   UNL A   1      42.115  29.642  27.443  1.00  0.00    -0.203 F 
ATOM     81  F   UNL A   1      39.824  24.699  27.177  1.00  0.00    -0.200 F 
ATOM     82  C   UNL A   1      41.119  26.399  26.174  1.00  0.00     0.200 A 
ATOM     83  F   UNL A   1      42.417  28.126  25.222  1.00  0.00    -0.200 F 
ATOM     84  F   UNL A   1      41.299  25.640  25.085  1.00  0.00    -0.200 F 
ENDBRANCH  50  74
BRANCH  62  85
ATOM     85  C   UNL A   1      44.097  28.316  34.586  1.00  0.00     0.064 A 
ATOM     86  C   UNL A   1      45.422  28.765  34.488  1.00  0.00     0.173 A 
ATOM     87  C   UNL A   1      43.861  27.118  35.280  1.00  0.00     0.173 A 
ATOM     88  F   UNL A   1      45.704  29.896  33.822  1.00  0.00    -0.203 F 
ATOM     89  C   UNL A   1      46.471  28.032  35.039  1.00  0.00     0.198 A 
ATOM     90  C   UNL A   1      44.909  26.407  35.860  1.00  0.00     0.198 A 
ATOM     91  F   UNL A   1      42.613  26.646  35.411  1.00  0.00    -0.203 F 
ATOM     92  F   UNL A   1      47.734  28.454  34.885  1.00  0.00    -0.200 F 
ATOM     93  C   UNL A   1      46.212  26.859  35.730  1.00  0.00     0.200 A 
ATOM     94  F   UNL A   1      44.654  25.282  36.542  1.00  0.00    -0.200 F 
ATOM     95  F   UNL A   1      47.222  26.159  36.268  1.00  0.00    -0.200 F 
ENDBRANCH  62  85
ENDBRANCH  36  37
ENDBRANCH  28  31
ENDBRANCH  26  27
ENDBRANCH  25  26
ENDBRANCH  24  25
ENDBRANCH   1  24
TORSDOF 17
ENDMDL
