MODEL 1
REMARK VINA RESULT:     -13.4      0.000      0.000
REMARK SMILES C[C@H]1[C@@H](C(=O)NCCCCNC(=O)c2ccc(-c3c4nc(c(-c5c(F)c(F)c(F)c(F)c5F)c5ccc([nH]5)c(-c5c(F)c(F)c(F)c(F)c5F)c5nc(c(-c6c(F)c(F)c(F)c(F)c6F)c6ccc3[nH]6)C=C5)C=C4)cc2)CCN1C(=O)c1cc2cc(F)ccc2s1
REMARK SMILES IDX 8 1 7 2 6 3 4 4 5 5 3 7 1 8 2 9 79 10 77 11 78 12 80 13
REMARK SMILES IDX 81 14 82 15 83 16 91 17 84 18 90 19 85 20 89 21 86 22 88 23
REMARK SMILES IDX 87 24 9 25 10 26 11 27 12 28 13 30 14 31 15 32 76 33 16 34
REMARK SMILES IDX 75 35 17 36 18 37 19 38 69 39 20 40 74 41 68 42 70 43 21 44
REMARK SMILES IDX 73 45 67 46 66 47 22 49 54 50 34 51 53 52 35 53 38 54 52 55
REMARK SMILES IDX 71 56 36 57 37 58 51 60 72 61 39 62 23 63 24 64 32 65 25 66
REMARK SMILES IDX 26 67 30 68 33 69 27 70 28 71 31 72 29 73 55 74 56 75 64 76
REMARK SMILES IDX 57 77 58 78 62 79 65 80 59 81 60 82 63 83 61 84 40 85 41 86
REMARK SMILES IDX 49 87 42 88 43 89 47 90 50 91 44 92 45 93 48 94 46 95
REMARK H PARENT 6 6 11 29 70 48 38 59
REMARK Flexibility Score: inf
ROOT
ATOM      1  C   UNL A   1      31.860  30.403  26.891  1.00  0.00     0.023 C 
ENDROOT
BRANCH   1   2
ATOM      2  C   UNL A   1      33.153  29.758  26.386  1.00  0.00     0.116 C 
BRANCH   2   3
ATOM      3  N   UNL A   1      33.157  29.809  24.945  1.00  0.00    -0.356 N 
ATOM      4  C   UNL A   1      32.632  28.936  24.046  1.00  0.00     0.225 C 
ATOM      5  O   UNL A   1      33.054  29.046  22.892  1.00  0.00    -0.275 OA
ATOM      6  H   UNL A   1      33.607  30.591  24.554  1.00  0.00     0.163 HD
BRANCH   4   7
ATOM      7  C   UNL A   1      31.480  27.988  24.418  1.00  0.00     0.102 C 
ATOM      8  C   UNL A   1      32.793  26.039  25.650  1.00  0.00     0.032 C 
ATOM      9  C   UNL A   1      31.718  26.483  24.686  1.00  0.00     0.094 C 
ATOM     10  N   UNL A   1      31.787  25.852  23.367  1.00  0.00    -0.334 N 
ATOM     11  C   UNL A   1      30.569  27.864  23.177  1.00  0.00     0.037 C 
ATOM     12  C   UNL A   1      31.270  26.777  22.367  1.00  0.00     0.121 C 
BRANCH  10  13
ATOM     13  C   UNL A   1      31.431  24.513  23.242  1.00  0.00     0.264 C 
ATOM     14  O   UNL A   1      30.248  24.177  23.207  1.00  0.00    -0.268 OA
BRANCH  13  15
ATOM     15  C   UNL A   1      32.488  23.530  23.121  1.00  0.00     0.093 A 
ATOM     16  C   UNL A   1      33.794  23.780  22.758  1.00  0.00     0.034 A 
ATOM     17  S   UNL A   1      32.311  21.947  23.731  1.00  0.00    -0.130 S 
ATOM     18  C   UNL A   1      34.697  22.884  23.417  1.00  0.00    -0.004 A 
ATOM     19  C   UNL A   1      34.008  21.845  24.051  1.00  0.00     0.035 A 
ATOM     20  C   UNL A   1      36.093  22.986  23.603  1.00  0.00     0.048 A 
ATOM     21  C   UNL A   1      34.671  20.913  24.873  1.00  0.00     0.022 A 
ATOM     22  C   UNL A   1      36.727  22.116  24.486  1.00  0.00     0.123 A 
ATOM     23  C   UNL A   1      36.035  21.096  25.117  1.00  0.00     0.041 A 
ATOM     24  F   UNL A   1      38.025  22.302  24.762  1.00  0.00    -0.207 F 
ENDBRANCH  13  15
ENDBRANCH  10  13
ENDBRANCH   4   7
ENDBRANCH   2   3
ENDBRANCH   1   2
BRANCH   1  25
ATOM     25  C   UNL A   1      31.762  31.900  26.650  1.00  0.00     0.023 C 
BRANCH  25  26
ATOM     26  C   UNL A   1      32.846  32.699  27.349  1.00  0.00     0.116 C 
BRANCH  26  27
ATOM     27  N   UNL A   1      32.453  34.065  27.668  1.00  0.00    -0.352 N 
ATOM     28  C   UNL A   1      33.000  34.913  28.606  1.00  0.00     0.251 C 
ATOM     29  H   UNL A   1      31.701  34.429  27.147  1.00  0.00     0.163 HD
ATOM     30  O   UNL A   1      32.526  36.016  28.816  1.00  0.00    -0.269 OA
BRANCH  28  31
ATOM     31  C   UNL A   1      34.147  34.422  29.395  1.00  0.00     0.039 A 
ATOM     32  C   UNL A   1      33.899  33.653  30.534  1.00  0.00     0.014 A 
ATOM     33  C   UNL A   1      35.448  34.617  28.930  1.00  0.00     0.014 A 
ATOM     34  C   UNL A   1      34.961  32.997  31.155  1.00  0.00     0.010 A 
ATOM     35  C   UNL A   1      36.484  33.883  29.487  1.00  0.00     0.010 A 
ATOM     36  C   UNL A   1      36.251  33.066  30.604  1.00  0.00    -0.014 A 
BRANCH  36  37
ATOM     37  C   UNL A   1      37.384  32.304  31.181  1.00  0.00     0.031 A 
ATOM     38  C   UNL A   1      37.877  32.645  32.558  1.00  0.00     0.074 A 
ATOM     39  C   UNL A   1      38.023  31.383  30.436  1.00  0.00     0.049 A 
ATOM     40  N   UNL A   1      38.925  32.193  33.199  1.00  0.00    -0.248 NA
ATOM     41  C   UNL A   1      37.118  33.668  33.296  1.00  0.00     0.031 C 
ATOM     42  C   UNL A   1      37.684  31.016  29.059  1.00  0.00     0.029 A 
ATOM     43  N   UNL A   1      39.105  30.591  30.731  1.00  0.00    -0.354 N 
ATOM     44  C   UNL A   1      38.969  32.904  34.390  1.00  0.00     0.074 A 
ATOM     45  C   UNL A   1      37.880  33.854  34.362  1.00  0.00     0.031 C 
ATOM     46  C   UNL A   1      38.519  30.052  28.641  1.00  0.00     0.029 A 
ATOM     47  C   UNL A   1      39.472  29.754  29.706  1.00  0.00     0.049 A 
ATOM     48  H   UNL A   1      39.574  30.621  31.596  1.00  0.00     0.167 HD
ATOM     49  C   UNL A   1      39.824  32.757  35.428  1.00  0.00     0.037 A 
ATOM     50  C   UNL A   1      40.465  28.847  29.640  1.00  0.00     0.037 A 
ATOM     51  C   UNL A   1      40.864  31.765  35.479  1.00  0.00     0.049 A 
ATOM     52  C   UNL A   1      41.360  28.655  30.833  1.00  0.00     0.074 A 
ATOM     53  C   UNL A   1      41.730  31.474  36.517  1.00  0.00     0.029 A 
ATOM     54  N   UNL A   1      41.163  30.889  34.446  1.00  0.00    -0.354 N 
ATOM     55  N   UNL A   1      41.353  29.288  31.982  1.00  0.00    -0.248 NA
ATOM     56  C   UNL A   1      42.395  27.618  30.725  1.00  0.00     0.031 C 
ATOM     57  C   UNL A   1      42.570  30.435  36.103  1.00  0.00     0.029 A 
ATOM     58  C   UNL A   1      42.205  30.060  34.820  1.00  0.00     0.049 A 
ATOM     59  H   UNL A   1      40.703  30.863  33.576  1.00  0.00     0.167 HD
ATOM     60  C   UNL A   1      42.361  28.711  32.740  1.00  0.00     0.074 A 
ATOM     61  C   UNL A   1      42.952  27.669  31.926  1.00  0.00     0.031 C 
ATOM     62  C   UNL A   1      42.766  29.020  33.997  1.00  0.00     0.037 A 
BRANCH  49  63
ATOM     63  C   UNL A   1      39.653  33.680  36.597  1.00  0.00     0.064 A 
ATOM     64  C   UNL A   1      38.858  33.329  37.699  1.00  0.00     0.173 A 
ATOM     65  C   UNL A   1      40.296  34.926  36.622  1.00  0.00     0.173 A 
ATOM     66  F   UNL A   1      38.207  32.155  37.714  1.00  0.00    -0.203 F 
ATOM     67  C   UNL A   1      38.685  34.205  38.766  1.00  0.00     0.198 A 
ATOM     68  C   UNL A   1      40.145  35.788  37.704  1.00  0.00     0.198 A 
ATOM     69  F   UNL A   1      41.068  35.309  35.594  1.00  0.00    -0.203 F 
ATOM     70  F   UNL A   1      37.874  33.872  39.780  1.00  0.00    -0.200 F 
ATOM     71  C   UNL A   1      39.332  35.431  38.771  1.00  0.00     0.200 A 
ATOM     72  F   UNL A   1      40.777  36.970  37.712  1.00  0.00    -0.200 F 
ATOM     73  F   UNL A   1      39.165  36.275  39.799  1.00  0.00    -0.200 F 
ENDBRANCH  49  63
BRANCH  50  74
ATOM     74  C   UNL A   1      40.635  28.020  28.419  1.00  0.00     0.064 A 
ATOM     75  C   UNL A   1      40.007  26.772  28.310  1.00  0.00     0.173 A 
ATOM     76  C   UNL A   1      41.421  28.454  27.342  1.00  0.00     0.173 A 
ATOM     77  F   UNL A   1      39.260  26.309  29.323  1.00  0.00    -0.203 F 
ATOM     78  C   UNL A   1      40.174  25.978  27.177  1.00  0.00     0.198 A 
ATOM     79  C   UNL A   1      41.569  27.669  26.200  1.00  0.00     0.198 A 
ATOM     80  F   UNL A   1      42.037  29.643  27.396  1.00  0.00    -0.203 F 
ATOM     81  F   UNL A   1      39.594  24.772  27.116  1.00  0.00    -0.200 F 
ATOM     82  C   UNL A   1      40.951  26.429  26.121  1.00  0.00     0.200 A 
ATOM     83  F   UNL A   1      42.312  28.111  25.176  1.00  0.00    -0.200 F 
ATOM     84  F   UNL A   1      41.110  25.666  25.031  1.00  0.00    -0.200 F 
ENDBRANCH  50  74
BRANCH  62  85
ATOM     85  C   UNL A   1      43.876  28.200  34.578  1.00  0.00     0.064 A 
ATOM     86  C   UNL A   1      45.211  28.623  34.508  1.00  0.00     0.173 A 
ATOM     87  C   UNL A   1      43.594  27.004  35.255  1.00  0.00     0.173 A 
ATOM     88  F   UNL A   1      45.528  29.752  33.857  1.00  0.00    -0.203 F 
ATOM     89  C   UNL A   1      46.228  27.867  35.082  1.00  0.00     0.198 A 
ATOM     90  C   UNL A   1      44.612  26.264  35.848  1.00  0.00     0.198 A 
ATOM     91  F   UNL A   1      42.331  26.563  35.352  1.00  0.00    -0.203 F 
ATOM     92  F   UNL A   1      47.502  28.270  34.975  1.00  0.00    -0.200 F 
ATOM     93  C   UNL A   1      45.927  26.693  35.758  1.00  0.00     0.200 A 
ATOM     94  F   UNL A   1      44.320  25.134  36.509  1.00  0.00    -0.200 F 
ATOM     95  F   UNL A   1      46.909  25.971  36.316  1.00  0.00    -0.200 F 
ENDBRANCH  62  85
ENDBRANCH  36  37
ENDBRANCH  28  31
ENDBRANCH  26  27
ENDBRANCH  25  26
ENDBRANCH   1  25
TORSDOF 13
ENDMDL
MODEL 2
REMARK VINA RESULT:     -13.3      0.610      7.423
REMARK SMILES C[C@H]1[C@@H](C(=O)NCCCCNC(=O)c2ccc(-c3c4nc(c(-c5c(F)c(F)c(F)c(F)c5F)c5ccc([nH]5)c(-c5c(F)c(F)c(F)c(F)c5F)c5nc(c(-c6c(F)c(F)c(F)c(F)c6F)c6ccc3[nH]6)C=C5)C=C4)cc2)CCN1C(=O)c1cc2cc(F)ccc2s1
REMARK SMILES IDX 8 1 7 2 6 3 4 4 5 5 3 7 1 8 2 9 79 10 77 11 78 12 80 13
REMARK SMILES IDX 81 14 82 15 83 16 91 17 84 18 90 19 85 20 89 21 86 22 88 23
REMARK SMILES IDX 87 24 9 25 10 26 11 27 12 28 13 30 14 31 15 32 76 33 16 34
REMARK SMILES IDX 75 35 17 36 18 37 19 38 69 39 20 40 74 41 68 42 70 43 21 44
REMARK SMILES IDX 73 45 67 46 66 47 22 49 54 50 34 51 53 52 35 53 38 54 52 55
REMARK SMILES IDX 71 56 36 57 37 58 51 60 72 61 39 62 23 63 24 64 32 65 25 66
REMARK SMILES IDX 26 67 30 68 33 69 27 70 28 71 31 72 29 73 55 74 56 75 64 76
REMARK SMILES IDX 57 77 58 78 62 79 65 80 59 81 60 82 63 83 61 84 40 85 41 86
REMARK SMILES IDX 49 87 42 88 43 89 47 90 50 91 44 92 45 93 48 94 46 95
REMARK H PARENT 6 6 11 29 70 48 38 59
REMARK Flexibility Score: inf
ROOT
ATOM      1  C   UNL A   1      32.323  30.043  27.123  1.00  0.00     0.023 C 
ENDROOT
BRANCH   1   2
ATOM      2  C   UNL A   1      33.571  29.459  26.458  1.00  0.00     0.116 C 
BRANCH   2   3
ATOM      3  N   UNL A   1      33.456  29.636  25.032  1.00  0.00    -0.356 N 
ATOM      4  C   UNL A   1      32.818  28.867  24.112  1.00  0.00     0.225 C 
ATOM      5  O   UNL A   1      33.147  29.063  22.939  1.00  0.00    -0.275 OA
ATOM      6  H   UNL A   1      33.909  30.432  24.672  1.00  0.00     0.163 HD
BRANCH   4   7
ATOM      7  C   UNL A   1      31.660  27.935  24.502  1.00  0.00     0.102 C 
ATOM      8  C   UNL A   1      32.969  25.943  25.666  1.00  0.00     0.032 C 
ATOM      9  C   UNL A   1      31.876  26.422  24.739  1.00  0.00     0.094 C 
ATOM     10  N   UNL A   1      31.896  25.811  23.409  1.00  0.00    -0.334 N 
ATOM     11  C   UNL A   1      30.712  27.848  23.285  1.00  0.00     0.037 C 
ATOM     12  C   UNL A   1      31.369  26.761  22.439  1.00  0.00     0.121 C 
BRANCH  10  13
ATOM     13  C   UNL A   1      31.511  24.481  23.273  1.00  0.00     0.264 C 
ATOM     14  O   UNL A   1      30.321  24.171  23.234  1.00  0.00    -0.268 OA
BRANCH  13  15
ATOM     15  C   UNL A   1      32.546  23.476  23.147  1.00  0.00     0.093 A 
ATOM     16  C   UNL A   1      33.858  23.700  22.789  1.00  0.00     0.034 A 
ATOM     17  S   UNL A   1      32.334  21.893  23.745  1.00  0.00    -0.130 S 
ATOM     18  C   UNL A   1      34.740  22.780  23.442  1.00  0.00    -0.004 A 
ATOM     19  C   UNL A   1      34.027  21.751  24.068  1.00  0.00     0.035 A 
ATOM     20  C   UNL A   1      36.138  22.850  23.633  1.00  0.00     0.048 A 
ATOM     21  C   UNL A   1      34.668  20.798  24.883  1.00  0.00     0.022 A 
ATOM     22  C   UNL A   1      36.751  21.959  24.509  1.00  0.00     0.123 A 
ATOM     23  C   UNL A   1      36.035  20.950  25.132  1.00  0.00     0.041 A 
ATOM     24  F   UNL A   1      38.052  22.115  24.790  1.00  0.00    -0.207 F 
ENDBRANCH  13  15
ENDBRANCH  10  13
ENDBRANCH   4   7
ENDBRANCH   2   3
ENDBRANCH   1   2
BRANCH   1  25
ATOM     25  C   UNL A   1      32.069  31.510  26.818  1.00  0.00     0.023 C 
BRANCH  25  26
ATOM     26  C   UNL A   1      33.077  32.445  27.459  1.00  0.00     0.116 C 
BRANCH  26  27
ATOM     27  N   UNL A   1      32.580  33.802  27.648  1.00  0.00    -0.352 N 
ATOM     28  C   UNL A   1      33.042  34.767  28.516  1.00  0.00     0.251 C 
ATOM     29  H   UNL A   1      31.815  34.062  27.084  1.00  0.00     0.163 HD
ATOM     30  O   UNL A   1      32.485  35.845  28.618  1.00  0.00    -0.269 OA
BRANCH  28  31
ATOM     31  C   UNL A   1      34.203  34.433  29.364  1.00  0.00     0.039 A 
ATOM     32  C   UNL A   1      33.976  33.868  30.620  1.00  0.00     0.014 A 
ATOM     33  C   UNL A   1      35.497  34.562  28.857  1.00  0.00     0.014 A 
ATOM     34  C   UNL A   1      35.054  33.342  31.332  1.00  0.00     0.010 A 
ATOM     35  C   UNL A   1      36.549  33.948  29.520  1.00  0.00     0.010 A 
ATOM     36  C   UNL A   1      36.338  33.332  30.763  1.00  0.00    -0.014 A 
BRANCH  36  37
ATOM     37  C   UNL A   1      37.486  32.695  31.450  1.00  0.00     0.031 A 
ATOM     38  C   UNL A   1      38.206  31.558  30.782  1.00  0.00     0.074 A 
ATOM     39  C   UNL A   1      37.814  33.069  32.701  1.00  0.00     0.049 A 
ATOM     40  N   UNL A   1      39.148  30.782  31.254  1.00  0.00    -0.248 NA
ATOM     41  C   UNL A   1      37.775  31.216  29.417  1.00  0.00     0.031 C 
ATOM     42  C   UNL A   1      37.142  34.110  33.482  1.00  0.00     0.029 A 
ATOM     43  N   UNL A   1      38.795  32.606  33.543  1.00  0.00    -0.354 N 
ATOM     44  C   UNL A   1      39.390  29.842  30.262  1.00  0.00     0.074 A 
ATOM     45  C   UNL A   1      38.462  30.108  29.186  1.00  0.00     0.031 C 
ATOM     46  C   UNL A   1      37.747  34.227  34.675  1.00  0.00     0.029 A 
ATOM     47  C   UNL A   1      38.829  33.250  34.755  1.00  0.00     0.049 A 
ATOM     48  H   UNL A   1      39.413  31.880  33.300  1.00  0.00     0.167 HD
ATOM     49  C   UNL A   1      40.324  28.864  30.238  1.00  0.00     0.037 A 
ATOM     50  C   UNL A   1      39.647  33.070  35.810  1.00  0.00     0.037 A 
ATOM     51  C   UNL A   1      41.289  28.647  31.281  1.00  0.00     0.049 A 
ATOM     52  C   UNL A   1      40.721  32.021  35.730  1.00  0.00     0.074 A 
ATOM     53  C   UNL A   1      42.332  27.740  31.318  1.00  0.00     0.029 A 
ATOM     54  N   UNL A   1      41.336  29.364  32.468  1.00  0.00    -0.354 N 
ATOM     55  N   UNL A   1      40.985  31.179  34.760  1.00  0.00    -0.248 NA
ATOM     56  C   UNL A   1      41.617  31.902  36.889  1.00  0.00     0.031 C 
ATOM     57  C   UNL A   1      42.997  27.893  32.540  1.00  0.00     0.029 A 
ATOM     58  C   UNL A   1      42.387  28.916  33.247  1.00  0.00     0.049 A 
ATOM     59  H   UNL A   1      40.712  30.084  32.718  1.00  0.00     0.167 HD
ATOM     60  C   UNL A   1      42.088  30.449  35.178  1.00  0.00     0.074 A 
ATOM     61  C   UNL A   1      42.452  30.955  36.485  1.00  0.00     0.031 C 
ATOM     62  C   UNL A   1      42.739  29.446  34.539  1.00  0.00     0.037 A 
BRANCH  49  63
ATOM     63  C   UNL A   1      40.354  27.971  29.033  1.00  0.00     0.064 A 
ATOM     64  C   UNL A   1      41.111  28.295  27.897  1.00  0.00     0.173 A 
ATOM     65  C   UNL A   1      39.625  26.773  29.017  1.00  0.00     0.173 A 
ATOM     66  F   UNL A   1      41.811  29.440  27.858  1.00  0.00    -0.203 F 
ATOM     67  C   UNL A   1      41.109  27.472  26.776  1.00  0.00     0.198 A 
ATOM     68  C   UNL A   1      39.649  25.937  27.905  1.00  0.00     0.198 A 
ATOM     69  F   UNL A   1      38.887  26.416  30.078  1.00  0.00    -0.203 F 
ATOM     70  F   UNL A   1      41.793  27.832  25.681  1.00  0.00    -0.200 F 
ATOM     71  C   UNL A   1      40.383  26.291  26.781  1.00  0.00     0.200 A 
ATOM     72  F   UNL A   1      38.953  24.791  27.914  1.00  0.00    -0.200 F 
ATOM     73  F   UNL A   1      40.382  25.498  25.701  1.00  0.00    -0.200 F 
ENDBRANCH  49  63
BRANCH  50  74
ATOM     74  C   UNL A   1      39.512  33.934  37.009  1.00  0.00     0.064 A 
ATOM     75  C   UNL A   1      40.123  35.194  37.053  1.00  0.00     0.173 A 
ATOM     76  C   UNL A   1      38.776  33.524  38.130  1.00  0.00     0.173 A 
ATOM     77  F   UNL A   1      40.853  35.620  36.011  1.00  0.00    -0.203 F 
ATOM     78  C   UNL A   1      40.020  36.007  38.181  1.00  0.00     0.198 A 
ATOM     79  C   UNL A   1      38.655  34.347  39.249  1.00  0.00     0.198 A 
ATOM     80  F   UNL A   1      38.168  32.330  38.134  1.00  0.00    -0.203 F 
ATOM     81  F   UNL A   1      40.647  37.190  38.210  1.00  0.00    -0.200 F 
ATOM     82  C   UNL A   1      39.282  35.585  39.276  1.00  0.00     0.200 A 
ATOM     83  F   UNL A   1      37.932  33.941  40.302  1.00  0.00    -0.200 F 
ATOM     84  F   UNL A   1      39.182  36.366  40.359  1.00  0.00    -0.200 F 
ENDBRANCH  50  74
BRANCH  62  85
ATOM     85  C   UNL A   1      43.928  28.854  35.229  1.00  0.00     0.064 A 
ATOM     86  C   UNL A   1      43.800  27.762  36.098  1.00  0.00     0.173 A 
ATOM     87  C   UNL A   1      45.214  29.355  34.979  1.00  0.00     0.173 A 
ATOM     88  F   UNL A   1      42.588  27.260  36.378  1.00  0.00    -0.203 F 
ATOM     89  C   UNL A   1      44.919  27.201  36.706  1.00  0.00     0.198 A 
ATOM     90  C   UNL A   1      46.332  28.777  35.571  1.00  0.00     0.198 A 
ATOM     91  F   UNL A   1      45.385  30.396  34.151  1.00  0.00    -0.203 F 
ATOM     92  F   UNL A   1      44.774  26.179  37.561  1.00  0.00    -0.200 F 
ATOM     93  C   UNL A   1      46.184  27.703  36.437  1.00  0.00     0.200 A 
ATOM     94  F   UNL A   1      47.555  29.257  35.303  1.00  0.00    -0.200 F 
ATOM     95  F   UNL A   1      47.261  27.156  37.019  1.00  0.00    -0.200 F 
ENDBRANCH  62  85
ENDBRANCH  36  37
ENDBRANCH  28  31
ENDBRANCH  26  27
ENDBRANCH  25  26
ENDBRANCH   1  25
TORSDOF 13
ENDMDL
MODEL 3
REMARK VINA RESULT:     -13.3      0.188      1.129
REMARK SMILES C[C@H]1[C@@H](C(=O)NCCCCNC(=O)c2ccc(-c3c4nc(c(-c5c(F)c(F)c(F)c(F)c5F)c5ccc([nH]5)c(-c5c(F)c(F)c(F)c(F)c5F)c5nc(c(-c6c(F)c(F)c(F)c(F)c6F)c6ccc3[nH]6)C=C5)C=C4)cc2)CCN1C(=O)c1cc2cc(F)ccc2s1
REMARK SMILES IDX 8 1 7 2 6 3 4 4 5 5 3 7 1 8 2 9 79 10 77 11 78 12 80 13
REMARK SMILES IDX 81 14 82 15 83 16 91 17 84 18 90 19 85 20 89 21 86 22 88 23
REMARK SMILES IDX 87 24 9 25 10 26 11 27 12 28 13 30 14 31 15 32 76 33 16 34
REMARK SMILES IDX 75 35 17 36 18 37 19 38 69 39 20 40 74 41 68 42 70 43 21 44
REMARK SMILES IDX 73 45 67 46 66 47 22 49 54 50 34 51 53 52 35 53 38 54 52 55
REMARK SMILES IDX 71 56 36 57 37 58 51 60 72 61 39 62 23 63 24 64 32 65 25 66
REMARK SMILES IDX 26 67 30 68 33 69 27 70 28 71 31 72 29 73 55 74 56 75 64 76
REMARK SMILES IDX 57 77 58 78 62 79 65 80 59 81 60 82 63 83 61 84 40 85 41 86
REMARK SMILES IDX 49 87 42 88 43 89 47 90 50 91 44 92 45 93 48 94 46 95
REMARK H PARENT 6 6 11 29 70 48 38 59
REMARK Flexibility Score: inf
ROOT
ATOM      1  C   UNL A   1      31.972  30.202  26.854  1.00  0.00     0.023 C 
ENDROOT
BRANCH   1   2
ATOM      2  C   UNL A   1      33.277  29.616  26.312  1.00  0.00     0.116 C 
BRANCH   2   3
ATOM      3  N   UNL A   1      33.260  29.710  24.873  1.00  0.00    -0.356 N 
ATOM      4  C   UNL A   1      32.719  28.867  23.955  1.00  0.00     0.225 C 
ATOM      5  O   UNL A   1      33.124  29.012  22.799  1.00  0.00    -0.275 OA
ATOM      6  H   UNL A   1      33.706  30.504  24.500  1.00  0.00     0.163 HD
BRANCH   4   7
ATOM      7  C   UNL A   1      31.571  27.910  24.316  1.00  0.00     0.102 C 
ATOM      8  C   UNL A   1      32.879  25.998  25.610  1.00  0.00     0.032 C 
ATOM      9  C   UNL A   1      31.821  26.413  24.613  1.00  0.00     0.094 C 
ATOM     10  N   UNL A   1      31.930  25.761  23.307  1.00  0.00    -0.334 N 
ATOM     11  C   UNL A   1      30.691  27.754  23.056  1.00  0.00     0.037 C 
ATOM     12  C   UNL A   1      31.425  26.663  22.281  1.00  0.00     0.121 C 
BRANCH  10  13
ATOM     13  C   UNL A   1      31.594  24.416  23.195  1.00  0.00     0.264 C 
ATOM     14  O   UNL A   1      30.417  24.065  23.127  1.00  0.00    -0.268 OA
BRANCH  13  15
ATOM     15  C   UNL A   1      32.666  23.444  23.129  1.00  0.00     0.093 A 
ATOM     16  C   UNL A   1      33.982  23.705  22.814  1.00  0.00     0.034 A 
ATOM     17  S   UNL A   1      32.484  21.867  23.753  1.00  0.00    -0.130 S 
ATOM     18  C   UNL A   1      34.869  22.828  23.519  1.00  0.00    -0.004 A 
ATOM     19  C   UNL A   1      34.167  21.789  24.140  1.00  0.00     0.035 A 
ATOM     20  C   UNL A   1      36.256  22.949  23.759  1.00  0.00     0.048 A 
ATOM     21  C   UNL A   1      34.809  20.875  24.999  1.00  0.00     0.022 A 
ATOM     22  C   UNL A   1      36.865  22.098  24.677  1.00  0.00     0.123 A 
ATOM     23  C   UNL A   1      36.160  21.078  25.294  1.00  0.00     0.041 A 
ATOM     24  F   UNL A   1      38.148  22.303  25.001  1.00  0.00    -0.207 F 
ENDBRANCH  13  15
ENDBRANCH  10  13
ENDBRANCH   4   7
ENDBRANCH   2   3
ENDBRANCH   1   2
BRANCH   1  25
ATOM     25  C   UNL A   1      31.816  31.700  26.650  1.00  0.00     0.023 C 
BRANCH  25  26
ATOM     26  C   UNL A   1      32.916  32.517  27.302  1.00  0.00     0.116 C 
BRANCH  26  27
ATOM     27  N   UNL A   1      32.523  33.885  27.612  1.00  0.00    -0.352 N 
ATOM     28  C   UNL A   1      33.065  34.737  28.550  1.00  0.00     0.251 C 
ATOM     29  H   UNL A   1      31.774  34.248  27.085  1.00  0.00     0.163 HD
ATOM     30  O   UNL A   1      32.591  35.841  28.751  1.00  0.00    -0.269 OA
BRANCH  28  31
ATOM     31  C   UNL A   1      34.207  34.248  29.348  1.00  0.00     0.039 A 
ATOM     32  C   UNL A   1      33.951  33.471  30.478  1.00  0.00     0.014 A 
ATOM     33  C   UNL A   1      35.511  34.455  28.897  1.00  0.00     0.014 A 
ATOM     34  C   UNL A   1      35.011  32.818  31.107  1.00  0.00     0.010 A 
ATOM     35  C   UNL A   1      36.546  33.724  29.461  1.00  0.00     0.010 A 
ATOM     36  C   UNL A   1      36.306  32.899  30.570  1.00  0.00    -0.014 A 
BRANCH  36  37
ATOM     37  C   UNL A   1      37.438  32.140  31.155  1.00  0.00     0.031 A 
ATOM     38  C   UNL A   1      37.914  32.476  32.540  1.00  0.00     0.074 A 
ATOM     39  C   UNL A   1      38.092  31.229  30.411  1.00  0.00     0.049 A 
ATOM     40  N   UNL A   1      38.957  32.026  33.189  1.00  0.00    -0.248 NA
ATOM     41  C   UNL A   1      37.140  33.488  33.276  1.00  0.00     0.031 C 
ATOM     42  C   UNL A   1      37.770  30.870  29.028  1.00  0.00     0.029 A 
ATOM     43  N   UNL A   1      39.176  30.442  30.713  1.00  0.00    -0.354 N 
ATOM     44  C   UNL A   1      38.983  32.730  34.386  1.00  0.00     0.074 A 
ATOM     45  C   UNL A   1      37.888  33.671  34.352  1.00  0.00     0.031 C 
ATOM     46  C   UNL A   1      38.617  29.914  28.612  1.00  0.00     0.029 A 
ATOM     47  C   UNL A   1      39.560  29.616  29.686  1.00  0.00     0.049 A 
ATOM     48  H   UNL A   1      39.635  30.470  31.583  1.00  0.00     0.167 HD
ATOM     49  C   UNL A   1      39.828  32.581  35.432  1.00  0.00     0.037 A 
ATOM     50  C   UNL A   1      40.560  28.716  29.624  1.00  0.00     0.037 A 
ATOM     51  C   UNL A   1      40.874  31.596  35.487  1.00  0.00     0.049 A 
ATOM     52  C   UNL A   1      41.443  28.521  30.827  1.00  0.00     0.074 A 
ATOM     53  C   UNL A   1      41.730  31.303  36.533  1.00  0.00     0.029 A 
ATOM     54  N   UNL A   1      41.190  30.729  34.452  1.00  0.00    -0.354 N 
ATOM     55  N   UNL A   1      41.419  29.146  31.979  1.00  0.00    -0.248 NA
ATOM     56  C   UNL A   1      42.486  27.492  30.722  1.00  0.00     0.031 C 
ATOM     57  C   UNL A   1      42.582  30.273  36.121  1.00  0.00     0.029 A 
ATOM     58  C   UNL A   1      42.234  29.904  34.832  1.00  0.00     0.049 A 
ATOM     59  H   UNL A   1      40.740  30.706  33.576  1.00  0.00     0.167 HD
ATOM     60  C   UNL A   1      42.423  28.572  32.745  1.00  0.00     0.074 A 
ATOM     61  C   UNL A   1      43.030  27.539  31.930  1.00  0.00     0.031 C 
ATOM     62  C   UNL A   1      42.811  28.874  34.008  1.00  0.00     0.037 A 
BRANCH  49  63
ATOM     63  C   UNL A   1      39.637  33.495  36.605  1.00  0.00     0.064 A 
ATOM     64  C   UNL A   1      40.286  34.737  36.681  1.00  0.00     0.173 A 
ATOM     65  C   UNL A   1      38.790  33.130  37.662  1.00  0.00     0.173 A 
ATOM     66  F   UNL A   1      41.120  35.123  35.703  1.00  0.00    -0.203 F 
ATOM     67  C   UNL A   1      40.121  35.565  37.787  1.00  0.00     0.198 A 
ATOM     68  C   UNL A   1      38.605  33.973  38.753  1.00  0.00     0.198 A 
ATOM     69  F   UNL A   1      38.146  31.954  37.637  1.00  0.00    -0.203 F 
ATOM     70  F   UNL A   1      40.796  36.720  37.864  1.00  0.00    -0.200 F 
ATOM     71  C   UNL A   1      39.278  35.186  38.820  1.00  0.00     0.200 A 
ATOM     72  F   UNL A   1      37.783  33.610  39.748  1.00  0.00    -0.200 F 
ATOM     73  F   UNL A   1      39.120  35.984  39.886  1.00  0.00    -0.200 F 
ENDBRANCH  49  63
BRANCH  50  74
ATOM     74  C   UNL A   1      40.749  27.899  28.400  1.00  0.00     0.064 A 
ATOM     75  C   UNL A   1      40.108  26.660  28.263  1.00  0.00     0.173 A 
ATOM     76  C   UNL A   1      41.568  28.332  27.347  1.00  0.00     0.173 A 
ATOM     77  F   UNL A   1      39.330  26.197  29.253  1.00  0.00    -0.203 F 
ATOM     78  C   UNL A   1      40.292  25.875  27.127  1.00  0.00     0.198 A 
ATOM     79  C   UNL A   1      41.734  27.556  26.201  1.00  0.00     0.198 A 
ATOM     80  F   UNL A   1      42.197  29.513  27.428  1.00  0.00    -0.203 F 
ATOM     81  F   UNL A   1      39.698  24.677  27.039  1.00  0.00    -0.200 F 
ATOM     82  C   UNL A   1      41.101  26.325  26.095  1.00  0.00     0.200 A 
ATOM     83  F   UNL A   1      42.507  27.999  25.200  1.00  0.00    -0.200 F 
ATOM     84  F   UNL A   1      41.277  25.571  25.001  1.00  0.00    -0.200 F 
ENDBRANCH  50  74
BRANCH  62  85
ATOM     85  C   UNL A   1      43.920  28.058  34.596  1.00  0.00     0.064 A 
ATOM     86  C   UNL A   1      45.255  28.479  34.523  1.00  0.00     0.173 A 
ATOM     87  C   UNL A   1      43.637  26.868  35.283  1.00  0.00     0.173 A 
ATOM     88  F   UNL A   1      45.574  29.603  33.863  1.00  0.00    -0.203 F 
ATOM     89  C   UNL A   1      46.272  27.727  35.104  1.00  0.00     0.198 A 
ATOM     90  C   UNL A   1      44.654  26.131  35.881  1.00  0.00     0.198 A 
ATOM     91  F   UNL A   1      42.374  26.429  35.382  1.00  0.00    -0.203 F 
ATOM     92  F   UNL A   1      47.546  28.128  34.993  1.00  0.00    -0.200 F 
ATOM     93  C   UNL A   1      45.970  26.559  35.788  1.00  0.00     0.200 A 
ATOM     94  F   UNL A   1      44.361  25.007  36.551  1.00  0.00    -0.200 F 
ATOM     95  F   UNL A   1      46.951  25.840  36.353  1.00  0.00    -0.200 F 
ENDBRANCH  62  85
ENDBRANCH  36  37
ENDBRANCH  28  31
ENDBRANCH  26  27
ENDBRANCH  25  26
ENDBRANCH   1  25
TORSDOF 13
ENDMDL
