MODEL 1
REMARK VINA RESULT:     -11.7      0.000      0.000
REMARK SMILES [NH3+][C@]1(C(=O)NCCCCNC(=O)c2ccc(-c3c4nc(c(-c5c(F)c(F)c(F)c(F)c5F)c5ccc([nH]5)c(-c5c(F)c(F)c(F)c(F)c5F)c5nc(c(-c6c(F)c(F)c(F)c(F)c6F)c6ccc3[nH]6)C=C5)C=C4)cc2)CCC[C@@H](OC2CCC2)C1
REMARK SMILES IDX 7 1 6 2 5 3 3 4 4 5 2 7 76 8 85 9 77 10 79 11 78 12 1 13
REMARK SMILES IDX 80 17 81 18 82 19 84 20 83 21 8 22 9 23 10 24 11 25 12 27
REMARK SMILES IDX 13 28 14 29 75 30 15 31 74 32 16 33 17 34 18 35 68 36 19 37
REMARK SMILES IDX 73 38 67 39 69 40 20 41 72 42 66 43 65 44 21 46 53 47 33 48
REMARK SMILES IDX 52 49 34 50 37 51 51 52 70 53 35 54 36 55 50 57 71 58 38 59
REMARK SMILES IDX 22 60 23 61 31 62 24 63 25 64 29 65 32 66 26 67 27 68 30 69
REMARK SMILES IDX 28 70 54 71 55 72 63 73 56 74 57 75 61 76 64 77 58 78 59 79
REMARK SMILES IDX 62 80 60 81 39 82 40 83 48 84 41 85 42 86 46 87 49 88 43 89
REMARK SMILES IDX 44 90 47 91 45 92
REMARK H PARENT 5 6 1 14 1 15 1 16 10 26 69 45 37 56
REMARK Flexibility Score: inf
ROOT
ATOM      1  C   UNL A   1      31.464  30.566  26.491  1.00  0.00     0.023 C 
ENDROOT
BRANCH   1   2
ATOM      2  C   UNL A   1      32.116  29.911  25.273  1.00  0.00     0.116 C 
BRANCH   2   3
ATOM      3  N   UNL A   1      31.332  28.848  24.694  1.00  0.00    -0.351 N 
ATOM      4  C   UNL A   1      31.087  27.560  25.058  1.00  0.00     0.281 C 
ATOM      5  O   UNL A   1      30.170  27.034  24.409  1.00  0.00    -0.268 OA
ATOM      6  H   UNL A   1      30.880  29.109  23.860  1.00  0.00     0.163 HD
BRANCH   4   7
ATOM      7  C   UNL A   1      31.792  26.807  26.270  1.00  0.00     0.176 C 
ATOM      8  C   UNL A   1      31.409  25.292  26.158  1.00  0.00     0.079 C 
ATOM      9  C   UNL A   1      33.333  26.950  26.384  1.00  0.00     0.111 C 
ATOM     10  C   UNL A   1      32.531  24.281  26.401  1.00  0.00     0.010 C 
ATOM     11  C   UNL A   1      34.043  26.074  25.349  1.00  0.00     0.125 C 
ATOM     12  C   UNL A   1      33.880  24.611  25.751  1.00  0.00     0.032 C 
BRANCH   7  13
ATOM     13  N   UNL A   1      31.185  27.354  27.511  1.00  0.00    -0.345 N 
ATOM     14  H   UNL A   1      31.909  27.468  28.221  1.00  0.00     0.345 HD
ATOM     15  H   UNL A   1      30.472  26.709  27.853  1.00  0.00     0.345 HD
ATOM     16  H   UNL A   1      30.758  28.257  27.311  1.00  0.00     0.345 HD
ENDBRANCH   7  13
BRANCH  11  17
ATOM     17  O   UNL A   1      33.439  26.468  24.132  1.00  0.00    -0.375 OA
BRANCH  17  18
ATOM     18  C   UNL A   1      33.515  25.739  22.900  1.00  0.00     0.118 C 
ATOM     19  C   UNL A   1      32.322  24.849  22.487  1.00  0.00     0.032 C 
ATOM     20  C   UNL A   1      33.163  26.660  21.700  1.00  0.00     0.032 C 
ATOM     21  C   UNL A   1      31.791  25.983  21.607  1.00  0.00     0.005 C 
ENDBRANCH  17  18
ENDBRANCH  11  17
ENDBRANCH   4   7
ENDBRANCH   2   3
ENDBRANCH   1   2
BRANCH   1  22
ATOM     22  C   UNL A   1      31.456  32.096  26.532  1.00  0.00     0.023 C 
BRANCH  22  23
ATOM     23  C   UNL A   1      32.624  32.773  27.237  1.00  0.00     0.116 C 
BRANCH  23  24
ATOM     24  N   UNL A   1      32.353  34.145  27.637  1.00  0.00    -0.352 N 
ATOM     25  C   UNL A   1      32.996  34.950  28.543  1.00  0.00     0.251 C 
ATOM     26  H   UNL A   1      31.584  34.562  27.186  1.00  0.00     0.163 HD
ATOM     27  O   UNL A   1      32.555  36.077  28.770  1.00  0.00    -0.269 OA
BRANCH  25  28
ATOM     28  C   UNL A   1      34.182  34.469  29.286  1.00  0.00     0.039 A 
ATOM     29  C   UNL A   1      33.979  33.811  30.504  1.00  0.00     0.014 A 
ATOM     30  C   UNL A   1      35.480  34.658  28.807  1.00  0.00     0.014 A 
ATOM     31  C   UNL A   1      35.066  33.272  31.197  1.00  0.00     0.010 A 
ATOM     32  C   UNL A   1      36.555  34.055  29.459  1.00  0.00     0.010 A 
ATOM     33  C   UNL A   1      36.359  33.352  30.657  1.00  0.00    -0.014 A 
BRANCH  33  34
ATOM     34  C   UNL A   1      37.513  32.698  31.325  1.00  0.00     0.031 A 
ATOM     35  C   UNL A   1      38.231  31.560  30.656  1.00  0.00     0.074 A 
ATOM     36  C   UNL A   1      37.870  33.083  32.567  1.00  0.00     0.049 A 
ATOM     37  N   UNL A   1      39.202  30.809  31.113  1.00  0.00    -0.248 NA
ATOM     38  C   UNL A   1      37.781  31.200  29.303  1.00  0.00     0.031 C 
ATOM     39  C   UNL A   1      37.224  34.144  33.341  1.00  0.00     0.029 A 
ATOM     40  N   UNL A   1      38.854  32.616  33.402  1.00  0.00    -0.354 N 
ATOM     41  C   UNL A   1      39.465  29.882  30.114  1.00  0.00     0.074 A 
ATOM     42  C   UNL A   1      38.520  30.131  29.047  1.00  0.00     0.031 C 
ATOM     43  C   UNL A   1      37.839  34.259  34.529  1.00  0.00     0.029 A 
ATOM     44  C   UNL A   1      38.896  33.256  34.617  1.00  0.00     0.049 A 
ATOM     45  H   UNL A   1      39.471  31.890  33.153  1.00  0.00     0.167 HD
ATOM     46  C   UNL A   1      40.422  28.924  30.081  1.00  0.00     0.037 A 
ATOM     47  C   UNL A   1      39.690  33.050  35.685  1.00  0.00     0.037 A 
ATOM     48  C   UNL A   1      41.377  28.695  31.133  1.00  0.00     0.049 A 
ATOM     49  C   UNL A   1      40.741  31.975  35.625  1.00  0.00     0.074 A 
ATOM     50  C   UNL A   1      42.425  27.791  31.164  1.00  0.00     0.029 A 
ATOM     51  N   UNL A   1      41.400  29.377  32.340  1.00  0.00    -0.354 N 
ATOM     52  N   UNL A   1      41.023  31.148  34.647  1.00  0.00    -0.248 NA
ATOM     53  C   UNL A   1      41.585  31.805  36.815  1.00  0.00     0.031 C 
ATOM     54  C   UNL A   1      43.054  27.894  32.410  1.00  0.00     0.029 A 
ATOM     55  C   UNL A   1      42.429  28.897  33.134  1.00  0.00     0.049 A 
ATOM     56  H   UNL A   1      40.777  30.095  32.595  1.00  0.00     0.167 HD
ATOM     57  C   UNL A   1      42.093  30.383  35.091  1.00  0.00     0.074 A 
ATOM     58  C   UNL A   1      42.418  30.852  36.422  1.00  0.00     0.031 C 
ATOM     59  C   UNL A   1      42.746  29.382  34.454  1.00  0.00     0.037 A 
BRANCH  46  60
ATOM     60  C   UNL A   1      40.486  28.050  28.861  1.00  0.00     0.064 A 
ATOM     61  C   UNL A   1      39.783  26.838  28.786  1.00  0.00     0.173 A 
ATOM     62  C   UNL A   1      41.231  28.447  27.740  1.00  0.00     0.173 A 
ATOM     63  F   UNL A   1      39.065  26.408  29.834  1.00  0.00    -0.203 F 
ATOM     64  C   UNL A   1      39.846  26.042  27.645  1.00  0.00     0.198 A 
ATOM     65  C   UNL A   1      41.267  27.663  26.589  1.00  0.00     0.198 A 
ATOM     66  F   UNL A   1      41.916  29.600  27.755  1.00  0.00    -0.203 F 
ATOM     67  F   UNL A   1      39.206  24.865  27.616  1.00  0.00    -0.200 F 
ATOM     68  C   UNL A   1      40.581  26.458  26.545  1.00  0.00     0.200 A 
ATOM     69  F   UNL A   1      41.966  28.073  25.522  1.00  0.00    -0.200 F 
ATOM     70  F   UNL A   1      40.635  25.694  25.446  1.00  0.00    -0.200 F 
ENDBRANCH  46  60
BRANCH  47  71
ATOM     71  C   UNL A   1      39.537  33.896  36.897  1.00  0.00     0.064 A 
ATOM     72  C   UNL A   1      38.774  33.456  37.988  1.00  0.00     0.173 A 
ATOM     73  C   UNL A   1      40.142  35.157  36.991  1.00  0.00     0.173 A 
ATOM     74  F   UNL A   1      38.159  32.265  37.937  1.00  0.00    -0.203 F 
ATOM     75  C   UNL A   1      38.606  34.253  39.118  1.00  0.00     0.198 A 
ATOM     76  C   UNL A   1      39.996  35.943  38.132  1.00  0.00     0.198 A 
ATOM     77  F   UNL A   1      40.885  35.623  35.976  1.00  0.00    -0.203 F 
ATOM     78  F   UNL A   1      37.834  33.827  40.127  1.00  0.00    -0.200 F 
ATOM     79  C   UNL A   1      39.221  35.494  39.191  1.00  0.00     0.200 A 
ATOM     80  F   UNL A   1      40.603  37.135  38.205  1.00  0.00    -0.200 F 
ATOM     81  F   UNL A   1      39.061  36.260  40.280  1.00  0.00    -0.200 F 
ENDBRANCH  47  71
BRANCH  59  82
ATOM     82  C   UNL A   1      43.902  28.747  35.171  1.00  0.00     0.064 A 
ATOM     83  C   UNL A   1      43.731  27.623  35.993  1.00  0.00     0.173 A 
ATOM     84  C   UNL A   1      45.202  29.245  34.999  1.00  0.00     0.173 A 
ATOM     85  F   UNL A   1      42.506  27.121  36.201  1.00  0.00    -0.203 F 
ATOM     86  C   UNL A   1      44.819  27.035  36.634  1.00  0.00     0.198 A 
ATOM     87  C   UNL A   1      46.291  28.636  35.618  1.00  0.00     0.198 A 
ATOM     88  F   UNL A   1      45.420  30.314  34.219  1.00  0.00    -0.203 F 
ATOM     89  F   UNL A   1      44.627  25.989  37.449  1.00  0.00    -0.200 F 
ATOM     90  C   UNL A   1      46.097  27.536  36.438  1.00  0.00     0.200 A 
ATOM     91  F   UNL A   1      47.527  29.114  35.418  1.00  0.00    -0.200 F 
ATOM     92  F   UNL A   1      47.143  26.961  37.049  1.00  0.00    -0.200 F 
ENDBRANCH  59  82
ENDBRANCH  33  34
ENDBRANCH  25  28
ENDBRANCH  23  24
ENDBRANCH  22  23
ENDBRANCH   1  22
TORSDOF 14
ENDMDL
MODEL 2
REMARK VINA RESULT:     -11.5      3.643      7.873
REMARK SMILES [NH3+][C@]1(C(=O)NCCCCNC(=O)c2ccc(-c3c4nc(c(-c5c(F)c(F)c(F)c(F)c5F)c5ccc([nH]5)c(-c5c(F)c(F)c(F)c(F)c5F)c5nc(c(-c6c(F)c(F)c(F)c(F)c6F)c6ccc3[nH]6)C=C5)C=C4)cc2)CCC[C@@H](OC2CCC2)C1
REMARK SMILES IDX 7 1 6 2 5 3 3 4 4 5 2 7 76 8 85 9 77 10 79 11 78 12 1 13
REMARK SMILES IDX 80 17 81 18 82 19 84 20 83 21 8 22 9 23 10 24 11 25 12 27
REMARK SMILES IDX 13 28 14 29 75 30 15 31 74 32 16 33 17 34 18 35 68 36 19 37
REMARK SMILES IDX 73 38 67 39 69 40 20 41 72 42 66 43 65 44 21 46 53 47 33 48
REMARK SMILES IDX 52 49 34 50 37 51 51 52 70 53 35 54 36 55 50 57 71 58 38 59
REMARK SMILES IDX 22 60 23 61 31 62 24 63 25 64 29 65 32 66 26 67 27 68 30 69
REMARK SMILES IDX 28 70 54 71 55 72 63 73 56 74 57 75 61 76 64 77 58 78 59 79
REMARK SMILES IDX 62 80 60 81 39 82 40 83 48 84 41 85 42 86 46 87 49 88 43 89
REMARK SMILES IDX 44 90 47 91 45 92
REMARK H PARENT 5 6 1 14 1 15 1 16 10 26 69 45 37 56
REMARK Flexibility Score: inf
ROOT
ATOM      1  C   UNL A   1      34.655  24.503  25.718  1.00  0.00     0.023 C 
ENDROOT
BRANCH   1   2
ATOM      2  C   UNL A   1      33.274  23.863  25.577  1.00  0.00     0.116 C 
BRANCH   2   3
ATOM      3  N   UNL A   1      32.210  24.636  26.167  1.00  0.00    -0.351 N 
ATOM      4  C   UNL A   1      31.142  25.306  25.654  1.00  0.00     0.281 C 
ATOM      5  O   UNL A   1      30.326  25.662  26.518  1.00  0.00    -0.268 OA
ATOM      6  H   UNL A   1      32.269  24.693  27.148  1.00  0.00     0.163 HD
BRANCH   4   7
ATOM      7  C   UNL A   1      30.865  25.523  24.102  1.00  0.00     0.176 C 
ATOM      8  C   UNL A   1      29.813  26.677  23.977  1.00  0.00     0.079 C 
ATOM      9  C   UNL A   1      32.093  25.835  23.206  1.00  0.00     0.111 C 
ATOM     10  C   UNL A   1      30.066  27.721  22.888  1.00  0.00     0.010 C 
ATOM     11  C   UNL A   1      32.549  27.285  23.388  1.00  0.00     0.125 C 
ATOM     12  C   UNL A   1      31.513  28.207  22.752  1.00  0.00     0.032 C 
BRANCH   7  13
ATOM     13  N   UNL A   1      30.243  24.266  23.610  1.00  0.00    -0.345 N 
ATOM     14  H   UNL A   1      30.602  24.051  22.679  1.00  0.00     0.345 HD
ATOM     15  H   UNL A   1      29.231  24.383  23.564  1.00  0.00     0.345 HD
ATOM     16  H   UNL A   1      30.468  23.503  24.247  1.00  0.00     0.345 HD
ENDBRANCH   7  13
BRANCH  11  17
ATOM     17  O   UNL A   1      32.719  27.391  24.788  1.00  0.00    -0.375 OA
BRANCH  17  18
ATOM     18  C   UNL A   1      32.980  28.609  25.496  1.00  0.00     0.118 C 
ATOM     19  C   UNL A   1      31.786  29.435  26.025  1.00  0.00     0.032 C 
ATOM     20  C   UNL A   1      33.347  28.311  26.975  1.00  0.00     0.032 C 
ATOM     21  C   UNL A   1      31.950  28.780  27.397  1.00  0.00     0.005 C 
ENDBRANCH  17  18
ENDBRANCH  11  17
ENDBRANCH   4   7
ENDBRANCH   2   3
ENDBRANCH   1   2
BRANCH   1  22
ATOM     22  C   UNL A   1      35.828  23.562  26.001  1.00  0.00     0.023 C 
BRANCH  22  23
ATOM     23  C   UNL A   1      37.091  23.765  25.173  1.00  0.00     0.116 C 
BRANCH  23  24
ATOM     24  N   UNL A   1      38.174  22.860  25.522  1.00  0.00    -0.352 N 
ATOM     25  C   UNL A   1      39.301  23.072  26.276  1.00  0.00     0.251 C 
ATOM     26  H   UNL A   1      38.083  21.949  25.161  1.00  0.00     0.163 HD
ATOM     27  O   UNL A   1      40.125  22.166  26.398  1.00  0.00    -0.269 OA
BRANCH  25  28
ATOM     28  C   UNL A   1      39.565  24.386  26.903  1.00  0.00     0.039 A 
ATOM     29  C   UNL A   1      39.123  24.595  28.214  1.00  0.00     0.014 A 
ATOM     30  C   UNL A   1      40.233  25.407  26.225  1.00  0.00     0.014 A 
ATOM     31  C   UNL A   1      39.421  25.792  28.869  1.00  0.00     0.010 A 
ATOM     32  C   UNL A   1      40.596  26.570  26.902  1.00  0.00     0.010 A 
ATOM     33  C   UNL A   1      40.199  26.772  28.233  1.00  0.00    -0.014 A 
BRANCH  33  34
ATOM     34  C   UNL A   1      40.614  28.008  28.945  1.00  0.00     0.031 A 
ATOM     35  C   UNL A   1      42.011  28.140  29.483  1.00  0.00     0.074 A 
ATOM     36  C   UNL A   1      39.710  28.982  29.172  1.00  0.00     0.049 A 
ATOM     37  N   UNL A   1      42.535  29.100  30.203  1.00  0.00    -0.248 NA
ATOM     38  C   UNL A   1      42.936  27.033  29.195  1.00  0.00     0.031 C 
ATOM     39  C   UNL A   1      38.312  28.955  28.742  1.00  0.00     0.029 A 
ATOM     40  N   UNL A   1      39.830  30.179  29.832  1.00  0.00    -0.354 N 
ATOM     41  C   UNL A   1      43.840  28.705  30.467  1.00  0.00     0.074 A 
ATOM     42  C   UNL A   1      44.014  27.397  29.873  1.00  0.00     0.031 C 
ATOM     43  C   UNL A   1      37.708  30.088  29.133  1.00  0.00     0.029 A 
ATOM     44  C   UNL A   1      38.664  30.905  29.874  1.00  0.00     0.049 A 
ATOM     45  H   UNL A   1      40.672  30.489  30.238  1.00  0.00     0.167 HD
ATOM     46  C   UNL A   1      44.811  29.382  31.126  1.00  0.00     0.037 A 
ATOM     47  C   UNL A   1      38.393  32.090  30.455  1.00  0.00     0.037 A 
ATOM     48  C   UNL A   1      44.642  30.694  31.693  1.00  0.00     0.049 A 
ATOM     49  C   UNL A   1      39.488  32.818  31.187  1.00  0.00     0.074 A 
ATOM     50  C   UNL A   1      45.584  31.488  32.324  1.00  0.00     0.029 A 
ATOM     51  N   UNL A   1      43.452  31.405  31.699  1.00  0.00    -0.354 N 
ATOM     52  N   UNL A   1      40.736  32.464  31.371  1.00  0.00    -0.248 NA
ATOM     53  C   UNL A   1      39.136  34.111  31.788  1.00  0.00     0.031 C 
ATOM     54  C   UNL A   1      44.952  32.660  32.752  1.00  0.00     0.029 A 
ATOM     55  C   UNL A   1      43.629  32.618  32.343  1.00  0.00     0.049 A 
ATOM     56  H   UNL A   1      42.606  31.092  31.303  1.00  0.00     0.167 HD
ATOM     57  C   UNL A   1      41.325  33.501  32.083  1.00  0.00     0.074 A 
ATOM     58  C   UNL A   1      40.301  34.503  32.284  1.00  0.00     0.031 C 
ATOM     59  C   UNL A   1      42.600  33.611  32.528  1.00  0.00     0.037 A 
BRANCH  46  60
ATOM     60  C   UNL A   1      46.149  28.714  31.266  1.00  0.00     0.064 A 
ATOM     61  C   UNL A   1      47.158  28.880  30.306  1.00  0.00     0.173 A 
ATOM     62  C   UNL A   1      46.437  27.928  32.393  1.00  0.00     0.173 A 
ATOM     63  F   UNL A   1      46.930  29.612  29.206  1.00  0.00    -0.203 F 
ATOM     64  C   UNL A   1      48.397  28.261  30.454  1.00  0.00     0.198 A 
ATOM     65  C   UNL A   1      47.687  27.336  32.552  1.00  0.00     0.198 A 
ATOM     66  F   UNL A   1      45.511  27.743  33.345  1.00  0.00    -0.203 F 
ATOM     67  F   UNL A   1      49.328  28.394  29.499  1.00  0.00    -0.200 F 
ATOM     68  C   UNL A   1      48.663  27.496  31.579  1.00  0.00     0.200 A 
ATOM     69  F   UNL A   1      47.949  26.609  33.647  1.00  0.00    -0.200 F 
ATOM     70  F   UNL A   1      49.858  26.907  31.723  1.00  0.00    -0.200 F 
ENDBRANCH  46  60
BRANCH  47  71
ATOM     71  C   UNL A   1      37.031  32.674  30.349  1.00  0.00     0.064 A 
ATOM     72  C   UNL A   1      36.668  33.456  29.243  1.00  0.00     0.173 A 
ATOM     73  C   UNL A   1      36.068  32.469  31.347  1.00  0.00     0.173 A 
ATOM     74  F   UNL A   1      37.562  33.697  28.273  1.00  0.00    -0.203 F 
ATOM     75  C   UNL A   1      35.401  34.026  29.149  1.00  0.00     0.198 A 
ATOM     76  C   UNL A   1      34.791  33.018  31.240  1.00  0.00     0.198 A 
ATOM     77  F   UNL A   1      36.363  31.727  32.425  1.00  0.00    -0.203 F 
ATOM     78  F   UNL A   1      35.096  34.807  28.103  1.00  0.00    -0.200 F 
ATOM     79  C   UNL A   1      34.462  33.803  30.145  1.00  0.00     0.200 A 
ATOM     80  F   UNL A   1      33.882  32.789  32.197  1.00  0.00    -0.200 F 
ATOM     81  F   UNL A   1      33.242  34.350  30.053  1.00  0.00    -0.200 F 
ENDBRANCH  47  71
BRANCH  59  82
ATOM     82  C   UNL A   1      42.971  34.874  33.248  1.00  0.00     0.064 A 
ATOM     83  C   UNL A   1      43.382  36.024  32.556  1.00  0.00     0.173 A 
ATOM     84  C   UNL A   1      42.873  34.949  34.646  1.00  0.00     0.173 A 
ATOM     85  F   UNL A   1      43.508  35.997  31.221  1.00  0.00    -0.203 F 
ATOM     86  C   UNL A   1      43.703  37.193  33.240  1.00  0.00     0.198 A 
ATOM     87  C   UNL A   1      43.166  36.129  35.323  1.00  0.00     0.198 A 
ATOM     88  F   UNL A   1      42.479  33.879  35.354  1.00  0.00    -0.203 F 
ATOM     89  F   UNL A   1      44.135  38.265  32.562  1.00  0.00    -0.200 F 
ATOM     90  C   UNL A   1      43.586  37.247  34.621  1.00  0.00     0.200 A 
ATOM     91  F   UNL A   1      43.039  36.183  36.657  1.00  0.00    -0.200 F 
ATOM     92  F   UNL A   1      43.886  38.378  35.276  1.00  0.00    -0.200 F 
ENDBRANCH  59  82
ENDBRANCH  33  34
ENDBRANCH  25  28
ENDBRANCH  23  24
ENDBRANCH  22  23
ENDBRANCH   1  22
TORSDOF 14
ENDMDL
MODEL 3
REMARK VINA RESULT:     -11.5      1.270      2.290
REMARK SMILES [NH3+][C@]1(C(=O)NCCCCNC(=O)c2ccc(-c3c4nc(c(-c5c(F)c(F)c(F)c(F)c5F)c5ccc([nH]5)c(-c5c(F)c(F)c(F)c(F)c5F)c5nc(c(-c6c(F)c(F)c(F)c(F)c6F)c6ccc3[nH]6)C=C5)C=C4)cc2)CCC[C@@H](OC2CCC2)C1
REMARK SMILES IDX 7 1 6 2 5 3 3 4 4 5 2 7 76 8 85 9 77 10 79 11 78 12 1 13
REMARK SMILES IDX 80 17 81 18 82 19 84 20 83 21 8 22 9 23 10 24 11 25 12 27
REMARK SMILES IDX 13 28 14 29 75 30 15 31 74 32 16 33 17 34 18 35 68 36 19 37
REMARK SMILES IDX 73 38 67 39 69 40 20 41 72 42 66 43 65 44 21 46 53 47 33 48
REMARK SMILES IDX 52 49 34 50 37 51 51 52 70 53 35 54 36 55 50 57 71 58 38 59
REMARK SMILES IDX 22 60 23 61 31 62 24 63 25 64 29 65 32 66 26 67 27 68 30 69
REMARK SMILES IDX 28 70 54 71 55 72 63 73 56 74 57 75 61 76 64 77 58 78 59 79
REMARK SMILES IDX 62 80 60 81 39 82 40 83 48 84 41 85 42 86 46 87 49 88 43 89
REMARK SMILES IDX 44 90 47 91 45 92
REMARK H PARENT 5 6 1 14 1 15 1 16 10 26 69 45 37 56
REMARK Flexibility Score: inf
ROOT
ATOM      1  C   UNL A   1      31.973  30.592  26.898  1.00  0.00     0.023 C 
ENDROOT
BRANCH   1   2
ATOM      2  C   UNL A   1      31.558  29.797  25.659  1.00  0.00     0.116 C 
BRANCH   2   3
ATOM      3  N   UNL A   1      32.582  29.721  24.647  1.00  0.00    -0.351 N 
ATOM      4  C   UNL A   1      32.923  28.778  23.727  1.00  0.00     0.281 C 
ATOM      5  O   UNL A   1      33.730  29.188  22.880  1.00  0.00    -0.268 OA
ATOM      6  H   UNL A   1      33.157  30.519  24.615  1.00  0.00     0.163 HD
BRANCH   4   7
ATOM      7  C   UNL A   1      32.280  27.324  23.635  1.00  0.00     0.176 C 
ATOM      8  C   UNL A   1      31.468  27.093  24.954  1.00  0.00     0.079 C 
ATOM      9  C   UNL A   1      31.378  27.033  22.407  1.00  0.00     0.111 C 
ATOM     10  C   UNL A   1      30.093  26.439  24.808  1.00  0.00     0.010 C 
ATOM     11  C   UNL A   1      30.006  27.693  22.566  1.00  0.00     0.125 C 
ATOM     12  C   UNL A   1      29.229  26.953  23.651  1.00  0.00     0.032 C 
BRANCH   7  13
ATOM     13  N   UNL A   1      33.416  26.367  23.608  1.00  0.00    -0.345 N 
ATOM     14  H   UNL A   1      34.094  26.663  22.906  1.00  0.00     0.345 HD
ATOM     15  H   UNL A   1      33.071  25.436  23.374  1.00  0.00     0.345 HD
ATOM     16  H   UNL A   1      33.863  26.343  24.524  1.00  0.00     0.345 HD
ENDBRANCH   7  13
BRANCH  11  17
ATOM     17  O   UNL A   1      30.333  29.044  22.830  1.00  0.00    -0.375 OA
BRANCH  17  18
ATOM     18  C   UNL A   1      29.602  30.178  22.348  1.00  0.00     0.118 C 
ATOM     19  C   UNL A   1      28.174  29.966  21.797  1.00  0.00     0.032 C 
ATOM     20  C   UNL A   1      28.962  30.957  23.530  1.00  0.00     0.032 C 
ATOM     21  C   UNL A   1      27.599  30.365  23.157  1.00  0.00     0.005 C 
ENDBRANCH  17  18
ENDBRANCH  11  17
ENDBRANCH   4   7
ENDBRANCH   2   3
ENDBRANCH   1   2
BRANCH   1  22
ATOM     22  C   UNL A   1      31.680  32.094  26.887  1.00  0.00     0.023 C 
BRANCH  22  23
ATOM     23  C   UNL A   1      32.856  33.028  27.142  1.00  0.00     0.116 C 
BRANCH  23  24
ATOM     24  N   UNL A   1      32.471  34.320  27.688  1.00  0.00    -0.352 N 
ATOM     25  C   UNL A   1      33.019  35.051  28.712  1.00  0.00     0.251 C 
ATOM     26  H   UNL A   1      31.693  34.737  27.252  1.00  0.00     0.163 HD
ATOM     27  O   UNL A   1      32.490  36.109  29.049  1.00  0.00    -0.269 OA
BRANCH  25  28
ATOM     28  C   UNL A   1      34.207  34.563  29.449  1.00  0.00     0.039 A 
ATOM     29  C   UNL A   1      34.008  33.933  30.682  1.00  0.00     0.014 A 
ATOM     30  C   UNL A   1      35.501  34.718  28.949  1.00  0.00     0.014 A 
ATOM     31  C   UNL A   1      35.094  33.388  31.371  1.00  0.00     0.010 A 
ATOM     32  C   UNL A   1      36.574  34.109  29.598  1.00  0.00     0.010 A 
ATOM     33  C   UNL A   1      36.381  33.434  30.813  1.00  0.00    -0.014 A 
BRANCH  33  34
ATOM     34  C   UNL A   1      37.533  32.773  31.478  1.00  0.00     0.031 A 
ATOM     35  C   UNL A   1      38.225  31.612  30.821  1.00  0.00     0.074 A 
ATOM     36  C   UNL A   1      37.910  33.172  32.710  1.00  0.00     0.049 A 
ATOM     37  N   UNL A   1      39.189  30.853  31.279  1.00  0.00    -0.248 NA
ATOM     38  C   UNL A   1      37.752  31.236  29.480  1.00  0.00     0.031 C 
ATOM     39  C   UNL A   1      37.291  34.257  33.473  1.00  0.00     0.029 A 
ATOM     40  N   UNL A   1      38.897  32.703  33.540  1.00  0.00    -0.354 N 
ATOM     41  C   UNL A   1      39.424  29.904  30.293  1.00  0.00     0.074 A 
ATOM     42  C   UNL A   1      38.471  30.151  29.233  1.00  0.00     0.031 C 
ATOM     43  C   UNL A   1      37.923  34.382  34.651  1.00  0.00     0.029 A 
ATOM     44  C   UNL A   1      38.964  33.363  34.744  1.00  0.00     0.049 A 
ATOM     45  H   UNL A   1      39.499  31.964  33.297  1.00  0.00     0.167 HD
ATOM     46  C   UNL A   1      40.364  28.930  30.265  1.00  0.00     0.037 A 
ATOM     47  C   UNL A   1      39.767  33.162  35.806  1.00  0.00     0.037 A 
ATOM     48  C   UNL A   1      41.329  28.704  31.310  1.00  0.00     0.049 A 
ATOM     49  C   UNL A   1      40.799  32.069  35.752  1.00  0.00     0.074 A 
ATOM     50  C   UNL A   1      42.362  27.783  31.345  1.00  0.00     0.029 A 
ATOM     51  N   UNL A   1      41.377  29.405  32.505  1.00  0.00    -0.354 N 
ATOM     52  N   UNL A   1      41.057  31.222  34.786  1.00  0.00    -0.248 NA
ATOM     53  C   UNL A   1      41.654  31.906  36.935  1.00  0.00     0.031 C 
ATOM     54  C   UNL A   1      43.007  27.897  32.581  1.00  0.00     0.029 A 
ATOM     55  C   UNL A   1      42.408  28.923  33.295  1.00  0.00     0.049 A 
ATOM     56  H   UNL A   1      40.769  30.138  32.755  1.00  0.00     0.167 HD
ATOM     57  C   UNL A   1      42.119  30.447  35.230  1.00  0.00     0.074 A 
ATOM     58  C   UNL A   1      42.467  30.933  36.548  1.00  0.00     0.031 C 
ATOM     59  C   UNL A   1      42.748  29.424  34.603  1.00  0.00     0.037 A 
BRANCH  46  60
ATOM     60  C   UNL A   1      40.400  28.035  29.060  1.00  0.00     0.064 A 
ATOM     61  C   UNL A   1      39.650  26.850  29.001  1.00  0.00     0.173 A 
ATOM     62  C   UNL A   1      41.165  28.384  27.937  1.00  0.00     0.173 A 
ATOM     63  F   UNL A   1      38.911  26.466  30.052  1.00  0.00    -0.203 F 
ATOM     64  C   UNL A   1      39.687  26.035  27.873  1.00  0.00     0.198 A 
ATOM     65  C   UNL A   1      41.175  27.581  26.799  1.00  0.00     0.198 A 
ATOM     66  F   UNL A   1      41.895  29.509  27.937  1.00  0.00    -0.203 F 
ATOM     67  F   UNL A   1      39.001  24.883  27.859  1.00  0.00    -0.200 F 
ATOM     68  C   UNL A   1      40.443  26.403  26.771  1.00  0.00     0.200 A 
ATOM     69  F   UNL A   1      41.895  27.946  25.729  1.00  0.00    -0.200 F 
ATOM     70  F   UNL A   1      40.472  25.620  25.684  1.00  0.00    -0.200 F 
ENDBRANCH  46  60
BRANCH  47  71
ATOM     71  C   UNL A   1      39.642  34.031  37.006  1.00  0.00     0.064 A 
ATOM     72  C   UNL A   1      38.857  33.638  38.098  1.00  0.00     0.173 A 
ATOM     73  C   UNL A   1      40.297  35.268  37.084  1.00  0.00     0.173 A 
ATOM     74  F   UNL A   1      38.194  32.472  38.061  1.00  0.00    -0.203 F 
ATOM     75  C   UNL A   1      38.716  34.458  39.216  1.00  0.00     0.198 A 
ATOM     76  C   UNL A   1      40.177  36.076  38.214  1.00  0.00     0.198 A 
ATOM     77  F   UNL A   1      41.063  35.689  36.067  1.00  0.00    -0.203 F 
ATOM     78  F   UNL A   1      37.922  34.078  40.226  1.00  0.00    -0.200 F 
ATOM     79  C   UNL A   1      39.380  35.674  39.275  1.00  0.00     0.200 A 
ATOM     80  F   UNL A   1      40.831  37.244  38.273  1.00  0.00    -0.200 F 
ATOM     81  F   UNL A   1      39.246  36.461  40.351  1.00  0.00    -0.200 F 
ENDBRANCH  47  71
BRANCH  59  82
ATOM     82  C   UNL A   1      43.902  28.783  35.317  1.00  0.00     0.064 A 
ATOM     83  C   UNL A   1      45.221  29.223  35.130  1.00  0.00     0.173 A 
ATOM     84  C   UNL A   1      43.679  27.744  36.233  1.00  0.00     0.173 A 
ATOM     85  F   UNL A   1      45.487  30.202  34.254  1.00  0.00    -0.203 F 
ATOM     86  C   UNL A   1      46.276  28.629  35.818  1.00  0.00     0.198 A 
ATOM     87  C   UNL A   1      44.734  27.173  36.941  1.00  0.00     0.198 A 
ATOM     88  F   UNL A   1      42.435  27.290  36.453  1.00  0.00    -0.203 F 
ATOM     89  F   UNL A   1      47.533  29.036  35.591  1.00  0.00    -0.200 F 
ATOM     90  C   UNL A   1      46.031  27.612  36.728  1.00  0.00     0.200 A 
ATOM     91  F   UNL A   1      44.493  26.199  37.829  1.00  0.00    -0.200 F 
ATOM     92  F   UNL A   1      47.048  27.049  37.396  1.00  0.00    -0.200 F 
ENDBRANCH  59  82
ENDBRANCH  33  34
ENDBRANCH  25  28
ENDBRANCH  23  24
ENDBRANCH  22  23
ENDBRANCH   1  22
TORSDOF 14
ENDMDL
