MODEL 1
REMARK VINA RESULT:     -12.0      0.000      0.000
REMARK SMILES O=C(C[C@H]1C(=O)Nc2ccccc21)NCCCCNC(=O)c1ccc(-c2c3nc(c(-c4c(F)c(F)c(F)c(F)c4F)c4ccc([nH]4)c(-c4c(F)c(F)c(F)c(F)c4F)c4nc(c(-c5c(F)c(F)c(F)c(F)c5F)c5ccc2[nH]5)C=C4)C=C3)cc1
REMARK SMILES IDX 17 1 16 2 15 3 14 4 1 5 2 6 3 8 4 9 5 10 13 11 6 12 7 13
REMARK SMILES IDX 8 14 12 15 9 17 11 18 10 19 18 20 19 21 20 22 21 24 22 25
REMARK SMILES IDX 23 26 84 27 24 28 83 29 25 30 26 31 27 32 77 33 28 34 82 35
REMARK SMILES IDX 76 36 78 37 29 38 81 39 75 40 74 41 30 43 62 44 42 45 61 46
REMARK SMILES IDX 43 47 46 48 60 49 79 50 44 51 45 52 59 54 80 55 47 56 31 57
REMARK SMILES IDX 32 58 40 59 33 60 34 61 38 62 41 63 35 64 36 65 39 66 37 67
REMARK SMILES IDX 63 68 64 69 72 70 65 71 66 72 70 73 73 74 67 75 68 76 71 77
REMARK SMILES IDX 69 78 48 79 49 80 57 81 50 82 51 83 55 84 58 85 52 86 53 87
REMARK SMILES IDX 56 88 54 89
REMARK H PARENT 14 7 7 16 19 23 78 42 46 53
REMARK Flexibility Score: inf
ROOT
ATOM      1  C   UNL A   1      38.070  19.816  24.868  1.00  0.00     0.023 C 
ENDROOT
BRANCH   1   2
ATOM      2  C   UNL A   1      36.812  20.677  25.001  1.00  0.00     0.023 C 
BRANCH   2   3
ATOM      3  C   UNL A   1      37.038  22.057  25.614  1.00  0.00     0.116 C 
BRANCH   3   4
ATOM      4  N   UNL A   1      35.839  22.572  26.247  1.00  0.00    -0.356 N 
ATOM      5  O   UNL A   1      35.304  24.053  24.571  1.00  0.00    -0.275 OA
ATOM      6  C   UNL A   1      35.072  23.555  25.667  1.00  0.00     0.221 C 
ATOM      7  H   UNL A   1      35.567  22.206  27.120  1.00  0.00     0.163 HD
BRANCH   6   8
ATOM      8  C   UNL A   1      33.890  23.983  26.500  1.00  0.00     0.118 C 
BRANCH   8   9
ATOM      9  C   UNL A   1      32.976  24.891  25.684  1.00  0.00     0.120 C 
ATOM     10  C   UNL A   1      31.510  24.495  25.924  1.00  0.00     0.232 C 
ATOM     11  C   UNL A   1      32.986  26.323  26.139  1.00  0.00    -0.011 A 
ATOM     12  O   UNL A   1      31.013  23.406  25.675  1.00  0.00    -0.274 OA
ATOM     13  N   UNL A   1      30.861  25.590  26.480  1.00  0.00    -0.325 N 
ATOM     14  C   UNL A   1      31.721  26.672  26.604  1.00  0.00     0.045 A 
ATOM     15  C   UNL A   1      34.018  27.244  26.126  1.00  0.00     0.007 A 
ATOM     16  H   UNL A   1      29.915  25.597  26.750  1.00  0.00     0.169 HD
ATOM     17  C   UNL A   1      31.434  27.928  27.091  1.00  0.00     0.026 A 
ATOM     18  C   UNL A   1      33.751  28.527  26.608  1.00  0.00     0.000 A 
ATOM     19  C   UNL A   1      32.471  28.865  27.091  1.00  0.00     0.002 A 
ENDBRANCH   8   9
ENDBRANCH   6   8
ENDBRANCH   3   4
ENDBRANCH   2   3
ENDBRANCH   1   2
BRANCH   1  20
ATOM     20  C   UNL A   1      39.206  20.170  25.823  1.00  0.00     0.116 C 
BRANCH  20  21
ATOM     21  N   UNL A   1      40.208  19.121  25.923  1.00  0.00    -0.352 N 
ATOM     22  C   UNL A   1      41.564  19.223  26.126  1.00  0.00     0.251 C 
ATOM     23  H   UNL A   1      39.866  18.203  25.831  1.00  0.00     0.163 HD
ATOM     24  O   UNL A   1      42.276  18.228  26.036  1.00  0.00    -0.269 OA
BRANCH  22  25
ATOM     25  C   UNL A   1      42.179  20.537  26.422  1.00  0.00     0.039 A 
ATOM     26  C   UNL A   1      42.668  21.305  25.360  1.00  0.00     0.014 A 
ATOM     27  C   UNL A   1      42.276  21.016  27.730  1.00  0.00     0.014 A 
ATOM     28  C   UNL A   1      43.185  22.580  25.604  1.00  0.00     0.010 A 
ATOM     29  C   UNL A   1      42.718  22.317  27.964  1.00  0.00     0.010 A 
ATOM     30  C   UNL A   1      43.175  23.115  26.904  1.00  0.00    -0.014 A 
BRANCH  30  31
ATOM     31  C   UNL A   1      43.626  24.508  27.167  1.00  0.00     0.031 A 
ATOM     32  C   UNL A   1      42.650  25.547  27.644  1.00  0.00     0.074 A 
ATOM     33  C   UNL A   1      44.904  24.853  26.915  1.00  0.00     0.049 A 
ATOM     34  N   UNL A   1      42.841  26.824  27.866  1.00  0.00    -0.248 NA
ATOM     35  C   UNL A   1      41.269  25.100  27.879  1.00  0.00     0.031 C 
ATOM     36  C   UNL A   1      45.939  23.950  26.409  1.00  0.00     0.029 A 
ATOM     37  N   UNL A   1      45.549  26.059  27.039  1.00  0.00    -0.354 N 
ATOM     38  C   UNL A   1      41.606  27.332  28.251  1.00  0.00     0.074 A 
ATOM     39  C   UNL A   1      40.661  26.238  28.180  1.00  0.00     0.031 C 
ATOM     40  C   UNL A   1      47.094  24.626  26.292  1.00  0.00     0.029 A 
ATOM     41  C   UNL A   1      46.872  26.018  26.669  1.00  0.00     0.049 A 
ATOM     42  H   UNL A   1      45.105  26.877  27.363  1.00  0.00     0.167 HD
ATOM     43  C   UNL A   1      41.294  28.588  28.647  1.00  0.00     0.037 A 
ATOM     44  C   UNL A   1      47.799  26.994  26.628  1.00  0.00     0.037 A 
ATOM     45  C   UNL A   1      42.241  29.670  28.734  1.00  0.00     0.049 A 
ATOM     46  C   UNL A   1      47.418  28.389  27.049  1.00  0.00     0.074 A 
ATOM     47  C   UNL A   1      42.035  30.963  29.184  1.00  0.00     0.029 A 
ATOM     48  N   UNL A   1      43.573  29.589  28.352  1.00  0.00    -0.354 N 
ATOM     49  N   UNL A   1      46.266  28.838  27.484  1.00  0.00    -0.248 NA
ATOM     50  C   UNL A   1      48.471  29.413  26.979  1.00  0.00     0.031 C 
ATOM     51  C   UNL A   1      43.223  31.681  29.018  1.00  0.00     0.029 A 
ATOM     52  C   UNL A   1      44.190  30.818  28.527  1.00  0.00     0.049 A 
ATOM     53  H   UNL A   1      44.013  28.779  28.009  1.00  0.00     0.167 HD
ATOM     54  C   UNL A   1      46.463  30.183  27.771  1.00  0.00     0.074 A 
ATOM     55  C   UNL A   1      47.851  30.472  27.475  1.00  0.00     0.031 C 
ATOM     56  C   UNL A   1      45.576  31.094  28.238  1.00  0.00     0.037 A 
BRANCH  43  57
ATOM     57  C   UNL A   1      39.864  28.870  29.013  1.00  0.00     0.064 A 
ATOM     58  C   UNL A   1      38.924  29.288  28.059  1.00  0.00     0.173 A 
ATOM     59  C   UNL A   1      39.416  28.677  30.331  1.00  0.00     0.173 A 
ATOM     60  F   UNL A   1      39.299  29.496  26.788  1.00  0.00    -0.203 F 
ATOM     61  C   UNL A   1      37.600  29.535  28.415  1.00  0.00     0.198 A 
ATOM     62  C   UNL A   1      38.084  28.890  30.675  1.00  0.00     0.198 A 
ATOM     63  F   UNL A   1      40.269  28.270  31.283  1.00  0.00    -0.203 F 
ATOM     64  F   UNL A   1      36.734  29.985  27.496  1.00  0.00    -0.200 F 
ATOM     65  C   UNL A   1      37.180  29.328  29.719  1.00  0.00     0.200 A 
ATOM     66  F   UNL A   1      37.677  28.674  31.933  1.00  0.00    -0.200 F 
ATOM     67  F   UNL A   1      35.903  29.556  30.059  1.00  0.00    -0.200 F 
ENDBRANCH  43  57
BRANCH  44  68
ATOM     68  C   UNL A   1      49.187  26.687  26.189  1.00  0.00     0.064 A 
ATOM     69  C   UNL A   1      50.143  26.221  27.102  1.00  0.00     0.173 A 
ATOM     70  C   UNL A   1      49.591  26.869  24.858  1.00  0.00     0.173 A 
ATOM     71  F   UNL A   1      49.813  26.052  28.391  1.00  0.00    -0.203 F 
ATOM     72  C   UNL A   1      51.456  25.972  26.707  1.00  0.00     0.198 A 
ATOM     73  C   UNL A   1      50.896  26.587  24.456  1.00  0.00     0.198 A 
ATOM     74  F   UNL A   1      48.715  27.310  23.944  1.00  0.00    -0.203 F 
ATOM     75  F   UNL A   1      52.363  25.579  27.611  1.00  0.00    -0.200 F 
ATOM     76  C   UNL A   1      51.830  26.149  25.383  1.00  0.00     0.200 A 
ATOM     77  F   UNL A   1      51.249  26.745  23.174  1.00  0.00    -0.200 F 
ATOM     78  F   UNL A   1      53.092  25.907  25.002  1.00  0.00    -0.200 F 
ENDBRANCH  44  68
BRANCH  56  79
ATOM     79  C   UNL A   1      46.083  32.483  28.504  1.00  0.00     0.064 A 
ATOM     80  C   UNL A   1      46.620  32.852  29.746  1.00  0.00     0.173 A 
ATOM     81  C   UNL A   1      46.064  33.450  27.487  1.00  0.00     0.173 A 
ATOM     82  F   UNL A   1      46.648  31.971  30.758  1.00  0.00    -0.203 F 
ATOM     83  C   UNL A   1      47.092  34.143  29.968  1.00  0.00     0.198 A 
ATOM     84  C   UNL A   1      46.570  34.729  27.700  1.00  0.00     0.198 A 
ATOM     85  F   UNL A   1      45.569  33.149  26.275  1.00  0.00    -0.203 F 
ATOM     86  F   UNL A   1      47.550  34.488  31.180  1.00  0.00    -0.200 F 
ATOM     87  C   UNL A   1      47.075  35.077  28.943  1.00  0.00     0.200 A 
ATOM     88  F   UNL A   1      46.569  35.624  26.703  1.00  0.00    -0.200 F 
ATOM     89  F   UNL A   1      47.538  36.317  29.156  1.00  0.00    -0.200 F 
ENDBRANCH  56  79
ENDBRANCH  30  31
ENDBRANCH  22  25
ENDBRANCH  20  21
ENDBRANCH   1  20
TORSDOF 12
ENDMDL
MODEL 2
REMARK VINA RESULT:     -12.0      0.802      1.849
REMARK SMILES O=C(C[C@H]1C(=O)Nc2ccccc21)NCCCCNC(=O)c1ccc(-c2c3nc(c(-c4c(F)c(F)c(F)c(F)c4F)c4ccc([nH]4)c(-c4c(F)c(F)c(F)c(F)c4F)c4nc(c(-c5c(F)c(F)c(F)c(F)c5F)c5ccc2[nH]5)C=C4)C=C3)cc1
REMARK SMILES IDX 17 1 16 2 15 3 14 4 1 5 2 6 3 8 4 9 5 10 13 11 6 12 7 13
REMARK SMILES IDX 8 14 12 15 9 17 11 18 10 19 18 20 19 21 20 22 21 24 22 25
REMARK SMILES IDX 23 26 84 27 24 28 83 29 25 30 26 31 27 32 77 33 28 34 82 35
REMARK SMILES IDX 76 36 78 37 29 38 81 39 75 40 74 41 30 43 62 44 42 45 61 46
REMARK SMILES IDX 43 47 46 48 60 49 79 50 44 51 45 52 59 54 80 55 47 56 31 57
REMARK SMILES IDX 32 58 40 59 33 60 34 61 38 62 41 63 35 64 36 65 39 66 37 67
REMARK SMILES IDX 63 68 64 69 72 70 65 71 66 72 70 73 73 74 67 75 68 76 71 77
REMARK SMILES IDX 69 78 48 79 49 80 57 81 50 82 51 83 55 84 58 85 52 86 53 87
REMARK SMILES IDX 56 88 54 89
REMARK H PARENT 14 7 7 16 19 23 78 42 46 53
REMARK Flexibility Score: inf
ROOT
ATOM      1  C   UNL A   1      38.100  19.867  24.923  1.00  0.00     0.023 C 
ENDROOT
BRANCH   1   2
ATOM      2  C   UNL A   1      37.169  21.046  24.630  1.00  0.00     0.023 C 
BRANCH   2   3
ATOM      3  C   UNL A   1      37.325  22.239  25.571  1.00  0.00     0.116 C 
BRANCH   3   4
ATOM      4  N   UNL A   1      36.063  22.619  26.175  1.00  0.00    -0.356 N 
ATOM      5  O   UNL A   1      35.461  24.121  24.540  1.00  0.00    -0.275 OA
ATOM      6  C   UNL A   1      35.233  23.557  25.605  1.00  0.00     0.221 C 
ATOM      7  H   UNL A   1      35.791  22.193  27.020  1.00  0.00     0.163 HD
BRANCH   6   8
ATOM      8  C   UNL A   1      33.988  23.844  26.405  1.00  0.00     0.118 C 
BRANCH   8   9
ATOM      9  C   UNL A   1      33.056  24.756  25.615  1.00  0.00     0.120 C 
ATOM     10  C   UNL A   1      31.602  24.300  25.810  1.00  0.00     0.232 C 
ATOM     11  C   UNL A   1      33.009  26.165  26.136  1.00  0.00    -0.011 A 
ATOM     12  O   UNL A   1      31.148  23.207  25.503  1.00  0.00    -0.274 OA
ATOM     13  N   UNL A   1      30.905  25.345  26.403  1.00  0.00    -0.325 N 
ATOM     14  C   UNL A   1      31.724  26.449  26.593  1.00  0.00     0.045 A 
ATOM     15  C   UNL A   1      34.008  27.121  26.183  1.00  0.00     0.007 A 
ATOM     16  H   UNL A   1      29.955  25.307  26.656  1.00  0.00     0.169 HD
ATOM     17  C   UNL A   1      31.385  27.670  27.132  1.00  0.00     0.026 A 
ATOM     18  C   UNL A   1      33.687  28.371  26.719  1.00  0.00     0.000 A 
ATOM     19  C   UNL A   1      32.389  28.642  27.193  1.00  0.00     0.002 A 
ENDBRANCH   8   9
ENDBRANCH   6   8
ENDBRANCH   3   4
ENDBRANCH   2   3
ENDBRANCH   1   2
BRANCH   1  20
ATOM     20  C   UNL A   1      39.211  20.149  25.929  1.00  0.00     0.116 C 
BRANCH  20  21
ATOM     21  N   UNL A   1      40.250  19.132  25.925  1.00  0.00    -0.352 N 
ATOM     22  C   UNL A   1      41.604  19.263  26.123  1.00  0.00     0.251 C 
ATOM     23  H   UNL A   1      39.938  18.214  25.757  1.00  0.00     0.163 HD
ATOM     24  O   UNL A   1      42.348  18.304  25.937  1.00  0.00    -0.269 OA
BRANCH  22  25
ATOM     25  C   UNL A   1      42.178  20.566  26.527  1.00  0.00     0.039 A 
ATOM     26  C   UNL A   1      42.697  21.408  25.538  1.00  0.00     0.014 A 
ATOM     27  C   UNL A   1      42.208  20.963  27.866  1.00  0.00     0.014 A 
ATOM     28  C   UNL A   1      43.177  22.674  25.884  1.00  0.00     0.010 A 
ATOM     29  C   UNL A   1      42.613  22.255  28.199  1.00  0.00     0.010 A 
ATOM     30  C   UNL A   1      43.099  23.126  27.213  1.00  0.00    -0.014 A 
BRANCH  30  31
ATOM     31  C   UNL A   1      43.509  24.507  27.582  1.00  0.00     0.031 A 
ATOM     32  C   UNL A   1      42.475  25.541  27.932  1.00  0.00     0.074 A 
ATOM     33  C   UNL A   1      44.812  24.848  27.541  1.00  0.00     0.049 A 
ATOM     34  N   UNL A   1      42.634  26.809  28.217  1.00  0.00    -0.248 NA
ATOM     35  C   UNL A   1      41.073  25.098  27.938  1.00  0.00     0.031 C 
ATOM     36  C   UNL A   1      45.910  23.952  27.175  1.00  0.00     0.029 A 
ATOM     37  N   UNL A   1      45.435  26.045  27.797  1.00  0.00    -0.354 N 
ATOM     38  C   UNL A   1      41.357  27.316  28.421  1.00  0.00     0.074 A 
ATOM     39  C   UNL A   1      40.430  26.233  28.174  1.00  0.00     0.031 C 
ATOM     40  C   UNL A   1      47.071  24.620  27.257  1.00  0.00     0.029 A 
ATOM     41  C   UNL A   1      46.799  26.004  27.635  1.00  0.00     0.049 A 
ATOM     42  H   UNL A   1      44.949  26.857  28.072  1.00  0.00     0.167 HD
ATOM     43  C   UNL A   1      40.991  28.564  28.800  1.00  0.00     0.037 A 
ATOM     44  C   UNL A   1      47.725  26.973  27.766  1.00  0.00     0.037 A 
ATOM     45  C   UNL A   1      41.919  29.635  29.064  1.00  0.00     0.049 A 
ATOM     46  C   UNL A   1      47.288  28.358  28.163  1.00  0.00     0.074 A 
ATOM     47  C   UNL A   1      41.650  30.916  29.514  1.00  0.00     0.029 A 
ATOM     48  N   UNL A   1      43.292  29.554  28.890  1.00  0.00    -0.354 N 
ATOM     49  N   UNL A   1      46.085  28.805  28.427  1.00  0.00    -0.248 NA
ATOM     50  C   UNL A   1      48.344  29.375  28.285  1.00  0.00     0.031 C 
ATOM     51  C   UNL A   1      42.852  31.629  29.553  1.00  0.00     0.029 A 
ATOM     52  C   UNL A   1      43.880  30.772  29.193  1.00  0.00     0.049 A 
ATOM     53  H   UNL A   1      43.778  28.750  28.596  1.00  0.00     0.167 HD
ATOM     54  C   UNL A   1      46.241  30.139  28.780  1.00  0.00     0.074 A 
ATOM     55  C   UNL A   1      47.658  30.425  28.710  1.00  0.00     0.031 C 
ATOM     56  C   UNL A   1      45.295  31.045  29.130  1.00  0.00     0.037 A 
BRANCH  43  57
ATOM     57  C   UNL A   1      39.523  28.847  28.949  1.00  0.00     0.064 A 
ATOM     58  C   UNL A   1      38.855  28.669  30.170  1.00  0.00     0.173 A 
ATOM     59  C   UNL A   1      38.782  29.343  27.864  1.00  0.00     0.173 A 
ATOM     60  F   UNL A   1      39.513  28.188  31.236  1.00  0.00    -0.203 F 
ATOM     61  C   UNL A   1      37.495  28.945  30.292  1.00  0.00     0.198 A 
ATOM     62  C   UNL A   1      37.430  29.652  28.000  1.00  0.00     0.198 A 
ATOM     63  F   UNL A   1      39.370  29.541  26.675  1.00  0.00    -0.203 F 
ATOM     64  F   UNL A   1      36.869  28.717  31.454  1.00  0.00    -0.200 F 
ATOM     65  C   UNL A   1      36.787  29.444  29.210  1.00  0.00     0.200 A 
ATOM     66  F   UNL A   1      36.752  30.150  26.957  1.00  0.00    -0.200 F 
ATOM     67  F   UNL A   1      35.480  29.720  29.332  1.00  0.00    -0.200 F 
ENDBRANCH  43  57
BRANCH  44  68
ATOM     68  C   UNL A   1      49.163  26.667  27.538  1.00  0.00     0.064 A 
ATOM     69  C   UNL A   1      49.715  26.725  26.250  1.00  0.00     0.173 A 
ATOM     70  C   UNL A   1      50.008  26.293  28.592  1.00  0.00     0.173 A 
ATOM     71  F   UNL A   1      48.943  27.055  25.204  1.00  0.00    -0.203 F 
ATOM     72  C   UNL A   1      51.050  26.398  26.022  1.00  0.00     0.198 A 
ATOM     73  C   UNL A   1      51.352  25.999  28.369  1.00  0.00     0.198 A 
ATOM     74  F   UNL A   1      49.531  26.224  29.844  1.00  0.00    -0.203 F 
ATOM     75  F   UNL A   1      51.537  26.410  24.775  1.00  0.00    -0.200 F 
ATOM     76  C   UNL A   1      51.869  26.041  27.083  1.00  0.00     0.200 A 
ATOM     77  F   UNL A   1      52.144  25.669  29.398  1.00  0.00    -0.200 F 
ATOM     78  F   UNL A   1      53.154  25.728  26.865  1.00  0.00    -0.200 F 
ENDBRANCH  44  68
BRANCH  56  79
ATOM     79  C   UNL A   1      45.760  32.422  29.510  1.00  0.00     0.064 A 
ATOM     80  C   UNL A   1      46.124  32.745  30.826  1.00  0.00     0.173 A 
ATOM     81  C   UNL A   1      45.878  33.424  28.535  1.00  0.00     0.173 A 
ATOM     82  F   UNL A   1      46.016  31.829  31.801  1.00  0.00    -0.203 F 
ATOM     83  C   UNL A   1      46.560  34.026  31.155  1.00  0.00     0.198 A 
ATOM     84  C   UNL A   1      46.349  34.692  28.860  1.00  0.00     0.198 A 
ATOM     85  F   UNL A   1      45.551  33.167  27.258  1.00  0.00    -0.203 F 
ATOM     86  F   UNL A   1      46.850  34.326  32.429  1.00  0.00    -0.200 F 
ATOM     87  C   UNL A   1      46.681  34.995  30.170  1.00  0.00     0.200 A 
ATOM     88  F   UNL A   1      46.482  35.622  27.903  1.00  0.00    -0.200 F 
ATOM     89  F   UNL A   1      47.110  36.225  30.487  1.00  0.00    -0.200 F 
ENDBRANCH  56  79
ENDBRANCH  30  31
ENDBRANCH  22  25
ENDBRANCH  20  21
ENDBRANCH   1  20
TORSDOF 12
ENDMDL
MODEL 3
REMARK VINA RESULT:     -11.9      5.762     11.353
REMARK SMILES O=C(C[C@H]1C(=O)Nc2ccccc21)NCCCCNC(=O)c1ccc(-c2c3nc(c(-c4c(F)c(F)c(F)c(F)c4F)c4ccc([nH]4)c(-c4c(F)c(F)c(F)c(F)c4F)c4nc(c(-c5c(F)c(F)c(F)c(F)c5F)c5ccc2[nH]5)C=C4)C=C3)cc1
REMARK SMILES IDX 17 1 16 2 15 3 14 4 1 5 2 6 3 8 4 9 5 10 13 11 6 12 7 13
REMARK SMILES IDX 8 14 12 15 9 17 11 18 10 19 18 20 19 21 20 22 21 24 22 25
REMARK SMILES IDX 23 26 84 27 24 28 83 29 25 30 26 31 27 32 77 33 28 34 82 35
REMARK SMILES IDX 76 36 78 37 29 38 81 39 75 40 74 41 30 43 62 44 42 45 61 46
REMARK SMILES IDX 43 47 46 48 60 49 79 50 44 51 45 52 59 54 80 55 47 56 31 57
REMARK SMILES IDX 32 58 40 59 33 60 34 61 38 62 41 63 35 64 36 65 39 66 37 67
REMARK SMILES IDX 63 68 64 69 72 70 65 71 66 72 70 73 73 74 67 75 68 76 71 77
REMARK SMILES IDX 69 78 48 79 49 80 57 81 50 82 51 83 55 84 58 85 52 86 53 87
REMARK SMILES IDX 56 88 54 89
REMARK H PARENT 14 7 7 16 19 23 78 42 46 53
REMARK Flexibility Score: inf
ROOT
ATOM      1  C   UNL A   1      31.427  32.078  26.755  1.00  0.00     0.023 C 
ENDROOT
BRANCH   1   2
ATOM      2  C   UNL A   1      31.697  30.746  26.051  1.00  0.00     0.023 C 
BRANCH   2   3
ATOM      3  C   UNL A   1      31.867  29.549  26.984  1.00  0.00     0.116 C 
BRANCH   3   4
ATOM      4  N   UNL A   1      32.117  28.323  26.251  1.00  0.00    -0.356 N 
ATOM      5  O   UNL A   1      34.410  28.505  26.262  1.00  0.00    -0.275 OA
ATOM      6  C   UNL A   1      33.390  27.909  25.932  1.00  0.00     0.221 C 
ATOM      7  H   UNL A   1      31.351  27.771  25.971  1.00  0.00     0.163 HD
BRANCH   6   8
ATOM      8  C   UNL A   1      33.439  26.632  25.133  1.00  0.00     0.118 C 
BRANCH   8   9
ATOM      9  C   UNL A   1      33.543  25.432  26.068  1.00  0.00     0.120 C 
ATOM     10  C   UNL A   1      32.159  24.785  26.232  1.00  0.00     0.232 C 
ATOM     11  C   UNL A   1      34.349  24.296  25.503  1.00  0.00    -0.011 A 
ATOM     12  O   UNL A   1      31.163  25.330  26.688  1.00  0.00    -0.274 OA
ATOM     13  N   UNL A   1      32.243  23.480  25.761  1.00  0.00    -0.325 N 
ATOM     14  C   UNL A   1      33.529  23.183  25.337  1.00  0.00     0.045 A 
ATOM     15  C   UNL A   1      35.693  24.244  25.182  1.00  0.00     0.007 A 
ATOM     16  H   UNL A   1      31.487  22.850  25.733  1.00  0.00     0.169 HD
ATOM     17  C   UNL A   1      33.997  21.991  24.829  1.00  0.00     0.026 A 
ATOM     18  C   UNL A   1      36.194  23.044  24.673  1.00  0.00     0.000 A 
ATOM     19  C   UNL A   1      35.353  21.929  24.494  1.00  0.00     0.002 A 
ENDBRANCH   8   9
ENDBRANCH   6   8
ENDBRANCH   3   4
ENDBRANCH   2   3
ENDBRANCH   1   2
BRANCH   1  20
ATOM     20  C   UNL A   1      32.666  32.812  27.259  1.00  0.00     0.116 C 
BRANCH  20  21
ATOM     21  N   UNL A   1      32.396  34.193  27.625  1.00  0.00    -0.352 N 
ATOM     22  C   UNL A   1      32.991  34.976  28.586  1.00  0.00     0.251 C 
ATOM     23  H   UNL A   1      31.682  34.632  27.110  1.00  0.00     0.163 HD
ATOM     24  O   UNL A   1      32.528  36.081  28.851  1.00  0.00    -0.269 OA
BRANCH  22  25
ATOM     25  C   UNL A   1      34.171  34.480  29.329  1.00  0.00     0.039 A 
ATOM     26  C   UNL A   1      33.976  33.869  30.571  1.00  0.00     0.014 A 
ATOM     27  C   UNL A   1      35.463  34.613  28.813  1.00  0.00     0.014 A 
ATOM     28  C   UNL A   1      35.065  33.326  31.258  1.00  0.00     0.010 A 
ATOM     29  C   UNL A   1      36.536  34.002  29.460  1.00  0.00     0.010 A 
ATOM     30  C   UNL A   1      36.350  33.350  30.688  1.00  0.00    -0.014 A 
BRANCH  30  31
ATOM     31  C   UNL A   1      37.502  32.687  31.356  1.00  0.00     0.031 A 
ATOM     32  C   UNL A   1      38.212  31.541  30.691  1.00  0.00     0.074 A 
ATOM     33  C   UNL A   1      37.868  33.077  32.593  1.00  0.00     0.049 A 
ATOM     34  N   UNL A   1      39.192  30.799  31.143  1.00  0.00    -0.248 NA
ATOM     35  C   UNL A   1      37.743  31.160  29.351  1.00  0.00     0.031 C 
ATOM     36  C   UNL A   1      37.234  34.147  33.365  1.00  0.00     0.029 A 
ATOM     37  N   UNL A   1      38.857  32.612  33.425  1.00  0.00    -0.354 N 
ATOM     38  C   UNL A   1      39.445  29.859  30.151  1.00  0.00     0.074 A 
ATOM     39  C   UNL A   1      38.481  30.089  29.098  1.00  0.00     0.031 C 
ATOM     40  C   UNL A   1      37.865  34.274  34.543  1.00  0.00     0.029 A 
ATOM     41  C   UNL A   1      38.918  33.266  34.631  1.00  0.00     0.049 A 
ATOM     42  H   UNL A   1      39.467  31.878  33.179  1.00  0.00     0.167 HD
ATOM     43  C   UNL A   1      40.407  28.906  30.114  1.00  0.00     0.037 A 
ATOM     44  C   UNL A   1      39.723  33.071  35.693  1.00  0.00     0.037 A 
ATOM     45  C   UNL A   1      41.377  28.692  31.157  1.00  0.00     0.049 A 
ATOM     46  C   UNL A   1      40.767  31.987  35.635  1.00  0.00     0.074 A 
ATOM     47  C   UNL A   1      42.430  27.794  31.184  1.00  0.00     0.029 A 
ATOM     48  N   UNL A   1      41.407  29.376  32.363  1.00  0.00    -0.354 N 
ATOM     49  N   UNL A   1      41.046  31.156  34.661  1.00  0.00    -0.248 NA
ATOM     50  C   UNL A   1      41.613  31.818  36.826  1.00  0.00     0.031 C 
ATOM     51  C   UNL A   1      43.058  27.891  32.429  1.00  0.00     0.029 A 
ATOM     52  C   UNL A   1      42.440  28.897  33.154  1.00  0.00     0.049 A 
ATOM     53  H   UNL A   1      40.787  30.096  32.620  1.00  0.00     0.167 HD
ATOM     54  C   UNL A   1      42.117  30.391  35.104  1.00  0.00     0.074 A 
ATOM     55  C   UNL A   1      42.447  30.869  36.431  1.00  0.00     0.031 C 
ATOM     56  C   UNL A   1      42.768  29.386  34.470  1.00  0.00     0.037 A 
BRANCH  43  57
ATOM     57  C   UNL A   1      40.457  28.013  28.907  1.00  0.00     0.064 A 
ATOM     58  C   UNL A   1      39.738  26.809  28.846  1.00  0.00     0.173 A 
ATOM     59  C   UNL A   1      41.203  28.387  27.777  1.00  0.00     0.173 A 
ATOM     60  F   UNL A   1      39.017  26.399  29.901  1.00  0.00    -0.203 F 
ATOM     61  C   UNL A   1      39.790  25.998  27.715  1.00  0.00     0.198 A 
ATOM     62  C   UNL A   1      41.223  27.591  26.634  1.00  0.00     0.198 A 
ATOM     63  F   UNL A   1      41.903  29.531  27.776  1.00  0.00    -0.203 F 
ATOM     64  F   UNL A   1      39.137  24.828  27.701  1.00  0.00    -0.200 F 
ATOM     65  C   UNL A   1      40.524  26.393  26.608  1.00  0.00     0.200 A 
ATOM     66  F   UNL A   1      41.920  27.983  25.559  1.00  0.00    -0.200 F 
ATOM     67  F   UNL A   1      40.565  25.617  25.515  1.00  0.00    -0.200 F 
ENDBRANCH  43  57
BRANCH  44  68
ATOM     68  C   UNL A   1      39.590  33.932  36.899  1.00  0.00     0.064 A 
ATOM     69  C   UNL A   1      38.812  33.525  37.991  1.00  0.00     0.173 A 
ATOM     70  C   UNL A   1      40.220  35.183  36.978  1.00  0.00     0.173 A 
ATOM     71  F   UNL A   1      38.171  32.347  37.956  1.00  0.00    -0.203 F 
ATOM     72  C   UNL A   1      38.648  34.345  39.106  1.00  0.00     0.198 A 
ATOM     73  C   UNL A   1      40.083  35.988  38.107  1.00  0.00     0.198 A 
ATOM     74  F   UNL A   1      40.978  35.620  35.962  1.00  0.00    -0.203 F 
ATOM     75  F   UNL A   1      37.855  33.954  40.112  1.00  0.00    -0.200 F 
ATOM     76  C   UNL A   1      39.289  35.573  39.166  1.00  0.00     0.200 A 
ATOM     77  F   UNL A   1      40.716  37.167  38.168  1.00  0.00    -0.200 F 
ATOM     78  F   UNL A   1      39.133  36.361  40.239  1.00  0.00    -0.200 F 
ENDBRANCH  44  68
BRANCH  56  79
ATOM     79  C   UNL A   1      43.935  28.760  35.179  1.00  0.00     0.064 A 
ATOM     80  C   UNL A   1      45.240  29.252  35.038  1.00  0.00     0.173 A 
ATOM     81  C   UNL A   1      43.737  27.671  36.043  1.00  0.00     0.173 A 
ATOM     82  F   UNL A   1      45.488  30.281  34.213  1.00  0.00    -0.203 F 
ATOM     83  C   UNL A   1      46.307  28.661  35.710  1.00  0.00     0.198 A 
ATOM     84  C   UNL A   1      44.799  27.106  36.743  1.00  0.00     0.198 A 
ATOM     85  F   UNL A   1      42.507  27.164  36.223  1.00  0.00    -0.203 F 
ATOM     86  F   UNL A   1      47.553  29.114  35.517  1.00  0.00    -0.200 F 
ATOM     87  C   UNL A   1      46.084  27.595  36.569  1.00  0.00     0.200 A 
ATOM     88  F   UNL A   1      44.578  26.087  37.585  1.00  0.00    -0.200 F 
ATOM     89  F   UNL A   1      47.110  27.033  37.224  1.00  0.00    -0.200 F 
ENDBRANCH  56  79
ENDBRANCH  30  31
ENDBRANCH  22  25
ENDBRANCH  20  21
ENDBRANCH   1  20
TORSDOF 12
ENDMDL
