MODEL 1
REMARK VINA RESULT:     -10.6      0.000      0.000
REMARK SMILES COC[C@H](O)CC1(C(=O)NCCCCNC(=O)c2ccc(-c3c4nc(c(-c5c(F)c(F)c(F)c(F)c5F)c5ccc([nH]5)c(-c5c(F)c(F)c(F)c(F)c5F)c5nc(c(-c6c(F)c(F)c(F)c(F)c6F)c6ccc3[nH]6)C=C5)C=C4)cc2)CC1
REMARK SMILES IDX 11 1 10 2 8 3 9 4 7 6 81 7 82 8 6 9 4 10 3 11 2 12 1 13 5 14
REMARK SMILES IDX 12 16 13 17 14 18 15 19 16 20 17 22 18 23 19 24 80 25 20 26
REMARK SMILES IDX 79 27 21 28 22 29 23 30 73 31 24 32 78 33 72 34 74 35 25 36
REMARK SMILES IDX 77 37 71 38 70 39 26 41 58 42 38 43 57 44 39 45 42 46 56 47
REMARK SMILES IDX 75 48 40 49 41 50 55 52 76 53 43 54 27 55 28 56 36 57 29 58
REMARK SMILES IDX 30 59 34 60 37 61 31 62 32 63 35 64 33 65 59 66 60 67 68 68
REMARK SMILES IDX 61 69 62 70 66 71 69 72 63 73 64 74 67 75 65 76 44 77 45 78
REMARK SMILES IDX 53 79 46 80 47 81 51 82 54 83 48 84 49 85 52 86 50 87
REMARK H PARENT 10 5 5 15 15 21 74 40 42 51
REMARK Flexibility Score: inf
ROOT
ATOM      1  C   UNL A   1      32.823  29.805  25.905  1.00  0.00     0.116 C 
ENDROOT
BRANCH   1   2
ATOM      2  N   UNL A   1      33.406  29.634  24.587  1.00  0.00    -0.356 N 
ATOM      3  C   UNL A   1      33.612  28.559  23.772  1.00  0.00     0.226 C 
ATOM      4  O   UNL A   1      34.360  28.746  22.808  1.00  0.00    -0.274 OA
ATOM      5  H   UNL A   1      33.721  30.480  24.195  1.00  0.00     0.163 HD
BRANCH   3   6
ATOM      6  C   UNL A   1      32.962  27.205  23.932  1.00  0.00     0.052 C 
ATOM      7  C   UNL A   1      33.543  26.211  24.929  1.00  0.00     0.018 C 
ATOM      8  C   UNL A   1      33.637  25.928  23.457  1.00  0.00     0.018 C 
BRANCH   6   9
ATOM      9  C   UNL A   1      31.423  27.223  23.832  1.00  0.00     0.051 C 
BRANCH   9  10
ATOM     10  C   UNL A   1      30.942  27.984  22.588  1.00  0.00     0.141 C 
BRANCH  10  11
ATOM     11  C   UNL A   1      29.496  28.501  22.743  1.00  0.00     0.191 C 
BRANCH  11  12
ATOM     12  O   UNL A   1      29.114  29.330  21.635  1.00  0.00    -0.382 OA
ATOM     13  C   UNL A   1      29.155  30.721  21.936  1.00  0.00     0.195 C 
ENDBRANCH  11  12
ENDBRANCH  10  11
BRANCH  10  14
ATOM     14  O   UNL A   1      31.027  27.084  21.470  1.00  0.00    -0.391 OA
ATOM     15  H   UNL A   1      31.461  27.532  20.726  1.00  0.00     0.211 HD
ENDBRANCH  10  14
ENDBRANCH   9  10
ENDBRANCH   6   9
ENDBRANCH   3   6
ENDBRANCH   1   2
BRANCH   1  16
ATOM     16  C   UNL A   1      31.595  30.713  25.834  1.00  0.00     0.023 C 
BRANCH  16  17
ATOM     17  C   UNL A   1      31.502  31.735  26.972  1.00  0.00     0.023 C 
BRANCH  17  18
ATOM     18  C   UNL A   1      32.775  32.537  27.222  1.00  0.00     0.116 C 
BRANCH  18  19
ATOM     19  N   UNL A   1      32.506  33.930  27.543  1.00  0.00    -0.352 N 
ATOM     20  C   UNL A   1      33.071  34.724  28.510  1.00  0.00     0.251 C 
ATOM     21  H   UNL A   1      31.819  34.365  26.989  1.00  0.00     0.163 HD
ATOM     22  O   UNL A   1      32.615  35.838  28.745  1.00  0.00    -0.269 OA
BRANCH  20  23
ATOM     23  C   UNL A   1      34.212  34.211  29.295  1.00  0.00     0.039 A 
ATOM     24  C   UNL A   1      33.954  33.405  30.404  1.00  0.00     0.014 A 
ATOM     25  C   UNL A   1      35.527  34.490  28.910  1.00  0.00     0.014 A 
ATOM     26  C   UNL A   1      35.016  32.804  31.079  1.00  0.00     0.010 A 
ATOM     27  C   UNL A   1      36.579  33.831  29.538  1.00  0.00     0.010 A 
ATOM     28  C   UNL A   1      36.334  32.969  30.617  1.00  0.00    -0.014 A 
BRANCH  28  29
ATOM     29  C   UNL A   1      37.454  32.203  31.218  1.00  0.00     0.031 A 
ATOM     30  C   UNL A   1      37.966  32.544  32.587  1.00  0.00     0.074 A 
ATOM     31  C   UNL A   1      38.056  31.240  30.490  1.00  0.00     0.049 A 
ATOM     32  N   UNL A   1      38.971  32.025  33.246  1.00  0.00    -0.248 NA
ATOM     33  C   UNL A   1      37.272  33.625  33.303  1.00  0.00     0.031 C 
ATOM     34  C   UNL A   1      37.682  30.852  29.130  1.00  0.00     0.029 A 
ATOM     35  N   UNL A   1      39.117  30.422  30.788  1.00  0.00    -0.354 N 
ATOM     36  C   UNL A   1      39.033  32.717  34.448  1.00  0.00     0.074 A 
ATOM     37  C   UNL A   1      37.999  33.730  34.406  1.00  0.00     0.031 C 
ATOM     38  C   UNL A   1      38.481  29.856  28.720  1.00  0.00     0.029 A 
ATOM     39  C   UNL A   1      39.456  29.567  29.766  1.00  0.00     0.049 A 
ATOM     40  H   UNL A   1      39.589  30.444  31.651  1.00  0.00     0.167 HD
ATOM     41  C   UNL A   1      39.863  32.511  35.499  1.00  0.00     0.037 A 
ATOM     42  C   UNL A   1      40.449  28.663  29.677  1.00  0.00     0.037 A 
ATOM     43  C   UNL A   1      40.884  31.497  35.537  1.00  0.00     0.049 A 
ATOM     44  C   UNL A   1      41.379  28.481  30.846  1.00  0.00     0.074 A 
ATOM     45  C   UNL A   1      41.735  31.169  36.578  1.00  0.00     0.029 A 
ATOM     46  N   UNL A   1      41.202  30.653  34.482  1.00  0.00    -0.354 N 
ATOM     47  N   UNL A   1      41.376  29.085  32.009  1.00  0.00    -0.248 NA
ATOM     48  C   UNL A   1      42.451  27.487  30.690  1.00  0.00     0.031 C 
ATOM     49  C   UNL A   1      42.608  30.171  36.134  1.00  0.00     0.029 A 
ATOM     50  C   UNL A   1      42.262  29.831  34.835  1.00  0.00     0.049 A 
ATOM     51  H   UNL A   1      40.743  30.639  33.611  1.00  0.00     0.167 HD
ATOM     52  C   UNL A   1      42.426  28.533  32.730  1.00  0.00     0.074 A 
ATOM     53  C   UNL A   1      43.030  27.526  31.881  1.00  0.00     0.031 C 
ATOM     54  C   UNL A   1      42.856  28.836  33.980  1.00  0.00     0.037 A 
BRANCH  41  55
ATOM     55  C   UNL A   1      39.705  33.403  36.698  1.00  0.00     0.064 A 
ATOM     56  C   UNL A   1      40.406  34.613  36.813  1.00  0.00     0.173 A 
ATOM     57  C   UNL A   1      38.804  33.069  37.720  1.00  0.00     0.173 A 
ATOM     58  F   UNL A   1      41.287  34.977  35.868  1.00  0.00    -0.203 F 
ATOM     59  C   UNL A   1      40.232  35.440  37.920  1.00  0.00     0.198 A 
ATOM     60  C   UNL A   1      38.608  33.914  38.809  1.00  0.00     0.198 A 
ATOM     61  F   UNL A   1      38.103  31.927  37.657  1.00  0.00    -0.203 F 
ATOM     62  F   UNL A   1      40.950  36.567  38.031  1.00  0.00    -0.200 F 
ATOM     63  C   UNL A   1      39.328  35.095  38.912  1.00  0.00     0.200 A 
ATOM     64  F   UNL A   1      37.722  33.586  39.759  1.00  0.00    -0.200 F 
ATOM     65  F   UNL A   1      39.154  35.897  39.971  1.00  0.00    -0.200 F 
ENDBRANCH  41  55
BRANCH  42  66
ATOM     66  C   UNL A   1      40.615  27.858  28.438  1.00  0.00     0.064 A 
ATOM     67  C   UNL A   1      40.013  26.598  28.312  1.00  0.00     0.173 A 
ATOM     68  C   UNL A   1      41.386  28.323  27.362  1.00  0.00     0.173 A 
ATOM     69  F   UNL A   1      39.283  26.100  29.321  1.00  0.00    -0.203 F 
ATOM     70  C   UNL A   1      40.195  25.825  27.166  1.00  0.00     0.198 A 
ATOM     71  C   UNL A   1      41.540  27.563  26.205  1.00  0.00     0.198 A 
ATOM     72  F   UNL A   1      41.980  29.523  27.430  1.00  0.00    -0.203 F 
ATOM     73  F   UNL A   1      39.650  24.602  27.093  1.00  0.00    -0.200 F 
ATOM     74  C   UNL A   1      40.953  26.310  26.111  1.00  0.00     0.200 A 
ATOM     75  F   UNL A   1      42.259  28.044  25.181  1.00  0.00    -0.200 F 
ATOM     76  F   UNL A   1      41.124  25.568  25.009  1.00  0.00    -0.200 F 
ENDBRANCH  42  66
BRANCH  54  77
ATOM     77  C   UNL A   1      44.022  28.054  34.515  1.00  0.00     0.064 A 
ATOM     78  C   UNL A   1      43.851  26.805  35.131  1.00  0.00     0.173 A 
ATOM     79  C   UNL A   1      45.330  28.543  34.377  1.00  0.00     0.173 A 
ATOM     80  F   UNL A   1      42.619  26.300  35.302  1.00  0.00    -0.203 F 
ATOM     81  C   UNL A   1      44.942  26.089  35.614  1.00  0.00     0.198 A 
ATOM     82  C   UNL A   1      46.422  27.807  34.830  1.00  0.00     0.198 A 
ATOM     83  F   UNL A   1      45.552  29.728  33.791  1.00  0.00    -0.203 F 
ATOM     84  F   UNL A   1      44.748  24.923  36.247  1.00  0.00    -0.200 F 
ATOM     85  C   UNL A   1      46.227  26.585  35.455  1.00  0.00     0.200 A 
ATOM     86  F   UNL A   1      47.665  28.281  34.661  1.00  0.00    -0.200 F 
ATOM     87  F   UNL A   1      47.276  25.889  35.913  1.00  0.00    -0.200 F 
ENDBRANCH  54  77
ENDBRANCH  28  29
ENDBRANCH  20  23
ENDBRANCH  18  19
ENDBRANCH  17  18
ENDBRANCH  16  17
ENDBRANCH   1  16
TORSDOF 16
ENDMDL
MODEL 2
REMARK VINA RESULT:     -10.6      0.871      7.577
REMARK SMILES COC[C@H](O)CC1(C(=O)NCCCCNC(=O)c2ccc(-c3c4nc(c(-c5c(F)c(F)c(F)c(F)c5F)c5ccc([nH]5)c(-c5c(F)c(F)c(F)c(F)c5F)c5nc(c(-c6c(F)c(F)c(F)c(F)c6F)c6ccc3[nH]6)C=C5)C=C4)cc2)CC1
REMARK SMILES IDX 11 1 10 2 8 3 9 4 7 6 81 7 82 8 6 9 4 10 3 11 2 12 1 13 5 14
REMARK SMILES IDX 12 16 13 17 14 18 15 19 16 20 17 22 18 23 19 24 80 25 20 26
REMARK SMILES IDX 79 27 21 28 22 29 23 30 73 31 24 32 78 33 72 34 74 35 25 36
REMARK SMILES IDX 77 37 71 38 70 39 26 41 58 42 38 43 57 44 39 45 42 46 56 47
REMARK SMILES IDX 75 48 40 49 41 50 55 52 76 53 43 54 27 55 28 56 36 57 29 58
REMARK SMILES IDX 30 59 34 60 37 61 31 62 32 63 35 64 33 65 59 66 60 67 68 68
REMARK SMILES IDX 61 69 62 70 66 71 69 72 63 73 64 74 67 75 65 76 44 77 45 78
REMARK SMILES IDX 53 79 46 80 47 81 51 82 54 83 48 84 49 85 52 86 50 87
REMARK H PARENT 10 5 5 15 15 21 74 40 42 51
REMARK Flexibility Score: inf
ROOT
ATOM      1  C   UNL A   1      33.032  30.104  25.988  1.00  0.00     0.116 C 
ENDROOT
BRANCH   1   2
ATOM      2  N   UNL A   1      33.290  29.629  24.642  1.00  0.00    -0.356 N 
ATOM      3  C   UNL A   1      33.397  28.392  24.074  1.00  0.00     0.226 C 
ATOM      4  O   UNL A   1      33.866  28.359  22.933  1.00  0.00    -0.274 OA
ATOM      5  H   UNL A   1      33.415  30.361  23.995  1.00  0.00     0.163 HD
BRANCH   3   6
ATOM      6  C   UNL A   1      32.943  27.099  24.709  1.00  0.00     0.052 C 
ATOM      7  C   UNL A   1      33.849  26.403  25.717  1.00  0.00     0.018 C 
ATOM      8  C   UNL A   1      33.600  25.768  24.379  1.00  0.00     0.018 C 
BRANCH   6   9
ATOM      9  C   UNL A   1      31.434  27.039  25.020  1.00  0.00     0.051 C 
BRANCH   9  10
ATOM     10  C   UNL A   1      30.642  26.387  23.877  1.00  0.00     0.141 C 
BRANCH  10  11
ATOM     11  C   UNL A   1      29.686  27.382  23.187  1.00  0.00     0.191 C 
BRANCH  11  12
ATOM     12  O   UNL A   1      30.329  28.057  22.095  1.00  0.00    -0.382 OA
ATOM     13  C   UNL A   1      30.335  29.474  22.237  1.00  0.00     0.195 C 
ENDBRANCH  11  12
ENDBRANCH  10  11
BRANCH  10  14
ATOM     14  O   UNL A   1      29.894  25.293  24.438  1.00  0.00    -0.391 OA
ATOM     15  H   UNL A   1      30.167  24.465  24.013  1.00  0.00     0.211 HD
ENDBRANCH  10  14
ENDBRANCH   9  10
ENDBRANCH   6   9
ENDBRANCH   3   6
ENDBRANCH   1   2
BRANCH   1  16
ATOM     16  C   UNL A   1      31.678  30.810  26.057  1.00  0.00     0.023 C 
BRANCH  16  17
ATOM     17  C   UNL A   1      31.570  31.857  27.170  1.00  0.00     0.023 C 
BRANCH  17  18
ATOM     18  C   UNL A   1      32.796  32.748  27.337  1.00  0.00     0.116 C 
BRANCH  18  19
ATOM     19  N   UNL A   1      32.450  34.133  27.616  1.00  0.00    -0.352 N 
ATOM     20  C   UNL A   1      32.986  34.993  28.542  1.00  0.00     0.251 C 
ATOM     21  H   UNL A   1      31.726  34.506  27.064  1.00  0.00     0.163 HD
ATOM     22  O   UNL A   1      32.468  36.085  28.749  1.00  0.00    -0.269 OA
BRANCH  20  23
ATOM     23  C   UNL A   1      34.173  34.578  29.316  1.00  0.00     0.039 A 
ATOM     24  C   UNL A   1      33.991  34.081  30.607  1.00  0.00     0.014 A 
ATOM     25  C   UNL A   1      35.451  34.640  28.753  1.00  0.00     0.014 A 
ATOM     26  C   UNL A   1      35.082  33.562  31.304  1.00  0.00     0.010 A 
ATOM     27  C   UNL A   1      36.523  34.054  29.419  1.00  0.00     0.010 A 
ATOM     28  C   UNL A   1      36.346  33.495  30.694  1.00  0.00    -0.014 A 
BRANCH  28  29
ATOM     29  C   UNL A   1      37.475  32.794  31.354  1.00  0.00     0.031 A 
ATOM     30  C   UNL A   1      38.135  31.618  30.694  1.00  0.00     0.074 A 
ATOM     31  C   UNL A   1      37.859  33.182  32.587  1.00  0.00     0.049 A 
ATOM     32  N   UNL A   1      39.093  30.847  31.145  1.00  0.00    -0.248 NA
ATOM     33  C   UNL A   1      37.639  31.242  29.362  1.00  0.00     0.031 C 
ATOM     34  C   UNL A   1      37.262  34.278  33.351  1.00  0.00     0.029 A 
ATOM     35  N   UNL A   1      38.833  32.690  33.420  1.00  0.00    -0.354 N 
ATOM     36  C   UNL A   1      39.310  29.896  30.157  1.00  0.00     0.074 A 
ATOM     37  C   UNL A   1      38.348  30.152  29.106  1.00  0.00     0.031 C 
ATOM     38  C   UNL A   1      37.897  34.393  34.527  1.00  0.00     0.029 A 
ATOM     39  C   UNL A   1      38.912  33.349  34.623  1.00  0.00     0.049 A 
ATOM     40  H   UNL A   1      39.420  31.937  33.177  1.00  0.00     0.167 HD
ATOM     41  C   UNL A   1      40.243  28.914  30.122  1.00  0.00     0.037 A 
ATOM     42  C   UNL A   1      39.704  33.128  35.689  1.00  0.00     0.037 A 
ATOM     43  C   UNL A   1      41.202  28.670  31.168  1.00  0.00     0.049 A 
ATOM     44  C   UNL A   1      40.706  32.006  35.637  1.00  0.00     0.074 A 
ATOM     45  C   UNL A   1      42.225  27.739  31.199  1.00  0.00     0.029 A 
ATOM     46  N   UNL A   1      41.249  29.355  32.375  1.00  0.00    -0.354 N 
ATOM     47  N   UNL A   1      40.957  31.165  34.664  1.00  0.00    -0.248 NA
ATOM     48  C   UNL A   1      41.536  31.805  36.833  1.00  0.00     0.031 C 
ATOM     49  C   UNL A   1      42.851  27.817  32.447  1.00  0.00     0.029 A 
ATOM     50  C   UNL A   1      42.259  28.840  33.172  1.00  0.00     0.049 A 
ATOM     51  H   UNL A   1      40.653  30.096  32.627  1.00  0.00     0.167 HD
ATOM     52  C   UNL A   1      41.985  30.351  35.118  1.00  0.00     0.074 A 
ATOM     53  C   UNL A   1      42.329  30.815  36.447  1.00  0.00     0.031 C 
ATOM     54  C   UNL A   1      42.588  29.309  34.494  1.00  0.00     0.037 A 
BRANCH  41  55
ATOM     55  C   UNL A   1      40.271  28.022  28.913  1.00  0.00     0.064 A 
ATOM     56  C   UNL A   1      41.006  28.359  27.766  1.00  0.00     0.173 A 
ATOM     57  C   UNL A   1      39.594  26.793  28.919  1.00  0.00     0.173 A 
ATOM     58  F   UNL A   1      41.664  29.527  27.703  1.00  0.00    -0.203 F 
ATOM     59  C   UNL A   1      41.040  27.511  26.661  1.00  0.00     0.198 A 
ATOM     60  C   UNL A   1      39.658  25.933  27.826  1.00  0.00     0.198 A 
ATOM     61  F   UNL A   1      38.882  26.418  29.992  1.00  0.00    -0.203 F 
ATOM     62  F   UNL A   1      41.710  27.877  25.559  1.00  0.00    -0.200 F 
ATOM     63  C   UNL A   1      40.374  26.297  26.695  1.00  0.00     0.200 A 
ATOM     64  F   UNL A   1      39.026  24.752  27.867  1.00  0.00    -0.200 F 
ATOM     65  F   UNL A   1      40.416  25.477  25.636  1.00  0.00    -0.200 F 
ENDBRANCH  41  55
BRANCH  42  66
ATOM     66  C   UNL A   1      39.585  33.988  36.897  1.00  0.00     0.064 A 
ATOM     67  C   UNL A   1      38.800  33.592  37.989  1.00  0.00     0.173 A 
ATOM     68  C   UNL A   1      40.241  35.225  36.980  1.00  0.00     0.173 A 
ATOM     69  F   UNL A   1      38.136  32.427  37.950  1.00  0.00    -0.203 F 
ATOM     70  C   UNL A   1      38.657  34.411  39.107  1.00  0.00     0.198 A 
ATOM     71  C   UNL A   1      40.123  36.029  38.112  1.00  0.00     0.198 A 
ATOM     72  F   UNL A   1      41.007  35.650  35.964  1.00  0.00    -0.203 F 
ATOM     73  F   UNL A   1      37.858  34.031  40.115  1.00  0.00    -0.200 F 
ATOM     74  C   UNL A   1      39.323  35.626  39.171  1.00  0.00     0.200 A 
ATOM     75  F   UNL A   1      40.783  37.193  38.176  1.00  0.00    -0.200 F 
ATOM     76  F   UNL A   1      39.188  36.411  40.248  1.00  0.00    -0.200 F 
ENDBRANCH  42  66
BRANCH  54  77
ATOM     77  C   UNL A   1      43.697  28.612  35.232  1.00  0.00     0.064 A 
ATOM     78  C   UNL A   1      43.448  27.509  36.062  1.00  0.00     0.173 A 
ATOM     79  C   UNL A   1      45.027  29.031  35.079  1.00  0.00     0.173 A 
ATOM     80  F   UNL A   1      42.192  27.078  36.256  1.00  0.00    -0.203 F 
ATOM     81  C   UNL A   1      44.487  26.869  36.732  1.00  0.00     0.198 A 
ATOM     82  C   UNL A   1      46.067  28.366  35.723  1.00  0.00     0.198 A 
ATOM     83  F   UNL A   1      45.322  30.077  34.293  1.00  0.00    -0.203 F 
ATOM     84  F   UNL A   1      44.218  25.850  37.562  1.00  0.00    -0.200 F 
ATOM     85  C   UNL A   1      45.796  27.292  36.555  1.00  0.00     0.200 A 
ATOM     86  F   UNL A   1      47.333  28.766  35.538  1.00  0.00    -0.200 F 
ATOM     87  F   UNL A   1      46.794  26.667  37.194  1.00  0.00    -0.200 F 
ENDBRANCH  54  77
ENDBRANCH  28  29
ENDBRANCH  20  23
ENDBRANCH  18  19
ENDBRANCH  17  18
ENDBRANCH  16  17
ENDBRANCH   1  16
TORSDOF 16
ENDMDL
MODEL 3
REMARK VINA RESULT:     -10.5      0.949      7.846
REMARK SMILES COC[C@H](O)CC1(C(=O)NCCCCNC(=O)c2ccc(-c3c4nc(c(-c5c(F)c(F)c(F)c(F)c5F)c5ccc([nH]5)c(-c5c(F)c(F)c(F)c(F)c5F)c5nc(c(-c6c(F)c(F)c(F)c(F)c6F)c6ccc3[nH]6)C=C5)C=C4)cc2)CC1
REMARK SMILES IDX 11 1 10 2 8 3 9 4 7 6 81 7 82 8 6 9 4 10 3 11 2 12 1 13 5 14
REMARK SMILES IDX 12 16 13 17 14 18 15 19 16 20 17 22 18 23 19 24 80 25 20 26
REMARK SMILES IDX 79 27 21 28 22 29 23 30 73 31 24 32 78 33 72 34 74 35 25 36
REMARK SMILES IDX 77 37 71 38 70 39 26 41 58 42 38 43 57 44 39 45 42 46 56 47
REMARK SMILES IDX 75 48 40 49 41 50 55 52 76 53 43 54 27 55 28 56 36 57 29 58
REMARK SMILES IDX 30 59 34 60 37 61 31 62 32 63 35 64 33 65 59 66 60 67 68 68
REMARK SMILES IDX 61 69 62 70 66 71 69 72 63 73 64 74 67 75 65 76 44 77 45 78
REMARK SMILES IDX 53 79 46 80 47 81 51 82 54 83 48 84 49 85 52 86 50 87
REMARK H PARENT 10 5 5 15 15 21 74 40 42 51
REMARK Flexibility Score: inf
ROOT
ATOM      1  C   UNL A   1      33.128  29.577  26.478  1.00  0.00     0.116 C 
ENDROOT
BRANCH   1   2
ATOM      2  N   UNL A   1      33.366  29.703  25.053  1.00  0.00    -0.356 N 
ATOM      3  C   UNL A   1      33.154  28.889  23.978  1.00  0.00     0.226 C 
ATOM      4  O   UNL A   1      33.703  29.227  22.926  1.00  0.00    -0.274 OA
ATOM      5  H   UNL A   1      33.768  30.567  24.807  1.00  0.00     0.163 HD
BRANCH   3   6
ATOM      6  C   UNL A   1      32.272  27.662  23.973  1.00  0.00     0.052 C 
ATOM      7  C   UNL A   1      32.673  26.451  24.806  1.00  0.00     0.018 C 
ATOM      8  C   UNL A   1      32.702  26.365  23.307  1.00  0.00     0.018 C 
BRANCH   6   9
ATOM      9  C   UNL A   1      30.761  27.967  23.927  1.00  0.00     0.051 C 
BRANCH   9  10
ATOM     10  C   UNL A   1      30.441  29.121  22.966  1.00  0.00     0.141 C 
BRANCH  10  11
ATOM     11  C   UNL A   1      28.994  29.631  23.128  1.00  0.00     0.191 C 
BRANCH  11  12
ATOM     12  O   UNL A   1      28.965  31.016  23.503  1.00  0.00    -0.382 OA
ATOM     13  C   UNL A   1      27.654  31.573  23.490  1.00  0.00     0.195 C 
ENDBRANCH  11  12
ENDBRANCH  10  11
BRANCH  10  14
ATOM     14  O   UNL A   1      30.647  28.638  21.627  1.00  0.00    -0.391 OA
ATOM     15  H   UNL A   1      30.043  27.898  21.454  1.00  0.00     0.211 HD
ENDBRANCH  10  14
ENDBRANCH   9  10
ENDBRANCH   6   9
ENDBRANCH   3   6
ENDBRANCH   1   2
BRANCH   1  16
ATOM     16  C   UNL A   1      31.801  30.234  26.861  1.00  0.00     0.023 C 
BRANCH  16  17
ATOM     17  C   UNL A   1      31.769  31.752  26.658  1.00  0.00     0.023 C 
BRANCH  17  18
ATOM     18  C   UNL A   1      32.871  32.521  27.379  1.00  0.00     0.116 C 
BRANCH  18  19
ATOM     19  N   UNL A   1      32.526  33.916  27.607  1.00  0.00    -0.352 N 
ATOM     20  C   UNL A   1      33.044  34.801  28.519  1.00  0.00     0.251 C 
ATOM     21  H   UNL A   1      31.818  34.275  27.025  1.00  0.00     0.163 HD
ATOM     22  O   UNL A   1      32.527  35.902  28.679  1.00  0.00    -0.269 OA
BRANCH  20  23
ATOM     23  C   UNL A   1      34.209  34.404  29.335  1.00  0.00     0.039 A 
ATOM     24  C   UNL A   1      33.986  33.821  30.583  1.00  0.00     0.014 A 
ATOM     25  C   UNL A   1      35.510  34.568  28.850  1.00  0.00     0.014 A 
ATOM     26  C   UNL A   1      35.065  33.320  31.310  1.00  0.00     0.010 A 
ATOM     27  C   UNL A   1      36.576  34.002  29.542  1.00  0.00     0.010 A 
ATOM     28  C   UNL A   1      36.363  33.358  30.771  1.00  0.00    -0.014 A 
BRANCH  28  29
ATOM     29  C   UNL A   1      37.492  32.680  31.453  1.00  0.00     0.031 A 
ATOM     30  C   UNL A   1      38.173  31.502  30.817  1.00  0.00     0.074 A 
ATOM     31  C   UNL A   1      37.858  33.090  32.684  1.00  0.00     0.049 A 
ATOM     32  N   UNL A   1      39.134  30.749  31.290  1.00  0.00    -0.248 NA
ATOM     33  C   UNL A   1      37.697  31.102  29.485  1.00  0.00     0.031 C 
ATOM     34  C   UNL A   1      37.240  34.189  33.425  1.00  0.00     0.029 A 
ATOM     35  N   UNL A   1      38.828  32.622  33.535  1.00  0.00    -0.354 N 
ATOM     36  C   UNL A   1      39.374  29.787  30.319  1.00  0.00     0.074 A 
ATOM     37  C   UNL A   1      38.421  30.017  29.253  1.00  0.00     0.031 C 
ATOM     38  C   UNL A   1      37.860  34.329  34.607  1.00  0.00     0.029 A 
ATOM     39  C   UNL A   1      38.886  33.298  34.729  1.00  0.00     0.049 A 
ATOM     40  H   UNL A   1      39.426  31.872  33.310  1.00  0.00     0.167 HD
ATOM     41  C   UNL A   1      40.318  28.816  30.308  1.00  0.00     0.037 A 
ATOM     42  C   UNL A   1      39.668  33.102  35.808  1.00  0.00     0.037 A 
ATOM     43  C   UNL A   1      41.268  28.598  31.368  1.00  0.00     0.049 A 
ATOM     44  C   UNL A   1      40.683  31.992  35.783  1.00  0.00     0.074 A 
ATOM     45  C   UNL A   1      42.302  27.680  31.424  1.00  0.00     0.029 A 
ATOM     46  N   UNL A   1      41.294  29.300  32.565  1.00  0.00    -0.354 N 
ATOM     47  N   UNL A   1      40.956  31.140  34.825  1.00  0.00    -0.248 NA
ATOM     48  C   UNL A   1      41.503  31.817  36.990  1.00  0.00     0.031 C 
ATOM     49  C   UNL A   1      42.913  27.783  32.678  1.00  0.00     0.029 A 
ATOM     50  C   UNL A   1      42.301  28.809  33.381  1.00  0.00     0.049 A 
ATOM     51  H   UNL A   1      40.686  30.039  32.800  1.00  0.00     0.167 HD
ATOM     52  C   UNL A   1      41.988  30.344  35.302  1.00  0.00     0.074 A 
ATOM     53  C   UNL A   1      42.311  30.832  36.628  1.00  0.00     0.031 C 
ATOM     54  C   UNL A   1      42.610  29.301  34.700  1.00  0.00     0.037 A 
BRANCH  41  55
ATOM     55  C   UNL A   1      40.370  27.907  29.112  1.00  0.00     0.064 A 
ATOM     56  C   UNL A   1      39.635  26.714  29.061  1.00  0.00     0.173 A 
ATOM     57  C   UNL A   1      41.126  28.259  27.983  1.00  0.00     0.173 A 
ATOM     58  F   UNL A   1      38.902  26.325  30.116  1.00  0.00    -0.203 F 
ATOM     59  C   UNL A   1      39.676  25.893  27.936  1.00  0.00     0.198 A 
ATOM     60  C   UNL A   1      41.139  27.453  26.848  1.00  0.00     0.198 A 
ATOM     61  F   UNL A   1      41.843  29.393  27.976  1.00  0.00    -0.203 F 
ATOM     62  F   UNL A   1      39.003  24.734  27.930  1.00  0.00    -0.200 F 
ATOM     63  C   UNL A   1      40.420  26.267  26.829  1.00  0.00     0.200 A 
ATOM     64  F   UNL A   1      41.846  27.825  25.773  1.00  0.00    -0.200 F 
ATOM     65  F   UNL A   1      40.450  25.482  25.743  1.00  0.00    -0.200 F 
ENDBRANCH  41  55
BRANCH  42  66
ATOM     66  C   UNL A   1      39.525  33.978  37.001  1.00  0.00     0.064 A 
ATOM     67  C   UNL A   1      40.162  35.226  37.059  1.00  0.00     0.173 A 
ATOM     68  C   UNL A   1      38.762  33.584  38.110  1.00  0.00     0.173 A 
ATOM     69  F   UNL A   1      40.920  35.640  36.033  1.00  0.00    -0.203 F 
ATOM     70  C   UNL A   1      40.060  36.034  38.190  1.00  0.00     0.198 A 
ATOM     71  C   UNL A   1      38.634  34.407  39.226  1.00  0.00     0.198 A 
ATOM     72  F   UNL A   1      38.129  32.401  38.104  1.00  0.00    -0.203 F 
ATOM     73  F   UNL A   1      40.721  37.199  38.239  1.00  0.00    -0.200 F 
ATOM     74  C   UNL A   1      39.291  35.627  39.270  1.00  0.00     0.200 A 
ATOM     75  F   UNL A   1      37.875  34.017  40.260  1.00  0.00    -0.200 F 
ATOM     76  F   UNL A   1      39.189  36.406  40.355  1.00  0.00    -0.200 F 
ENDBRANCH  42  66
BRANCH  54  77
ATOM     77  C   UNL A   1      43.718  28.628  35.460  1.00  0.00     0.064 A 
ATOM     78  C   UNL A   1      45.055  29.026  35.317  1.00  0.00     0.173 A 
ATOM     79  C   UNL A   1      43.434  27.598  36.369  1.00  0.00     0.173 A 
ATOM     80  F   UNL A   1      45.383  29.996  34.449  1.00  0.00    -0.203 F 
ATOM     81  C   UNL A   1      46.070  28.399  36.035  1.00  0.00     0.198 A 
ATOM     82  C   UNL A   1      44.447  26.997  37.111  1.00  0.00     0.198 A 
ATOM     83  F   UNL A   1      42.172  27.181  36.549  1.00  0.00    -0.203 F 
ATOM     84  F   UNL A   1      47.346  28.761  35.842  1.00  0.00    -0.200 F 
ATOM     85  C   UNL A   1      45.764  27.392  36.938  1.00  0.00     0.200 A 
ATOM     86  F   UNL A   1      44.148  26.034  37.995  1.00  0.00    -0.200 F 
ATOM     87  F   UNL A   1      46.742  26.796  37.634  1.00  0.00    -0.200 F 
ENDBRANCH  54  77
ENDBRANCH  28  29
ENDBRANCH  20  23
ENDBRANCH  18  19
ENDBRANCH  17  18
ENDBRANCH  16  17
ENDBRANCH   1  16
TORSDOF 16
ENDMDL
