MODEL 1
REMARK VINA RESULT:     -11.9      0.000      0.000
REMARK SMILES CC[C@@](O)(C(=O)NCCCCNC(=O)c1ccc(-c2c3nc(c(-c4c(F)c(F)c(F)c(F)c4F)c4ccc([nH]4)c(-c4c(F)c(F)c(F)c(F)c4F)c4nc(c(-c5c(F)c(F)c(F)c(F)c5F)c5ccc2[nH]5)C=C4)C=C3)cc1)[C@@H](C)c1ccc(OC(C)C)cc1
REMARK SMILES IDX 8 1 7 2 5 3 6 4 3 6 2 7 1 8 4 9 78 11 79 12 80 13 81 14
REMARK SMILES IDX 89 15 82 16 88 17 83 18 84 19 85 20 86 21 87 22 9 23 10 24
REMARK SMILES IDX 11 25 12 26 13 27 14 29 15 30 16 31 77 32 17 33 76 34 18 35
REMARK SMILES IDX 19 36 20 37 70 38 21 39 75 40 69 41 71 42 22 43 74 44 68 45
REMARK SMILES IDX 67 46 23 48 55 49 35 50 54 51 36 52 39 53 53 54 72 55 37 56
REMARK SMILES IDX 38 57 52 59 73 60 40 61 24 62 25 63 33 64 26 65 27 66 31 67
REMARK SMILES IDX 34 68 28 69 29 70 32 71 30 72 56 73 57 74 65 75 58 76 59 77
REMARK SMILES IDX 63 78 66 79 60 80 61 81 64 82 62 83 41 84 42 85 50 86 43 87
REMARK SMILES IDX 44 88 48 89 51 90 45 91 46 92 49 93 47 94
REMARK H PARENT 7 5 4 10 12 28 71 47 39 58
REMARK Flexibility Score: inf
ROOT
ATOM      1  C   UNL A   1      35.759  20.870  24.751  1.00  0.00     0.116 C 
ENDROOT
BRANCH   1   2
ATOM      2  N   UNL A   1      35.048  21.071  26.011  1.00  0.00    -0.354 N 
ATOM      3  C   UNL A   1      33.698  21.027  26.284  1.00  0.00     0.252 C 
ATOM      4  O   UNL A   1      33.364  21.081  27.470  1.00  0.00    -0.272 OA
ATOM      5  H   UNL A   1      35.623  21.268  26.786  1.00  0.00     0.163 HD
BRANCH   3   6
ATOM      6  C   UNL A   1      32.663  20.882  25.118  1.00  0.00     0.149 C 
BRANCH   6   7
ATOM      7  C   UNL A   1      32.786  19.430  24.573  1.00  0.00     0.043 C 
ATOM      8  C   UNL A   1      32.809  18.266  25.549  1.00  0.00     0.007 C 
ENDBRANCH   6   7
BRANCH   6   9
ATOM      9  O   UNL A   1      31.427  21.108  25.825  1.00  0.00    -0.379 OA
ATOM     10  H   UNL A   1      31.147  22.029  25.702  1.00  0.00     0.212 HD
ENDBRANCH   6   9
BRANCH   6  11
ATOM     11  C   UNL A   1      32.829  22.001  24.006  1.00  0.00     0.057 C 
ATOM     12  C   UNL A   1      32.130  21.567  22.697  1.00  0.00     0.016 C 
BRANCH  11  13
ATOM     13  C   UNL A   1      32.394  23.436  24.403  1.00  0.00    -0.042 A 
ATOM     14  C   UNL A   1      31.145  23.961  24.040  1.00  0.00     0.008 A 
ATOM     15  C   UNL A   1      33.215  24.291  25.149  1.00  0.00     0.008 A 
ATOM     16  C   UNL A   1      30.704  25.206  24.532  1.00  0.00     0.047 A 
ATOM     17  C   UNL A   1      32.775  25.510  25.655  1.00  0.00     0.047 A 
ATOM     18  C   UNL A   1      31.499  25.961  25.395  1.00  0.00     0.119 A 
BRANCH  18  19
ATOM     19  O   UNL A   1      30.954  27.104  25.894  1.00  0.00    -0.491 OA
BRANCH  19  20
ATOM     20  C   UNL A   1      31.709  28.329  25.950  1.00  0.00     0.167 C 
ATOM     21  C   UNL A   1      31.372  29.338  24.850  1.00  0.00     0.052 C 
ATOM     22  C   UNL A   1      31.790  28.940  27.351  1.00  0.00     0.052 C 
ENDBRANCH  19  20
ENDBRANCH  18  19
ENDBRANCH  11  13
ENDBRANCH   6  11
ENDBRANCH   3   6
ENDBRANCH   1   2
BRANCH   1  23
ATOM     23  C   UNL A   1      37.241  21.229  24.842  1.00  0.00     0.023 C 
BRANCH  23  24
ATOM     24  C   UNL A   1      38.173  20.039  25.004  1.00  0.00     0.023 C 
BRANCH  24  25
ATOM     25  C   UNL A   1      39.406  20.311  25.848  1.00  0.00     0.116 C 
BRANCH  25  26
ATOM     26  N   UNL A   1      40.316  19.178  25.923  1.00  0.00    -0.352 N 
ATOM     27  C   UNL A   1      41.676  19.182  26.138  1.00  0.00     0.251 C 
ATOM     28  H   UNL A   1      39.906  18.291  25.802  1.00  0.00     0.163 HD
ATOM     29  O   UNL A   1      42.330  18.157  26.056  1.00  0.00    -0.269 OA
BRANCH  27  30
ATOM     30  C   UNL A   1      42.337  20.471  26.434  1.00  0.00     0.039 A 
ATOM     31  C   UNL A   1      42.857  21.220  25.378  1.00  0.00     0.014 A 
ATOM     32  C   UNL A   1      42.374  20.960  27.742  1.00  0.00     0.014 A 
ATOM     33  C   UNL A   1      43.351  22.500  25.626  1.00  0.00     0.010 A 
ATOM     34  C   UNL A   1      42.785  22.266  27.974  1.00  0.00     0.010 A 
ATOM     35  C   UNL A   1      43.279  23.047  26.918  1.00  0.00    -0.014 A 
BRANCH  35  36
ATOM     36  C   UNL A   1      43.724  24.435  27.192  1.00  0.00     0.031 A 
ATOM     37  C   UNL A   1      42.736  25.450  27.691  1.00  0.00     0.074 A 
ATOM     38  C   UNL A   1      44.992  24.795  26.921  1.00  0.00     0.049 A 
ATOM     39  N   UNL A   1      42.906  26.728  27.921  1.00  0.00    -0.248 NA
ATOM     40  C   UNL A   1      41.365  24.974  27.936  1.00  0.00     0.031 C 
ATOM     41  C   UNL A   1      46.026  23.912  26.379  1.00  0.00     0.029 A 
ATOM     42  N   UNL A   1      45.625  26.006  27.054  1.00  0.00    -0.354 N 
ATOM     43  C   UNL A   1      41.665  27.206  28.317  1.00  0.00     0.074 A 
ATOM     44  C   UNL A   1      40.738  26.099  28.242  1.00  0.00     0.031 C 
ATOM     45  C   UNL A   1      47.171  24.603  26.249  1.00  0.00     0.029 A 
ATOM     46  C   UNL A   1      46.942  25.984  26.665  1.00  0.00     0.049 A 
ATOM     47  H   UNL A   1      45.178  26.812  27.397  1.00  0.00     0.167 HD
ATOM     48  C   UNL A   1      41.335  28.451  28.735  1.00  0.00     0.037 A 
ATOM     49  C   UNL A   1      47.858  26.970  26.641  1.00  0.00     0.037 A 
ATOM     50  C   UNL A   1      42.269  29.541  28.838  1.00  0.00     0.049 A 
ATOM     51  C   UNL A   1      47.467  28.345  27.112  1.00  0.00     0.074 A 
ATOM     52  C   UNL A   1      42.052  30.821  29.314  1.00  0.00     0.029 A 
ATOM     53  N   UNL A   1      43.600  29.477  28.454  1.00  0.00    -0.354 N 
ATOM     54  N   UNL A   1      46.310  28.768  27.558  1.00  0.00    -0.248 NA
ATOM     55  C   UNL A   1      48.512  29.376  27.082  1.00  0.00     0.031 C 
ATOM     56  C   UNL A   1      43.240  31.546  29.177  1.00  0.00     0.029 A 
ATOM     57  C   UNL A   1      44.211  30.702  28.661  1.00  0.00     0.049 A 
ATOM     58  H   UNL A   1      44.045  28.678  28.088  1.00  0.00     0.167 HD
ATOM     59  C   UNL A   1      46.492  30.104  27.886  1.00  0.00     0.074 A 
ATOM     60  C   UNL A   1      47.877  30.418  27.602  1.00  0.00     0.031 C 
ATOM     61  C   UNL A   1      45.593  30.994  28.377  1.00  0.00     0.037 A 
BRANCH  48  62
ATOM     62  C   UNL A   1      39.905  28.695  29.118  1.00  0.00     0.064 A 
ATOM     63  C   UNL A   1      39.443  28.468  30.424  1.00  0.00     0.173 A 
ATOM     64  C   UNL A   1      38.989  29.186  28.175  1.00  0.00     0.173 A 
ATOM     65  F   UNL A   1      40.274  27.986  31.359  1.00  0.00    -0.203 F 
ATOM     66  C   UNL A   1      38.111  28.691  30.763  1.00  0.00     0.198 A 
ATOM     67  C   UNL A   1      37.665  29.438  28.526  1.00  0.00     0.198 A 
ATOM     68  F   UNL A   1      39.378  29.425  26.914  1.00  0.00    -0.203 F 
ATOM     69  F   UNL A   1      37.682  28.414  32.001  1.00  0.00    -0.200 F 
ATOM     70  C   UNL A   1      37.225  29.182  29.815  1.00  0.00     0.200 A 
ATOM     71  F   UNL A   1      36.813  29.925  27.613  1.00  0.00    -0.200 F 
ATOM     72  F   UNL A   1      35.945  29.402  30.145  1.00  0.00    -0.200 F 
ENDBRANCH  48  62
BRANCH  49  73
ATOM     73  C   UNL A   1      49.243  26.686  26.182  1.00  0.00     0.064 A 
ATOM     74  C   UNL A   1      50.201  26.173  27.069  1.00  0.00     0.173 A 
ATOM     75  C   UNL A   1      49.638  26.920  24.858  1.00  0.00     0.173 A 
ATOM     76  F   UNL A   1      49.876  25.952  28.351  1.00  0.00    -0.203 F 
ATOM     77  C   UNL A   1      51.507  25.923  26.651  1.00  0.00     0.198 A 
ATOM     78  C   UNL A   1      50.937  26.643  24.435  1.00  0.00     0.198 A 
ATOM     79  F   UNL A   1      48.758  27.405  23.969  1.00  0.00    -0.203 F 
ATOM     80  F   UNL A   1      52.413  25.473  27.530  1.00  0.00    -0.200 F 
ATOM     81  C   UNL A   1      51.871  26.152  25.334  1.00  0.00     0.200 A 
ATOM     82  F   UNL A   1      51.281  26.853  23.157  1.00  0.00    -0.200 F 
ATOM     83  F   UNL A   1      53.127  25.907  24.931  1.00  0.00    -0.200 F 
ENDBRANCH  49  73
BRANCH  61  84
ATOM     84  C   UNL A   1      46.087  32.380  28.665  1.00  0.00     0.064 A 
ATOM     85  C   UNL A   1      46.649  32.718  29.905  1.00  0.00     0.173 A 
ATOM     86  C   UNL A   1      46.035  33.372  27.674  1.00  0.00     0.173 A 
ATOM     87  F   UNL A   1      46.707  31.810  30.890  1.00  0.00    -0.203 F 
ATOM     88  C   UNL A   1      47.120  34.006  30.149  1.00  0.00     0.198 A 
ATOM     89  C   UNL A   1      46.533  34.649  27.911  1.00  0.00     0.198 A 
ATOM     90  F   UNL A   1      45.512  33.098  26.469  1.00  0.00    -0.203 F 
ATOM     91  F   UNL A   1      47.610  34.320  31.355  1.00  0.00    -0.200 F 
ATOM     92  C   UNL A   1      47.069  34.967  29.151  1.00  0.00     0.200 A 
ATOM     93  F   UNL A   1      46.496  35.573  26.940  1.00  0.00    -0.200 F 
ATOM     94  F   UNL A   1      47.530  36.203  29.385  1.00  0.00    -0.200 F 
ENDBRANCH  61  84
ENDBRANCH  35  36
ENDBRANCH  27  30
ENDBRANCH  25  26
ENDBRANCH  24  25
ENDBRANCH  23  24
ENDBRANCH   1  23
TORSDOF 17
ENDMDL
MODEL 2
REMARK VINA RESULT:     -11.9      0.414      2.040
REMARK SMILES CC[C@@](O)(C(=O)NCCCCNC(=O)c1ccc(-c2c3nc(c(-c4c(F)c(F)c(F)c(F)c4F)c4ccc([nH]4)c(-c4c(F)c(F)c(F)c(F)c4F)c4nc(c(-c5c(F)c(F)c(F)c(F)c5F)c5ccc2[nH]5)C=C4)C=C3)cc1)[C@@H](C)c1ccc(OC(C)C)cc1
REMARK SMILES IDX 8 1 7 2 5 3 6 4 3 6 2 7 1 8 4 9 78 11 79 12 80 13 81 14
REMARK SMILES IDX 89 15 82 16 88 17 83 18 84 19 85 20 86 21 87 22 9 23 10 24
REMARK SMILES IDX 11 25 12 26 13 27 14 29 15 30 16 31 77 32 17 33 76 34 18 35
REMARK SMILES IDX 19 36 20 37 70 38 21 39 75 40 69 41 71 42 22 43 74 44 68 45
REMARK SMILES IDX 67 46 23 48 55 49 35 50 54 51 36 52 39 53 53 54 72 55 37 56
REMARK SMILES IDX 38 57 52 59 73 60 40 61 24 62 25 63 33 64 26 65 27 66 31 67
REMARK SMILES IDX 34 68 28 69 29 70 32 71 30 72 56 73 57 74 65 75 58 76 59 77
REMARK SMILES IDX 63 78 66 79 60 80 61 81 64 82 62 83 41 84 42 85 50 86 43 87
REMARK SMILES IDX 44 88 48 89 51 90 45 91 46 92 49 93 47 94
REMARK H PARENT 7 5 4 10 12 28 71 47 39 58
REMARK Flexibility Score: inf
ROOT
ATOM      1  C   UNL A   1      35.818  20.664  24.929  1.00  0.00     0.116 C 
ENDROOT
BRANCH   1   2
ATOM      2  N   UNL A   1      35.047  21.030  26.114  1.00  0.00    -0.354 N 
ATOM      3  C   UNL A   1      33.683  21.099  26.296  1.00  0.00     0.252 C 
ATOM      4  O   UNL A   1      33.280  21.289  27.446  1.00  0.00    -0.272 OA
ATOM      5  H   UNL A   1      35.585  21.263  26.904  1.00  0.00     0.163 HD
BRANCH   3   6
ATOM      6  C   UNL A   1      32.714  20.910  25.080  1.00  0.00     0.149 C 
BRANCH   6   7
ATOM      7  C   UNL A   1      32.855  19.435  24.607  1.00  0.00     0.043 C 
ATOM      8  C   UNL A   1      32.670  18.308  25.609  1.00  0.00     0.007 C 
ENDBRANCH   6   7
BRANCH   6   9
ATOM      9  O   UNL A   1      31.442  21.175  25.705  1.00  0.00    -0.379 OA
ATOM     10  H   UNL A   1      31.322  20.581  26.463  1.00  0.00     0.212 HD
ENDBRANCH   6   9
BRANCH   6  11
ATOM     11  C   UNL A   1      32.953  21.979  23.932  1.00  0.00     0.057 C 
ATOM     12  C   UNL A   1      31.903  21.807  22.810  1.00  0.00     0.016 C 
BRANCH  11  13
ATOM     13  C   UNL A   1      33.033  23.462  24.378  1.00  0.00    -0.042 A 
ATOM     14  C   UNL A   1      31.887  24.201  24.710  1.00  0.00     0.008 A 
ATOM     15  C   UNL A   1      34.248  24.151  24.481  1.00  0.00     0.008 A 
ATOM     16  C   UNL A   1      31.986  25.497  25.255  1.00  0.00     0.047 A 
ATOM     17  C   UNL A   1      34.350  25.422  25.039  1.00  0.00     0.047 A 
ATOM     18  C   UNL A   1      33.228  26.091  25.478  1.00  0.00     0.119 A 
BRANCH  18  19
ATOM     19  O   UNL A   1      33.229  27.305  26.094  1.00  0.00    -0.491 OA
BRANCH  19  20
ATOM     20  C   UNL A   1      32.018  28.067  26.245  1.00  0.00     0.167 C 
ATOM     21  C   UNL A   1      31.568  28.271  27.694  1.00  0.00     0.052 C 
ATOM     22  C   UNL A   1      31.979  29.340  25.397  1.00  0.00     0.052 C 
ENDBRANCH  19  20
ENDBRANCH  18  19
ENDBRANCH  11  13
ENDBRANCH   6  11
ENDBRANCH   3   6
ENDBRANCH   1   2
BRANCH   1  23
ATOM     23  C   UNL A   1      37.274  21.120  25.004  1.00  0.00     0.023 C 
BRANCH  23  24
ATOM     24  C   UNL A   1      38.293  19.991  25.009  1.00  0.00     0.023 C 
BRANCH  24  25
ATOM     25  C   UNL A   1      39.497  20.230  25.904  1.00  0.00     0.116 C 
BRANCH  25  26
ATOM     26  N   UNL A   1      40.423  19.107  25.938  1.00  0.00    -0.352 N 
ATOM     27  C   UNL A   1      41.787  19.125  26.120  1.00  0.00     0.251 C 
ATOM     28  H   UNL A   1      40.021  18.217  25.812  1.00  0.00     0.163 HD
ATOM     29  O   UNL A   1      42.451  18.109  26.005  1.00  0.00    -0.269 OA
BRANCH  27  30
ATOM     30  C   UNL A   1      42.439  20.416  26.422  1.00  0.00     0.039 A 
ATOM     31  C   UNL A   1      43.037  21.129  25.381  1.00  0.00     0.014 A 
ATOM     32  C   UNL A   1      42.393  20.945  27.715  1.00  0.00     0.014 A 
ATOM     33  C   UNL A   1      43.525  22.412  25.624  1.00  0.00     0.010 A 
ATOM     34  C   UNL A   1      42.800  22.254  27.934  1.00  0.00     0.010 A 
ATOM     35  C   UNL A   1      43.372  22.999  26.892  1.00  0.00    -0.014 A 
BRANCH  35  36
ATOM     36  C   UNL A   1      43.811  24.391  27.154  1.00  0.00     0.031 A 
ATOM     37  C   UNL A   1      42.825  25.399  27.670  1.00  0.00     0.074 A 
ATOM     38  C   UNL A   1      45.071  24.761  26.857  1.00  0.00     0.049 A 
ATOM     39  N   UNL A   1      42.989  26.679  27.894  1.00  0.00    -0.248 NA
ATOM     40  C   UNL A   1      41.463  24.913  27.943  1.00  0.00     0.031 C 
ATOM     41  C   UNL A   1      46.101  23.885  26.296  1.00  0.00     0.029 A 
ATOM     42  N   UNL A   1      45.696  25.977  26.975  1.00  0.00    -0.354 N 
ATOM     43  C   UNL A   1      41.752  27.148  28.314  1.00  0.00     0.074 A 
ATOM     44  C   UNL A   1      40.833  26.033  28.260  1.00  0.00     0.031 C 
ATOM     45  C   UNL A   1      47.237  24.585  26.143  1.00  0.00     0.029 A 
ATOM     46  C   UNL A   1      47.005  25.965  26.559  1.00  0.00     0.049 A 
ATOM     47  H   UNL A   1      45.249  26.780  27.325  1.00  0.00     0.167 HD
ATOM     48  C   UNL A   1      41.420  28.391  28.735  1.00  0.00     0.037 A 
ATOM     49  C   UNL A   1      47.913  26.958  26.516  1.00  0.00     0.037 A 
ATOM     50  C   UNL A   1      42.347  29.489  28.817  1.00  0.00     0.049 A 
ATOM     51  C   UNL A   1      47.519  28.331  26.992  1.00  0.00     0.074 A 
ATOM     52  C   UNL A   1      42.129  30.769  29.295  1.00  0.00     0.029 A 
ATOM     53  N   UNL A   1      43.671  29.434  28.407  1.00  0.00    -0.354 N 
ATOM     54  N   UNL A   1      46.368  28.745  27.459  1.00  0.00    -0.248 NA
ATOM     55  C   UNL A   1      48.556  29.371  26.938  1.00  0.00     0.031 C 
ATOM     56  C   UNL A   1      43.309  31.502  29.133  1.00  0.00     0.029 A 
ATOM     57  C   UNL A   1      44.276  30.665  28.599  1.00  0.00     0.049 A 
ATOM     58  H   UNL A   1      44.115  28.639  28.034  1.00  0.00     0.167 HD
ATOM     59  C   UNL A   1      46.546  30.084  27.780  1.00  0.00     0.074 A 
ATOM     60  C   UNL A   1      47.923  30.408  27.468  1.00  0.00     0.031 C 
ATOM     61  C   UNL A   1      45.650  30.967  28.287  1.00  0.00     0.037 A 
BRANCH  48  62
ATOM     62  C   UNL A   1      39.996  28.625  29.146  1.00  0.00     0.064 A 
ATOM     63  C   UNL A   1      39.033  29.082  28.232  1.00  0.00     0.173 A 
ATOM     64  C   UNL A   1      39.582  28.368  30.461  1.00  0.00     0.173 A 
ATOM     65  F   UNL A   1      39.380  29.356  26.966  1.00  0.00    -0.203 F 
ATOM     66  C   UNL A   1      37.716  29.303  28.628  1.00  0.00     0.198 A 
ATOM     67  C   UNL A   1      38.257  28.560  30.846  1.00  0.00     0.198 A 
ATOM     68  F   UNL A   1      40.461  27.926  31.373  1.00  0.00    -0.203 F 
ATOM     69  F   UNL A   1      36.828  29.791  27.752  1.00  0.00    -0.200 F 
ATOM     70  C   UNL A   1      37.328  29.035  29.933  1.00  0.00     0.200 A 
ATOM     71  F   UNL A   1      37.881  28.289  32.103  1.00  0.00    -0.200 F 
ATOM     72  F   UNL A   1      36.060  29.243  30.311  1.00  0.00    -0.200 F 
ENDBRANCH  48  62
BRANCH  49  73
ATOM     73  C   UNL A   1      49.291  26.684  26.030  1.00  0.00     0.064 A 
ATOM     74  C   UNL A   1      49.654  26.968  24.706  1.00  0.00     0.173 A 
ATOM     75  C   UNL A   1      50.268  26.133  26.872  1.00  0.00     0.173 A 
ATOM     76  F   UNL A   1      48.749  27.476  23.858  1.00  0.00    -0.203 F 
ATOM     77  C   UNL A   1      50.938  26.696  24.238  1.00  0.00     0.198 A 
ATOM     78  C   UNL A   1      51.559  25.887  26.410  1.00  0.00     0.198 A 
ATOM     79  F   UNL A   1      49.972  25.848  28.149  1.00  0.00    -0.203 F 
ATOM     80  F   UNL A   1      51.246  26.938  22.957  1.00  0.00    -0.200 F 
ATOM     81  C   UNL A   1      51.890  26.161  25.092  1.00  0.00     0.200 A 
ATOM     82  F   UNL A   1      52.480  25.383  27.242  1.00  0.00    -0.200 F 
ATOM     83  F   UNL A   1      53.126  25.903  24.642  1.00  0.00    -0.200 F 
ENDBRANCH  49  73
BRANCH  61  84
ATOM     84  C   UNL A   1      46.138  32.358  28.563  1.00  0.00     0.064 A 
ATOM     85  C   UNL A   1      46.042  33.375  27.601  1.00  0.00     0.173 A 
ATOM     86  C   UNL A   1      46.669  32.689  29.819  1.00  0.00     0.173 A 
ATOM     87  F   UNL A   1      45.556  33.107  26.380  1.00  0.00    -0.203 F 
ATOM     88  C   UNL A   1      46.482  34.666  27.881  1.00  0.00     0.198 A 
ATOM     89  C   UNL A   1      47.081  33.986  30.105  1.00  0.00     0.198 A 
ATOM     90  F   UNL A   1      46.776  31.753  30.775  1.00  0.00    -0.203 F 
ATOM     91  F   UNL A   1      46.425  35.611  26.933  1.00  0.00    -0.200 F 
ATOM     92  C   UNL A   1      46.994  34.973  29.133  1.00  0.00     0.200 A 
ATOM     93  F   UNL A   1      47.561  34.284  31.320  1.00  0.00    -0.200 F 
ATOM     94  F   UNL A   1      47.409  36.218  29.402  1.00  0.00    -0.200 F 
ENDBRANCH  61  84
ENDBRANCH  35  36
ENDBRANCH  27  30
ENDBRANCH  25  26
ENDBRANCH  24  25
ENDBRANCH  23  24
ENDBRANCH   1  23
TORSDOF 17
ENDMDL
MODEL 3
REMARK VINA RESULT:     -11.7      5.732     11.431
REMARK SMILES CC[C@@](O)(C(=O)NCCCCNC(=O)c1ccc(-c2c3nc(c(-c4c(F)c(F)c(F)c(F)c4F)c4ccc([nH]4)c(-c4c(F)c(F)c(F)c(F)c4F)c4nc(c(-c5c(F)c(F)c(F)c(F)c5F)c5ccc2[nH]5)C=C4)C=C3)cc1)[C@@H](C)c1ccc(OC(C)C)cc1
REMARK SMILES IDX 8 1 7 2 5 3 6 4 3 6 2 7 1 8 4 9 78 11 79 12 80 13 81 14
REMARK SMILES IDX 89 15 82 16 88 17 83 18 84 19 85 20 86 21 87 22 9 23 10 24
REMARK SMILES IDX 11 25 12 26 13 27 14 29 15 30 16 31 77 32 17 33 76 34 18 35
REMARK SMILES IDX 19 36 20 37 70 38 21 39 75 40 69 41 71 42 22 43 74 44 68 45
REMARK SMILES IDX 67 46 23 48 55 49 35 50 54 51 36 52 39 53 53 54 72 55 37 56
REMARK SMILES IDX 38 57 52 59 73 60 40 61 24 62 25 63 33 64 26 65 27 66 31 67
REMARK SMILES IDX 34 68 28 69 29 70 32 71 30 72 56 73 57 74 65 75 58 76 59 77
REMARK SMILES IDX 63 78 66 79 60 80 61 81 64 82 62 83 41 84 42 85 50 86 43 87
REMARK SMILES IDX 44 88 48 89 51 90 45 91 46 92 49 93 47 94
REMARK H PARENT 7 5 4 10 12 28 71 47 39 58
REMARK Flexibility Score: inf
ROOT
ATOM      1  C   UNL A   1      32.450  29.901  25.528  1.00  0.00     0.116 C 
ENDROOT
BRANCH   1   2
ATOM      2  N   UNL A   1      31.356  29.741  24.574  1.00  0.00    -0.354 N 
ATOM      3  C   UNL A   1      30.987  28.644  23.826  1.00  0.00     0.252 C 
ATOM      4  O   UNL A   1      29.924  28.721  23.204  1.00  0.00    -0.272 OA
ATOM      5  H   UNL A   1      30.796  30.540  24.445  1.00  0.00     0.163 HD
BRANCH   3   6
ATOM      6  C   UNL A   1      31.883  27.360  23.814  1.00  0.00     0.149 C 
BRANCH   6   7
ATOM      7  C   UNL A   1      31.212  26.341  22.849  1.00  0.00     0.043 C 
ATOM      8  C   UNL A   1      32.041  25.689  21.755  1.00  0.00     0.007 C 
ENDBRANCH   6   7
BRANCH   6   9
ATOM      9  O   UNL A   1      33.115  27.896  23.289  1.00  0.00    -0.379 OA
ATOM     10  H   UNL A   1      33.648  27.177  22.915  1.00  0.00     0.212 HD
ENDBRANCH   6   9
BRANCH   6  11
ATOM     11  C   UNL A   1      32.153  26.786  25.268  1.00  0.00     0.057 C 
ATOM     12  C   UNL A   1      30.819  26.596  26.027  1.00  0.00     0.016 C 
BRANCH  11  13
ATOM     13  C   UNL A   1      33.012  25.497  25.352  1.00  0.00    -0.042 A 
ATOM     14  C   UNL A   1      34.314  25.436  24.831  1.00  0.00     0.008 A 
ATOM     15  C   UNL A   1      32.547  24.322  25.955  1.00  0.00     0.008 A 
ATOM     16  C   UNL A   1      35.135  24.310  25.046  1.00  0.00     0.047 A 
ATOM     17  C   UNL A   1      33.362  23.218  26.188  1.00  0.00     0.047 A 
ATOM     18  C   UNL A   1      34.678  23.216  25.781  1.00  0.00     0.119 A 
BRANCH  18  19
ATOM     19  O   UNL A   1      35.571  22.217  26.017  1.00  0.00    -0.491 OA
BRANCH  19  20
ATOM     20  C   UNL A   1      35.892  21.246  25.004  1.00  0.00     0.167 C 
ATOM     21  C   UNL A   1      37.347  20.773  25.010  1.00  0.00     0.052 C 
ATOM     22  C   UNL A   1      34.870  20.114  24.887  1.00  0.00     0.052 C 
ENDBRANCH  19  20
ENDBRANCH  18  19
ENDBRANCH  11  13
ENDBRANCH   6  11
ENDBRANCH   3   6
ENDBRANCH   1   2
BRANCH   1  23
ATOM     23  C   UNL A   1      31.995  30.500  26.858  1.00  0.00     0.023 C 
BRANCH  23  24
ATOM     24  C   UNL A   1      31.746  31.999  26.826  1.00  0.00     0.023 C 
BRANCH  24  25
ATOM     25  C   UNL A   1      32.885  32.841  27.375  1.00  0.00     0.116 C 
BRANCH  25  26
ATOM     26  N   UNL A   1      32.495  34.210  27.682  1.00  0.00    -0.352 N 
ATOM     27  C   UNL A   1      33.011  35.055  28.639  1.00  0.00     0.251 C 
ATOM     28  H   UNL A   1      31.766  34.580  27.134  1.00  0.00     0.163 HD
ATOM     29  O   UNL A   1      32.502  36.139  28.861  1.00  0.00    -0.269 OA
BRANCH  27  30
ATOM     30  C   UNL A   1      34.180  34.600  29.421  1.00  0.00     0.039 A 
ATOM     31  C   UNL A   1      33.975  34.095  30.706  1.00  0.00     0.014 A 
ATOM     32  C   UNL A   1      35.456  34.612  28.854  1.00  0.00     0.014 A 
ATOM     33  C   UNL A   1      35.046  33.530  31.397  1.00  0.00     0.010 A 
ATOM     34  C   UNL A   1      36.501  33.971  29.506  1.00  0.00     0.010 A 
ATOM     35  C   UNL A   1      36.306  33.426  30.785  1.00  0.00    -0.014 A 
BRANCH  35  36
ATOM     36  C   UNL A   1      37.440  32.757  31.467  1.00  0.00     0.031 A 
ATOM     37  C   UNL A   1      38.137  31.605  30.802  1.00  0.00     0.074 A 
ATOM     38  C   UNL A   1      37.791  33.139  32.709  1.00  0.00     0.049 A 
ATOM     39  N   UNL A   1      39.098  30.842  31.259  1.00  0.00    -0.248 NA
ATOM     40  C   UNL A   1      37.671  31.239  29.455  1.00  0.00     0.031 C 
ATOM     41  C   UNL A   1      37.152  34.207  33.479  1.00  0.00     0.029 A 
ATOM     42  N   UNL A   1      38.768  32.663  33.548  1.00  0.00    -0.354 N 
ATOM     43  C   UNL A   1      39.334  29.901  30.266  1.00  0.00     0.074 A 
ATOM     44  C   UNL A   1      38.381  30.150  29.208  1.00  0.00     0.031 C 
ATOM     45  C   UNL A   1      37.768  34.322  34.667  1.00  0.00     0.029 A 
ATOM     46  C   UNL A   1      38.821  33.314  34.756  1.00  0.00     0.049 A 
ATOM     47  H   UNL A   1      39.373  31.926  33.306  1.00  0.00     0.167 HD
ATOM     48  C   UNL A   1      40.282  28.935  30.229  1.00  0.00     0.037 A 
ATOM     49  C   UNL A   1      39.625  33.115  35.817  1.00  0.00     0.037 A 
ATOM     50  C   UNL A   1      41.249  28.712  31.271  1.00  0.00     0.049 A 
ATOM     51  C   UNL A   1      40.672  32.035  35.749  1.00  0.00     0.074 A 
ATOM     52  C   UNL A   1      42.293  27.806  31.301  1.00  0.00     0.029 A 
ATOM     53  N   UNL A   1      41.285  29.406  32.472  1.00  0.00    -0.354 N 
ATOM     54  N   UNL A   1      40.938  31.202  34.775  1.00  0.00    -0.248 NA
ATOM     55  C   UNL A   1      41.533  31.875  36.929  1.00  0.00     0.031 C 
ATOM     56  C   UNL A   1      42.935  27.920  32.538  1.00  0.00     0.029 A 
ATOM     57  C   UNL A   1      42.321  28.931  33.260  1.00  0.00     0.049 A 
ATOM     58  H   UNL A   1      40.666  30.128  32.728  1.00  0.00     0.167 HD
ATOM     59  C   UNL A   1      42.012  30.436  35.209  1.00  0.00     0.074 A 
ATOM     60  C   UNL A   1      42.358  30.916  36.531  1.00  0.00     0.031 C 
ATOM     61  C   UNL A   1      42.653  29.425  34.572  1.00  0.00     0.037 A 
BRANCH  48  62
ATOM     62  C   UNL A   1      40.321  28.051  29.016  1.00  0.00     0.064 A 
ATOM     63  C   UNL A   1      41.079  28.389  27.884  1.00  0.00     0.173 A 
ATOM     64  C   UNL A   1      39.613  26.841  28.994  1.00  0.00     0.173 A 
ATOM     65  F   UNL A   1      41.763  29.542  27.848  1.00  0.00    -0.203 F 
ATOM     66  C   UNL A   1      41.099  27.564  26.762  1.00  0.00     0.198 A 
ATOM     67  C   UNL A   1      39.661  26.002  27.883  1.00  0.00     0.198 A 
ATOM     68  F   UNL A   1      38.877  26.468  30.052  1.00  0.00    -0.203 F 
ATOM     69  F   UNL A   1      41.785  27.934  25.673  1.00  0.00    -0.200 F 
ATOM     70  C   UNL A   1      40.396  26.368  26.766  1.00  0.00     0.200 A 
ATOM     71  F   UNL A   1      38.991  24.842  27.892  1.00  0.00    -0.200 F 
ATOM     72  F   UNL A   1      40.421  25.572  25.688  1.00  0.00    -0.200 F 
ENDBRANCH  48  62
BRANCH  49  73
ATOM     73  C   UNL A   1      39.492  33.975  37.022  1.00  0.00     0.064 A 
ATOM     74  C   UNL A   1      40.140  35.217  37.091  1.00  0.00     0.173 A 
ATOM     75  C   UNL A   1      38.721  33.578  38.124  1.00  0.00     0.173 A 
ATOM     76  F   UNL A   1      40.905  35.631  36.071  1.00  0.00    -0.203 F 
ATOM     77  C   UNL A   1      40.036  36.020  38.225  1.00  0.00     0.198 A 
ATOM     78  C   UNL A   1      38.596  34.394  39.246  1.00  0.00     0.198 A 
ATOM     79  F   UNL A   1      38.077  32.402  38.104  1.00  0.00    -0.203 F 
ATOM     80  F   UNL A   1      40.700  37.182  38.282  1.00  0.00    -0.200 F 
ATOM     81  C   UNL A   1      39.260  35.611  39.298  1.00  0.00     0.200 A 
ATOM     82  F   UNL A   1      37.834  34.002  40.275  1.00  0.00    -0.200 F 
ATOM     83  F   UNL A   1      39.157  36.386  40.387  1.00  0.00    -0.200 F 
ENDBRANCH  49  73
BRANCH  61  84
ATOM     84  C   UNL A   1      43.811  28.791  35.283  1.00  0.00     0.064 A 
ATOM     85  C   UNL A   1      45.120  29.273  35.134  1.00  0.00     0.173 A 
ATOM     86  C   UNL A   1      43.603  27.713  36.158  1.00  0.00     0.173 A 
ATOM     87  F   UNL A   1      45.373  30.291  34.297  1.00  0.00    -0.203 F 
ATOM     88  C   UNL A   1      46.181  28.685  35.817  1.00  0.00     0.198 A 
ATOM     89  C   UNL A   1      44.661  27.147  36.861  1.00  0.00     0.198 A 
ATOM     90  F   UNL A   1      42.369  27.219  36.340  1.00  0.00    -0.203 F 
ATOM     91  F   UNL A   1      47.429  29.131  35.624  1.00  0.00    -0.200 F 
ATOM     92  C   UNL A   1      45.950  27.628  36.685  1.00  0.00     0.200 A 
ATOM     93  F   UNL A   1      44.434  26.135  37.710  1.00  0.00    -0.200 F 
ATOM     94  F   UNL A   1      46.972  27.068  37.348  1.00  0.00    -0.200 F 
ENDBRANCH  61  84
ENDBRANCH  35  36
ENDBRANCH  27  30
ENDBRANCH  25  26
ENDBRANCH  24  25
ENDBRANCH  23  24
ENDBRANCH   1  23
TORSDOF 17
ENDMDL
