MODEL 1
REMARK VINA RESULT:     -12.4      0.000      0.000
REMARK SMILES CCCc1c(C(=O)NCCCCNC(=O)c2ccc(-c3c4nc(c(-c5c(F)c(F)c(F)c(F)c5F)c5ccc([nH]5)c(-c5c(F)c(F)c(F)c(F)c5F)c5nc(c(-c6c(F)c(F)c(F)c(F)c6F)c6ccc3[nH]6)C=C5)C=C4)cc2)nnn1-c1ccccc1[N+](=O)[O-]
REMARK SMILES IDX 10 1 9 2 8 3 6 4 7 5 5 7 4 8 81 9 79 10 80 11 3 12 2 13 1 14
REMARK SMILES IDX 82 15 83 16 87 17 84 18 86 19 85 20 88 21 89 22 90 23 11 24
REMARK SMILES IDX 12 25 13 26 14 27 15 29 16 30 17 31 78 32 18 33 77 34 19 35
REMARK SMILES IDX 20 36 21 37 71 38 22 39 76 40 70 41 72 42 23 43 75 44 69 45
REMARK SMILES IDX 68 46 24 48 56 49 36 50 55 51 37 52 40 53 54 54 73 55 38 56
REMARK SMILES IDX 39 57 53 59 74 60 41 61 25 62 26 63 34 64 27 65 28 66 32 67
REMARK SMILES IDX 35 68 29 69 30 70 33 71 31 72 57 73 58 74 66 75 59 76 60 77
REMARK SMILES IDX 64 78 67 79 61 80 62 81 65 82 63 83 42 84 43 85 51 86 44 87
REMARK SMILES IDX 45 88 49 89 52 90 46 91 47 92 50 93 48 94
REMARK H PARENT 8 6 13 28 72 47 40 58
REMARK Flexibility Score: inf
ROOT
ATOM      1  C   UNL A   1      37.680  22.792  25.500  1.00  0.00     0.023 C 
ENDROOT
BRANCH   1   2
ATOM      2  C   UNL A   1      36.673  22.607  24.353  1.00  0.00     0.116 C 
BRANCH   2   3
ATOM      3  N   UNL A   1      35.777  21.505  24.605  1.00  0.00    -0.351 N 
ATOM      4  C   UNL A   1      34.422  21.308  24.521  1.00  0.00     0.273 C 
ATOM      5  O   UNL A   1      34.088  20.160  24.837  1.00  0.00    -0.267 OA
ATOM      6  H   UNL A   1      36.253  20.700  24.910  1.00  0.00     0.163 HD
BRANCH   4   7
ATOM      7  C   UNL A   1      33.400  22.279  24.088  1.00  0.00     0.174 A 
ATOM      8  C   UNL A   1      32.958  23.558  24.458  1.00  0.00     0.078 A 
ATOM      9  N   UNL A   1      32.025  23.873  23.469  1.00  0.00    -0.210 N 
ATOM     10  N   UNL A   1      32.563  21.838  23.072  1.00  0.00    -0.124 NA
ATOM     11  N   UNL A   1      31.677  22.768  22.793  1.00  0.00    -0.061 NA
BRANCH   8  12
ATOM     12  C   UNL A   1      33.276  24.468  25.599  1.00  0.00     0.059 C 
BRANCH  12  13
ATOM     13  C   UNL A   1      34.275  25.610  25.398  1.00  0.00     0.003 C 
ATOM     14  C   UNL A   1      33.649  26.994  25.484  1.00  0.00     0.004 C 
ENDBRANCH  12  13
ENDBRANCH   8  12
BRANCH   9  15
ATOM     15  C   UNL A   1      31.303  25.067  23.261  1.00  0.00     0.144 A 
ATOM     16  C   UNL A   1      30.169  25.272  24.065  1.00  0.00     0.036 A 
ATOM     17  C   UNL A   1      31.727  26.081  22.390  1.00  0.00     0.294 A 
ATOM     18  C   UNL A   1      29.527  26.511  24.062  1.00  0.00     0.003 A 
ATOM     19  C   UNL A   1      31.066  27.318  22.377  1.00  0.00     0.088 A 
ATOM     20  C   UNL A   1      29.981  27.535  23.229  1.00  0.00     0.007 A 
BRANCH  17  21
ATOM     21  N   UNL A   1      32.820  25.885  21.441  1.00  0.00     0.065 N 
ATOM     22  O   UNL A   1      32.511  25.590  20.278  1.00  0.00    -0.258 OA
ATOM     23  O   UNL A   1      33.976  26.037  21.848  1.00  0.00    -0.258 OA
ENDBRANCH  17  21
ENDBRANCH   9  15
ENDBRANCH   4   7
ENDBRANCH   2   3
ENDBRANCH   1   2
BRANCH   1  24
ATOM     24  C   UNL A   1      38.653  21.639  25.752  1.00  0.00     0.023 C 
BRANCH  24  25
ATOM     25  C   UNL A   1      39.721  21.927  26.800  1.00  0.00     0.116 C 
BRANCH  25  26
ATOM     26  N   UNL A   1      41.081  21.979  26.254  1.00  0.00    -0.352 N 
ATOM     27  C   UNL A   1      41.880  23.098  26.061  1.00  0.00     0.251 C 
ATOM     28  H   UNL A   1      41.476  21.114  25.992  1.00  0.00     0.163 HD
ATOM     29  O   UNL A   1      42.807  23.102  25.276  1.00  0.00    -0.269 OA
BRANCH  27  30
ATOM     30  C   UNL A   1      41.575  24.286  26.875  1.00  0.00     0.039 A 
ATOM     31  C   UNL A   1      42.110  24.474  28.151  1.00  0.00     0.014 A 
ATOM     32  C   UNL A   1      40.820  25.272  26.254  1.00  0.00     0.014 A 
ATOM     33  C   UNL A   1      41.954  25.719  28.755  1.00  0.00     0.010 A 
ATOM     34  C   UNL A   1      40.845  26.543  26.759  1.00  0.00     0.010 A 
ATOM     35  C   UNL A   1      41.344  26.762  28.036  1.00  0.00    -0.014 A 
BRANCH  35  36
ATOM     36  C   UNL A   1      41.277  28.118  28.566  1.00  0.00     0.031 A 
ATOM     37  C   UNL A   1      42.378  29.024  28.149  1.00  0.00     0.074 A 
ATOM     38  C   UNL A   1      40.207  28.586  29.245  1.00  0.00     0.049 A 
ATOM     39  N   UNL A   1      43.333  29.480  28.888  1.00  0.00    -0.248 NA
ATOM     40  C   UNL A   1      42.508  29.378  26.727  1.00  0.00     0.031 C 
ATOM     41  C   UNL A   1      38.914  27.938  29.507  1.00  0.00     0.029 A 
ATOM     42  N   UNL A   1      40.035  29.815  29.799  1.00  0.00    -0.354 N 
ATOM     43  C   UNL A   1      44.091  30.321  28.080  1.00  0.00     0.074 A 
ATOM     44  C   UNL A   1      43.630  30.103  26.732  1.00  0.00     0.031 C 
ATOM     45  C   UNL A   1      38.027  28.849  29.965  1.00  0.00     0.029 A 
ATOM     46  C   UNL A   1      38.739  30.086  30.216  1.00  0.00     0.049 A 
ATOM     47  H   UNL A   1      40.770  30.462  29.898  1.00  0.00     0.167 HD
ATOM     48  C   UNL A   1      44.885  31.285  28.625  1.00  0.00     0.037 A 
ATOM     49  C   UNL A   1      38.283  31.245  30.745  1.00  0.00     0.037 A 
ATOM     50  C   UNL A   1      45.076  31.063  30.037  1.00  0.00     0.049 A 
ATOM     51  C   UNL A   1      39.461  31.965  31.286  1.00  0.00     0.074 A 
ATOM     52  C   UNL A   1      45.650  30.062  30.795  1.00  0.00     0.029 A 
ATOM     53  N   UNL A   1      44.289  31.780  30.905  1.00  0.00    -0.354 N 
ATOM     54  N   UNL A   1      40.159  31.539  32.303  1.00  0.00    -0.248 NA
ATOM     55  C   UNL A   1      40.145  32.897  30.404  1.00  0.00     0.031 C 
ATOM     56  C   UNL A   1      44.801  29.932  31.936  1.00  0.00     0.029 A 
ATOM     57  C   UNL A   1      43.802  30.903  31.839  1.00  0.00     0.049 A 
ATOM     58  H   UNL A   1      44.107  32.747  30.865  1.00  0.00     0.167 HD
ATOM     59  C   UNL A   1      41.477  31.792  31.956  1.00  0.00     0.074 A 
ATOM     60  C   UNL A   1      41.401  32.708  30.818  1.00  0.00     0.031 C 
ATOM     61  C   UNL A   1      42.492  31.017  32.439  1.00  0.00     0.037 A 
BRANCH  48  62
ATOM     62  C   UNL A   1      45.192  32.618  27.990  1.00  0.00     0.064 A 
ATOM     63  C   UNL A   1      44.129  33.496  27.690  1.00  0.00     0.173 A 
ATOM     64  C   UNL A   1      46.427  32.927  27.385  1.00  0.00     0.173 A 
ATOM     65  F   UNL A   1      42.907  33.290  28.203  1.00  0.00    -0.203 F 
ATOM     66  C   UNL A   1      44.276  34.546  26.780  1.00  0.00     0.198 A 
ATOM     67  C   UNL A   1      46.582  34.008  26.518  1.00  0.00     0.198 A 
ATOM     68  F   UNL A   1      47.498  32.133  27.511  1.00  0.00    -0.203 F 
ATOM     69  F   UNL A   1      43.207  35.272  26.425  1.00  0.00    -0.200 F 
ATOM     70  C   UNL A   1      45.499  34.796  26.188  1.00  0.00     0.200 A 
ATOM     71  F   UNL A   1      47.773  34.222  25.939  1.00  0.00    -0.200 F 
ATOM     72  F   UNL A   1      45.627  35.758  25.265  1.00  0.00    -0.200 F 
ENDBRANCH  48  62
BRANCH  49  73
ATOM     73  C   UNL A   1      36.969  31.890  30.529  1.00  0.00     0.064 A 
ATOM     74  C   UNL A   1      36.006  31.941  31.548  1.00  0.00     0.173 A 
ATOM     75  C   UNL A   1      36.747  32.718  29.411  1.00  0.00     0.173 A 
ATOM     76  F   UNL A   1      36.169  31.215  32.664  1.00  0.00    -0.203 F 
ATOM     77  C   UNL A   1      34.899  32.792  31.467  1.00  0.00     0.198 A 
ATOM     78  C   UNL A   1      35.642  33.567  29.330  1.00  0.00     0.198 A 
ATOM     79  F   UNL A   1      37.651  32.794  28.423  1.00  0.00    -0.203 F 
ATOM     80  F   UNL A   1      34.032  32.861  32.487  1.00  0.00    -0.200 F 
ATOM     81  C   UNL A   1      34.724  33.613  30.364  1.00  0.00     0.200 A 
ATOM     82  F   UNL A   1      35.508  34.386  28.278  1.00  0.00    -0.200 F 
ATOM     83  F   UNL A   1      33.701  34.478  30.317  1.00  0.00    -0.200 F 
ENDBRANCH  49  73
BRANCH  61  84
ATOM     84  C   UNL A   1      42.163  30.046  33.541  1.00  0.00     0.064 A 
ATOM     85  C   UNL A   1      41.759  28.716  33.324  1.00  0.00     0.173 A 
ATOM     86  C   UNL A   1      42.395  30.435  34.865  1.00  0.00     0.173 A 
ATOM     87  F   UNL A   1      41.611  28.234  32.086  1.00  0.00    -0.203 F 
ATOM     88  C   UNL A   1      41.557  27.834  34.385  1.00  0.00     0.198 A 
ATOM     89  C   UNL A   1      42.227  29.544  35.922  1.00  0.00     0.198 A 
ATOM     90  F   UNL A   1      42.837  31.675  35.132  1.00  0.00    -0.203 F 
ATOM     91  F   UNL A   1      41.164  26.574  34.148  1.00  0.00    -0.200 F 
ATOM     92  C   UNL A   1      41.798  28.248  35.684  1.00  0.00     0.200 A 
ATOM     93  F   UNL A   1      42.508  29.934  37.173  1.00  0.00    -0.200 F 
ATOM     94  F   UNL A   1      41.643  27.391  36.703  1.00  0.00    -0.200 F 
ENDBRANCH  61  84
ENDBRANCH  35  36
ENDBRANCH  27  30
ENDBRANCH  25  26
ENDBRANCH  24  25
ENDBRANCH   1  24
TORSDOF 15
ENDMDL
MODEL 2
REMARK VINA RESULT:     -12.3      3.396      8.789
REMARK SMILES CCCc1c(C(=O)NCCCCNC(=O)c2ccc(-c3c4nc(c(-c5c(F)c(F)c(F)c(F)c5F)c5ccc([nH]5)c(-c5c(F)c(F)c(F)c(F)c5F)c5nc(c(-c6c(F)c(F)c(F)c(F)c6F)c6ccc3[nH]6)C=C5)C=C4)cc2)nnn1-c1ccccc1[N+](=O)[O-]
REMARK SMILES IDX 10 1 9 2 8 3 6 4 7 5 5 7 4 8 81 9 79 10 80 11 3 12 2 13 1 14
REMARK SMILES IDX 82 15 83 16 87 17 84 18 86 19 85 20 88 21 89 22 90 23 11 24
REMARK SMILES IDX 12 25 13 26 14 27 15 29 16 30 17 31 78 32 18 33 77 34 19 35
REMARK SMILES IDX 20 36 21 37 71 38 22 39 76 40 70 41 72 42 23 43 75 44 69 45
REMARK SMILES IDX 68 46 24 48 56 49 36 50 55 51 37 52 40 53 54 54 73 55 38 56
REMARK SMILES IDX 39 57 53 59 74 60 41 61 25 62 26 63 34 64 27 65 28 66 32 67
REMARK SMILES IDX 35 68 29 69 30 70 33 71 31 72 57 73 58 74 66 75 59 76 60 77
REMARK SMILES IDX 64 78 67 79 61 80 62 81 65 82 63 83 42 84 43 85 51 86 44 87
REMARK SMILES IDX 45 88 49 89 52 90 46 91 47 92 50 93 48 94
REMARK H PARENT 8 6 13 28 72 47 40 58
REMARK Flexibility Score: inf
ROOT
ATOM      1  C   UNL A   1      33.947  29.054  26.932  1.00  0.00     0.023 C 
ENDROOT
BRANCH   1   2
ATOM      2  C   UNL A   1      33.882  29.028  25.396  1.00  0.00     0.116 C 
BRANCH   2   3
ATOM      3  N   UNL A   1      32.577  29.406  24.913  1.00  0.00    -0.351 N 
ATOM      4  C   UNL A   1      31.471  28.735  24.459  1.00  0.00     0.273 C 
ATOM      5  O   UNL A   1      30.546  29.496  24.149  1.00  0.00    -0.267 OA
ATOM      6  H   UNL A   1      32.450  30.382  24.907  1.00  0.00     0.163 HD
BRANCH   4   7
ATOM      7  C   UNL A   1      31.292  27.276  24.342  1.00  0.00     0.174 A 
ATOM      8  C   UNL A   1      32.102  26.131  24.274  1.00  0.00     0.078 A 
ATOM      9  N   UNL A   1      31.179  25.084  24.313  1.00  0.00    -0.210 N 
ATOM     10  N   UNL A   1      29.979  26.854  24.190  1.00  0.00    -0.124 NA
ATOM     11  N   UNL A   1      29.945  25.546  24.065  1.00  0.00    -0.061 NA
BRANCH   8  12
ATOM     12  C   UNL A   1      33.575  25.917  24.153  1.00  0.00     0.059 C 
BRANCH  12  13
ATOM     13  C   UNL A   1      34.359  25.368  25.347  1.00  0.00     0.003 C 
ATOM     14  C   UNL A   1      35.062  24.050  25.065  1.00  0.00     0.004 C 
ENDBRANCH  12  13
ENDBRANCH   8  12
BRANCH   9  15
ATOM     15  C   UNL A   1      31.401  23.692  24.358  1.00  0.00     0.144 A 
ATOM     16  C   UNL A   1      31.676  23.052  23.137  1.00  0.00     0.036 A 
ATOM     17  C   UNL A   1      31.471  22.962  25.553  1.00  0.00     0.294 A 
ATOM     18  C   UNL A   1      32.105  21.724  23.127  1.00  0.00     0.003 A 
ATOM     19  C   UNL A   1      31.885  21.621  25.536  1.00  0.00     0.088 A 
ATOM     20  C   UNL A   1      32.221  21.015  24.323  1.00  0.00     0.007 A 
BRANCH  17  21
ATOM     21  N   UNL A   1      31.078  23.534  26.839  1.00  0.00     0.065 N 
ATOM     22  O   UNL A   1      31.988  23.887  27.602  1.00  0.00    -0.258 OA
ATOM     23  O   UNL A   1      29.871  23.641  27.082  1.00  0.00    -0.258 OA
ENDBRANCH  17  21
ENDBRANCH   9  15
ENDBRANCH   4   7
ENDBRANCH   2   3
ENDBRANCH   1   2
BRANCH   1  24
ATOM     24  C   UNL A   1      33.427  30.317  27.620  1.00  0.00     0.023 C 
BRANCH  24  25
ATOM     25  C   UNL A   1      34.405  31.485  27.628  1.00  0.00     0.116 C 
BRANCH  25  26
ATOM     26  N   UNL A   1      34.462  32.195  28.911  1.00  0.00    -0.352 N 
ATOM     27  C   UNL A   1      35.281  31.925  29.999  1.00  0.00     0.251 C 
ATOM     28  H   UNL A   1      33.844  32.955  29.012  1.00  0.00     0.163 HD
ATOM     29  O   UNL A   1      35.008  32.299  31.122  1.00  0.00    -0.269 OA
BRANCH  27  30
ATOM     30  C   UNL A   1      36.525  31.184  29.732  1.00  0.00     0.039 A 
ATOM     31  C   UNL A   1      37.740  31.826  29.490  1.00  0.00     0.014 A 
ATOM     32  C   UNL A   1      36.448  29.802  29.856  1.00  0.00     0.014 A 
ATOM     33  C   UNL A   1      38.901  31.057  29.473  1.00  0.00     0.010 A 
ATOM     34  C   UNL A   1      37.600  29.088  30.040  1.00  0.00     0.010 A 
ATOM     35  C   UNL A   1      38.825  29.688  29.780  1.00  0.00    -0.014 A 
BRANCH  35  36
ATOM     36  C   UNL A   1      40.022  28.866  29.910  1.00  0.00     0.031 A 
ATOM     37  C   UNL A   1      40.527  28.683  31.296  1.00  0.00     0.074 A 
ATOM     38  C   UNL A   1      40.547  28.169  28.878  1.00  0.00     0.049 A 
ATOM     39  N   UNL A   1      41.604  29.182  31.804  1.00  0.00    -0.248 NA
ATOM     40  C   UNL A   1      39.690  27.963  32.267  1.00  0.00     0.031 C 
ATOM     41  C   UNL A   1      40.031  27.996  27.513  1.00  0.00     0.029 A 
ATOM     42  N   UNL A   1      41.660  27.389  28.871  1.00  0.00    -0.354 N 
ATOM     43  C   UNL A   1      41.684  28.700  33.107  1.00  0.00     0.074 A 
ATOM     44  C   UNL A   1      40.412  28.082  33.385  1.00  0.00     0.031 C 
ATOM     45  C   UNL A   1      40.699  27.000  26.892  1.00  0.00     0.029 A 
ATOM     46  C   UNL A   1      41.810  26.606  27.734  1.00  0.00     0.049 A 
ATOM     47  H   UNL A   1      42.308  27.380  29.611  1.00  0.00     0.167 HD
ATOM     48  C   UNL A   1      42.876  28.664  33.766  1.00  0.00     0.037 A 
ATOM     49  C   UNL A   1      42.790  25.704  27.495  1.00  0.00     0.037 A 
ATOM     50  C   UNL A   1      43.865  29.470  33.093  1.00  0.00     0.049 A 
ATOM     51  C   UNL A   1      43.930  26.063  28.372  1.00  0.00     0.074 A 
ATOM     52  C   UNL A   1      43.989  30.813  32.800  1.00  0.00     0.029 A 
ATOM     53  N   UNL A   1      44.755  28.827  32.267  1.00  0.00    -0.354 N 
ATOM     54  N   UNL A   1      44.626  27.160  28.233  1.00  0.00    -0.248 NA
ATOM     55  C   UNL A   1      43.991  25.446  29.687  1.00  0.00     0.031 C 
ATOM     56  C   UNL A   1      44.563  30.852  31.493  1.00  0.00     0.029 A 
ATOM     57  C   UNL A   1      44.817  29.538  31.097  1.00  0.00     0.049 A 
ATOM     58  H   UNL A   1      45.256  28.006  32.476  1.00  0.00     0.167 HD
ATOM     59  C   UNL A   1      44.848  27.601  29.529  1.00  0.00     0.074 A 
ATOM     60  C   UNL A   1      44.511  26.462  30.381  1.00  0.00     0.031 C 
ATOM     61  C   UNL A   1      45.009  28.930  29.800  1.00  0.00     0.037 A 
BRANCH  48  62
ATOM     62  C   UNL A   1      43.270  27.633  34.793  1.00  0.00     0.064 A 
ATOM     63  C   UNL A   1      43.590  28.054  36.101  1.00  0.00     0.173 A 
ATOM     64  C   UNL A   1      43.649  26.314  34.467  1.00  0.00     0.173 A 
ATOM     65  F   UNL A   1      43.285  29.294  36.513  1.00  0.00    -0.203 F 
ATOM     66  C   UNL A   1      44.315  27.245  36.980  1.00  0.00     0.198 A 
ATOM     67  C   UNL A   1      44.326  25.491  35.366  1.00  0.00     0.198 A 
ATOM     68  F   UNL A   1      43.486  25.812  33.238  1.00  0.00    -0.203 F 
ATOM     69  F   UNL A   1      44.711  27.734  38.162  1.00  0.00    -0.200 F 
ATOM     70  C   UNL A   1      44.691  25.968  36.608  1.00  0.00     0.200 A 
ATOM     71  F   UNL A   1      44.699  24.262  34.980  1.00  0.00    -0.200 F 
ATOM     72  F   UNL A   1      45.445  25.215  37.420  1.00  0.00    -0.200 F 
ENDBRANCH  48  62
BRANCH  49  73
ATOM     73  C   UNL A   1      42.678  24.400  26.807  1.00  0.00     0.064 A 
ATOM     74  C   UNL A   1      43.286  24.179  25.562  1.00  0.00     0.173 A 
ATOM     75  C   UNL A   1      42.214  23.259  27.492  1.00  0.00     0.173 A 
ATOM     76  F   UNL A   1      43.794  25.208  24.868  1.00  0.00    -0.203 F 
ATOM     77  C   UNL A   1      43.447  22.889  25.045  1.00  0.00     0.198 A 
ATOM     78  C   UNL A   1      42.373  21.973  26.974  1.00  0.00     0.198 A 
ATOM     79  F   UNL A   1      41.688  23.365  28.721  1.00  0.00    -0.203 F 
ATOM     80  F   UNL A   1      44.089  22.710  23.881  1.00  0.00    -0.200 F 
ATOM     81  C   UNL A   1      43.001  21.786  25.756  1.00  0.00     0.200 A 
ATOM     82  F   UNL A   1      41.976  20.913  27.692  1.00  0.00    -0.200 F 
ATOM     83  F   UNL A   1      43.216  20.548  25.293  1.00  0.00    -0.200 F 
ENDBRANCH  49  73
BRANCH  61  84
ATOM     84  C   UNL A   1      45.182  29.863  28.631  1.00  0.00     0.064 A 
ATOM     85  C   UNL A   1      44.118  30.503  27.971  1.00  0.00     0.173 A 
ATOM     86  C   UNL A   1      46.480  30.227  28.255  1.00  0.00     0.173 A 
ATOM     87  F   UNL A   1      42.850  30.288  28.335  1.00  0.00    -0.203 F 
ATOM     88  C   UNL A   1      44.345  31.430  26.954  1.00  0.00     0.198 A 
ATOM     89  C   UNL A   1      46.706  31.179  27.263  1.00  0.00     0.198 A 
ATOM     90  F   UNL A   1      47.537  29.693  28.888  1.00  0.00    -0.203 F 
ATOM     91  F   UNL A   1      43.310  32.018  26.335  1.00  0.00    -0.200 F 
ATOM     92  C   UNL A   1      45.640  31.772  26.605  1.00  0.00     0.200 A 
ATOM     93  F   UNL A   1      47.961  31.542  26.963  1.00  0.00    -0.200 F 
ATOM     94  F   UNL A   1      45.862  32.691  25.655  1.00  0.00    -0.200 F 
ENDBRANCH  61  84
ENDBRANCH  35  36
ENDBRANCH  27  30
ENDBRANCH  25  26
ENDBRANCH  24  25
ENDBRANCH   1  24
TORSDOF 15
ENDMDL
MODEL 3
REMARK VINA RESULT:     -12.1      3.037      4.352
REMARK SMILES CCCc1c(C(=O)NCCCCNC(=O)c2ccc(-c3c4nc(c(-c5c(F)c(F)c(F)c(F)c5F)c5ccc([nH]5)c(-c5c(F)c(F)c(F)c(F)c5F)c5nc(c(-c6c(F)c(F)c(F)c(F)c6F)c6ccc3[nH]6)C=C5)C=C4)cc2)nnn1-c1ccccc1[N+](=O)[O-]
REMARK SMILES IDX 10 1 9 2 8 3 6 4 7 5 5 7 4 8 81 9 79 10 80 11 3 12 2 13 1 14
REMARK SMILES IDX 82 15 83 16 87 17 84 18 86 19 85 20 88 21 89 22 90 23 11 24
REMARK SMILES IDX 12 25 13 26 14 27 15 29 16 30 17 31 78 32 18 33 77 34 19 35
REMARK SMILES IDX 20 36 21 37 71 38 22 39 76 40 70 41 72 42 23 43 75 44 69 45
REMARK SMILES IDX 68 46 24 48 56 49 36 50 55 51 37 52 40 53 54 54 73 55 38 56
REMARK SMILES IDX 39 57 53 59 74 60 41 61 25 62 26 63 34 64 27 65 28 66 32 67
REMARK SMILES IDX 35 68 29 69 30 70 33 71 31 72 57 73 58 74 66 75 59 76 60 77
REMARK SMILES IDX 64 78 67 79 61 80 62 81 65 82 63 83 42 84 43 85 51 86 44 87
REMARK SMILES IDX 45 88 49 89 52 90 46 91 47 92 50 93 48 94
REMARK H PARENT 8 6 13 28 72 47 40 58
REMARK Flexibility Score: inf
ROOT
ATOM      1  C   UNL A   1      41.122  21.296  27.686  1.00  0.00     0.023 C 
ENDROOT
BRANCH   1   2
ATOM      2  C   UNL A   1      39.962  21.536  26.705  1.00  0.00     0.116 C 
BRANCH   2   3
ATOM      3  N   UNL A   1      39.381  22.844  26.878  1.00  0.00    -0.351 N 
ATOM      4  C   UNL A   1      38.235  23.468  26.456  1.00  0.00     0.273 C 
ATOM      5  O   UNL A   1      38.146  24.630  26.870  1.00  0.00    -0.267 OA
ATOM      6  H   UNL A   1      39.943  23.431  27.433  1.00  0.00     0.163 HD
BRANCH   4   7
ATOM      7  C   UNL A   1      37.158  22.898  25.626  1.00  0.00     0.174 A 
ATOM      8  C   UNL A   1      35.755  22.845  25.636  1.00  0.00     0.078 A 
ATOM      9  N   UNL A   1      35.450  22.231  24.420  1.00  0.00    -0.210 N 
ATOM     10  N   UNL A   1      37.586  22.133  24.551  1.00  0.00    -0.124 NA
ATOM     11  N   UNL A   1      36.545  21.652  23.906  1.00  0.00    -0.061 NA
BRANCH   8  12
ATOM     12  C   UNL A   1      34.716  23.260  26.624  1.00  0.00     0.059 C 
BRANCH  12  13
ATOM     13  C   UNL A   1      33.663  24.296  26.222  1.00  0.00     0.003 C 
ATOM     14  C   UNL A   1      34.245  25.541  25.572  1.00  0.00     0.004 C 
ENDBRANCH  12  13
ENDBRANCH   8  12
BRANCH   9  15
ATOM     15  C   UNL A   1      34.194  21.978  23.831  1.00  0.00     0.144 A 
ATOM     16  C   UNL A   1      33.733  22.912  22.888  1.00  0.00     0.036 A 
ATOM     17  C   UNL A   1      33.461  20.804  24.058  1.00  0.00     0.294 A 
ATOM     18  C   UNL A   1      32.604  22.627  22.118  1.00  0.00     0.003 A 
ATOM     19  C   UNL A   1      32.315  20.531  23.294  1.00  0.00     0.088 A 
ATOM     20  C   UNL A   1      31.905  21.435  22.312  1.00  0.00     0.007 A 
BRANCH  17  21
ATOM     21  N   UNL A   1      33.817  19.854  25.109  1.00  0.00     0.065 N 
ATOM     22  O   UNL A   1      33.353  20.063  26.239  1.00  0.00    -0.258 OA
ATOM     23  O   UNL A   1      34.543  18.901  24.808  1.00  0.00    -0.258 OA
ENDBRANCH  17  21
ENDBRANCH   9  15
ENDBRANCH   4   7
ENDBRANCH   2   3
ENDBRANCH   1   2
BRANCH   1  24
ATOM     24  C   UNL A   1      42.108  20.183  27.325  1.00  0.00     0.023 C 
BRANCH  24  25
ATOM     25  C   UNL A   1      42.330  19.992  25.830  1.00  0.00     0.116 C 
BRANCH  25  26
ATOM     26  N   UNL A   1      43.701  19.603  25.485  1.00  0.00    -0.352 N 
ATOM     27  C   UNL A   1      44.732  20.420  25.040  1.00  0.00     0.251 C 
ATOM     28  H   UNL A   1      43.917  18.647  25.580  1.00  0.00     0.163 HD
ATOM     29  O   UNL A   1      45.687  19.981  24.430  1.00  0.00    -0.269 OA
BRANCH  27  30
ATOM     30  C   UNL A   1      44.639  21.853  25.366  1.00  0.00     0.039 A 
ATOM     31  C   UNL A   1      43.784  22.719  24.684  1.00  0.00     0.014 A 
ATOM     32  C   UNL A   1      45.364  22.273  26.474  1.00  0.00     0.014 A 
ATOM     33  C   UNL A   1      43.592  23.999  25.200  1.00  0.00     0.010 A 
ATOM     34  C   UNL A   1      45.019  23.447  27.085  1.00  0.00     0.010 A 
ATOM     35  C   UNL A   1      44.193  24.346  26.423  1.00  0.00    -0.014 A 
BRANCH  35  36
ATOM     36  C   UNL A   1      43.917  25.619  27.076  1.00  0.00     0.031 A 
ATOM     37  C   UNL A   1      44.846  26.729  26.736  1.00  0.00     0.074 A 
ATOM     38  C   UNL A   1      42.800  25.842  27.803  1.00  0.00     0.049 A 
ATOM     39  N   UNL A   1      45.730  27.267  27.507  1.00  0.00    -0.248 NA
ATOM     40  C   UNL A   1      44.884  27.225  25.352  1.00  0.00     0.031 C 
ATOM     41  C   UNL A   1      41.637  24.969  28.015  1.00  0.00     0.029 A 
ATOM     42  N   UNL A   1      42.442  26.971  28.470  1.00  0.00    -0.354 N 
ATOM     43  C   UNL A   1      46.321  28.291  26.774  1.00  0.00     0.074 A 
ATOM     44  C   UNL A   1      45.872  28.122  25.415  1.00  0.00     0.031 C 
ATOM     45  C   UNL A   1      40.624  25.676  28.561  1.00  0.00     0.029 A 
ATOM     46  C   UNL A   1      41.129  26.986  28.919  1.00  0.00     0.049 A 
ATOM     47  H   UNL A   1      43.065  27.719  28.622  1.00  0.00     0.167 HD
ATOM     48  C   UNL A   1      46.960  29.319  27.399  1.00  0.00     0.037 A 
ATOM     49  C   UNL A   1      40.502  28.002  29.557  1.00  0.00     0.037 A 
ATOM     50  C   UNL A   1      47.216  29.006  28.783  1.00  0.00     0.049 A 
ATOM     51  C   UNL A   1      41.559  28.855  30.153  1.00  0.00     0.074 A 
ATOM     52  C   UNL A   1      47.963  28.050  29.441  1.00  0.00     0.029 A 
ATOM     53  N   UNL A   1      46.343  29.502  29.720  1.00  0.00    -0.354 N 
ATOM     54  N   UNL A   1      42.340  28.460  31.121  1.00  0.00    -0.248 NA
ATOM     55  C   UNL A   1      42.062  29.962  29.356  1.00  0.00     0.031 C 
ATOM     56  C   UNL A   1      47.173  27.680  30.572  1.00  0.00     0.029 A 
ATOM     57  C   UNL A   1      46.027  28.477  30.573  1.00  0.00     0.049 A 
ATOM     58  H   UNL A   1      46.005  30.426  29.770  1.00  0.00     0.167 HD
ATOM     59  C   UNL A   1      43.591  28.957  30.789  1.00  0.00     0.074 A 
ATOM     60  C   UNL A   1      43.340  29.946  29.741  1.00  0.00     0.031 C 
ATOM     61  C   UNL A   1      44.730  28.320  31.191  1.00  0.00     0.037 A 
BRANCH  48  62
ATOM     62  C   UNL A   1      47.031  30.736  26.888  1.00  0.00     0.064 A 
ATOM     63  C   UNL A   1      48.265  31.419  26.926  1.00  0.00     0.173 A 
ATOM     64  C   UNL A   1      45.895  31.542  26.669  1.00  0.00     0.173 A 
ATOM     65  F   UNL A   1      49.408  30.751  27.139  1.00  0.00    -0.203 F 
ATOM     66  C   UNL A   1      48.340  32.811  26.840  1.00  0.00     0.198 A 
ATOM     67  C   UNL A   1      45.980  32.927  26.532  1.00  0.00     0.198 A 
ATOM     68  F   UNL A   1      44.654  31.043  26.696  1.00  0.00    -0.203 F 
ATOM     69  F   UNL A   1      49.518  33.426  27.013  1.00  0.00    -0.200 F 
ATOM     70  C   UNL A   1      47.197  33.565  26.653  1.00  0.00     0.200 A 
ATOM     71  F   UNL A   1      44.858  33.643  26.370  1.00  0.00    -0.200 F 
ATOM     72  F   UNL A   1      47.257  34.903  26.640  1.00  0.00    -0.200 F 
ENDBRANCH  48  62
BRANCH  49  73
ATOM     73  C   UNL A   1      39.097  28.438  29.411  1.00  0.00     0.064 A 
ATOM     74  C   UNL A   1      38.268  28.613  30.529  1.00  0.00     0.173 A 
ATOM     75  C   UNL A   1      38.628  28.968  28.191  1.00  0.00     0.173 A 
ATOM     76  F   UNL A   1      38.664  28.178  31.734  1.00  0.00    -0.203 F 
ATOM     77  C   UNL A   1      37.054  29.302  30.440  1.00  0.00     0.198 A 
ATOM     78  C   UNL A   1      37.416  29.654  28.104  1.00  0.00     0.198 A 
ATOM     79  F   UNL A   1      39.385  28.916  27.086  1.00  0.00    -0.203 F 
ATOM     80  F   UNL A   1      36.318  29.505  31.542  1.00  0.00    -0.200 F 
ATOM     81  C   UNL A   1      36.635  29.833  29.231  1.00  0.00     0.200 A 
ATOM     82  F   UNL A   1      37.043  30.199  26.937  1.00  0.00    -0.200 F 
ATOM     83  F   UNL A   1      35.505  30.551  29.160  1.00  0.00    -0.200 F 
ENDBRANCH  49  73
BRANCH  61  84
ATOM     84  C   UNL A   1      44.588  27.212  32.201  1.00  0.00     0.064 A 
ATOM     85  C   UNL A   1      44.438  25.855  31.865  1.00  0.00     0.173 A 
ATOM     86  C   UNL A   1      44.747  27.521  33.556  1.00  0.00     0.173 A 
ATOM     87  F   UNL A   1      44.379  25.463  30.588  1.00  0.00    -0.203 F 
ATOM     88  C   UNL A   1      44.405  24.862  32.844  1.00  0.00     0.198 A 
ATOM     89  C   UNL A   1      44.750  26.527  34.531  1.00  0.00     0.198 A 
ATOM     90  F   UNL A   1      44.952  28.794  33.935  1.00  0.00    -0.203 F 
ATOM     91  F   UNL A   1      44.251  23.577  32.494  1.00  0.00    -0.200 F 
ATOM     92  C   UNL A   1      44.568  25.199  34.177  1.00  0.00     0.200 A 
ATOM     93  F   UNL A   1      44.956  26.852  35.814  1.00  0.00    -0.200 F 
ATOM     94  F   UNL A   1      44.576  24.244  35.117  1.00  0.00    -0.200 F 
ENDBRANCH  61  84
ENDBRANCH  35  36
ENDBRANCH  27  30
ENDBRANCH  25  26
ENDBRANCH  24  25
ENDBRANCH   1  24
TORSDOF 15
ENDMDL
