MODEL 1
REMARK VINA RESULT:     -12.9      0.000      0.000
REMARK SMILES CC(=O)N1CCC(C(=O)Nc2sccc2C(=O)NCCCCNC(=O)c2ccc(-c3c4nc(c(-c5c(F)c(F)c(F)c(F)c5F)c5ccc([nH]5)c(-c5c(F)c(F)c(F)c(F)c5F)c5nc(c(-c6c(F)c(F)c(F)c(F)c6F)c6ccc3[nH]6)C=C5)C=C4)cc2)CC1
REMARK SMILES IDX 20 1 19 2 18 3 16 4 17 5 15 7 11 8 12 9 13 10 14 11 10 12
REMARK SMILES IDX 8 13 9 14 7 16 1 17 2 18 3 19 4 20 5 21 90 22 6 23 89 24
REMARK SMILES IDX 21 25 22 26 23 27 24 28 25 30 26 31 27 32 88 33 28 34 87 35
REMARK SMILES IDX 29 36 30 37 31 38 81 39 32 40 86 41 80 42 82 43 33 44 85 45
REMARK SMILES IDX 79 46 78 47 34 49 66 50 46 51 65 52 47 53 50 54 64 55 83 56
REMARK SMILES IDX 48 57 49 58 63 60 84 61 51 62 35 63 36 64 44 65 37 66 38 67
REMARK SMILES IDX 42 68 45 69 39 70 40 71 43 72 41 73 67 74 68 75 76 76 69 77
REMARK SMILES IDX 70 78 74 79 77 80 71 81 72 82 75 83 73 84 52 85 53 86 61 87
REMARK SMILES IDX 54 88 55 89 59 90 62 91 56 92 57 93 60 94 58 95
REMARK H PARENT 18 6 10 15 23 29 82 48 50 59
REMARK Flexibility Score: inf
ROOT
ATOM      1  C   UNL A   1      35.672  21.794  26.195  1.00  0.00     0.023 C 
ENDROOT
BRANCH   1   2
ATOM      2  C   UNL A   1      34.368  21.497  26.926  1.00  0.00     0.116 C 
BRANCH   2   3
ATOM      3  N   UNL A   1      33.585  20.429  26.361  1.00  0.00    -0.352 N 
ATOM      4  C   UNL A   1      32.679  20.441  25.327  1.00  0.00     0.254 C 
ATOM      5  O   UNL A   1      32.107  19.370  25.112  1.00  0.00    -0.269 OA
ATOM      6  H   UNL A   1      33.719  19.549  26.783  1.00  0.00     0.163 HD
BRANCH   4   7
ATOM      7  C   UNL A   1      32.347  21.640  24.529  1.00  0.00     0.074 A 
ATOM      8  C   UNL A   1      31.368  22.616  24.660  1.00  0.00     0.108 A 
ATOM      9  S   UNL A   1      31.193  23.564  23.242  1.00  0.00    -0.126 S 
ATOM     10  C   UNL A   1      32.677  23.014  22.623  1.00  0.00     0.068 A 
ATOM     11  C   UNL A   1      33.179  21.988  23.388  1.00  0.00     0.028 A 
BRANCH   8  12
ATOM     12  N   UNL A   1      30.412  22.973  25.579  1.00  0.00    -0.317 N 
ATOM     13  C   UNL A   1      30.389  23.956  26.521  1.00  0.00     0.228 C 
ATOM     14  O   UNL A   1      29.503  23.874  27.384  1.00  0.00    -0.274 OA
ATOM     15  H   UNL A   1      29.598  22.418  25.552  1.00  0.00     0.170 HD
BRANCH  13  16
ATOM     16  C   UNL A   1      31.269  25.206  26.493  1.00  0.00     0.082 C 
ATOM     17  C   UNL A   1      32.414  28.456  22.917  1.00  0.00     0.114 C 
ATOM     18  C   UNL A   1      33.059  27.324  23.674  1.00  0.00     0.219 C 
ATOM     19  O   UNL A   1      33.904  26.614  23.127  1.00  0.00    -0.275 OA
ATOM     20  N   UNL A   1      32.709  27.183  25.010  1.00  0.00    -0.343 N 
ATOM     21  C   UNL A   1      33.488  26.297  25.864  1.00  0.00     0.120 C 
ATOM     22  C   UNL A   1      31.418  27.560  25.564  1.00  0.00     0.120 C 
ATOM     23  C   UNL A   1      32.728  25.000  26.096  1.00  0.00     0.035 C 
ATOM     24  C   UNL A   1      30.556  26.305  25.683  1.00  0.00     0.035 C 
ENDBRANCH  13  16
ENDBRANCH   8  12
ENDBRANCH   4   7
ENDBRANCH   2   3
ENDBRANCH   1   2
BRANCH   1  25
ATOM     25  C   UNL A   1      35.878  23.260  25.797  1.00  0.00     0.023 C 
BRANCH  25  26
ATOM     26  C   UNL A   1      37.227  23.614  25.162  1.00  0.00     0.116 C 
BRANCH  26  27
ATOM     27  N   UNL A   1      38.320  22.749  25.581  1.00  0.00    -0.352 N 
ATOM     28  C   UNL A   1      39.461  23.029  26.301  1.00  0.00     0.251 C 
ATOM     29  H   UNL A   1      38.229  21.809  25.304  1.00  0.00     0.163 HD
ATOM     30  O   UNL A   1      40.342  22.187  26.418  1.00  0.00    -0.269 OA
BRANCH  28  31
ATOM     31  C   UNL A   1      39.646  24.363  26.917  1.00  0.00     0.039 A 
ATOM     32  C   UNL A   1      39.147  24.589  28.202  1.00  0.00     0.014 A 
ATOM     33  C   UNL A   1      40.296  25.390  26.231  1.00  0.00     0.014 A 
ATOM     34  C   UNL A   1      39.398  25.808  28.840  1.00  0.00     0.010 A 
ATOM     35  C   UNL A   1      40.616  26.574  26.896  1.00  0.00     0.010 A 
ATOM     36  C   UNL A   1      40.188  26.789  28.214  1.00  0.00    -0.014 A 
BRANCH  36  37
ATOM     37  C   UNL A   1      40.622  28.009  28.947  1.00  0.00     0.031 A 
ATOM     38  C   UNL A   1      42.006  28.113  29.523  1.00  0.00     0.074 A 
ATOM     39  C   UNL A   1      39.730  28.996  29.166  1.00  0.00     0.049 A 
ATOM     40  N   UNL A   1      42.532  29.072  30.245  1.00  0.00    -0.248 NA
ATOM     41  C   UNL A   1      42.911  26.980  29.281  1.00  0.00     0.031 C 
ATOM     42  C   UNL A   1      38.337  28.990  28.716  1.00  0.00     0.029 A 
ATOM     43  N   UNL A   1      39.856  30.190  29.836  1.00  0.00    -0.354 N 
ATOM     44  C   UNL A   1      43.819  28.653  30.553  1.00  0.00     0.074 A 
ATOM     45  C   UNL A   1      43.978  27.331  29.985  1.00  0.00     0.031 C 
ATOM     46  C   UNL A   1      37.744  30.130  29.104  1.00  0.00     0.029 A 
ATOM     47  C   UNL A   1      38.697  30.928  29.867  1.00  0.00     0.049 A 
ATOM     48  H   UNL A   1      40.695  30.487  30.254  1.00  0.00     0.167 HD
ATOM     49  C   UNL A   1      44.786  29.318  31.232  1.00  0.00     0.037 A 
ATOM     50  C   UNL A   1      38.425  32.109  30.456  1.00  0.00     0.037 A 
ATOM     51  C   UNL A   1      44.629  30.640  31.782  1.00  0.00     0.049 A 
ATOM     52  C   UNL A   1      39.514  32.824  31.208  1.00  0.00     0.074 A 
ATOM     53  C   UNL A   1      45.576  31.429  32.412  1.00  0.00     0.029 A 
ATOM     54  N   UNL A   1      43.446  31.364  31.780  1.00  0.00    -0.354 N 
ATOM     55  N   UNL A   1      40.756  32.459  31.412  1.00  0.00    -0.248 NA
ATOM     56  C   UNL A   1      39.164  34.119  31.807  1.00  0.00     0.031 C 
ATOM     57  C   UNL A   1      44.950  32.602  32.850  1.00  0.00     0.029 A 
ATOM     58  C   UNL A   1      43.628  32.573  32.435  1.00  0.00     0.049 A 
ATOM     59  H   UNL A   1      42.600  31.063  31.374  1.00  0.00     0.167 HD
ATOM     60  C   UNL A   1      41.341  33.483  32.145  1.00  0.00     0.074 A 
ATOM     61  C   UNL A   1      40.323  34.496  32.329  1.00  0.00     0.031 C 
ATOM     62  C   UNL A   1      42.606  33.573  32.622  1.00  0.00     0.037 A 
BRANCH  49  63
ATOM     63  C   UNL A   1      46.104  28.622  31.427  1.00  0.00     0.064 A 
ATOM     64  C   UNL A   1      47.144  28.730  30.493  1.00  0.00     0.173 A 
ATOM     65  C   UNL A   1      46.344  27.868  32.588  1.00  0.00     0.173 A 
ATOM     66  F   UNL A   1      46.968  29.433  29.364  1.00  0.00    -0.203 F 
ATOM     67  C   UNL A   1      48.361  28.083  30.694  1.00  0.00     0.198 A 
ATOM     68  C   UNL A   1      47.573  27.251  32.802  1.00  0.00     0.198 A 
ATOM     69  F   UNL A   1      45.388  27.738  33.520  1.00  0.00    -0.203 F 
ATOM     70  F   UNL A   1      49.321  28.157  29.761  1.00  0.00    -0.200 F 
ATOM     71  C   UNL A   1      48.577  27.350  31.852  1.00  0.00     0.200 A 
ATOM     72  F   UNL A   1      47.784  26.556  33.929  1.00  0.00    -0.200 F 
ATOM     73  F   UNL A   1      49.751  26.733  32.048  1.00  0.00    -0.200 F 
ENDBRANCH  49  63
BRANCH  50  74
ATOM     74  C   UNL A   1      37.061  32.691  30.347  1.00  0.00     0.064 A 
ATOM     75  C   UNL A   1      36.691  33.464  29.238  1.00  0.00     0.173 A 
ATOM     76  C   UNL A   1      36.099  32.480  31.346  1.00  0.00     0.173 A 
ATOM     77  F   UNL A   1      37.581  33.712  28.267  1.00  0.00    -0.203 F 
ATOM     78  C   UNL A   1      35.415  34.018  29.142  1.00  0.00     0.198 A 
ATOM     79  C   UNL A   1      34.814  33.007  31.232  1.00  0.00     0.198 A 
ATOM     80  F   UNL A   1      36.400  31.743  32.425  1.00  0.00    -0.203 F 
ATOM     81  F   UNL A   1      35.102  34.790  28.092  1.00  0.00    -0.200 F 
ATOM     82  C   UNL A   1      34.476  33.783  30.133  1.00  0.00     0.200 A 
ATOM     83  F   UNL A   1      33.904  32.763  32.185  1.00  0.00    -0.200 F 
ATOM     84  F   UNL A   1      33.247  34.307  30.035  1.00  0.00    -0.200 F 
ENDBRANCH  50  74
BRANCH  62  85
ATOM     85  C   UNL A   1      42.970  34.820  33.378  1.00  0.00     0.064 A 
ATOM     86  C   UNL A   1      43.358  35.996  32.717  1.00  0.00     0.173 A 
ATOM     87  C   UNL A   1      42.895  34.851  34.778  1.00  0.00     0.173 A 
ATOM     88  F   UNL A   1      43.461  36.015  31.379  1.00  0.00    -0.203 F 
ATOM     89  C   UNL A   1      43.682  37.146  33.432  1.00  0.00     0.198 A 
ATOM     90  C   UNL A   1      43.187  36.012  35.488  1.00  0.00     0.198 A 
ATOM     91  F   UNL A   1      42.523  33.757  35.461  1.00  0.00    -0.203 F 
ATOM     92  F   UNL A   1      44.100  38.241  32.781  1.00  0.00    -0.200 F 
ATOM     93  C   UNL A   1      43.589  37.156  34.816  1.00  0.00     0.200 A 
ATOM     94  F   UNL A   1      43.080  36.025  36.824  1.00  0.00    -0.200 F 
ATOM     95  F   UNL A   1      43.894  38.267  35.500  1.00  0.00    -0.200 F 
ENDBRANCH  62  85
ENDBRANCH  36  37
ENDBRANCH  28  31
ENDBRANCH  26  27
ENDBRANCH  25  26
ENDBRANCH   1  25
TORSDOF 13
ENDMDL
MODEL 2
REMARK VINA RESULT:     -12.9      3.798      8.770
REMARK SMILES CC(=O)N1CCC(C(=O)Nc2sccc2C(=O)NCCCCNC(=O)c2ccc(-c3c4nc(c(-c5c(F)c(F)c(F)c(F)c5F)c5ccc([nH]5)c(-c5c(F)c(F)c(F)c(F)c5F)c5nc(c(-c6c(F)c(F)c(F)c(F)c6F)c6ccc3[nH]6)C=C5)C=C4)cc2)CC1
REMARK SMILES IDX 20 1 19 2 18 3 16 4 17 5 15 7 11 8 12 9 13 10 14 11 10 12
REMARK SMILES IDX 8 13 9 14 7 16 1 17 2 18 3 19 4 20 5 21 90 22 6 23 89 24
REMARK SMILES IDX 21 25 22 26 23 27 24 28 25 30 26 31 27 32 88 33 28 34 87 35
REMARK SMILES IDX 29 36 30 37 31 38 81 39 32 40 86 41 80 42 82 43 33 44 85 45
REMARK SMILES IDX 79 46 78 47 34 49 66 50 46 51 65 52 47 53 50 54 64 55 83 56
REMARK SMILES IDX 48 57 49 58 63 60 84 61 51 62 35 63 36 64 44 65 37 66 38 67
REMARK SMILES IDX 42 68 45 69 39 70 40 71 43 72 41 73 67 74 68 75 76 76 69 77
REMARK SMILES IDX 70 78 74 79 77 80 71 81 72 82 75 83 73 84 52 85 53 86 61 87
REMARK SMILES IDX 54 88 55 89 59 90 62 91 56 92 57 93 60 94 58 95
REMARK H PARENT 18 6 10 15 23 29 82 48 50 59
REMARK Flexibility Score: inf
ROOT
ATOM      1  C   UNL A   1      37.089  21.013  24.398  1.00  0.00     0.023 C 
ENDROOT
BRANCH   1   2
ATOM      2  C   UNL A   1      37.210  22.370  25.082  1.00  0.00     0.116 C 
BRANCH   2   3
ATOM      3  N   UNL A   1      36.300  22.582  26.178  1.00  0.00    -0.352 N 
ATOM      4  C   UNL A   1      34.933  22.455  26.236  1.00  0.00     0.254 C 
ATOM      5  O   UNL A   1      34.417  22.774  27.310  1.00  0.00    -0.269 OA
ATOM      6  H   UNL A   1      36.726  22.863  27.021  1.00  0.00     0.163 HD
BRANCH   4   7
ATOM      7  C   UNL A   1      34.092  22.013  25.104  1.00  0.00     0.074 A 
ATOM      8  C   UNL A   1      33.781  22.591  23.880  1.00  0.00     0.108 A 
ATOM      9  S   UNL A   1      32.455  21.825  23.110  1.00  0.00    -0.126 S 
ATOM     10  C   UNL A   1      32.567  20.474  24.135  1.00  0.00     0.068 A 
ATOM     11  C   UNL A   1      33.459  20.704  25.156  1.00  0.00     0.028 A 
BRANCH   8  12
ATOM     12  N   UNL A   1      34.173  23.688  23.152  1.00  0.00    -0.317 N 
ATOM     13  C   UNL A   1      33.539  24.862  22.879  1.00  0.00     0.228 C 
ATOM     14  O   UNL A   1      34.028  25.557  21.977  1.00  0.00    -0.274 OA
ATOM     15  H   UNL A   1      35.071  23.610  22.756  1.00  0.00     0.170 HD
BRANCH  13  16
ATOM     16  C   UNL A   1      32.382  25.435  23.697  1.00  0.00     0.082 C 
ATOM     17  C   UNL A   1      29.903  29.733  23.501  1.00  0.00     0.114 C 
ATOM     18  C   UNL A   1      30.929  29.051  24.369  1.00  0.00     0.219 C 
ATOM     19  O   UNL A   1      31.783  29.714  24.956  1.00  0.00    -0.275 OA
ATOM     20  N   UNL A   1      30.807  27.676  24.521  1.00  0.00    -0.343 N 
ATOM     21  C   UNL A   1      31.584  26.999  25.548  1.00  0.00     0.120 C 
ATOM     22  C   UNL A   1      30.244  26.787  23.516  1.00  0.00     0.120 C 
ATOM     23  C   UNL A   1      32.761  26.272  24.915  1.00  0.00     0.035 C 
ATOM     24  C   UNL A   1      31.392  26.135  22.748  1.00  0.00     0.035 C 
ENDBRANCH  13  16
ENDBRANCH   8  12
ENDBRANCH   4   7
ENDBRANCH   2   3
ENDBRANCH   1   2
BRANCH   1  25
ATOM     25  C   UNL A   1      37.895  19.882  25.048  1.00  0.00     0.023 C 
BRANCH  25  26
ATOM     26  C   UNL A   1      39.196  20.286  25.750  1.00  0.00     0.116 C 
BRANCH  26  27
ATOM     27  N   UNL A   1      40.160  19.203  25.871  1.00  0.00    -0.352 N 
ATOM     28  C   UNL A   1      41.520  19.231  26.094  1.00  0.00     0.251 C 
ATOM     29  H   UNL A   1      39.779  18.300  25.777  1.00  0.00     0.163 HD
ATOM     30  O   UNL A   1      42.184  18.207  26.007  1.00  0.00    -0.269 OA
BRANCH  28  31
ATOM     31  C   UNL A   1      42.197  20.509  26.414  1.00  0.00     0.039 A 
ATOM     32  C   UNL A   1      42.771  21.248  25.377  1.00  0.00     0.014 A 
ATOM     33  C   UNL A   1      42.277  20.974  27.728  1.00  0.00     0.014 A 
ATOM     34  C   UNL A   1      43.327  22.503  25.644  1.00  0.00     0.010 A 
ATOM     35  C   UNL A   1      42.758  22.258  27.981  1.00  0.00     0.010 A 
ATOM     36  C   UNL A   1      43.270  23.046  26.939  1.00  0.00    -0.014 A 
BRANCH  36  37
ATOM     37  C   UNL A   1      43.683  24.450  27.204  1.00  0.00     0.031 A 
ATOM     38  C   UNL A   1      42.691  25.470  27.689  1.00  0.00     0.074 A 
ATOM     39  C   UNL A   1      44.946  24.828  26.921  1.00  0.00     0.049 A 
ATOM     40  N   UNL A   1      42.860  26.750  27.909  1.00  0.00    -0.248 NA
ATOM     41  C   UNL A   1      41.322  24.996  27.934  1.00  0.00     0.031 C 
ATOM     42  C   UNL A   1      45.989  23.952  26.385  1.00  0.00     0.029 A 
ATOM     43  N   UNL A   1      45.566  26.050  27.031  1.00  0.00    -0.354 N 
ATOM     44  C   UNL A   1      41.621  27.235  28.303  1.00  0.00     0.074 A 
ATOM     45  C   UNL A   1      40.696  26.123  28.243  1.00  0.00     0.031 C 
ATOM     46  C   UNL A   1      47.121  24.657  26.231  1.00  0.00     0.029 A 
ATOM     47  C   UNL A   1      46.875  26.043  26.614  1.00  0.00     0.049 A 
ATOM     48  H   UNL A   1      45.115  26.854  27.376  1.00  0.00     0.167 HD
ATOM     49  C   UNL A   1      41.288  28.489  28.698  1.00  0.00     0.037 A 
ATOM     50  C   UNL A   1      47.775  27.041  26.534  1.00  0.00     0.037 A 
ATOM     51  C   UNL A   1      42.216  29.589  28.771  1.00  0.00     0.049 A 
ATOM     52  C   UNL A   1      47.380  28.426  26.972  1.00  0.00     0.074 A 
ATOM     53  C   UNL A   1      41.994  30.873  29.238  1.00  0.00     0.029 A 
ATOM     54  N   UNL A   1      43.538  29.541  28.356  1.00  0.00    -0.354 N 
ATOM     55  N   UNL A   1      46.229  28.850  27.432  1.00  0.00    -0.248 NA
ATOM     56  C   UNL A   1      48.412  29.467  26.886  1.00  0.00     0.031 C 
ATOM     57  C   UNL A   1      43.161  31.620  29.043  1.00  0.00     0.029 A 
ATOM     58  C   UNL A   1      44.133  30.784  28.517  1.00  0.00     0.049 A 
ATOM     59  H   UNL A   1      43.989  28.741  27.998  1.00  0.00     0.167 HD
ATOM     60  C   UNL A   1      46.401  30.200  27.707  1.00  0.00     0.074 A 
ATOM     61  C   UNL A   1      47.777  30.518  27.384  1.00  0.00     0.031 C 
ATOM     62  C   UNL A   1      45.501  31.094  28.183  1.00  0.00     0.037 A 
BRANCH  49  63
ATOM     63  C   UNL A   1      39.856  28.744  29.074  1.00  0.00     0.064 A 
ATOM     64  C   UNL A   1      39.398  28.593  30.390  1.00  0.00     0.173 A 
ATOM     65  C   UNL A   1      38.936  29.186  28.109  1.00  0.00     0.173 A 
ATOM     66  F   UNL A   1      40.232  28.167  31.351  1.00  0.00    -0.203 F 
ATOM     67  C   UNL A   1      38.068  28.840  30.721  1.00  0.00     0.198 A 
ATOM     68  C   UNL A   1      37.616  29.466  28.450  1.00  0.00     0.198 A 
ATOM     69  F   UNL A   1      39.321  29.359  26.835  1.00  0.00    -0.203 F 
ATOM     70  F   UNL A   1      37.641  28.636  31.976  1.00  0.00    -0.200 F 
ATOM     71  C   UNL A   1      37.180  29.283  29.752  1.00  0.00     0.200 A 
ATOM     72  F   UNL A   1      36.764  29.910  27.515  1.00  0.00    -0.200 F 
ATOM     73  F   UNL A   1      35.902  29.528  30.074  1.00  0.00    -0.200 F 
ENDBRANCH  49  63
BRANCH  50  74
ATOM     74  C   UNL A   1      49.144  26.762  26.023  1.00  0.00     0.064 A 
ATOM     75  C   UNL A   1      50.144  26.266  26.870  1.00  0.00     0.173 A 
ATOM     76  C   UNL A   1      49.477  26.979  24.678  1.00  0.00     0.173 A 
ATOM     77  F   UNL A   1      49.882  26.062  28.169  1.00  0.00    -0.203 F 
ATOM     78  C   UNL A   1      51.430  26.014  26.394  1.00  0.00     0.198 A 
ATOM     79  C   UNL A   1      50.753  26.696  24.197  1.00  0.00     0.198 A 
ATOM     80  F   UNL A   1      48.555  27.448  23.825  1.00  0.00    -0.203 F 
ATOM     81  F   UNL A   1      52.380  25.582  27.236  1.00  0.00    -0.200 F 
ATOM     82  C   UNL A   1      51.731  26.221  25.057  1.00  0.00     0.200 A 
ATOM     83  F   UNL A   1      51.034  26.881  22.899  1.00  0.00    -0.200 F 
ATOM     84  F   UNL A   1      52.964  25.969  24.598  1.00  0.00    -0.200 F 
ENDBRANCH  50  74
BRANCH  62  85
ATOM     85  C   UNL A   1      45.976  32.503  28.400  1.00  0.00     0.064 A 
ATOM     86  C   UNL A   1      45.856  33.483  27.403  1.00  0.00     0.173 A 
ATOM     87  C   UNL A   1      46.524  32.887  29.633  1.00  0.00     0.173 A 
ATOM     88  F   UNL A   1      45.354  33.164  26.200  1.00  0.00    -0.203 F 
ATOM     89  C   UNL A   1      46.294  34.787  27.624  1.00  0.00     0.198 A 
ATOM     90  C   UNL A   1      46.928  34.200  29.862  1.00  0.00     0.198 A 
ATOM     91  F   UNL A   1      46.655  31.992  30.624  1.00  0.00    -0.203 F 
ATOM     92  F   UNL A   1      46.217  35.693  26.638  1.00  0.00    -0.200 F 
ATOM     93  C   UNL A   1      46.821  35.146  28.855  1.00  0.00     0.200 A 
ATOM     94  F   UNL A   1      47.422  34.548  31.057  1.00  0.00    -0.200 F 
ATOM     95  F   UNL A   1      47.233  36.403  29.067  1.00  0.00    -0.200 F 
ENDBRANCH  62  85
ENDBRANCH  36  37
ENDBRANCH  28  31
ENDBRANCH  26  27
ENDBRANCH  25  26
ENDBRANCH   1  25
TORSDOF 13
ENDMDL
MODEL 3
REMARK VINA RESULT:     -12.9      3.558      8.647
REMARK SMILES CC(=O)N1CCC(C(=O)Nc2sccc2C(=O)NCCCCNC(=O)c2ccc(-c3c4nc(c(-c5c(F)c(F)c(F)c(F)c5F)c5ccc([nH]5)c(-c5c(F)c(F)c(F)c(F)c5F)c5nc(c(-c6c(F)c(F)c(F)c(F)c6F)c6ccc3[nH]6)C=C5)C=C4)cc2)CC1
REMARK SMILES IDX 20 1 19 2 18 3 16 4 17 5 15 7 11 8 12 9 13 10 14 11 10 12
REMARK SMILES IDX 8 13 9 14 7 16 1 17 2 18 3 19 4 20 5 21 90 22 6 23 89 24
REMARK SMILES IDX 21 25 22 26 23 27 24 28 25 30 26 31 27 32 88 33 28 34 87 35
REMARK SMILES IDX 29 36 30 37 31 38 81 39 32 40 86 41 80 42 82 43 33 44 85 45
REMARK SMILES IDX 79 46 78 47 34 49 66 50 46 51 65 52 47 53 50 54 64 55 83 56
REMARK SMILES IDX 48 57 49 58 63 60 84 61 51 62 35 63 36 64 44 65 37 66 38 67
REMARK SMILES IDX 42 68 45 69 39 70 40 71 43 72 41 73 67 74 68 75 76 76 69 77
REMARK SMILES IDX 70 78 74 79 77 80 71 81 72 82 75 83 73 84 52 85 53 86 61 87
REMARK SMILES IDX 54 88 55 89 59 90 62 91 56 92 57 93 60 94 58 95
REMARK H PARENT 18 6 10 15 23 29 82 48 50 59
REMARK Flexibility Score: inf
ROOT
ATOM      1  C   UNL A   1      36.899  21.119  24.649  1.00  0.00     0.023 C 
ENDROOT
BRANCH   1   2
ATOM      2  C   UNL A   1      35.785  21.351  25.663  1.00  0.00     0.116 C 
BRANCH   2   3
ATOM      3  N   UNL A   1      34.746  20.353  25.663  1.00  0.00    -0.352 N 
ATOM      4  C   UNL A   1      33.472  20.396  25.148  1.00  0.00     0.254 C 
ATOM      5  O   UNL A   1      32.781  19.398  25.365  1.00  0.00    -0.269 OA
ATOM      6  H   UNL A   1      34.986  19.505  26.103  1.00  0.00     0.163 HD
BRANCH   4   7
ATOM      7  C   UNL A   1      32.912  21.552  24.418  1.00  0.00     0.074 A 
ATOM      8  C   UNL A   1      31.808  22.364  24.646  1.00  0.00     0.108 A 
ATOM      9  S   UNL A   1      31.398  23.313  23.279  1.00  0.00    -0.126 S 
ATOM     10  C   UNL A   1      32.902  23.012  22.547  1.00  0.00     0.068 A 
ATOM     11  C   UNL A   1      33.603  22.054  23.241  1.00  0.00     0.028 A 
BRANCH   8  12
ATOM     12  N   UNL A   1      30.874  22.547  25.637  1.00  0.00    -0.317 N 
ATOM     13  C   UNL A   1      30.774  23.484  26.620  1.00  0.00     0.228 C 
ATOM     14  O   UNL A   1      29.969  23.244  27.531  1.00  0.00    -0.274 OA
ATOM     15  H   UNL A   1      30.148  21.881  25.635  1.00  0.00     0.170 HD
BRANCH  13  16
ATOM     16  C   UNL A   1      31.463  24.848  26.593  1.00  0.00     0.082 C 
ATOM     17  C   UNL A   1      31.991  28.301  23.064  1.00  0.00     0.114 C 
ATOM     18  C   UNL A   1      32.821  27.259  23.769  1.00  0.00     0.219 C 
ATOM     19  O   UNL A   1      33.738  26.691  23.176  1.00  0.00    -0.275 OA
ATOM     20  N   UNL A   1      32.546  27.042  25.112  1.00  0.00    -0.343 N 
ATOM     21  C   UNL A   1      33.476  26.262  25.916  1.00  0.00     0.120 C 
ATOM     22  C   UNL A   1      31.236  27.217  25.720  1.00  0.00     0.120 C 
ATOM     23  C   UNL A   1      32.921  24.864  26.141  1.00  0.00     0.035 C 
ATOM     24  C   UNL A   1      30.569  25.848  25.837  1.00  0.00     0.035 C 
ENDBRANCH  13  16
ENDBRANCH   8  12
ENDBRANCH   4   7
ENDBRANCH   2   3
ENDBRANCH   1   2
BRANCH   1  25
ATOM     25  C   UNL A   1      37.852  19.965  24.980  1.00  0.00     0.023 C 
BRANCH  25  26
ATOM     26  C   UNL A   1      39.137  20.333  25.729  1.00  0.00     0.116 C 
BRANCH  26  27
ATOM     27  N   UNL A   1      40.090  19.238  25.837  1.00  0.00    -0.352 N 
ATOM     28  C   UNL A   1      41.449  19.249  26.066  1.00  0.00     0.251 C 
ATOM     29  H   UNL A   1      39.700  18.341  25.727  1.00  0.00     0.163 HD
ATOM     30  O   UNL A   1      42.104  18.220  25.965  1.00  0.00    -0.269 OA
BRANCH  28  31
ATOM     31  C   UNL A   1      42.138  20.515  26.409  1.00  0.00     0.039 A 
ATOM     32  C   UNL A   1      42.682  21.289  25.380  1.00  0.00     0.014 A 
ATOM     33  C   UNL A   1      42.259  20.934  27.735  1.00  0.00     0.014 A 
ATOM     34  C   UNL A   1      43.247  22.533  25.673  1.00  0.00     0.010 A 
ATOM     35  C   UNL A   1      42.749  22.208  28.017  1.00  0.00     0.010 A 
ATOM     36  C   UNL A   1      43.230  23.031  26.988  1.00  0.00    -0.014 A 
BRANCH  36  37
ATOM     37  C   UNL A   1      43.654  24.426  27.288  1.00  0.00     0.031 A 
ATOM     38  C   UNL A   1      42.664  25.447  27.774  1.00  0.00     0.074 A 
ATOM     39  C   UNL A   1      44.927  24.794  27.038  1.00  0.00     0.049 A 
ATOM     40  N   UNL A   1      42.843  26.721  28.022  1.00  0.00    -0.248 NA
ATOM     41  C   UNL A   1      41.285  24.984  27.983  1.00  0.00     0.031 C 
ATOM     42  C   UNL A   1      45.970  23.917  26.504  1.00  0.00     0.029 A 
ATOM     43  N   UNL A   1      45.558  26.007  27.184  1.00  0.00    -0.354 N 
ATOM     44  C   UNL A   1      41.602  27.212  28.402  1.00  0.00     0.074 A 
ATOM     45  C   UNL A   1      40.666  26.112  28.302  1.00  0.00     0.031 C 
ATOM     46  C   UNL A   1      47.112  24.612  26.386  1.00  0.00     0.029 A 
ATOM     47  C   UNL A   1      46.875  25.993  26.792  1.00  0.00     0.049 A 
ATOM     48  H   UNL A   1      45.109  26.809  27.535  1.00  0.00     0.167 HD
ATOM     49  C   UNL A   1      41.275  28.462  28.814  1.00  0.00     0.037 A 
ATOM     50  C   UNL A   1      47.787  26.982  26.749  1.00  0.00     0.037 A 
ATOM     51  C   UNL A   1      42.213  29.549  28.927  1.00  0.00     0.049 A 
ATOM     52  C   UNL A   1      47.399  28.362  27.207  1.00  0.00     0.074 A 
ATOM     53  C   UNL A   1      41.996  30.827  29.415  1.00  0.00     0.029 A 
ATOM     54  N   UNL A   1      43.543  29.494  28.537  1.00  0.00    -0.354 N 
ATOM     55  N   UNL A   1      46.244  28.791  27.653  1.00  0.00    -0.248 NA
ATOM     56  C   UNL A   1      48.444  29.393  27.161  1.00  0.00     0.031 C 
ATOM     57  C   UNL A   1      43.176  31.564  29.257  1.00  0.00     0.029 A 
ATOM     58  C   UNL A   1      44.148  30.727  28.734  1.00  0.00     0.049 A 
ATOM     59  H   UNL A   1      43.992  28.696  28.173  1.00  0.00     0.167 HD
ATOM     60  C   UNL A   1      46.426  30.133  27.957  1.00  0.00     0.074 A 
ATOM     61  C   UNL A   1      47.810  30.442  27.668  1.00  0.00     0.031 C 
ATOM     62  C   UNL A   1      45.525  31.028  28.433  1.00  0.00     0.037 A 
BRANCH  49  63
ATOM     63  C   UNL A   1      39.839  28.726  29.167  1.00  0.00     0.064 A 
ATOM     64  C   UNL A   1      39.342  28.509  30.460  1.00  0.00     0.173 A 
ATOM     65  C   UNL A   1      38.955  29.243  28.206  1.00  0.00     0.173 A 
ATOM     66  F   UNL A   1      40.141  28.010  31.416  1.00  0.00    -0.203 F 
ATOM     67  C   UNL A   1      38.008  28.765  30.771  1.00  0.00     0.198 A 
ATOM     68  C   UNL A   1      37.632  29.532  28.529  1.00  0.00     0.198 A 
ATOM     69  F   UNL A   1      39.378  29.481  26.955  1.00  0.00    -0.203 F 
ATOM     70  F   UNL A   1      37.544  28.498  32.000  1.00  0.00    -0.200 F 
ATOM     71  C   UNL A   1      37.156  29.283  29.807  1.00  0.00     0.200 A 
ATOM     72  F   UNL A   1      36.815  30.047  27.600  1.00  0.00    -0.200 F 
ATOM     73  F   UNL A   1      35.876  29.536  30.108  1.00  0.00    -0.200 F 
ENDBRANCH  49  63
BRANCH  50  74
ATOM     74  C   UNL A   1      49.163  26.697  26.260  1.00  0.00     0.064 A 
ATOM     75  C   UNL A   1      50.136  26.157  27.112  1.00  0.00     0.173 A 
ATOM     76  C   UNL A   1      49.529  26.953  24.930  1.00  0.00     0.173 A 
ATOM     77  F   UNL A   1      49.840  25.915  28.397  1.00  0.00    -0.203 F 
ATOM     78  C   UNL A   1      51.427  25.900  26.656  1.00  0.00     0.198 A 
ATOM     79  C   UNL A   1      50.811  26.665  24.468  1.00  0.00     0.198 A 
ATOM     80  F   UNL A   1      48.634  27.465  24.073  1.00  0.00    -0.203 F 
ATOM     81  F   UNL A   1      52.351  25.425  27.504  1.00  0.00    -0.200 F 
ATOM     82  C   UNL A   1      51.762  26.145  25.333  1.00  0.00     0.200 A 
ATOM     83  F   UNL A   1      51.125  26.888  23.184  1.00  0.00    -0.200 F 
ATOM     84  F   UNL A   1      53.001  25.889  24.894  1.00  0.00    -0.200 F 
ENDBRANCH  50  74
BRANCH  62  85
ATOM     85  C   UNL A   1      46.012  32.427  28.687  1.00  0.00     0.064 A 
ATOM     86  C   UNL A   1      46.569  32.801  29.920  1.00  0.00     0.173 A 
ATOM     87  C   UNL A   1      45.957  33.395  27.673  1.00  0.00     0.173 A 
ATOM     88  F   UNL A   1      46.631  31.917  30.928  1.00  0.00    -0.203 F 
ATOM     89  C   UNL A   1      47.024  34.099  30.135  1.00  0.00     0.198 A 
ATOM     90  C   UNL A   1      46.444  34.682  27.881  1.00  0.00     0.198 A 
ATOM     91  F   UNL A   1      45.441  33.089  26.472  1.00  0.00    -0.203 F 
ATOM     92  F   UNL A   1      47.504  34.447  31.339  1.00  0.00    -0.200 F 
ATOM     93  C   UNL A   1      46.970  35.036  29.114  1.00  0.00     0.200 A 
ATOM     94  F   UNL A   1      46.406  35.581  26.888  1.00  0.00    -0.200 F 
ATOM     95  F   UNL A   1      47.417  36.282  29.323  1.00  0.00    -0.200 F 
ENDBRANCH  62  85
ENDBRANCH  36  37
ENDBRANCH  28  31
ENDBRANCH  26  27
ENDBRANCH  25  26
ENDBRANCH   1  25
TORSDOF 13
ENDMDL
