MODEL 1
REMARK VINA RESULT:     -13.0      0.000      0.000
REMARK SMILES CCCc1cc2c(cc1Cl)C=C(C(=O)NCCCCNC(=O)c1ccc(-c3c4nc(c(-c5c(F)c(F)c(F)c(F)c5F)c5ccc([nH]5)c(-c5c(F)c(F)c(F)c(F)c5F)c5nc(c(-c6c(F)c(F)c(F)c(F)c6F)c6ccc3[nH]6)C=C5)C=C4)cc1)[C@@H](C(F)(F)F)O2
REMARK SMILES IDX 17 1 16 2 15 3 13 4 14 5 12 7 4 8 5 9 9 10 6 11 8 12 10 13
REMARK SMILES IDX 7 14 91 15 11 16 86 17 3 18 2 19 1 20 87 21 88 22 89 23
REMARK SMILES IDX 90 24 18 25 19 26 20 27 21 28 22 30 23 31 24 32 85 33 25 34
REMARK SMILES IDX 84 35 26 36 27 37 28 38 78 39 29 40 83 41 77 42 79 43 30 44
REMARK SMILES IDX 82 45 76 46 75 47 31 49 63 50 43 51 62 52 44 53 47 54 61 55
REMARK SMILES IDX 80 56 45 57 46 58 60 60 81 61 48 62 32 63 33 64 41 65 34 66
REMARK SMILES IDX 35 67 39 68 42 69 36 70 37 71 40 72 38 73 64 74 65 75 73 76
REMARK SMILES IDX 66 77 67 78 71 79 74 80 68 81 69 82 72 83 70 84 49 85 50 86
REMARK SMILES IDX 58 87 51 88 52 89 56 90 59 91 53 92 54 93 57 94 55 95
REMARK H PARENT 15 6 20 29 79 48 47 59
REMARK Flexibility Score: inf
ROOT
ATOM      1  C   UNL A   1      31.853  28.007  26.668  1.00  0.00     0.023 C 
ENDROOT
BRANCH   1   2
ATOM      2  C   UNL A   1      33.268  27.484  26.450  1.00  0.00     0.116 C 
BRANCH   2   3
ATOM      3  N   UNL A   1      33.632  27.420  25.046  1.00  0.00    -0.352 N 
ATOM      4  C   UNL A   1      33.628  26.474  24.077  1.00  0.00     0.251 C 
ATOM      5  O   UNL A   1      34.009  26.852  22.965  1.00  0.00    -0.270 OA
ATOM      6  H   UNL A   1      33.968  28.284  24.715  1.00  0.00     0.163 HD
BRANCH   4   7
ATOM      7  C   UNL A   1      33.218  25.049  24.269  1.00  0.00     0.067 C 
ATOM      8  C   UNL A   1      33.393  20.032  24.974  1.00  0.00    -0.026 A 
ATOM      9  C   UNL A   1      32.367  20.992  24.923  1.00  0.00     0.052 A 
ATOM     10  C   UNL A   1      34.709  20.464  24.753  1.00  0.00     0.045 A 
ATOM     11  C   UNL A   1      32.647  22.338  24.685  1.00  0.00     0.128 A 
ATOM     12  C   UNL A   1      34.984  21.812  24.484  1.00  0.00     0.032 A 
ATOM     13  Cl  UNL A   1      36.061  19.392  24.850  1.00  0.00    -0.084 Cl
ATOM     14  C   UNL A   1      33.953  22.756  24.461  1.00  0.00     0.019 A 
ATOM     15  O   UNL A   1      31.582  23.183  24.724  1.00  0.00    -0.475 OA
ATOM     16  C   UNL A   1      34.234  24.168  24.256  1.00  0.00     0.025 C 
ATOM     17  C   UNL A   1      31.793  24.592  24.435  1.00  0.00     0.314 C 
BRANCH   8  18
ATOM     18  C   UNL A   1      33.015  18.601  25.288  1.00  0.00     0.037 C 
BRANCH  18  19
ATOM     19  C   UNL A   1      32.550  17.788  24.076  1.00  0.00     0.001 C 
ATOM     20  C   UNL A   1      33.689  17.156  23.291  1.00  0.00     0.004 C 
ENDBRANCH  18  19
ENDBRANCH   8  18
BRANCH  17  21
ATOM     21  C   UNL A   1      30.888  24.948  23.241  1.00  0.00     0.429 C 
ATOM     22  F   UNL A   1      31.618  24.979  22.095  1.00  0.00    -0.167 F 
ATOM     23  F   UNL A   1      29.900  24.049  23.033  1.00  0.00    -0.167 F 
ATOM     24  F   UNL A   1      30.303  26.158  23.382  1.00  0.00    -0.167 F 
ENDBRANCH  17  21
ENDBRANCH   4   7
ENDBRANCH   2   3
ENDBRANCH   1   2
BRANCH   1  25
ATOM     25  C   UNL A   1      31.776  29.436  27.203  1.00  0.00     0.023 C 
BRANCH  25  26
ATOM     26  C   UNL A   1      32.664  30.456  26.498  1.00  0.00     0.116 C 
BRANCH  26  27
ATOM     27  N   UNL A   1      32.488  31.830  26.954  1.00  0.00    -0.352 N 
ATOM     28  C   UNL A   1      33.387  32.621  27.636  1.00  0.00     0.251 C 
ATOM     29  H   UNL A   1      31.618  32.244  26.750  1.00  0.00     0.163 HD
ATOM     30  O   UNL A   1      33.080  33.748  28.007  1.00  0.00    -0.269 OA
BRANCH  28  31
ATOM     31  C   UNL A   1      34.712  32.059  27.968  1.00  0.00     0.039 A 
ATOM     32  C   UNL A   1      34.833  30.715  28.318  1.00  0.00     0.014 A 
ATOM     33  C   UNL A   1      35.814  32.915  28.035  1.00  0.00     0.014 A 
ATOM     34  C   UNL A   1      36.005  30.274  28.919  1.00  0.00     0.010 A 
ATOM     35  C   UNL A   1      37.019  32.446  28.562  1.00  0.00     0.010 A 
ATOM     36  C   UNL A   1      37.102  31.140  29.069  1.00  0.00    -0.014 A 
BRANCH  36  37
ATOM     37  C   UNL A   1      38.304  30.656  29.796  1.00  0.00     0.031 A 
ATOM     38  C   UNL A   1      38.534  31.030  31.236  1.00  0.00     0.074 A 
ATOM     39  C   UNL A   1      39.138  29.798  29.180  1.00  0.00     0.049 A 
ATOM     40  N   UNL A   1      39.485  30.637  32.047  1.00  0.00    -0.248 NA
ATOM     41  C   UNL A   1      37.578  31.966  31.850  1.00  0.00     0.031 C 
ATOM     42  C   UNL A   1      39.007  29.354  27.791  1.00  0.00     0.029 A 
ATOM     43  N   UNL A   1      40.230  29.113  29.647  1.00  0.00    -0.354 N 
ATOM     44  C   UNL A   1      39.254  31.289  33.252  1.00  0.00     0.074 A 
ATOM     45  C   UNL A   1      38.088  32.123  33.064  1.00  0.00     0.031 C 
ATOM     46  C   UNL A   1      39.934  28.418  27.541  1.00  0.00     0.029 A 
ATOM     47  C   UNL A   1      40.761  28.239  28.731  1.00  0.00     0.049 A 
ATOM     48  H   UNL A   1      40.598  29.237  30.552  1.00  0.00     0.167 HD
ATOM     49  C   UNL A   1      39.944  31.187  34.412  1.00  0.00     0.037 A 
ATOM     50  C   UNL A   1      41.797  27.387  28.835  1.00  0.00     0.037 A 
ATOM     51  C   UNL A   1      41.081  30.327  34.610  1.00  0.00     0.049 A 
ATOM     52  C   UNL A   1      42.562  27.316  30.125  1.00  0.00     0.074 A 
ATOM     53  C   UNL A   1      41.825  30.132  35.761  1.00  0.00     0.029 A 
ATOM     54  N   UNL A   1      41.633  29.513  33.632  1.00  0.00    -0.354 N 
ATOM     55  N   UNL A   1      42.328  27.936  31.256  1.00  0.00    -0.248 NA
ATOM     56  C   UNL A   1      43.743  26.443  30.149  1.00  0.00     0.031 C 
ATOM     57  C   UNL A   1      42.851  29.228  35.469  1.00  0.00     0.029 A 
ATOM     58  C   UNL A   1      42.722  28.831  34.148  1.00  0.00     0.049 A 
ATOM     59  H   UNL A   1      41.300  29.432  32.709  1.00  0.00     0.167 HD
ATOM     60  C   UNL A   1      43.328  27.527  32.126  1.00  0.00     0.074 A 
ATOM     61  C   UNL A   1      44.158  26.589  31.400  1.00  0.00     0.031 C 
ATOM     62  C   UNL A   1      43.540  27.904  33.409  1.00  0.00     0.037 A 
BRANCH  49  63
ATOM     63  C   UNL A   1      39.495  32.024  35.574  1.00  0.00     0.064 A 
ATOM     64  C   UNL A   1      39.938  33.343  35.743  1.00  0.00     0.173 A 
ATOM     65  C   UNL A   1      38.549  31.526  36.484  1.00  0.00     0.173 A 
ATOM     66  F   UNL A   1      40.849  33.860  34.906  1.00  0.00    -0.203 F 
ATOM     67  C   UNL A   1      39.459  34.131  36.786  1.00  0.00     0.198 A 
ATOM     68  C   UNL A   1      38.056  32.324  37.513  1.00  0.00     0.198 A 
ATOM     69  F   UNL A   1      38.088  30.273  36.362  1.00  0.00    -0.203 F 
ATOM     70  F   UNL A   1      39.916  35.381  36.943  1.00  0.00    -0.200 F 
ATOM     71  C   UNL A   1      38.512  33.625  37.664  1.00  0.00     0.200 A 
ATOM     72  F   UNL A   1      37.133  31.837  38.353  1.00  0.00    -0.200 F 
ATOM     73  F   UNL A   1      38.041  34.390  38.659  1.00  0.00    -0.200 F 
ENDBRANCH  49  63
BRANCH  50  74
ATOM     74  C   UNL A   1      42.153  26.528  27.679  1.00  0.00     0.064 A 
ATOM     75  C   UNL A   1      43.162  26.908  26.785  1.00  0.00     0.173 A 
ATOM     76  C   UNL A   1      41.526  25.290  27.472  1.00  0.00     0.173 A 
ATOM     77  F   UNL A   1      43.777  28.091  26.934  1.00  0.00    -0.203 F 
ATOM     78  C   UNL A   1      43.533  26.082  25.727  1.00  0.00     0.198 A 
ATOM     79  C   UNL A   1      41.915  24.453  26.429  1.00  0.00     0.198 A 
ATOM     80  F   UNL A   1      40.557  24.881  28.303  1.00  0.00    -0.203 F 
ATOM     81  F   UNL A   1      44.487  26.478  24.873  1.00  0.00    -0.200 F 
ATOM     82  C   UNL A   1      42.916  24.851  25.555  1.00  0.00     0.200 A 
ATOM     83  F   UNL A   1      41.328  23.259  26.277  1.00  0.00    -0.200 F 
ATOM     84  F   UNL A   1      43.286  24.048  24.548  1.00  0.00    -0.200 F 
ENDBRANCH  50  74
BRANCH  62  85
ATOM     85  C   UNL A   1      44.719  27.310  34.118  1.00  0.00     0.064 A 
ATOM     86  C   UNL A   1      44.625  26.071  34.767  1.00  0.00     0.173 A 
ATOM     87  C   UNL A   1      45.971  27.941  34.076  1.00  0.00     0.173 A 
ATOM     88  F   UNL A   1      43.444  25.438  34.843  1.00  0.00    -0.203 F 
ATOM     89  C   UNL A   1      45.742  25.487  35.355  1.00  0.00     0.198 A 
ATOM     90  C   UNL A   1      47.091  27.343  34.646  1.00  0.00     0.198 A 
ATOM     91  F   UNL A   1      46.110  29.124  33.459  1.00  0.00    -0.203 F 
ATOM     92  F   UNL A   1      45.626  24.312  35.989  1.00  0.00    -0.200 F 
ATOM     93  C   UNL A   1      46.975  26.119  35.286  1.00  0.00     0.200 A 
ATOM     94  F   UNL A   1      48.284  27.948  34.568  1.00  0.00    -0.200 F 
ATOM     95  F   UNL A   1      48.054  25.545  35.836  1.00  0.00    -0.200 F 
ENDBRANCH  62  85
ENDBRANCH  36  37
ENDBRANCH  28  31
ENDBRANCH  26  27
ENDBRANCH  25  26
ENDBRANCH   1  25
TORSDOF 14
ENDMDL
MODEL 2
REMARK VINA RESULT:     -12.9      1.640      2.558
REMARK SMILES CCCc1cc2c(cc1Cl)C=C(C(=O)NCCCCNC(=O)c1ccc(-c3c4nc(c(-c5c(F)c(F)c(F)c(F)c5F)c5ccc([nH]5)c(-c5c(F)c(F)c(F)c(F)c5F)c5nc(c(-c6c(F)c(F)c(F)c(F)c6F)c6ccc3[nH]6)C=C5)C=C4)cc1)[C@@H](C(F)(F)F)O2
REMARK SMILES IDX 17 1 16 2 15 3 13 4 14 5 12 7 4 8 5 9 9 10 6 11 8 12 10 13
REMARK SMILES IDX 7 14 91 15 11 16 86 17 3 18 2 19 1 20 87 21 88 22 89 23
REMARK SMILES IDX 90 24 18 25 19 26 20 27 21 28 22 30 23 31 24 32 85 33 25 34
REMARK SMILES IDX 84 35 26 36 27 37 28 38 78 39 29 40 83 41 77 42 79 43 30 44
REMARK SMILES IDX 82 45 76 46 75 47 31 49 63 50 43 51 62 52 44 53 47 54 61 55
REMARK SMILES IDX 80 56 45 57 46 58 60 60 81 61 48 62 32 63 33 64 41 65 34 66
REMARK SMILES IDX 35 67 39 68 42 69 36 70 37 71 40 72 38 73 64 74 65 75 73 76
REMARK SMILES IDX 66 77 67 78 71 79 74 80 68 81 69 82 72 83 70 84 49 85 50 86
REMARK SMILES IDX 58 87 51 88 52 89 56 90 59 91 53 92 54 93 57 94 55 95
REMARK H PARENT 15 6 20 29 79 48 47 59
REMARK Flexibility Score: inf
ROOT
ATOM      1  C   UNL A   1      32.345  30.034  27.069  1.00  0.00     0.023 C 
ENDROOT
BRANCH   1   2
ATOM      2  C   UNL A   1      33.677  29.625  26.451  1.00  0.00     0.116 C 
BRANCH   2   3
ATOM      3  N   UNL A   1      33.610  29.505  25.006  1.00  0.00    -0.352 N 
ATOM      4  C   UNL A   1      33.327  28.522  24.118  1.00  0.00     0.251 C 
ATOM      5  O   UNL A   1      33.360  28.855  22.930  1.00  0.00    -0.270 OA
ATOM      6  H   UNL A   1      33.827  30.354  24.557  1.00  0.00     0.163 HD
BRANCH   4   7
ATOM      7  C   UNL A   1      33.003  27.108  24.478  1.00  0.00     0.067 C 
ATOM      8  C   UNL A   1      33.425  22.128  25.329  1.00  0.00    -0.026 A 
ATOM      9  C   UNL A   1      32.412  23.085  25.518  1.00  0.00     0.052 A 
ATOM     10  C   UNL A   1      34.626  22.550  24.738  1.00  0.00     0.045 A 
ATOM     11  C   UNL A   1      32.600  24.419  25.153  1.00  0.00     0.128 A 
ATOM     12  C   UNL A   1      34.800  23.884  24.345  1.00  0.00     0.032 A 
ATOM     13  Cl  UNL A   1      35.965  21.482  24.509  1.00  0.00    -0.084 Cl
ATOM     14  C   UNL A   1      33.790  24.826  24.563  1.00  0.00     0.019 A 
ATOM     15  O   UNL A   1      31.576  25.264  25.444  1.00  0.00    -0.475 OA
ATOM     16  C   UNL A   1      33.987  26.227  24.227  1.00  0.00     0.025 C 
ATOM     17  C   UNL A   1      31.683  26.659  25.047  1.00  0.00     0.314 C 
BRANCH   8  18
ATOM     18  C   UNL A   1      33.165  20.713  25.797  1.00  0.00     0.037 C 
BRANCH  18  19
ATOM     19  C   UNL A   1      32.567  19.793  24.729  1.00  0.00     0.001 C 
ATOM     20  C   UNL A   1      33.512  18.692  24.273  1.00  0.00     0.004 C 
ENDBRANCH  18  19
ENDBRANCH   8  18
BRANCH  17  21
ATOM     21  C   UNL A   1      30.482  26.960  24.131  1.00  0.00     0.429 C 
ATOM     22  F   UNL A   1      29.382  26.294  24.568  1.00  0.00    -0.167 F 
ATOM     23  F   UNL A   1      30.143  28.269  24.106  1.00  0.00    -0.167 F 
ATOM     24  F   UNL A   1      30.703  26.583  22.852  1.00  0.00    -0.167 F 
ENDBRANCH  17  21
ENDBRANCH   4   7
ENDBRANCH   2   3
ENDBRANCH   1   2
BRANCH   1  25
ATOM     25  C   UNL A   1      31.983  31.508  26.888  1.00  0.00     0.023 C 
BRANCH  25  26
ATOM     26  C   UNL A   1      33.026  32.511  27.371  1.00  0.00     0.116 C 
BRANCH  26  27
ATOM     27  N   UNL A   1      32.505  33.847  27.635  1.00  0.00    -0.352 N 
ATOM     28  C   UNL A   1      32.986  34.786  28.521  1.00  0.00     0.251 C 
ATOM     29  H   UNL A   1      31.711  34.110  27.116  1.00  0.00     0.163 HD
ATOM     30  O   UNL A   1      32.410  35.856  28.680  1.00  0.00    -0.269 OA
BRANCH  28  31
ATOM     31  C   UNL A   1      34.178  34.453  29.326  1.00  0.00     0.039 A 
ATOM     32  C   UNL A   1      35.453  34.745  28.842  1.00  0.00     0.014 A 
ATOM     33  C   UNL A   1      34.015  33.745  30.520  1.00  0.00     0.014 A 
ATOM     34  C   UNL A   1      36.558  34.161  29.446  1.00  0.00     0.010 A 
ATOM     35  C   UNL A   1      35.137  33.231  31.174  1.00  0.00     0.010 A 
ATOM     36  C   UNL A   1      36.411  33.379  30.605  1.00  0.00    -0.014 A 
BRANCH  36  37
ATOM     37  C   UNL A   1      37.606  32.700  31.169  1.00  0.00     0.031 A 
ATOM     38  C   UNL A   1      38.078  33.009  32.564  1.00  0.00     0.074 A 
ATOM     39  C   UNL A   1      38.206  31.732  30.452  1.00  0.00     0.049 A 
ATOM     40  N   UNL A   1      39.053  32.458  33.244  1.00  0.00    -0.248 NA
ATOM     41  C   UNL A   1      37.371  34.073  33.295  1.00  0.00     0.031 C 
ATOM     42  C   UNL A   1      37.826  31.338  29.094  1.00  0.00     0.029 A 
ATOM     43  N   UNL A   1      39.228  30.877  30.774  1.00  0.00    -0.354 N 
ATOM     44  C   UNL A   1      39.087  33.118  34.466  1.00  0.00     0.074 A 
ATOM     45  C   UNL A   1      38.053  34.128  34.430  1.00  0.00     0.031 C 
ATOM     46  C   UNL A   1      38.553  30.272  28.728  1.00  0.00     0.029 A 
ATOM     47  C   UNL A   1      39.489  29.945  29.800  1.00  0.00     0.049 A 
ATOM     48  H   UNL A   1      39.726  30.926  31.622  1.00  0.00     0.167 HD
ATOM     49  C   UNL A   1      39.898  32.889  35.527  1.00  0.00     0.037 A 
ATOM     50  C   UNL A   1      40.383  28.940  29.770  1.00  0.00     0.037 A 
ATOM     51  C   UNL A   1      40.900  31.858  35.576  1.00  0.00     0.049 A 
ATOM     52  C   UNL A   1      41.288  28.728  30.949  1.00  0.00     0.074 A 
ATOM     53  C   UNL A   1      41.749  31.530  36.620  1.00  0.00     0.029 A 
ATOM     54  N   UNL A   1      41.185  30.984  34.538  1.00  0.00    -0.354 N 
ATOM     55  N   UNL A   1      41.305  29.357  32.097  1.00  0.00    -0.248 NA
ATOM     56  C   UNL A   1      42.309  27.679  30.820  1.00  0.00     0.031 C 
ATOM     57  C   UNL A   1      42.572  30.481  36.200  1.00  0.00     0.029 A 
ATOM     58  C   UNL A   1      42.211  30.131  34.909  1.00  0.00     0.049 A 
ATOM     59  H   UNL A   1      40.726  30.972  33.667  1.00  0.00     0.167 HD
ATOM     60  C   UNL A   1      42.333  28.782  32.830  1.00  0.00     0.074 A 
ATOM     61  C   UNL A   1      42.902  27.737  32.005  1.00  0.00     0.031 C 
ATOM     62  C   UNL A   1      42.768  29.099  34.072  1.00  0.00     0.037 A 
BRANCH  49  63
ATOM     63  C   UNL A   1      39.743  33.767  36.733  1.00  0.00     0.064 A 
ATOM     64  C   UNL A   1      40.364  35.022  36.814  1.00  0.00     0.173 A 
ATOM     65  C   UNL A   1      38.899  33.382  37.787  1.00  0.00     0.173 A 
ATOM     66  F   UNL A   1      41.188  35.430  35.838  1.00  0.00    -0.203 F 
ATOM     67  C   UNL A   1      40.154  35.855  37.909  1.00  0.00     0.198 A 
ATOM     68  C   UNL A   1      38.674  34.228  38.871  1.00  0.00     0.198 A 
ATOM     69  F   UNL A   1      38.276  32.195  37.755  1.00  0.00    -0.203 F 
ATOM     70  F   UNL A   1      40.779  37.039  37.977  1.00  0.00    -0.200 F 
ATOM     71  C   UNL A   1      39.303  35.462  38.932  1.00  0.00     0.200 A 
ATOM     72  F   UNL A   1      37.843  33.851  39.852  1.00  0.00    -0.200 F 
ATOM     73  F   UNL A   1      39.091  36.272  39.978  1.00  0.00    -0.200 F 
ENDBRANCH  49  63
BRANCH  50  74
ATOM     74  C   UNL A   1      40.444  28.054  28.581  1.00  0.00     0.064 A 
ATOM     75  C   UNL A   1      41.207  28.408  27.460  1.00  0.00     0.173 A 
ATOM     76  C   UNL A   1      39.781  26.818  28.558  1.00  0.00     0.173 A 
ATOM     77  F   UNL A   1      41.844  29.588  27.430  1.00  0.00    -0.203 F 
ATOM     78  C   UNL A   1      41.307  27.558  26.362  1.00  0.00     0.198 A 
ATOM     79  C   UNL A   1      39.902  25.958  27.470  1.00  0.00     0.198 A 
ATOM     80  F   UNL A   1      39.042  26.434  29.608  1.00  0.00    -0.203 F 
ATOM     81  F   UNL A   1      42.026  27.928  25.294  1.00  0.00    -0.200 F 
ATOM     82  C   UNL A   1      40.662  26.329  26.371  1.00  0.00     0.200 A 
ATOM     83  F   UNL A   1      39.291  24.765  27.491  1.00  0.00    -0.200 F 
ATOM     84  F   UNL A   1      40.774  25.503  25.322  1.00  0.00    -0.200 F 
ENDBRANCH  50  74
BRANCH  62  85
ATOM     85  C   UNL A   1      43.920  28.315  34.622  1.00  0.00     0.064 A 
ATOM     86  C   UNL A   1      45.237  28.782  34.503  1.00  0.00     0.173 A 
ATOM     87  C   UNL A   1      43.700  27.133  35.345  1.00  0.00     0.173 A 
ATOM     88  F   UNL A   1      45.495  29.901  33.809  1.00  0.00    -0.203 F 
ATOM     89  C   UNL A   1      46.294  28.089  35.084  1.00  0.00     0.198 A 
ATOM     90  C   UNL A   1      44.758  26.456  35.944  1.00  0.00     0.198 A 
ATOM     91  F   UNL A   1      42.457  26.653  35.491  1.00  0.00    -0.203 F 
ATOM     92  F   UNL A   1      47.548  28.541  34.941  1.00  0.00    -0.200 F 
ATOM     93  C   UNL A   1      46.053  26.933  35.811  1.00  0.00     0.200 A 
ATOM     94  F   UNL A   1      44.523  25.345  36.656  1.00  0.00    -0.200 F 
ATOM     95  F   UNL A   1      47.071  26.278  36.386  1.00  0.00    -0.200 F 
ENDBRANCH  62  85
ENDBRANCH  36  37
ENDBRANCH  28  31
ENDBRANCH  26  27
ENDBRANCH  25  26
ENDBRANCH   1  25
TORSDOF 14
ENDMDL
MODEL 3
REMARK VINA RESULT:     -12.9      1.747      3.140
REMARK SMILES CCCc1cc2c(cc1Cl)C=C(C(=O)NCCCCNC(=O)c1ccc(-c3c4nc(c(-c5c(F)c(F)c(F)c(F)c5F)c5ccc([nH]5)c(-c5c(F)c(F)c(F)c(F)c5F)c5nc(c(-c6c(F)c(F)c(F)c(F)c6F)c6ccc3[nH]6)C=C5)C=C4)cc1)[C@@H](C(F)(F)F)O2
REMARK SMILES IDX 17 1 16 2 15 3 13 4 14 5 12 7 4 8 5 9 9 10 6 11 8 12 10 13
REMARK SMILES IDX 7 14 91 15 11 16 86 17 3 18 2 19 1 20 87 21 88 22 89 23
REMARK SMILES IDX 90 24 18 25 19 26 20 27 21 28 22 30 23 31 24 32 85 33 25 34
REMARK SMILES IDX 84 35 26 36 27 37 28 38 78 39 29 40 83 41 77 42 79 43 30 44
REMARK SMILES IDX 82 45 76 46 75 47 31 49 63 50 43 51 62 52 44 53 47 54 61 55
REMARK SMILES IDX 80 56 45 57 46 58 60 60 81 61 48 62 32 63 33 64 41 65 34 66
REMARK SMILES IDX 35 67 39 68 42 69 36 70 37 71 40 72 38 73 64 74 65 75 73 76
REMARK SMILES IDX 66 77 67 78 71 79 74 80 68 81 69 82 72 83 70 84 49 85 50 86
REMARK SMILES IDX 58 87 51 88 52 89 56 90 59 91 53 92 54 93 57 94 55 95
REMARK H PARENT 15 6 20 29 79 48 47 59
REMARK Flexibility Score: inf
ROOT
ATOM      1  C   UNL A   1      32.265  30.076  27.048  1.00  0.00     0.023 C 
ENDROOT
BRANCH   1   2
ATOM      2  C   UNL A   1      33.496  29.617  26.275  1.00  0.00     0.116 C 
BRANCH   2   3
ATOM      3  N   UNL A   1      33.296  29.646  24.837  1.00  0.00    -0.352 N 
ATOM      4  C   UNL A   1      32.947  28.753  23.880  1.00  0.00     0.251 C 
ATOM      5  O   UNL A   1      32.864  29.208  22.735  1.00  0.00    -0.270 OA
ATOM      6  H   UNL A   1      33.458  30.542  24.463  1.00  0.00     0.163 HD
BRANCH   4   7
ATOM      7  C   UNL A   1      32.680  27.302  24.117  1.00  0.00     0.067 C 
ATOM      8  C   UNL A   1      33.335  22.310  24.716  1.00  0.00    -0.026 A 
ATOM      9  C   UNL A   1      32.246  23.191  24.845  1.00  0.00     0.052 A 
ATOM     10  C   UNL A   1      34.562  22.840  24.292  1.00  0.00     0.045 A 
ATOM     11  C   UNL A   1      32.384  24.555  24.582  1.00  0.00     0.128 A 
ATOM     12  C   UNL A   1      34.690  24.205  23.999  1.00  0.00     0.032 A 
ATOM     13  Cl  UNL A   1      35.986  21.871  24.154  1.00  0.00    -0.084 Cl
ATOM     14  C   UNL A   1      33.602  25.069  24.156  1.00  0.00     0.019 A 
ATOM     15  O   UNL A   1      31.281  25.317  24.804  1.00  0.00    -0.475 OA
ATOM     16  C   UNL A   1      33.742  26.499  23.928  1.00  0.00     0.025 C 
ATOM     17  C   UNL A   1      31.338  26.739  24.504  1.00  0.00     0.314 C 
BRANCH   8  18
ATOM     18  C   UNL A   1      33.119  20.855  25.067  1.00  0.00     0.037 C 
BRANCH  18  19
ATOM     19  C   UNL A   1      32.494  20.018  23.946  1.00  0.00     0.001 C 
ATOM     20  C   UNL A   1      32.612  18.518  24.166  1.00  0.00     0.004 C 
ENDBRANCH  18  19
ENDBRANCH   8  18
BRANCH  17  21
ATOM     21  C   UNL A   1      30.228  27.028  23.477  1.00  0.00     0.429 C 
ATOM     22  F   UNL A   1      29.217  26.132  23.618  1.00  0.00    -0.167 F 
ATOM     23  F   UNL A   1      29.669  28.251  23.623  1.00  0.00    -0.167 F 
ATOM     24  F   UNL A   1      30.671  26.943  22.203  1.00  0.00    -0.167 F 
ENDBRANCH  17  21
ENDBRANCH   4   7
ENDBRANCH   2   3
ENDBRANCH   1   2
BRANCH   1  25
ATOM     25  C   UNL A   1      31.926  31.558  26.888  1.00  0.00     0.023 C 
BRANCH  25  26
ATOM     26  C   UNL A   1      32.954  32.536  27.449  1.00  0.00     0.116 C 
BRANCH  26  27
ATOM     27  N   UNL A   1      32.451  33.890  27.655  1.00  0.00    -0.352 N 
ATOM     28  C   UNL A   1      32.952  34.863  28.492  1.00  0.00     0.251 C 
ATOM     29  H   UNL A   1      31.655  34.139  27.132  1.00  0.00     0.163 HD
ATOM     30  O   UNL A   1      32.390  35.947  28.605  1.00  0.00    -0.269 OA
BRANCH  28  31
ATOM     31  C   UNL A   1      34.148  34.553  29.300  1.00  0.00     0.039 A 
ATOM     32  C   UNL A   1      35.422  34.729  28.760  1.00  0.00     0.014 A 
ATOM     33  C   UNL A   1      33.983  33.980  30.563  1.00  0.00     0.014 A 
ATOM     34  C   UNL A   1      36.513  34.154  29.397  1.00  0.00     0.010 A 
ATOM     35  C   UNL A   1      35.096  33.478  31.242  1.00  0.00     0.010 A 
ATOM     36  C   UNL A   1      36.360  33.502  30.633  1.00  0.00    -0.014 A 
BRANCH  36  37
ATOM     37  C   UNL A   1      37.535  32.824  31.238  1.00  0.00     0.031 A 
ATOM     38  C   UNL A   1      37.979  33.157  32.637  1.00  0.00     0.074 A 
ATOM     39  C   UNL A   1      38.143  31.837  30.554  1.00  0.00     0.049 A 
ATOM     40  N   UNL A   1      38.933  32.611  33.350  1.00  0.00    -0.248 NA
ATOM     41  C   UNL A   1      37.266  34.242  33.330  1.00  0.00     0.031 C 
ATOM     42  C   UNL A   1      37.789  31.418  29.196  1.00  0.00     0.029 A 
ATOM     43  N   UNL A   1      39.148  30.978  30.916  1.00  0.00    -0.354 N 
ATOM     44  C   UNL A   1      38.946  33.296  34.559  1.00  0.00     0.074 A 
ATOM     45  C   UNL A   1      37.923  34.314  34.479  1.00  0.00     0.031 C 
ATOM     46  C   UNL A   1      38.514  30.338  28.869  1.00  0.00     0.029 A 
ATOM     47  C   UNL A   1      39.422  30.025  29.967  1.00  0.00     0.049 A 
ATOM     48  H   UNL A   1      39.628  31.040  31.775  1.00  0.00     0.167 HD
ATOM     49  C   UNL A   1      39.731  33.081  35.641  1.00  0.00     0.037 A 
ATOM     50  C   UNL A   1      40.307  29.011  29.978  1.00  0.00     0.037 A 
ATOM     51  C   UNL A   1      40.722  32.042  35.734  1.00  0.00     0.049 A 
ATOM     52  C   UNL A   1      41.183  28.814  31.181  1.00  0.00     0.074 A 
ATOM     53  C   UNL A   1      41.544  31.727  36.803  1.00  0.00     0.029 A 
ATOM     54  N   UNL A   1      41.021  31.144  34.720  1.00  0.00    -0.354 N 
ATOM     55  N   UNL A   1      41.181  29.467  32.317  1.00  0.00    -0.248 NA
ATOM     56  C   UNL A   1      42.197  27.754  31.097  1.00  0.00     0.031 C 
ATOM     57  C   UNL A   1      42.366  30.663  36.423  1.00  0.00     0.029 A 
ATOM     58  C   UNL A   1      42.030  30.290  35.132  1.00  0.00     0.049 A 
ATOM     59  H   UNL A   1      40.582  31.119  33.840  1.00  0.00     0.167 HD
ATOM     60  C   UNL A   1      42.186  28.898  33.084  1.00  0.00     0.074 A 
ATOM     61  C   UNL A   1      42.764  27.831  32.293  1.00  0.00     0.031 C 
ATOM     62  C   UNL A   1      42.596  29.236  34.329  1.00  0.00     0.037 A 
BRANCH  49  63
ATOM     63  C   UNL A   1      39.557  33.985  36.826  1.00  0.00     0.064 A 
ATOM     64  C   UNL A   1      38.767  33.614  37.924  1.00  0.00     0.173 A 
ATOM     65  C   UNL A   1      40.253  35.202  36.899  1.00  0.00     0.173 A 
ATOM     66  F   UNL A   1      38.074  32.466  37.898  1.00  0.00    -0.203 F 
ATOM     67  C   UNL A   1      38.672  34.432  39.046  1.00  0.00     0.198 A 
ATOM     68  C   UNL A   1      40.173  36.007  38.032  1.00  0.00     0.198 A 
ATOM     69  F   UNL A   1      41.028  35.599  35.879  1.00  0.00    -0.203 F 
ATOM     70  F   UNL A   1      37.889  34.070  40.072  1.00  0.00    -0.200 F 
ATOM     71  C   UNL A   1      39.381  35.623  39.104  1.00  0.00     0.200 A 
ATOM     72  F   UNL A   1      40.868  37.151  38.091  1.00  0.00    -0.200 F 
ATOM     73  F   UNL A   1      39.299  36.402  40.191  1.00  0.00    -0.200 F 
ENDBRANCH  49  63
BRANCH  50  74
ATOM     74  C   UNL A   1      40.386  28.100  28.809  1.00  0.00     0.064 A 
ATOM     75  C   UNL A   1      39.667  26.898  28.786  1.00  0.00     0.173 A 
ATOM     76  C   UNL A   1      41.141  28.434  27.675  1.00  0.00     0.173 A 
ATOM     77  F   UNL A   1      38.945  26.529  29.854  1.00  0.00    -0.203 F 
ATOM     78  C   UNL A   1      39.699  26.064  27.671  1.00  0.00     0.198 A 
ATOM     79  C   UNL A   1      41.152  27.612  26.551  1.00  0.00     0.198 A 
ATOM     80  F   UNL A   1      41.843  29.576  27.649  1.00  0.00    -0.203 F 
ATOM     81  F   UNL A   1      39.020  24.909  27.681  1.00  0.00    -0.200 F 
ATOM     82  C   UNL A   1      40.434  26.426  26.551  1.00  0.00     0.200 A 
ATOM     83  F   UNL A   1      41.850  27.974  25.466  1.00  0.00    -0.200 F 
ATOM     84  F   UNL A   1      40.450  25.632  25.471  1.00  0.00    -0.200 F 
ENDBRANCH  50  74
BRANCH  62  85
ATOM     85  C   UNL A   1      43.729  28.453  34.921  1.00  0.00     0.064 A 
ATOM     86  C   UNL A   1      45.051  28.910  34.830  1.00  0.00     0.173 A 
ATOM     87  C   UNL A   1      43.481  27.283  35.654  1.00  0.00     0.173 A 
ATOM     88  F   UNL A   1      45.335  30.017  34.127  1.00  0.00    -0.203 F 
ATOM     89  C   UNL A   1      46.088  28.219  35.449  1.00  0.00     0.198 A 
ATOM     90  C   UNL A   1      44.518  26.608  36.290  1.00  0.00     0.198 A 
ATOM     91  F   UNL A   1      42.231  26.813  35.774  1.00  0.00    -0.203 F 
ATOM     92  F   UNL A   1      47.348  28.661  35.332  1.00  0.00    -0.200 F 
ATOM     93  C   UNL A   1      45.820  27.075  36.186  1.00  0.00     0.200 A 
ATOM     94  F   UNL A   1      44.257  25.510  37.012  1.00  0.00    -0.200 F 
ATOM     95  F   UNL A   1      46.818  26.422  36.797  1.00  0.00    -0.200 F 
ENDBRANCH  62  85
ENDBRANCH  36  37
ENDBRANCH  28  31
ENDBRANCH  26  27
ENDBRANCH  25  26
ENDBRANCH   1  25
TORSDOF 14
ENDMDL
