MODEL 1
REMARK VINA RESULT:     -13.8      0.000      0.000
REMARK SMILES Cc1ccc(/C=C(\NC(=O)c2cccc(C)c2)C(=O)NCCCCNC(=O)c2ccc(-c3c4nc(c(-c5c(F)c(F)c(F)c(F)c5F)c5ccc([nH]5)c(-c5c(F)c(F)c(F)c(F)c5F)c5nc(c(-c6c(F)c(F)c(F)c(F)c6F)c6ccc3[nH]6)C=C5)C=C4)cc2)cc1
REMARK SMILES IDX 22 1 21 2 20 3 18 4 19 5 7 7 6 8 5 9 1 10 2 11 3 12 92 13
REMARK SMILES IDX 4 14 91 15 8 16 9 17 10 19 11 20 12 21 17 22 13 23 15 24
REMARK SMILES IDX 14 25 16 26 23 27 24 28 25 29 26 30 27 32 28 33 29 34 90 35
REMARK SMILES IDX 30 36 89 37 31 38 32 39 33 40 83 41 34 42 88 43 82 44 84 45
REMARK SMILES IDX 35 46 87 47 81 48 80 49 36 51 68 52 48 53 67 54 49 55 52 56
REMARK SMILES IDX 66 57 85 58 50 59 51 60 65 62 86 63 53 64 37 65 38 66 46 67
REMARK SMILES IDX 39 68 40 69 44 70 47 71 41 72 42 73 45 74 43 75 69 76 70 77
REMARK SMILES IDX 78 78 71 79 72 80 76 81 79 82 73 83 74 84 77 85 75 86 54 87
REMARK SMILES IDX 55 88 63 89 56 90 57 91 61 92 64 93 58 94 59 95 62 96 60 97
REMARK H PARENT 20 6 8 18 25 31 84 50 52 61
REMARK Flexibility Score: inf
ROOT
ATOM      1  C   UNL A   1      36.084  20.760  24.995  1.00  0.00     0.023 C 
ENDROOT
BRANCH   1   2
ATOM      2  C   UNL A   1      35.272  21.995  25.376  1.00  0.00     0.116 C 
BRANCH   2   3
ATOM      3  N   UNL A   1      33.824  21.863  25.328  1.00  0.00    -0.351 N 
ATOM      4  C   UNL A   1      32.845  22.783  25.047  1.00  0.00     0.267 C 
ATOM      5  O   UNL A   1      31.683  22.372  24.970  1.00  0.00    -0.268 OA
ATOM      6  H   UNL A   1      33.491  20.959  25.532  1.00  0.00     0.163 HD
BRANCH   4   7
ATOM      7  C   UNL A   1      33.141  24.270  24.914  1.00  0.00     0.107 C 
ATOM      8  C   UNL A   1      32.830  25.047  25.978  1.00  0.00     0.040 C 
BRANCH   8   9
ATOM      9  C   UNL A   1      32.996  26.517  26.183  1.00  0.00    -0.023 A 
ATOM     10  C   UNL A   1      33.372  30.714  27.239  1.00  0.00     0.044 C 
ATOM     11  C   UNL A   1      33.207  29.286  26.816  1.00  0.00    -0.051 A 
ATOM     12  C   UNL A   1      34.308  28.578  26.343  1.00  0.00     0.004 A 
ATOM     13  C   UNL A   1      31.982  28.624  26.913  1.00  0.00     0.004 A 
ATOM     14  C   UNL A   1      34.189  27.231  25.991  1.00  0.00     0.008 A 
ATOM     15  C   UNL A   1      31.880  27.257  26.605  1.00  0.00     0.008 A 
ENDBRANCH   8   9
BRANCH   7  16
ATOM     16  N   UNL A   1      33.721  24.825  23.803  1.00  0.00    -0.317 N 
ATOM     17  C   UNL A   1      33.278  25.767  22.910  1.00  0.00     0.255 C 
ATOM     18  H   UNL A   1      34.624  24.483  23.610  1.00  0.00     0.170 HD
ATOM     19  O   UNL A   1      34.027  26.131  22.005  1.00  0.00    -0.269 OA
BRANCH  17  20
ATOM     20  C   UNL A   1      31.906  26.301  22.973  1.00  0.00     0.040 A 
ATOM     21  C   UNL A   1      30.908  25.338  23.115  1.00  0.00     0.014 A 
ATOM     22  C   UNL A   1      31.595  27.664  23.030  1.00  0.00     0.017 A 
ATOM     23  C   UNL A   1      29.642  25.734  23.507  1.00  0.00     0.001 A 
ATOM     24  C   UNL A   1      30.289  28.061  23.346  1.00  0.00    -0.050 A 
ATOM     25  C   UNL A   1      29.322  27.084  23.602  1.00  0.00     0.003 A 
ATOM     26  C   UNL A   1      29.904  29.507  23.421  1.00  0.00     0.044 C 
ENDBRANCH  17  20
ENDBRANCH   7  16
ENDBRANCH   4   7
ENDBRANCH   2   3
ENDBRANCH   1   2
BRANCH   1  27
ATOM     27  C   UNL A   1      37.605  20.903  25.010  1.00  0.00     0.023 C 
BRANCH  27  28
ATOM     28  C   UNL A   1      38.194  22.168  25.636  1.00  0.00     0.116 C 
BRANCH  28  29
ATOM     29  N   UNL A   1      39.581  22.077  26.067  1.00  0.00    -0.352 N 
ATOM     30  C   UNL A   1      40.453  23.050  26.535  1.00  0.00     0.251 C 
ATOM     31  H   UNL A   1      39.966  21.172  26.018  1.00  0.00     0.163 HD
ATOM     32  O   UNL A   1      41.610  22.742  26.771  1.00  0.00    -0.269 OA
BRANCH  30  33
ATOM     33  C   UNL A   1      39.985  24.428  26.878  1.00  0.00     0.039 A 
ATOM     34  C   UNL A   1      40.494  25.503  26.128  1.00  0.00     0.014 A 
ATOM     35  C   UNL A   1      39.176  24.699  27.974  1.00  0.00     0.014 A 
ATOM     36  C   UNL A   1      40.402  26.809  26.618  1.00  0.00     0.010 A 
ATOM     37  C   UNL A   1      39.147  25.977  28.504  1.00  0.00     0.010 A 
ATOM     38  C   UNL A   1      39.834  27.017  27.870  1.00  0.00    -0.014 A 
BRANCH  38  39
ATOM     39  C   UNL A   1      40.083  28.200  28.693  1.00  0.00     0.031 A 
ATOM     40  C   UNL A   1      39.112  29.312  28.757  1.00  0.00     0.074 A 
ATOM     41  C   UNL A   1      41.117  28.162  29.567  1.00  0.00     0.049 A 
ATOM     42  N   UNL A   1      39.343  30.420  29.372  1.00  0.00    -0.248 NA
ATOM     43  C   UNL A   1      37.825  29.309  28.066  1.00  0.00     0.031 C 
ATOM     44  C   UNL A   1      41.275  28.932  30.800  1.00  0.00     0.029 A 
ATOM     45  N   UNL A   1      42.319  27.456  29.448  1.00  0.00    -0.354 N 
ATOM     46  C   UNL A   1      38.179  31.144  29.405  1.00  0.00     0.074 A 
ATOM     47  C   UNL A   1      37.307  30.475  28.473  1.00  0.00     0.031 C 
ATOM     48  C   UNL A   1      42.547  28.841  31.219  1.00  0.00     0.029 A 
ATOM     49  C   UNL A   1      43.294  28.156  30.182  1.00  0.00     0.049 A 
ATOM     50  H   UNL A   1      42.459  26.622  28.942  1.00  0.00     0.167 HD
ATOM     51  C   UNL A   1      38.072  32.155  30.311  1.00  0.00     0.037 A 
ATOM     52  C   UNL A   1      44.396  28.652  29.552  1.00  0.00     0.037 A 
ATOM     53  C   UNL A   1      39.385  32.482  30.878  1.00  0.00     0.049 A 
ATOM     54  C   UNL A   1      44.442  30.159  29.578  1.00  0.00     0.074 A 
ATOM     55  C   UNL A   1      39.977  32.267  32.110  1.00  0.00     0.029 A 
ATOM     56  N   UNL A   1      40.404  32.901  30.019  1.00  0.00    -0.354 N 
ATOM     57  N   UNL A   1      43.409  30.910  29.848  1.00  0.00    -0.248 NA
ATOM     58  C   UNL A   1      45.641  30.938  29.295  1.00  0.00     0.031 C 
ATOM     59  C   UNL A   1      41.378  32.464  31.956  1.00  0.00     0.029 A 
ATOM     60  C   UNL A   1      41.631  32.852  30.649  1.00  0.00     0.049 A 
ATOM     61  H   UNL A   1      40.264  33.193  29.089  1.00  0.00     0.167 HD
ATOM     62  C   UNL A   1      43.764  32.226  29.760  1.00  0.00     0.074 A 
ATOM     63  C   UNL A   1      45.176  32.193  29.427  1.00  0.00     0.031 C 
ATOM     64  C   UNL A   1      42.856  33.228  29.948  1.00  0.00     0.037 A 
BRANCH  51  65
ATOM     65  C   UNL A   1      36.775  32.752  30.826  1.00  0.00     0.064 A 
ATOM     66  C   UNL A   1      36.008  33.607  30.001  1.00  0.00     0.173 A 
ATOM     67  C   UNL A   1      36.290  32.637  32.149  1.00  0.00     0.173 A 
ATOM     68  F   UNL A   1      36.355  33.832  28.726  1.00  0.00    -0.203 F 
ATOM     69  C   UNL A   1      34.869  34.280  30.460  1.00  0.00     0.198 A 
ATOM     70  C   UNL A   1      35.122  33.268  32.591  1.00  0.00     0.198 A 
ATOM     71  F   UNL A   1      36.950  31.965  33.096  1.00  0.00    -0.203 F 
ATOM     72  F   UNL A   1      34.217  35.122  29.644  1.00  0.00    -0.200 F 
ATOM     73  C   UNL A   1      34.418  34.100  31.751  1.00  0.00     0.200 A 
ATOM     74  F   UNL A   1      34.708  33.083  33.853  1.00  0.00    -0.200 F 
ATOM     75  F   UNL A   1      33.326  34.740  32.192  1.00  0.00    -0.200 F 
ENDBRANCH  51  65
BRANCH  52  76
ATOM     76  C   UNL A   1      44.844  27.769  28.439  1.00  0.00     0.064 A 
ATOM     77  C   UNL A   1      45.519  26.582  28.791  1.00  0.00     0.173 A 
ATOM     78  C   UNL A   1      44.232  27.814  27.179  1.00  0.00     0.173 A 
ATOM     79  F   UNL A   1      46.112  26.485  29.993  1.00  0.00    -0.203 F 
ATOM     80  C   UNL A   1      45.464  25.447  27.984  1.00  0.00     0.198 A 
ATOM     81  C   UNL A   1      44.192  26.677  26.366  1.00  0.00     0.198 A 
ATOM     82  F   UNL A   1      43.549  28.902  26.796  1.00  0.00    -0.203 F 
ATOM     83  F   UNL A   1      45.996  24.295  28.412  1.00  0.00    -0.200 F 
ATOM     84  C   UNL A   1      44.771  25.488  26.787  1.00  0.00     0.200 A 
ATOM     85  F   UNL A   1      43.491  26.700  25.223  1.00  0.00    -0.200 F 
ATOM     86  F   UNL A   1      44.616  24.370  26.063  1.00  0.00    -0.200 F 
ENDBRANCH  52  76
BRANCH  64  87
ATOM     87  C   UNL A   1      43.079  34.669  29.561  1.00  0.00     0.064 A 
ATOM     88  C   UNL A   1      43.328  35.697  30.489  1.00  0.00     0.173 A 
ATOM     89  C   UNL A   1      43.201  35.038  28.201  1.00  0.00     0.173 A 
ATOM     90  F   UNL A   1      43.377  35.453  31.806  1.00  0.00    -0.203 F 
ATOM     91  C   UNL A   1      43.597  37.008  30.090  1.00  0.00     0.198 A 
ATOM     92  C   UNL A   1      43.531  36.333  27.806  1.00  0.00     0.198 A 
ATOM     93  F   UNL A   1      43.033  34.144  27.216  1.00  0.00    -0.203 F 
ATOM     94  F   UNL A   1      43.778  37.959  31.016  1.00  0.00    -0.200 F 
ATOM     95  C   UNL A   1      43.710  37.323  28.749  1.00  0.00     0.200 A 
ATOM     96  F   UNL A   1      43.697  36.611  26.505  1.00  0.00    -0.200 F 
ATOM     97  F   UNL A   1      44.014  38.572  28.371  1.00  0.00    -0.200 F 
ENDBRANCH  64  87
ENDBRANCH  38  39
ENDBRANCH  30  33
ENDBRANCH  28  29
ENDBRANCH  27  28
ENDBRANCH   1  27
TORSDOF 14
ENDMDL
MODEL 2
REMARK VINA RESULT:     -13.8      3.446      9.534
REMARK SMILES Cc1ccc(/C=C(\NC(=O)c2cccc(C)c2)C(=O)NCCCCNC(=O)c2ccc(-c3c4nc(c(-c5c(F)c(F)c(F)c(F)c5F)c5ccc([nH]5)c(-c5c(F)c(F)c(F)c(F)c5F)c5nc(c(-c6c(F)c(F)c(F)c(F)c6F)c6ccc3[nH]6)C=C5)C=C4)cc2)cc1
REMARK SMILES IDX 22 1 21 2 20 3 18 4 19 5 7 7 6 8 5 9 1 10 2 11 3 12 92 13
REMARK SMILES IDX 4 14 91 15 8 16 9 17 10 19 11 20 12 21 17 22 13 23 15 24
REMARK SMILES IDX 14 25 16 26 23 27 24 28 25 29 26 30 27 32 28 33 29 34 90 35
REMARK SMILES IDX 30 36 89 37 31 38 32 39 33 40 83 41 34 42 88 43 82 44 84 45
REMARK SMILES IDX 35 46 87 47 81 48 80 49 36 51 68 52 48 53 67 54 49 55 52 56
REMARK SMILES IDX 66 57 85 58 50 59 51 60 65 62 86 63 53 64 37 65 38 66 46 67
REMARK SMILES IDX 39 68 40 69 44 70 47 71 41 72 42 73 45 74 43 75 69 76 70 77
REMARK SMILES IDX 78 78 71 79 72 80 76 81 79 82 73 83 74 84 77 85 75 86 54 87
REMARK SMILES IDX 55 88 63 89 56 90 57 91 61 92 64 93 58 94 59 95 62 96 60 97
REMARK H PARENT 20 6 8 18 25 31 84 50 52 61
REMARK Flexibility Score: inf
ROOT
ATOM      1  C   UNL A   1      31.883  29.464  26.663  1.00  0.00     0.023 C 
ENDROOT
BRANCH   1   2
ATOM      2  C   UNL A   1      31.736  29.360  25.147  1.00  0.00     0.116 C 
BRANCH   2   3
ATOM      3  N   UNL A   1      32.932  29.611  24.359  1.00  0.00    -0.351 N 
ATOM      4  C   UNL A   1      33.781  28.748  23.711  1.00  0.00     0.267 C 
ATOM      5  O   UNL A   1      34.673  29.244  23.015  1.00  0.00    -0.268 OA
ATOM      6  H   UNL A   1      33.172  30.562  24.276  1.00  0.00     0.163 HD
BRANCH   4   7
ATOM      7  C   UNL A   1      33.701  27.240  23.893  1.00  0.00     0.107 C 
ATOM      8  C   UNL A   1      33.762  26.779  25.165  1.00  0.00     0.040 C 
BRANCH   8   9
ATOM      9  C   UNL A   1      33.703  25.383  25.691  1.00  0.00    -0.023 A 
ATOM     10  C   UNL A   1      33.860  21.455  27.541  1.00  0.00     0.044 C 
ATOM     11  C   UNL A   1      33.805  22.778  26.839  1.00  0.00    -0.051 A 
ATOM     12  C   UNL A   1      32.629  23.521  26.865  1.00  0.00     0.004 A 
ATOM     13  C   UNL A   1      34.916  23.312  26.183  1.00  0.00     0.004 A 
ATOM     14  C   UNL A   1      32.570  24.780  26.261  1.00  0.00     0.008 A 
ATOM     15  C   UNL A   1      34.865  24.598  25.620  1.00  0.00     0.008 A 
ENDBRANCH   8   9
BRANCH   7  16
ATOM     16  N   UNL A   1      33.542  26.364  22.851  1.00  0.00    -0.317 N 
ATOM     17  C   UNL A   1      32.431  25.942  22.168  1.00  0.00     0.255 C 
ATOM     18  H   UNL A   1      34.383  25.960  22.536  1.00  0.00     0.170 HD
ATOM     19  O   UNL A   1      32.568  25.164  21.225  1.00  0.00    -0.269 OA
BRANCH  17  20
ATOM     20  C   UNL A   1      31.074  26.346  22.580  1.00  0.00     0.040 A 
ATOM     21  C   UNL A   1      30.429  25.449  23.430  1.00  0.00     0.014 A 
ATOM     22  C   UNL A   1      30.499  27.585  22.280  1.00  0.00     0.017 A 
ATOM     23  C   UNL A   1      29.311  25.871  24.128  1.00  0.00     0.001 A 
ATOM     24  C   UNL A   1      29.319  27.973  22.929  1.00  0.00    -0.050 A 
ATOM     25  C   UNL A   1      28.742  27.113  23.868  1.00  0.00     0.003 A 
ATOM     26  C   UNL A   1      28.662  29.290  22.644  1.00  0.00     0.044 C 
ENDBRANCH  17  20
ENDBRANCH   7  16
ENDBRANCH   4   7
ENDBRANCH   2   3
ENDBRANCH   1   2
BRANCH   1  27
ATOM     27  C   UNL A   1      32.704  30.636  27.198  1.00  0.00     0.023 C 
BRANCH  27  28
ATOM     28  C   UNL A   1      34.207  30.423  27.388  1.00  0.00     0.116 C 
BRANCH  28  29
ATOM     29  N   UNL A   1      34.882  31.391  28.240  1.00  0.00    -0.352 N 
ATOM     30  C   UNL A   1      36.040  31.281  28.999  1.00  0.00     0.251 C 
ATOM     31  H   UNL A   1      34.444  32.271  28.286  1.00  0.00     0.163 HD
ATOM     32  O   UNL A   1      36.376  32.222  29.700  1.00  0.00    -0.269 OA
BRANCH  30  33
ATOM     33  C   UNL A   1      36.947  30.100  28.883  1.00  0.00     0.039 A 
ATOM     34  C   UNL A   1      37.041  29.231  29.984  1.00  0.00     0.014 A 
ATOM     35  C   UNL A   1      37.789  29.897  27.796  1.00  0.00     0.014 A 
ATOM     36  C   UNL A   1      38.119  28.347  30.094  1.00  0.00     0.010 A 
ATOM     37  C   UNL A   1      38.899  29.083  27.932  1.00  0.00     0.010 A 
ATOM     38  C   UNL A   1      39.110  28.372  29.118  1.00  0.00    -0.014 A 
BRANCH  38  39
ATOM     39  C   UNL A   1      40.471  27.880  29.323  1.00  0.00     0.031 A 
ATOM     40  C   UNL A   1      40.905  26.572  28.790  1.00  0.00     0.074 A 
ATOM     41  C   UNL A   1      41.391  28.740  29.821  1.00  0.00     0.049 A 
ATOM     42  N   UNL A   1      42.054  26.047  29.048  1.00  0.00    -0.248 NA
ATOM     43  C   UNL A   1      40.055  25.698  27.986  1.00  0.00     0.031 C 
ATOM     44  C   UNL A   1      42.843  28.694  29.653  1.00  0.00     0.029 A 
ATOM     45  N   UNL A   1      41.182  29.813  30.694  1.00  0.00    -0.354 N 
ATOM     46  C   UNL A   1      42.211  24.943  28.250  1.00  0.00     0.074 A 
ATOM     47  C   UNL A   1      40.898  24.695  27.709  1.00  0.00     0.031 C 
ATOM     48  C   UNL A   1      43.418  29.526  30.534  1.00  0.00     0.029 A 
ATOM     49  C   UNL A   1      42.373  30.007  31.417  1.00  0.00     0.049 A 
ATOM     50  H   UNL A   1      40.354  30.338  30.787  1.00  0.00     0.167 HD
ATOM     51  C   UNL A   1      43.468  24.454  28.065  1.00  0.00     0.037 A 
ATOM     52  C   UNL A   1      42.375  29.883  32.774  1.00  0.00     0.037 A 
ATOM     53  C   UNL A   1      44.397  25.034  29.040  1.00  0.00     0.049 A 
ATOM     54  C   UNL A   1      43.219  28.724  33.242  1.00  0.00     0.074 A 
ATOM     55  C   UNL A   1      45.414  25.969  28.955  1.00  0.00     0.029 A 
ATOM     56  N   UNL A   1      44.153  24.840  30.401  1.00  0.00    -0.354 N 
ATOM     57  N   UNL A   1      43.613  27.754  32.462  1.00  0.00    -0.248 NA
ATOM     58  C   UNL A   1      43.677  28.557  34.616  1.00  0.00     0.031 C 
ATOM     59  C   UNL A   1      45.708  26.408  30.276  1.00  0.00     0.029 A 
ATOM     60  C   UNL A   1      44.913  25.703  31.166  1.00  0.00     0.049 A 
ATOM     61  H   UNL A   1      43.524  24.177  30.766  1.00  0.00     0.167 HD
ATOM     62  C   UNL A   1      44.330  26.845  33.187  1.00  0.00     0.074 A 
ATOM     63  C   UNL A   1      44.357  27.401  34.529  1.00  0.00     0.031 C 
ATOM     64  C   UNL A   1      44.819  25.702  32.623  1.00  0.00     0.037 A 
BRANCH  51  65
ATOM     65  C   UNL A   1      43.918  23.577  26.909  1.00  0.00     0.064 A 
ATOM     66  C   UNL A   1      43.472  22.239  26.816  1.00  0.00     0.173 A 
ATOM     67  C   UNL A   1      44.878  23.938  25.936  1.00  0.00     0.173 A 
ATOM     68  F   UNL A   1      42.577  21.745  27.682  1.00  0.00    -0.203 F 
ATOM     69  C   UNL A   1      43.946  21.350  25.842  1.00  0.00     0.198 A 
ATOM     70  C   UNL A   1      45.310  23.065  24.932  1.00  0.00     0.198 A 
ATOM     71  F   UNL A   1      45.493  25.124  25.944  1.00  0.00    -0.203 F 
ATOM     72  F   UNL A   1      43.527  20.076  25.841  1.00  0.00    -0.200 F 
ATOM     73  C   UNL A   1      44.855  21.767  24.892  1.00  0.00     0.200 A 
ATOM     74  F   UNL A   1      46.200  23.491  24.024  1.00  0.00    -0.200 F 
ATOM     75  F   UNL A   1      45.308  20.920  23.957  1.00  0.00    -0.200 F 
ENDBRANCH  51  65
BRANCH  52  76
ATOM     76  C   UNL A   1      41.096  30.349  33.376  1.00  0.00     0.064 A 
ATOM     77  C   UNL A   1      40.889  31.743  33.447  1.00  0.00     0.173 A 
ATOM     78  C   UNL A   1      39.963  29.525  33.415  1.00  0.00     0.173 A 
ATOM     79  F   UNL A   1      41.942  32.576  33.401  1.00  0.00    -0.203 F 
ATOM     80  C   UNL A   1      39.608  32.290  33.414  1.00  0.00     0.198 A 
ATOM     81  C   UNL A   1      38.679  30.080  33.397  1.00  0.00     0.198 A 
ATOM     82  F   UNL A   1      40.090  28.194  33.323  1.00  0.00    -0.203 F 
ATOM     83  F   UNL A   1      39.448  33.618  33.340  1.00  0.00    -0.200 F 
ATOM     84  C   UNL A   1      38.505  31.456  33.356  1.00  0.00     0.200 A 
ATOM     85  F   UNL A   1      37.609  29.277  33.303  1.00  0.00    -0.200 F 
ATOM     86  F   UNL A   1      37.278  31.975  33.206  1.00  0.00    -0.200 F 
ENDBRANCH  52  76
BRANCH  64  87
ATOM     87  C   UNL A   1      45.332  24.515  33.401  1.00  0.00     0.064 A 
ATOM     88  C   UNL A   1      44.580  23.350  33.633  1.00  0.00     0.173 A 
ATOM     89  C   UNL A   1      46.684  24.458  33.816  1.00  0.00     0.173 A 
ATOM     90  F   UNL A   1      43.329  23.221  33.171  1.00  0.00    -0.203 F 
ATOM     91  C   UNL A   1      45.112  22.244  34.300  1.00  0.00     0.198 A 
ATOM     92  C   UNL A   1      47.229  23.329  34.425  1.00  0.00     0.198 A 
ATOM     93  F   UNL A   1      47.522  25.485  33.614  1.00  0.00    -0.203 F 
ATOM     94  F   UNL A   1      44.336  21.178  34.539  1.00  0.00    -0.200 F 
ATOM     95  C   UNL A   1      46.439  22.229  34.685  1.00  0.00     0.200 A 
ATOM     96  F   UNL A   1      48.532  23.306  34.739  1.00  0.00    -0.200 F 
ATOM     97  F   UNL A   1      46.958  21.149  35.283  1.00  0.00    -0.200 F 
ENDBRANCH  64  87
ENDBRANCH  38  39
ENDBRANCH  30  33
ENDBRANCH  28  29
ENDBRANCH  27  28
ENDBRANCH   1  27
TORSDOF 14
ENDMDL
MODEL 3
REMARK VINA RESULT:     -13.8      3.009      9.209
REMARK SMILES Cc1ccc(/C=C(\NC(=O)c2cccc(C)c2)C(=O)NCCCCNC(=O)c2ccc(-c3c4nc(c(-c5c(F)c(F)c(F)c(F)c5F)c5ccc([nH]5)c(-c5c(F)c(F)c(F)c(F)c5F)c5nc(c(-c6c(F)c(F)c(F)c(F)c6F)c6ccc3[nH]6)C=C5)C=C4)cc2)cc1
REMARK SMILES IDX 22 1 21 2 20 3 18 4 19 5 7 7 6 8 5 9 1 10 2 11 3 12 92 13
REMARK SMILES IDX 4 14 91 15 8 16 9 17 10 19 11 20 12 21 17 22 13 23 15 24
REMARK SMILES IDX 14 25 16 26 23 27 24 28 25 29 26 30 27 32 28 33 29 34 90 35
REMARK SMILES IDX 30 36 89 37 31 38 32 39 33 40 83 41 34 42 88 43 82 44 84 45
REMARK SMILES IDX 35 46 87 47 81 48 80 49 36 51 68 52 48 53 67 54 49 55 52 56
REMARK SMILES IDX 66 57 85 58 50 59 51 60 65 62 86 63 53 64 37 65 38 66 46 67
REMARK SMILES IDX 39 68 40 69 44 70 47 71 41 72 42 73 45 74 43 75 69 76 70 77
REMARK SMILES IDX 78 78 71 79 72 80 76 81 79 82 73 83 74 84 77 85 75 86 54 87
REMARK SMILES IDX 55 88 63 89 56 90 57 91 61 92 64 93 58 94 59 95 62 96 60 97
REMARK H PARENT 20 6 8 18 25 31 84 50 52 61
REMARK Flexibility Score: inf
ROOT
ATOM      1  C   UNL A   1      32.153  28.739  26.051  1.00  0.00     0.023 C 
ENDROOT
BRANCH   1   2
ATOM      2  C   UNL A   1      32.425  27.343  26.604  1.00  0.00     0.116 C 
BRANCH   2   3
ATOM      3  N   UNL A   1      31.295  26.429  26.649  1.00  0.00    -0.351 N 
ATOM      4  C   UNL A   1      31.201  25.097  26.330  1.00  0.00     0.267 C 
ATOM      5  O   UNL A   1      30.130  24.529  26.566  1.00  0.00    -0.268 OA
ATOM      6  H   UNL A   1      30.455  26.835  26.962  1.00  0.00     0.163 HD
BRANCH   4   7
ATOM      7  C   UNL A   1      32.328  24.346  25.635  1.00  0.00     0.107 C 
ATOM      8  C   UNL A   1      33.419  24.061  26.385  1.00  0.00     0.040 C 
BRANCH   8   9
ATOM      9  C   UNL A   1      34.677  23.341  26.027  1.00  0.00    -0.023 A 
ATOM     10  C   UNL A   1      38.528  21.438  25.378  1.00  0.00     0.044 C 
ATOM     11  C   UNL A   1      37.197  22.110  25.532  1.00  0.00    -0.051 A 
ATOM     12  C   UNL A   1      36.059  21.339  25.749  1.00  0.00     0.004 A 
ATOM     13  C   UNL A   1      37.064  23.499  25.500  1.00  0.00     0.004 A 
ATOM     14  C   UNL A   1      34.816  21.947  25.946  1.00  0.00     0.008 A 
ATOM     15  C   UNL A   1      35.821  24.105  25.748  1.00  0.00     0.008 A 
ENDBRANCH   8   9
BRANCH   7  16
ATOM     16  N   UNL A   1      32.265  23.936  24.329  1.00  0.00    -0.317 N 
ATOM     17  C   UNL A   1      32.325  24.626  23.146  1.00  0.00     0.255 C 
ATOM     18  H   UNL A   1      32.154  22.964  24.220  1.00  0.00     0.170 HD
ATOM     19  O   UNL A   1      32.286  24.002  22.087  1.00  0.00    -0.269 OA
BRANCH  17  20
ATOM     20  C   UNL A   1      32.367  26.100  23.116  1.00  0.00     0.040 A 
ATOM     21  C   UNL A   1      33.646  26.650  23.187  1.00  0.00     0.014 A 
ATOM     22  C   UNL A   1      31.251  26.914  22.895  1.00  0.00     0.017 A 
ATOM     23  C   UNL A   1      33.826  27.978  22.843  1.00  0.00     0.001 A 
ATOM     24  C   UNL A   1      31.433  28.277  22.629  1.00  0.00    -0.050 A 
ATOM     25  C   UNL A   1      32.731  28.796  22.587  1.00  0.00     0.003 A 
ATOM     26  C   UNL A   1      30.272  29.192  22.384  1.00  0.00     0.044 C 
ENDBRANCH  17  20
ENDBRANCH   7  16
ENDBRANCH   4   7
ENDBRANCH   2   3
ENDBRANCH   1   2
BRANCH   1  27
ATOM     27  C   UNL A   1      33.208  29.809  26.329  1.00  0.00     0.023 C 
BRANCH  27  28
ATOM     28  C   UNL A   1      33.084  30.608  27.628  1.00  0.00     0.116 C 
BRANCH  28  29
ATOM     29  N   UNL A   1      33.965  31.761  27.750  1.00  0.00    -0.352 N 
ATOM     30  C   UNL A   1      35.305  31.847  28.103  1.00  0.00     0.251 C 
ATOM     31  H   UNL A   1      33.538  32.624  27.548  1.00  0.00     0.163 HD
ATOM     32  O   UNL A   1      35.817  32.950  28.208  1.00  0.00    -0.269 OA
BRANCH  30  33
ATOM     33  C   UNL A   1      36.164  30.631  28.233  1.00  0.00     0.039 A 
ATOM     34  C   UNL A   1      36.331  30.076  29.514  1.00  0.00     0.014 A 
ATOM     35  C   UNL A   1      36.900  30.110  27.176  1.00  0.00     0.014 A 
ATOM     36  C   UNL A   1      37.388  29.197  29.769  1.00  0.00     0.010 A 
ATOM     37  C   UNL A   1      37.993  29.303  27.435  1.00  0.00     0.010 A 
ATOM     38  C   UNL A   1      38.288  28.916  28.746  1.00  0.00    -0.014 A 
BRANCH  38  39
ATOM     39  C   UNL A   1      39.648  28.426  28.966  1.00  0.00     0.031 A 
ATOM     40  C   UNL A   1      40.035  27.045  28.609  1.00  0.00     0.074 A 
ATOM     41  C   UNL A   1      40.603  29.326  29.301  1.00  0.00     0.049 A 
ATOM     42  N   UNL A   1      41.184  26.536  28.894  1.00  0.00    -0.248 NA
ATOM     43  C   UNL A   1      39.137  26.087  27.970  1.00  0.00     0.031 C 
ATOM     44  C   UNL A   1      42.046  29.221  29.086  1.00  0.00     0.029 A 
ATOM     45  N   UNL A   1      40.450  30.516  30.020  1.00  0.00    -0.354 N 
ATOM     46  C   UNL A   1      41.288  25.326  28.255  1.00  0.00     0.074 A 
ATOM     47  C   UNL A   1      39.950  25.036  27.806  1.00  0.00     0.031 C 
ATOM     48  C   UNL A   1      42.672  30.156  29.817  1.00  0.00     0.029 A 
ATOM     49  C   UNL A   1      41.674  30.782  30.662  1.00  0.00     0.049 A 
ATOM     50  H   UNL A   1      39.636  31.068  30.069  1.00  0.00     0.167 HD
ATOM     51  C   UNL A   1      42.527  24.786  28.094  1.00  0.00     0.037 A 
ATOM     52  C   UNL A   1      41.729  30.850  32.022  1.00  0.00     0.037 A 
ATOM     53  C   UNL A   1      43.506  25.476  28.940  1.00  0.00     0.049 A 
ATOM     54  C   UNL A   1      42.570  29.749  32.617  1.00  0.00     0.074 A 
ATOM     55  C   UNL A   1      44.536  26.364  28.684  1.00  0.00     0.029 A 
ATOM     56  N   UNL A   1      43.316  25.482  30.324  1.00  0.00    -0.354 N 
ATOM     57  N   UNL A   1      42.914  28.669  31.969  1.00  0.00    -0.248 NA
ATOM     58  C   UNL A   1      43.082  29.767  33.982  1.00  0.00     0.031 C 
ATOM     59  C   UNL A   1      44.893  26.979  29.917  1.00  0.00     0.029 A 
ATOM     60  C   UNL A   1      44.122  26.426  30.928  1.00  0.00     0.049 A 
ATOM     61  H   UNL A   1      42.690  24.892  30.803  1.00  0.00     0.167 HD
ATOM     62  C   UNL A   1      43.644  27.856  32.788  1.00  0.00     0.074 A 
ATOM     63  C   UNL A   1      43.737  28.594  34.034  1.00  0.00     0.031 C 
ATOM     64  C   UNL A   1      44.089  26.633  32.373  1.00  0.00     0.037 A 
BRANCH  51  65
ATOM     65  C   UNL A   1      42.913  23.745  27.058  1.00  0.00     0.064 A 
ATOM     66  C   UNL A   1      42.602  22.381  27.269  1.00  0.00     0.173 A 
ATOM     67  C   UNL A   1      43.695  23.989  25.906  1.00  0.00     0.173 A 
ATOM     68  F   UNL A   1      41.884  21.992  28.332  1.00  0.00    -0.203 F 
ATOM     69  C   UNL A   1      43.037  21.364  26.409  1.00  0.00     0.198 A 
ATOM     70  C   UNL A   1      44.083  22.978  25.020  1.00  0.00     0.198 A 
ATOM     71  F   UNL A   1      44.178  25.200  25.613  1.00  0.00    -0.203 F 
ATOM     72  F   UNL A   1      42.758  20.084  26.695  1.00  0.00    -0.200 F 
ATOM     73  C   UNL A   1      43.766  21.664  25.277  1.00  0.00     0.200 A 
ATOM     74  F   UNL A   1      44.798  23.294  23.929  1.00  0.00    -0.200 F 
ATOM     75  F   UNL A   1      44.180  20.694  24.450  1.00  0.00    -0.200 F 
ENDBRANCH  51  65
BRANCH  52  76
ATOM     76  C   UNL A   1      40.485  31.427  32.601  1.00  0.00     0.064 A 
ATOM     77  C   UNL A   1      40.293  32.817  32.455  1.00  0.00     0.173 A 
ATOM     78  C   UNL A   1      39.348  30.638  32.825  1.00  0.00     0.173 A 
ATOM     79  F   UNL A   1      41.348  33.615  32.227  1.00  0.00    -0.203 F 
ATOM     80  C   UNL A   1      39.016  33.372  32.395  1.00  0.00     0.198 A 
ATOM     81  C   UNL A   1      38.070  31.203  32.778  1.00  0.00     0.198 A 
ATOM     82  F   UNL A   1      39.460  29.308  32.942  1.00  0.00    -0.203 F 
ATOM     83  F   UNL A   1      38.863  34.674  32.116  1.00  0.00    -0.200 F 
ATOM     84  C   UNL A   1      37.905  32.557  32.523  1.00  0.00     0.200 A 
ATOM     85  F   UNL A   1      36.990  30.412  32.865  1.00  0.00    -0.200 F 
ATOM     86  F   UNL A   1      36.676  33.065  32.350  1.00  0.00    -0.200 F 
ENDBRANCH  52  76
BRANCH  64  87
ATOM     87  C   UNL A   1      44.612  25.556  33.291  1.00  0.00     0.064 A 
ATOM     88  C   UNL A   1      45.952  25.129  33.310  1.00  0.00     0.173 A 
ATOM     89  C   UNL A   1      43.789  25.015  34.307  1.00  0.00     0.173 A 
ATOM     90  F   UNL A   1      46.868  25.663  32.490  1.00  0.00    -0.203 F 
ATOM     91  C   UNL A   1      46.414  24.176  34.221  1.00  0.00     0.198 A 
ATOM     92  C   UNL A   1      44.269  24.112  35.254  1.00  0.00     0.198 A 
ATOM     93  F   UNL A   1      42.502  25.373  34.429  1.00  0.00    -0.203 F 
ATOM     94  F   UNL A   1      47.690  23.769  34.163  1.00  0.00    -0.200 F 
ATOM     95  C   UNL A   1      45.576  23.677  35.199  1.00  0.00     0.200 A 
ATOM     96  F   UNL A   1      43.461  23.683  36.234  1.00  0.00    -0.200 F 
ATOM     97  F   UNL A   1      46.036  22.799  36.100  1.00  0.00    -0.200 F 
ENDBRANCH  64  87
ENDBRANCH  38  39
ENDBRANCH  30  33
ENDBRANCH  28  29
ENDBRANCH  27  28
ENDBRANCH   1  27
TORSDOF 14
ENDMDL
