MODEL 1
REMARK VINA RESULT:     -12.0      0.000      0.000
REMARK SMILES CC[N@@H+]1CC[C@H](C[NH2+]Cc2ccc(C(=O)NCCCCNC(=O)c3ccc(-c4c5nc(c(-c6c(F)c(F)c(F)c(F)c6F)c6ccc([nH]6)c(-c6c(F)c(F)c(F)c(F)c6F)c6nc(c(-c7c(F)c(F)c(F)c(F)c7F)c7ccc4[nH]7)C=C6)C=C5)cc3)cn2)C1
REMARK SMILES IDX 17 1 16 2 14 3 15 4 13 6 10 7 11 8 88 9 12 10 87 11 9 12
REMARK SMILES IDX 8 13 7 16 6 17 3 18 4 19 89 20 5 22 2 23 1 24 18 25 19 26
REMARK SMILES IDX 20 27 21 28 22 29 23 31 24 32 25 33 86 34 26 35 85 36 27 37
REMARK SMILES IDX 28 38 29 39 79 40 30 41 84 42 78 43 80 44 31 45 83 46 77 47
REMARK SMILES IDX 76 48 32 50 64 51 44 52 63 53 45 54 48 55 62 56 81 57 46 58
REMARK SMILES IDX 47 59 61 61 82 62 49 63 33 64 34 65 42 66 35 67 36 68 40 69
REMARK SMILES IDX 43 70 37 71 38 72 41 73 39 74 65 75 66 76 74 77 67 78 68 79
REMARK SMILES IDX 72 80 75 81 69 82 70 83 73 84 71 85 50 86 51 87 59 88 52 89
REMARK SMILES IDX 53 90 57 91 60 92 54 93 55 94 58 95 56 96
REMARK H PARENT 16 5 8 14 8 15 3 21 21 30 80 49 48 60
REMARK Flexibility Score: inf
ROOT
ATOM      1  C   UNL A   1      33.321  30.029  26.589  1.00  0.00     0.116 C 
ENDROOT
BRANCH   1   2
ATOM      2  N   UNL A   1      33.610  29.605  25.231  1.00  0.00    -0.352 N 
ATOM      3  C   UNL A   1      33.484  28.422  24.547  1.00  0.00     0.252 C 
ATOM      4  O   UNL A   1      33.929  28.394  23.399  1.00  0.00    -0.269 OA
ATOM      5  H   UNL A   1      33.978  30.330  24.674  1.00  0.00     0.163 HD
BRANCH   3   6
ATOM      6  C   UNL A   1      32.891  27.179  25.100  1.00  0.00     0.058 A 
ATOM      7  C   UNL A   1      31.515  24.930  25.985  1.00  0.00     0.094 A 
ATOM      8  C   UNL A   1      32.867  25.082  26.288  1.00  0.00     0.030 A 
ATOM      9  N   UNL A   1      30.827  25.891  25.329  1.00  0.00    -0.255 NA
ATOM     10  C   UNL A   1      33.558  26.205  25.831  1.00  0.00     0.017 A 
ATOM     11  C   UNL A   1      31.519  26.997  24.935  1.00  0.00     0.125 A 
BRANCH   7  12
ATOM     12  C   UNL A   1      30.795  23.627  26.306  1.00  0.00     0.317 C 
BRANCH  12  13
ATOM     13  N   UNL A   1      31.681  22.534  26.769  1.00  0.00    -0.341 N 
ATOM     14  H   UNL A   1      32.458  22.939  27.292  1.00  0.00     0.346 HD
ATOM     15  H   UNL A   1      31.131  21.907  27.356  1.00  0.00     0.346 HD
BRANCH  13  16
ATOM     16  C   UNL A   1      32.216  21.757  25.654  1.00  0.00     0.270 C 
BRANCH  16  17
ATOM     17  C   UNL A   1      33.525  21.023  25.938  1.00  0.00     0.105 C 
ATOM     18  N   UNL A   1      35.729  21.915  26.470  1.00  0.00    -0.335 N 
ATOM     19  C   UNL A   1      35.832  20.936  25.374  1.00  0.00     0.262 C 
ATOM     20  C   UNL A   1      34.349  21.814  26.969  1.00  0.00     0.271 C 
ATOM     21  H   UNL A   1      36.377  21.722  27.233  1.00  0.00     0.348 HD
ATOM     22  C   UNL A   1      34.453  20.902  24.738  1.00  0.00     0.076 C 
BRANCH  18  23
ATOM     23  C   UNL A   1      36.115  23.260  26.017  1.00  0.00     0.258 C 
ATOM     24  C   UNL A   1      37.480  23.326  25.335  1.00  0.00     0.071 C 
ENDBRANCH  18  23
ENDBRANCH  16  17
ENDBRANCH  13  16
ENDBRANCH  12  13
ENDBRANCH   7  12
ENDBRANCH   3   6
ENDBRANCH   1   2
BRANCH   1  25
ATOM     25  C   UNL A   1      31.867  30.455  26.783  1.00  0.00     0.023 C 
BRANCH  25  26
ATOM     26  C   UNL A   1      31.648  31.973  26.765  1.00  0.00     0.023 C 
BRANCH  26  27
ATOM     27  C   UNL A   1      32.745  32.799  27.435  1.00  0.00     0.116 C 
BRANCH  27  28
ATOM     28  N   UNL A   1      32.374  34.181  27.693  1.00  0.00    -0.352 N 
ATOM     29  C   UNL A   1      32.956  35.058  28.586  1.00  0.00     0.251 C 
ATOM     30  H   UNL A   1      31.618  34.532  27.171  1.00  0.00     0.163 HD
ATOM     31  O   UNL A   1      32.490  36.168  28.772  1.00  0.00    -0.269 OA
BRANCH  29  32
ATOM     32  C   UNL A   1      34.135  34.603  29.356  1.00  0.00     0.039 A 
ATOM     33  C   UNL A   1      33.953  34.151  30.664  1.00  0.00     0.014 A 
ATOM     34  C   UNL A   1      35.399  34.573  28.763  1.00  0.00     0.014 A 
ATOM     35  C   UNL A   1      35.033  33.596  31.357  1.00  0.00     0.010 A 
ATOM     36  C   UNL A   1      36.456  33.961  29.429  1.00  0.00     0.010 A 
ATOM     37  C   UNL A   1      36.282  33.463  30.729  1.00  0.00    -0.014 A 
BRANCH  37  38
ATOM     38  C   UNL A   1      37.425  32.809  31.413  1.00  0.00     0.031 A 
ATOM     39  C   UNL A   1      38.115  31.641  30.767  1.00  0.00     0.074 A 
ATOM     40  C   UNL A   1      37.788  33.211  32.647  1.00  0.00     0.049 A 
ATOM     41  N   UNL A   1      39.058  30.868  31.241  1.00  0.00    -0.248 NA
ATOM     42  C   UNL A   1      37.661  31.275  29.415  1.00  0.00     0.031 C 
ATOM     43  C   UNL A   1      37.166  34.302  33.399  1.00  0.00     0.029 A 
ATOM     44  N   UNL A   1      38.760  32.737  33.493  1.00  0.00    -0.354 N 
ATOM     45  C   UNL A   1      39.294  29.916  30.258  1.00  0.00     0.074 A 
ATOM     46  C   UNL A   1      38.363  30.176  29.182  1.00  0.00     0.031 C 
ATOM     47  C   UNL A   1      37.780  34.423  34.587  1.00  0.00     0.029 A 
ATOM     48  C   UNL A   1      38.815  33.399  34.696  1.00  0.00     0.049 A 
ATOM     49  H   UNL A   1      39.360  31.993  33.260  1.00  0.00     0.167 HD
ATOM     50  C   UNL A   1      40.220  28.928  30.245  1.00  0.00     0.037 A 
ATOM     51  C   UNL A   1      39.605  33.195  35.767  1.00  0.00     0.037 A 
ATOM     52  C   UNL A   1      41.167  28.694  31.302  1.00  0.00     0.049 A 
ATOM     53  C   UNL A   1      40.631  32.094  35.722  1.00  0.00     0.074 A 
ATOM     54  C   UNL A   1      42.182  27.755  31.359  1.00  0.00     0.029 A 
ATOM     55  N   UNL A   1      41.216  29.409  32.489  1.00  0.00    -0.354 N 
ATOM     56  N   UNL A   1      40.887  31.240  34.762  1.00  0.00    -0.248 NA
ATOM     57  C   UNL A   1      41.485  31.936  36.909  1.00  0.00     0.031 C 
ATOM     58  C   UNL A   1      42.823  27.878  32.597  1.00  0.00     0.029 A 
ATOM     59  C   UNL A   1      42.236  28.924  33.291  1.00  0.00     0.049 A 
ATOM     60  H   UNL A   1      40.615  30.152  32.727  1.00  0.00     0.167 HD
ATOM     61  C   UNL A   1      41.949  30.466  35.213  1.00  0.00     0.074 A 
ATOM     62  C   UNL A   1      42.295  30.958  36.530  1.00  0.00     0.031 C 
ATOM     63  C   UNL A   1      42.580  29.441  34.591  1.00  0.00     0.037 A 
BRANCH  50  64
ATOM     64  C   UNL A   1      40.259  28.030  29.043  1.00  0.00     0.064 A 
ATOM     65  C   UNL A   1      39.546  26.821  29.008  1.00  0.00     0.173 A 
ATOM     66  C   UNL A   1      40.987  28.396  27.903  1.00  0.00     0.173 A 
ATOM     67  F   UNL A   1      38.845  26.419  30.079  1.00  0.00    -0.203 F 
ATOM     68  C   UNL A   1      39.586  25.998  27.885  1.00  0.00     0.198 A 
ATOM     69  C   UNL A   1      41.000  27.586  26.770  1.00  0.00     0.198 A 
ATOM     70  F   UNL A   1      41.681  29.543  27.882  1.00  0.00    -0.203 F 
ATOM     71  F   UNL A   1      38.939  24.825  27.894  1.00  0.00    -0.200 F 
ATOM     72  C   UNL A   1      40.307  26.385  26.765  1.00  0.00     0.200 A 
ATOM     73  F   UNL A   1      41.688  27.964  25.684  1.00  0.00    -0.200 F 
ATOM     74  F   UNL A   1      40.339  25.595  25.683  1.00  0.00    -0.200 F 
ENDBRANCH  50  64
BRANCH  51  75
ATOM     75  C   UNL A   1      39.479  34.068  36.963  1.00  0.00     0.064 A 
ATOM     76  C   UNL A   1      40.129  35.308  37.017  1.00  0.00     0.173 A 
ATOM     77  C   UNL A   1      38.720  33.679  38.075  1.00  0.00     0.173 A 
ATOM     78  F   UNL A   1      40.885  35.714  35.985  1.00  0.00    -0.203 F 
ATOM     79  C   UNL A   1      40.043  36.118  38.148  1.00  0.00     0.198 A 
ATOM     80  C   UNL A   1      38.612  34.502  39.195  1.00  0.00     0.198 A 
ATOM     81  F   UNL A   1      38.075  32.505  38.071  1.00  0.00    -0.203 F 
ATOM     82  F   UNL A   1      40.713  37.278  38.191  1.00  0.00    -0.200 F 
ATOM     83  C   UNL A   1      39.281  35.717  39.234  1.00  0.00     0.200 A 
ATOM     84  F   UNL A   1      37.864  34.118  40.238  1.00  0.00    -0.200 F 
ATOM     85  F   UNL A   1      39.198  36.496  40.321  1.00  0.00    -0.200 F 
ENDBRANCH  51  75
BRANCH  63  86
ATOM     86  C   UNL A   1      43.742  28.813  35.301  1.00  0.00     0.064 A 
ATOM     87  C   UNL A   1      45.035  29.345  35.213  1.00  0.00     0.173 A 
ATOM     88  C   UNL A   1      43.544  27.694  36.126  1.00  0.00     0.173 A 
ATOM     89  F   UNL A   1      45.277  30.404  34.426  1.00  0.00    -0.203 F 
ATOM     90  C   UNL A   1      46.094  28.768  35.908  1.00  0.00     0.198 A 
ATOM     91  C   UNL A   1      44.600  27.136  36.841  1.00  0.00     0.198 A 
ATOM     92  F   UNL A   1      42.323  27.152  36.248  1.00  0.00    -0.203 F 
ATOM     93  F   UNL A   1      47.331  29.269  35.779  1.00  0.00    -0.200 F 
ATOM     94  C   UNL A   1      45.874  27.670  36.728  1.00  0.00     0.200 A 
ATOM     95  F   UNL A   1      44.383  26.084  37.642  1.00  0.00    -0.200 F 
ATOM     96  F   UNL A   1      46.893  27.123  37.406  1.00  0.00    -0.200 F 
ENDBRANCH  63  86
ENDBRANCH  37  38
ENDBRANCH  29  32
ENDBRANCH  27  28
ENDBRANCH  26  27
ENDBRANCH  25  26
ENDBRANCH   1  25
TORSDOF 16
ENDMDL
MODEL 2
REMARK VINA RESULT:     -11.7      1.161      2.067
REMARK SMILES CC[N@@H+]1CC[C@H](C[NH2+]Cc2ccc(C(=O)NCCCCNC(=O)c3ccc(-c4c5nc(c(-c6c(F)c(F)c(F)c(F)c6F)c6ccc([nH]6)c(-c6c(F)c(F)c(F)c(F)c6F)c6nc(c(-c7c(F)c(F)c(F)c(F)c7F)c7ccc4[nH]7)C=C6)C=C5)cc3)cn2)C1
REMARK SMILES IDX 17 1 16 2 14 3 15 4 13 6 10 7 11 8 88 9 12 10 87 11 9 12
REMARK SMILES IDX 8 13 7 16 6 17 3 18 4 19 89 20 5 22 2 23 1 24 18 25 19 26
REMARK SMILES IDX 20 27 21 28 22 29 23 31 24 32 25 33 86 34 26 35 85 36 27 37
REMARK SMILES IDX 28 38 29 39 79 40 30 41 84 42 78 43 80 44 31 45 83 46 77 47
REMARK SMILES IDX 76 48 32 50 64 51 44 52 63 53 45 54 48 55 62 56 81 57 46 58
REMARK SMILES IDX 47 59 61 61 82 62 49 63 33 64 34 65 42 66 35 67 36 68 40 69
REMARK SMILES IDX 43 70 37 71 38 72 41 73 39 74 65 75 66 76 74 77 67 78 68 79
REMARK SMILES IDX 72 80 75 81 69 82 70 83 73 84 71 85 50 86 51 87 59 88 52 89
REMARK SMILES IDX 53 90 57 91 60 92 54 93 55 94 58 95 56 96
REMARK H PARENT 16 5 8 14 8 15 3 21 21 30 80 49 48 60
REMARK Flexibility Score: inf
ROOT
ATOM      1  C   UNL A   1      32.313  29.784  25.467  1.00  0.00     0.116 C 
ENDROOT
BRANCH   1   2
ATOM      2  N   UNL A   1      31.212  29.996  24.545  1.00  0.00    -0.352 N 
ATOM      3  C   UNL A   1      30.464  29.176  23.738  1.00  0.00     0.252 C 
ATOM      4  O   UNL A   1      29.649  29.723  22.993  1.00  0.00    -0.269 OA
ATOM      5  H   UNL A   1      30.939  30.941  24.486  1.00  0.00     0.163 HD
BRANCH   3   6
ATOM      6  C   UNL A   1      30.594  27.699  23.672  1.00  0.00     0.058 A 
ATOM      7  C   UNL A   1      30.983  24.974  23.269  1.00  0.00     0.094 A 
ATOM      8  C   UNL A   1      30.421  25.428  24.462  1.00  0.00     0.030 A 
ATOM      9  N   UNL A   1      31.278  25.825  22.260  1.00  0.00    -0.255 NA
ATOM     10  C   UNL A   1      30.240  26.796  24.666  1.00  0.00     0.017 A 
ATOM     11  C   UNL A   1      31.049  27.151  22.473  1.00  0.00     0.125 A 
BRANCH   7  12
ATOM     12  C   UNL A   1      31.365  23.510  23.106  1.00  0.00     0.317 C 
BRANCH  12  13
ATOM     13  N   UNL A   1      32.522  23.274  22.211  1.00  0.00    -0.341 N 
ATOM     14  H   UNL A   1      32.356  22.422  21.674  1.00  0.00     0.346 HD
ATOM     15  H   UNL A   1      32.617  24.082  21.596  1.00  0.00     0.346 HD
BRANCH  13  16
ATOM     16  C   UNL A   1      33.768  23.125  22.959  1.00  0.00     0.270 C 
BRANCH  16  17
ATOM     17  C   UNL A   1      33.616  22.599  24.384  1.00  0.00     0.105 C 
ATOM     18  N   UNL A   1      35.202  22.621  26.233  1.00  0.00    -0.335 N 
ATOM     19  C   UNL A   1      34.655  21.265  26.054  1.00  0.00     0.262 C 
ATOM     20  C   UNL A   1      34.407  23.493  25.355  1.00  0.00     0.271 C 
ATOM     21  H   UNL A   1      35.125  22.954  27.194  1.00  0.00     0.348 HD
ATOM     22  C   UNL A   1      34.193  21.209  24.609  1.00  0.00     0.076 C 
BRANCH  18  23
ATOM     23  C   UNL A   1      36.648  22.648  25.971  1.00  0.00     0.258 C 
ATOM     24  C   UNL A   1      37.078  23.669  24.919  1.00  0.00     0.071 C 
ENDBRANCH  18  23
ENDBRANCH  16  17
ENDBRANCH  13  16
ENDBRANCH  12  13
ENDBRANCH   7  12
ENDBRANCH   3   6
ENDBRANCH   1   2
BRANCH   1  25
ATOM     25  C   UNL A   1      32.035  30.337  26.865  1.00  0.00     0.023 C 
BRANCH  25  26
ATOM     26  C   UNL A   1      31.698  31.832  26.894  1.00  0.00     0.023 C 
BRANCH  26  27
ATOM     27  C   UNL A   1      32.842  32.750  27.324  1.00  0.00     0.116 C 
BRANCH  27  28
ATOM     28  N   UNL A   1      32.427  34.109  27.635  1.00  0.00    -0.352 N 
ATOM     29  C   UNL A   1      32.976  34.966  28.567  1.00  0.00     0.251 C 
ATOM     30  H   UNL A   1      31.665  34.458  27.121  1.00  0.00     0.163 HD
ATOM     31  O   UNL A   1      32.476  36.054  28.793  1.00  0.00    -0.269 OA
BRANCH  29  32
ATOM     32  C   UNL A   1      34.163  34.516  29.328  1.00  0.00     0.039 A 
ATOM     33  C   UNL A   1      33.981  33.966  30.598  1.00  0.00     0.014 A 
ATOM     34  C   UNL A   1      35.437  34.586  28.760  1.00  0.00     0.014 A 
ATOM     35  C   UNL A   1      35.074  33.417  31.274  1.00  0.00     0.010 A 
ATOM     36  C   UNL A   1      36.511  33.982  29.405  1.00  0.00     0.010 A 
ATOM     37  C   UNL A   1      36.339  33.387  30.664  1.00  0.00    -0.014 A 
BRANCH  37  38
ATOM     38  C   UNL A   1      37.501  32.742  31.325  1.00  0.00     0.031 A 
ATOM     39  C   UNL A   1      38.199  31.593  30.656  1.00  0.00     0.074 A 
ATOM     40  C   UNL A   1      37.873  33.136  32.558  1.00  0.00     0.049 A 
ATOM     41  N   UNL A   1      39.160  30.828  31.108  1.00  0.00    -0.248 NA
ATOM     42  C   UNL A   1      37.733  31.236  29.306  1.00  0.00     0.031 C 
ATOM     43  C   UNL A   1      37.246  34.208  33.332  1.00  0.00     0.029 A 
ATOM     44  N   UNL A   1      38.864  32.666  33.386  1.00  0.00    -0.354 N 
ATOM     45  C   UNL A   1      39.397  29.892  30.111  1.00  0.00     0.074 A 
ATOM     46  C   UNL A   1      38.448  30.150  29.051  1.00  0.00     0.031 C 
ATOM     47  C   UNL A   1      37.874  34.324  34.513  1.00  0.00     0.029 A 
ATOM     48  C   UNL A   1      38.925  33.315  34.596  1.00  0.00     0.049 A 
ATOM     49  H   UNL A   1      39.472  31.934  33.136  1.00  0.00     0.167 HD
ATOM     50  C   UNL A   1      40.338  28.918  30.074  1.00  0.00     0.037 A 
ATOM     51  C   UNL A   1      39.732  33.110  35.654  1.00  0.00     0.037 A 
ATOM     52  C   UNL A   1      41.302  28.686  31.116  1.00  0.00     0.049 A 
ATOM     53  C   UNL A   1      40.774  32.026  35.583  1.00  0.00     0.074 A 
ATOM     54  C   UNL A   1      42.332  27.762  31.148  1.00  0.00     0.029 A 
ATOM     55  N   UNL A   1      41.356  29.388  32.310  1.00  0.00    -0.354 N 
ATOM     56  N   UNL A   1      41.030  31.187  34.609  1.00  0.00    -0.248 NA
ATOM     57  C   UNL A   1      41.646  31.866  36.756  1.00  0.00     0.031 C 
ATOM     58  C   UNL A   1      42.987  27.880  32.378  1.00  0.00     0.029 A 
ATOM     59  C   UNL A   1      42.394  28.909  33.093  1.00  0.00     0.049 A 
ATOM     60  H   UNL A   1      40.747  30.118  32.565  1.00  0.00     0.167 HD
ATOM     61  C   UNL A   1      42.110  30.424  35.036  1.00  0.00     0.074 A 
ATOM     62  C   UNL A   1      42.466  30.905  36.355  1.00  0.00     0.031 C 
ATOM     63  C   UNL A   1      42.748  29.415  34.394  1.00  0.00     0.037 A 
BRANCH  50  64
ATOM     64  C   UNL A   1      40.374  28.035  28.861  1.00  0.00     0.064 A 
ATOM     65  C   UNL A   1      41.134  28.372  27.731  1.00  0.00     0.173 A 
ATOM     66  C   UNL A   1      39.669  26.823  28.841  1.00  0.00     0.173 A 
ATOM     67  F   UNL A   1      41.816  29.527  27.695  1.00  0.00    -0.203 F 
ATOM     68  C   UNL A   1      41.164  27.542  26.613  1.00  0.00     0.198 A 
ATOM     69  C   UNL A   1      39.725  25.980  27.733  1.00  0.00     0.198 A 
ATOM     70  F   UNL A   1      38.931  26.451  29.897  1.00  0.00    -0.203 F 
ATOM     71  F   UNL A   1      41.856  27.909  25.526  1.00  0.00    -0.200 F 
ATOM     72  C   UNL A   1      40.465  26.343  26.618  1.00  0.00     0.200 A 
ATOM     73  F   UNL A   1      39.059  24.817  27.743  1.00  0.00    -0.200 F 
ATOM     74  F   UNL A   1      40.499  25.542  25.544  1.00  0.00    -0.200 F 
ENDBRANCH  50  64
BRANCH  51  75
ATOM     75  C   UNL A   1      39.610  33.967  36.862  1.00  0.00     0.064 A 
ATOM     76  C   UNL A   1      38.822  33.567  37.949  1.00  0.00     0.173 A 
ATOM     77  C   UNL A   1      40.265  35.203  36.950  1.00  0.00     0.173 A 
ATOM     78  F   UNL A   1      38.159  32.401  37.902  1.00  0.00    -0.203 F 
ATOM     79  C   UNL A   1      38.676  34.379  39.072  1.00  0.00     0.198 A 
ATOM     80  C   UNL A   1      40.141  36.004  38.085  1.00  0.00     0.198 A 
ATOM     81  F   UNL A   1      41.035  35.630  35.939  1.00  0.00    -0.203 F 
ATOM     82  F   UNL A   1      37.879  33.992  40.077  1.00  0.00    -0.200 F 
ATOM     83  C   UNL A   1      39.338  35.595  39.141  1.00  0.00     0.200 A 
ATOM     84  F   UNL A   1      40.793  37.171  38.154  1.00  0.00    -0.200 F 
ATOM     85  F   UNL A   1      39.198  36.376  40.220  1.00  0.00    -0.200 F 
ENDBRANCH  51  75
BRANCH  63  86
ATOM     86  C   UNL A   1      43.928  28.797  35.082  1.00  0.00     0.064 A 
ATOM     87  C   UNL A   1      45.224  29.305  34.921  1.00  0.00     0.173 A 
ATOM     88  C   UNL A   1      43.748  27.714  35.956  1.00  0.00     0.173 A 
ATOM     89  F   UNL A   1      45.449  30.329  34.084  1.00  0.00    -0.203 F 
ATOM     90  C   UNL A   1      46.302  28.738  35.595  1.00  0.00     0.198 A 
ATOM     91  C   UNL A   1      44.823  27.168  36.650  1.00  0.00     0.198 A 
ATOM     92  F   UNL A   1      42.525  27.197  36.149  1.00  0.00    -0.203 F 
ATOM     93  F   UNL A   1      47.540  29.213  35.397  1.00  0.00    -0.200 F 
ATOM     94  C   UNL A   1      46.099  27.676  36.466  1.00  0.00     0.200 A 
ATOM     95  F   UNL A   1      44.624  26.151  37.500  1.00  0.00    -0.200 F 
ATOM     96  F   UNL A   1      47.137  27.139  37.123  1.00  0.00    -0.200 F 
ENDBRANCH  63  86
ENDBRANCH  37  38
ENDBRANCH  29  32
ENDBRANCH  27  28
ENDBRANCH  26  27
ENDBRANCH  25  26
ENDBRANCH   1  25
TORSDOF 16
ENDMDL
MODEL 3
REMARK VINA RESULT:     -11.6      1.081      7.579
REMARK SMILES CC[N@@H+]1CC[C@H](C[NH2+]Cc2ccc(C(=O)NCCCCNC(=O)c3ccc(-c4c5nc(c(-c6c(F)c(F)c(F)c(F)c6F)c6ccc([nH]6)c(-c6c(F)c(F)c(F)c(F)c6F)c6nc(c(-c7c(F)c(F)c(F)c(F)c7F)c7ccc4[nH]7)C=C6)C=C5)cc3)cn2)C1
REMARK SMILES IDX 17 1 16 2 14 3 15 4 13 6 10 7 11 8 88 9 12 10 87 11 9 12
REMARK SMILES IDX 8 13 7 16 6 17 3 18 4 19 89 20 5 22 2 23 1 24 18 25 19 26
REMARK SMILES IDX 20 27 21 28 22 29 23 31 24 32 25 33 86 34 26 35 85 36 27 37
REMARK SMILES IDX 28 38 29 39 79 40 30 41 84 42 78 43 80 44 31 45 83 46 77 47
REMARK SMILES IDX 76 48 32 50 64 51 44 52 63 53 45 54 48 55 62 56 81 57 46 58
REMARK SMILES IDX 47 59 61 61 82 62 49 63 33 64 34 65 42 66 35 67 36 68 40 69
REMARK SMILES IDX 43 70 37 71 38 72 41 73 39 74 65 75 66 76 74 77 67 78 68 79
REMARK SMILES IDX 72 80 75 81 69 82 70 83 73 84 71 85 50 86 51 87 59 88 52 89
REMARK SMILES IDX 53 90 57 91 60 92 54 93 55 94 58 95 56 96
REMARK H PARENT 16 5 8 14 8 15 3 21 21 30 80 49 48 60
REMARK Flexibility Score: inf
ROOT
ATOM      1  C   UNL A   1      31.058  30.216  25.007  1.00  0.00     0.116 C 
ENDROOT
BRANCH   1   2
ATOM      2  N   UNL A   1      31.947  29.581  24.051  1.00  0.00    -0.352 N 
ATOM      3  C   UNL A   1      32.416  28.303  23.878  1.00  0.00     0.252 C 
ATOM      4  O   UNL A   1      33.257  28.136  22.993  1.00  0.00    -0.269 OA
ATOM      5  H   UNL A   1      32.290  30.208  23.372  1.00  0.00     0.163 HD
BRANCH   3   6
ATOM      6  C   UNL A   1      32.017  27.132  24.697  1.00  0.00     0.058 A 
ATOM      7  C   UNL A   1      31.033  24.894  26.023  1.00  0.00     0.094 A 
ATOM      8  C   UNL A   1      32.204  25.506  26.467  1.00  0.00     0.030 A 
ATOM      9  N   UNL A   1      30.312  25.406  25.000  1.00  0.00    -0.255 NA
ATOM     10  C   UNL A   1      32.702  26.621  25.791  1.00  0.00     0.017 A 
ATOM     11  C   UNL A   1      30.802  26.522  24.389  1.00  0.00     0.125 A 
BRANCH   7  12
ATOM     12  C   UNL A   1      30.581  23.570  26.624  1.00  0.00     0.317 C 
BRANCH  12  13
ATOM     13  N   UNL A   1      30.495  22.454  25.655  1.00  0.00    -0.341 N 
ATOM     14  H   UNL A   1      29.769  21.805  25.961  1.00  0.00     0.346 HD
ATOM     15  H   UNL A   1      30.274  22.845  24.739  1.00  0.00     0.346 HD
BRANCH  13  16
ATOM     16  C   UNL A   1      31.759  21.730  25.544  1.00  0.00     0.270 C 
BRANCH  16  17
ATOM     17  C   UNL A   1      32.354  21.666  24.139  1.00  0.00     0.105 C 
ATOM     18  N   UNL A   1      34.234  22.889  23.185  1.00  0.00    -0.335 N 
ATOM     19  C   UNL A   1      33.063  22.991  22.297  1.00  0.00     0.262 C 
ATOM     20  C   UNL A   1      33.874  21.897  24.209  1.00  0.00     0.271 C 
ATOM     21  H   UNL A   1      35.073  22.577  22.696  1.00  0.00     0.348 HD
ATOM     22  C   UNL A   1      31.860  22.752  23.194  1.00  0.00     0.076 C 
BRANCH  18  23
ATOM     23  C   UNL A   1      34.611  24.205  23.718  1.00  0.00     0.258 C 
ATOM     24  C   UNL A   1      35.353  24.154  25.053  1.00  0.00     0.071 C 
ENDBRANCH  18  23
ENDBRANCH  16  17
ENDBRANCH  13  16
ENDBRANCH  12  13
ENDBRANCH   7  12
ENDBRANCH   3   6
ENDBRANCH   1   2
BRANCH   1  25
ATOM     25  C   UNL A   1      31.772  30.650  26.286  1.00  0.00     0.023 C 
BRANCH  25  26
ATOM     26  C   UNL A   1      31.485  32.097  26.707  1.00  0.00     0.023 C 
BRANCH  26  27
ATOM     27  C   UNL A   1      32.684  32.865  27.261  1.00  0.00     0.116 C 
BRANCH  27  28
ATOM     28  N   UNL A   1      32.386  34.238  27.637  1.00  0.00    -0.352 N 
ATOM     29  C   UNL A   1      33.008  35.001  28.604  1.00  0.00     0.251 C 
ATOM     30  H   UNL A   1      31.655  34.674  27.145  1.00  0.00     0.163 HD
ATOM     31  O   UNL A   1      32.602  36.116  28.884  1.00  0.00    -0.269 OA
BRANCH  29  32
ATOM     32  C   UNL A   1      34.155  34.418  29.335  1.00  0.00     0.039 A 
ATOM     33  C   UNL A   1      33.909  33.664  30.483  1.00  0.00     0.014 A 
ATOM     34  C   UNL A   1      35.456  34.571  28.850  1.00  0.00     0.014 A 
ATOM     35  C   UNL A   1      34.967  32.997  31.109  1.00  0.00     0.010 A 
ATOM     36  C   UNL A   1      36.495  33.856  29.435  1.00  0.00     0.010 A 
ATOM     37  C   UNL A   1      36.260  33.059  30.566  1.00  0.00    -0.014 A 
BRANCH  37  38
ATOM     38  C   UNL A   1      37.387  32.301  31.164  1.00  0.00     0.031 A 
ATOM     39  C   UNL A   1      37.892  32.667  32.531  1.00  0.00     0.074 A 
ATOM     40  C   UNL A   1      38.006  31.343  30.448  1.00  0.00     0.049 A 
ATOM     41  N   UNL A   1      38.926  32.203  33.185  1.00  0.00    -0.248 NA
ATOM     42  C   UNL A   1      37.151  33.718  33.247  1.00  0.00     0.031 C 
ATOM     43  C   UNL A   1      37.639  30.928  29.093  1.00  0.00     0.029 A 
ATOM     44  N   UNL A   1      39.087  30.554  30.755  1.00  0.00    -0.354 N 
ATOM     45  C   UNL A   1      38.971  32.918  34.374  1.00  0.00     0.074 A 
ATOM     46  C   UNL A   1      37.892  33.880  34.333  1.00  0.00     0.031 C 
ATOM     47  C   UNL A   1      38.470  29.952  28.692  1.00  0.00     0.029 A 
ATOM     48  C   UNL A   1      39.448  29.695  29.744  1.00  0.00     0.049 A 
ATOM     49  H   UNL A   1      39.559  30.598  31.617  1.00  0.00     0.167 HD
ATOM     50  C   UNL A   1      39.822  32.768  35.418  1.00  0.00     0.037 A 
ATOM     51  C   UNL A   1      40.460  28.810  29.674  1.00  0.00     0.037 A 
ATOM     52  C   UNL A   1      40.872  31.787  35.470  1.00  0.00     0.049 A 
ATOM     53  C   UNL A   1      41.386  28.658  30.851  1.00  0.00     0.074 A 
ATOM     54  C   UNL A   1      41.751  31.518  36.504  1.00  0.00     0.029 A 
ATOM     55  N   UNL A   1      41.184  30.910  34.442  1.00  0.00    -0.354 N 
ATOM     56  N   UNL A   1      41.380  29.296  31.995  1.00  0.00    -0.248 NA
ATOM     57  C   UNL A   1      42.455  27.657  30.729  1.00  0.00     0.031 C 
ATOM     58  C   UNL A   1      42.619  30.502  36.089  1.00  0.00     0.029 A 
ATOM     59  C   UNL A   1      42.250  30.108  34.812  1.00  0.00     0.049 A 
ATOM     60  H   UNL A   1      40.716  30.865  33.576  1.00  0.00     0.167 HD
ATOM     61  C   UNL A   1      42.419  28.753  32.741  1.00  0.00     0.074 A 
ATOM     62  C   UNL A   1      43.029  27.727  31.922  1.00  0.00     0.031 C 
ATOM     63  C   UNL A   1      42.830  29.076  33.992  1.00  0.00     0.037 A 
BRANCH  50  64
ATOM     64  C   UNL A   1      39.645  33.685  36.593  1.00  0.00     0.064 A 
ATOM     65  C   UNL A   1      40.257  34.946  36.638  1.00  0.00     0.173 A 
ATOM     66  C   UNL A   1      38.828  33.314  37.670  1.00  0.00     0.173 A 
ATOM     67  F   UNL A   1      41.060  35.344  35.638  1.00  0.00    -0.203 F 
ATOM     68  C   UNL A   1      40.082  35.790  37.732  1.00  0.00     0.198 A 
ATOM     69  C   UNL A   1      38.630  34.172  38.749  1.00  0.00     0.198 A 
ATOM     70  F   UNL A   1      38.215  32.120  37.675  1.00  0.00    -0.203 F 
ATOM     71  F   UNL A   1      40.718  36.969  37.776  1.00  0.00    -0.200 F 
ATOM     72  C   UNL A   1      39.263  35.405  38.783  1.00  0.00     0.200 A 
ATOM     73  F   UNL A   1      37.830  33.804  39.759  1.00  0.00    -0.200 F 
ATOM     74  F   UNL A   1      39.090  36.220  39.833  1.00  0.00    -0.200 F 
ENDBRANCH  50  64
BRANCH  51  75
ATOM     75  C   UNL A   1      40.636  27.974  28.457  1.00  0.00     0.064 A 
ATOM     76  C   UNL A   1      40.038  26.710  28.362  1.00  0.00     0.173 A 
ATOM     77  C   UNL A   1      41.409  28.414  27.374  1.00  0.00     0.173 A 
ATOM     78  F   UNL A   1      39.305  26.238  29.383  1.00  0.00    -0.203 F 
ATOM     79  C   UNL A   1      40.225  25.907  27.239  1.00  0.00     0.198 A 
ATOM     80  C   UNL A   1      41.573  27.621  26.239  1.00  0.00     0.198 A 
ATOM     81  F   UNL A   1      41.999  29.617  27.413  1.00  0.00    -0.203 F 
ATOM     82  F   UNL A   1      39.679  24.684  27.195  1.00  0.00    -0.200 F 
ATOM     83  C   UNL A   1      40.988  26.365  26.177  1.00  0.00     0.200 A 
ATOM     84  F   UNL A   1      42.301  28.072  25.209  1.00  0.00    -0.200 F 
ATOM     85  F   UNL A   1      41.167  25.593  25.096  1.00  0.00    -0.200 F 
ENDBRANCH  51  75
BRANCH  63  86
ATOM     86  C   UNL A   1      43.960  28.280  34.573  1.00  0.00     0.064 A 
ATOM     87  C   UNL A   1      43.742  27.055  35.220  1.00  0.00     0.173 A 
ATOM     88  C   UNL A   1      45.283  28.726  34.433  1.00  0.00     0.173 A 
ATOM     89  F   UNL A   1      42.495  26.595  35.391  1.00  0.00    -0.203 F 
ATOM     90  C   UNL A   1      44.808  26.314  35.722  1.00  0.00     0.198 A 
ATOM     91  C   UNL A   1      46.348  27.969  34.913  1.00  0.00     0.198 A 
ATOM     92  F   UNL A   1      45.543  29.889  33.816  1.00  0.00    -0.203 F 
ATOM     93  F   UNL A   1      44.576  25.165  36.372  1.00  0.00    -0.200 F 
ATOM     94  C   UNL A   1      46.110  26.767  35.561  1.00  0.00     0.200 A 
ATOM     95  F   UNL A   1      47.605  28.402  34.744  1.00  0.00    -0.200 F 
ATOM     96  F   UNL A   1      47.135  26.047  36.036  1.00  0.00    -0.200 F 
ENDBRANCH  63  86
ENDBRANCH  37  38
ENDBRANCH  29  32
ENDBRANCH  27  28
ENDBRANCH  26  27
ENDBRANCH  25  26
ENDBRANCH   1  25
TORSDOF 16
ENDMDL
