MODEL 1
REMARK VINA RESULT:     -12.7      0.000      0.000
REMARK SMILES C[C@H](Oc1ccccc1[N+](=O)[O-])C(=O)N1CCC[C@H](C(=O)NCCCCNC(=O)c2ccc(-c3c4nc(c(-c5c(F)c(F)c(F)c(F)c5F)c5ccc([nH]5)c(-c5c(F)c(F)c(F)c(F)c5F)c5nc(c(-c6c(F)c(F)c(F)c(F)c6F)c6ccc3[nH]6)C=C5)C=C4)cc2)C1
REMARK SMILES IDX 23 1 22 2 20 3 21 4 19 6 15 7 16 8 93 9 17 10 18 11 13 12
REMARK SMILES IDX 14 13 2 14 1 15 3 16 4 17 5 18 9 19 6 20 8 21 7 22 10 23
REMARK SMILES IDX 11 24 12 25 24 26 25 27 26 28 27 29 28 30 29 32 30 33 31 34
REMARK SMILES IDX 92 35 32 36 91 37 33 38 34 39 35 40 85 41 36 42 90 43 84 44
REMARK SMILES IDX 86 45 37 46 89 47 83 48 82 49 38 51 70 52 50 53 69 54 51 55
REMARK SMILES IDX 54 56 68 57 87 58 52 59 53 60 67 62 88 63 55 64 39 65 40 66
REMARK SMILES IDX 48 67 41 68 42 69 46 70 49 71 43 72 44 73 47 74 45 75 71 76
REMARK SMILES IDX 72 77 80 78 73 79 74 80 78 81 81 82 75 83 76 84 79 85 77 86
REMARK SMILES IDX 56 87 57 88 65 89 58 90 59 91 63 92 66 93 60 94 61 95 64 96
REMARK SMILES IDX 62 97
REMARK H PARENT 22 5 27 31 86 50 54 61
REMARK Flexibility Score: inf
ROOT
ATOM      1  C   UNL A   1      32.265  26.684  26.660  1.00  0.00     0.116 C 
ENDROOT
BRANCH   1   2
ATOM      2  N   UNL A   1      31.499  25.473  26.834  1.00  0.00    -0.356 N 
ATOM      3  C   UNL A   1      31.891  24.190  27.034  1.00  0.00     0.224 C 
ATOM      4  O   UNL A   1      30.990  23.371  27.251  1.00  0.00    -0.275 OA
ATOM      5  H   UNL A   1      30.524  25.601  26.803  1.00  0.00     0.163 HD
BRANCH   3   6
ATOM      6  C   UNL A   1      33.346  23.704  26.967  1.00  0.00     0.098 C 
ATOM      7  N   UNL A   1      34.086  22.659  24.798  1.00  0.00    -0.339 N 
ATOM      8  C   UNL A   1      34.452  21.418  25.470  1.00  0.00     0.119 C 
ATOM      9  C   UNL A   1      34.029  23.872  25.606  1.00  0.00     0.133 C 
ATOM     10  C   UNL A   1      33.653  21.155  26.738  1.00  0.00     0.022 C 
ATOM     11  C   UNL A   1      33.591  22.364  27.663  1.00  0.00     0.017 C 
BRANCH   7  12
ATOM     12  C   UNL A   1      33.753  22.636  23.444  1.00  0.00     0.263 C 
ATOM     13  O   UNL A   1      34.579  22.954  22.582  1.00  0.00    -0.271 OA
BRANCH  12  14
ATOM     14  C   UNL A   1      32.245  22.507  23.073  1.00  0.00     0.259 C 
ATOM     15  C   UNL A   1      32.153  21.098  22.477  1.00  0.00     0.064 C 
BRANCH  14  16
ATOM     16  O   UNL A   1      31.797  23.607  22.289  1.00  0.00    -0.474 OA
BRANCH  16  17
ATOM     17  C   UNL A   1      31.260  24.775  22.728  1.00  0.00     0.197 A 
ATOM     18  C   UNL A   1      30.212  24.899  23.636  1.00  0.00     0.054 A 
ATOM     19  C   UNL A   1      31.761  25.968  22.168  1.00  0.00     0.310 A 
ATOM     20  C   UNL A   1      29.578  26.133  23.847  1.00  0.00     0.004 A 
ATOM     21  C   UNL A   1      31.138  27.210  22.376  1.00  0.00     0.090 A 
ATOM     22  C   UNL A   1      30.019  27.281  23.196  1.00  0.00     0.007 A 
BRANCH  19  23
ATOM     23  N   UNL A   1      32.981  25.961  21.368  1.00  0.00     0.066 N 
ATOM     24  O   UNL A   1      34.028  26.299  21.936  1.00  0.00    -0.258 OA
ATOM     25  O   UNL A   1      32.903  25.579  20.192  1.00  0.00    -0.258 OA
ENDBRANCH  19  23
ENDBRANCH  16  17
ENDBRANCH  14  16
ENDBRANCH  12  14
ENDBRANCH   7  12
ENDBRANCH   3   6
ENDBRANCH   1   2
BRANCH   1  26
ATOM     26  C   UNL A   1      31.403  27.910  26.380  1.00  0.00     0.023 C 
BRANCH  26  27
ATOM     27  C   UNL A   1      31.795  29.144  27.182  1.00  0.00     0.023 C 
BRANCH  27  28
ATOM     28  C   UNL A   1      32.699  30.135  26.453  1.00  0.00     0.116 C 
BRANCH  28  29
ATOM     29  N   UNL A   1      32.583  31.516  26.907  1.00  0.00    -0.352 N 
ATOM     30  C   UNL A   1      33.510  32.256  27.617  1.00  0.00     0.251 C 
ATOM     31  H   UNL A   1      31.742  31.976  26.680  1.00  0.00     0.163 HD
ATOM     32  O   UNL A   1      33.278  33.386  28.001  1.00  0.00    -0.269 OA
BRANCH  30  33
ATOM     33  C   UNL A   1      34.797  31.605  27.948  1.00  0.00     0.039 A 
ATOM     34  C   UNL A   1      35.932  32.399  28.116  1.00  0.00     0.014 A 
ATOM     35  C   UNL A   1      34.829  30.238  28.232  1.00  0.00     0.014 A 
ATOM     36  C   UNL A   1      37.076  31.841  28.688  1.00  0.00     0.010 A 
ATOM     37  C   UNL A   1      35.941  29.705  28.872  1.00  0.00     0.010 A 
ATOM     38  C   UNL A   1      37.063  30.509  29.134  1.00  0.00    -0.014 A 
BRANCH  38  39
ATOM     39  C   UNL A   1      38.184  29.939  29.923  1.00  0.00     0.031 A 
ATOM     40  C   UNL A   1      38.420  30.404  31.331  1.00  0.00     0.074 A 
ATOM     41  C   UNL A   1      39.053  29.094  29.335  1.00  0.00     0.049 A 
ATOM     42  N   UNL A   1      39.425  30.149  32.130  1.00  0.00    -0.248 NA
ATOM     43  C   UNL A   1      37.408  31.304  31.905  1.00  0.00     0.031 C 
ATOM     44  C   UNL A   1      38.965  28.608  27.956  1.00  0.00     0.029 A 
ATOM     45  N   UNL A   1      40.199  28.509  29.817  1.00  0.00    -0.354 N 
ATOM     46  C   UNL A   1      39.180  30.875  33.285  1.00  0.00     0.074 A 
ATOM     47  C   UNL A   1      37.954  31.614  33.071  1.00  0.00     0.031 C 
ATOM     48  C   UNL A   1      39.999  27.788  27.710  1.00  0.00     0.029 A 
ATOM     49  C   UNL A   1      40.847  27.723  28.896  1.00  0.00     0.049 A 
ATOM     50  H   UNL A   1      40.525  28.641  30.737  1.00  0.00     0.167 HD
ATOM     51  C   UNL A   1      39.900  30.904  34.431  1.00  0.00     0.037 A 
ATOM     52  C   UNL A   1      42.005  27.040  28.991  1.00  0.00     0.037 A 
ATOM     53  C   UNL A   1      41.095  30.137  34.659  1.00  0.00     0.049 A 
ATOM     54  C   UNL A   1      42.786  27.093  30.275  1.00  0.00     0.074 A 
ATOM     55  C   UNL A   1      41.848  30.035  35.814  1.00  0.00     0.029 A 
ATOM     56  N   UNL A   1      41.709  29.337  33.706  1.00  0.00    -0.354 N 
ATOM     57  N   UNL A   1      42.511  27.732  31.384  1.00  0.00    -0.248 NA
ATOM     58  C   UNL A   1      44.044  26.333  30.316  1.00  0.00     0.031 C 
ATOM     59  C   UNL A   1      42.938  29.200  35.553  1.00  0.00     0.029 A 
ATOM     60  C   UNL A   1      42.846  28.754  34.244  1.00  0.00     0.049 A 
ATOM     61  H   UNL A   1      41.387  29.203  32.787  1.00  0.00     0.167 HD
ATOM     62  C   UNL A   1      43.546  27.440  32.261  1.00  0.00     0.074 A 
ATOM     63  C   UNL A   1      44.451  26.553  31.559  1.00  0.00     0.031 C 
ATOM     64  C   UNL A   1      43.732  27.871  33.532  1.00  0.00     0.037 A 
BRANCH  51  65
ATOM     65  C   UNL A   1      39.405  31.790  35.534  1.00  0.00     0.064 A 
ATOM     66  C   UNL A   1      38.491  31.326  36.490  1.00  0.00     0.173 A 
ATOM     67  C   UNL A   1      39.873  33.107  35.655  1.00  0.00     0.173 A 
ATOM     68  F   UNL A   1      38.005  30.078  36.410  1.00  0.00    -0.203 F 
ATOM     69  C   UNL A   1      38.041  32.156  37.513  1.00  0.00     0.198 A 
ATOM     70  C   UNL A   1      39.442  33.927  36.694  1.00  0.00     0.198 A 
ATOM     71  F   UNL A   1      40.751  33.597  34.767  1.00  0.00    -0.203 F 
ATOM     72  F   UNL A   1      37.133  31.704  38.390  1.00  0.00    -0.200 F 
ATOM     73  C   UNL A   1      38.521  33.452  37.618  1.00  0.00     0.200 A 
ATOM     74  F   UNL A   1      39.913  35.176  36.801  1.00  0.00    -0.200 F 
ATOM     75  F   UNL A   1      38.092  34.250  38.607  1.00  0.00    -0.200 F 
ENDBRANCH  51  65
BRANCH  52  76
ATOM     76  C   UNL A   1      42.492  26.237  27.841  1.00  0.00     0.064 A 
ATOM     77  C   UNL A   1      43.441  26.761  26.954  1.00  0.00     0.173 A 
ATOM     78  C   UNL A   1      42.016  24.939  27.599  1.00  0.00     0.173 A 
ATOM     79  F   UNL A   1      43.907  28.006  27.132  1.00  0.00    -0.203 F 
ATOM     80  C   UNL A   1      43.886  26.024  25.857  1.00  0.00     0.198 A 
ATOM     81  C   UNL A   1      42.479  24.195  26.516  1.00  0.00     0.198 A 
ATOM     82  F   UNL A   1      41.107  24.393  28.420  1.00  0.00    -0.203 F 
ATOM     83  F   UNL A   1      44.764  26.565  25.002  1.00  0.00    -0.200 F 
ATOM     84  C   UNL A   1      43.409  24.740  25.642  1.00  0.00     0.200 A 
ATOM     85  F   UNL A   1      42.022  22.952  26.316  1.00  0.00    -0.200 F 
ATOM     86  F   UNL A   1      43.837  24.032  24.589  1.00  0.00    -0.200 F 
ENDBRANCH  52  76
BRANCH  64  87
ATOM     87  C   UNL A   1      44.948  27.375  34.254  1.00  0.00     0.064 A 
ATOM     88  C   UNL A   1      46.148  28.100  34.245  1.00  0.00     0.173 A 
ATOM     89  C   UNL A   1      44.895  26.194  35.009  1.00  0.00     0.173 A 
ATOM     90  F   UNL A   1      46.250  29.227  33.523  1.00  0.00    -0.203 F 
ATOM     91  C   UNL A   1      47.257  27.653  34.956  1.00  0.00     0.198 A 
ATOM     92  C   UNL A   1      45.999  25.763  35.738  1.00  0.00     0.198 A 
ATOM     93  F   UNL A   1      43.768  25.469  35.052  1.00  0.00    -0.203 F 
ATOM     94  F   UNL A   1      48.404  28.344  34.909  1.00  0.00    -0.200 F 
ATOM     95  C   UNL A   1      47.179  26.490  35.709  1.00  0.00     0.200 A 
ATOM     96  F   UNL A   1      45.919  24.645  36.473  1.00  0.00    -0.200 F 
ATOM     97  F   UNL A   1      48.245  26.068  36.403  1.00  0.00    -0.200 F 
ENDBRANCH  64  87
ENDBRANCH  38  39
ENDBRANCH  30  33
ENDBRANCH  28  29
ENDBRANCH  27  28
ENDBRANCH  26  27
ENDBRANCH   1  26
TORSDOF 16
ENDMDL
MODEL 2
REMARK VINA RESULT:     -12.5      4.630      8.100
REMARK SMILES C[C@H](Oc1ccccc1[N+](=O)[O-])C(=O)N1CCC[C@H](C(=O)NCCCCNC(=O)c2ccc(-c3c4nc(c(-c5c(F)c(F)c(F)c(F)c5F)c5ccc([nH]5)c(-c5c(F)c(F)c(F)c(F)c5F)c5nc(c(-c6c(F)c(F)c(F)c(F)c6F)c6ccc3[nH]6)C=C5)C=C4)cc2)C1
REMARK SMILES IDX 23 1 22 2 20 3 21 4 19 6 15 7 16 8 93 9 17 10 18 11 13 12
REMARK SMILES IDX 14 13 2 14 1 15 3 16 4 17 5 18 9 19 6 20 8 21 7 22 10 23
REMARK SMILES IDX 11 24 12 25 24 26 25 27 26 28 27 29 28 30 29 32 30 33 31 34
REMARK SMILES IDX 92 35 32 36 91 37 33 38 34 39 35 40 85 41 36 42 90 43 84 44
REMARK SMILES IDX 86 45 37 46 89 47 83 48 82 49 38 51 70 52 50 53 69 54 51 55
REMARK SMILES IDX 54 56 68 57 87 58 52 59 53 60 67 62 88 63 55 64 39 65 40 66
REMARK SMILES IDX 48 67 41 68 42 69 46 70 49 71 43 72 44 73 47 74 45 75 71 76
REMARK SMILES IDX 72 77 80 78 73 79 74 80 78 81 81 82 75 83 76 84 79 85 77 86
REMARK SMILES IDX 56 87 57 88 65 89 58 90 59 91 63 92 66 93 60 94 61 95 64 96
REMARK SMILES IDX 62 97
REMARK H PARENT 22 5 27 31 86 50 54 61
REMARK Flexibility Score: inf
ROOT
ATOM      1  C   UNL A   1      37.349  23.428  25.772  1.00  0.00     0.116 C 
ENDROOT
BRANCH   1   2
ATOM      2  N   UNL A   1      36.116  23.249  26.499  1.00  0.00    -0.356 N 
ATOM      3  C   UNL A   1      34.923  22.727  26.119  1.00  0.00     0.224 C 
ATOM      4  O   UNL A   1      34.069  22.613  27.006  1.00  0.00    -0.275 OA
ATOM      5  H   UNL A   1      36.146  23.558  27.433  1.00  0.00     0.163 HD
BRANCH   3   6
ATOM      6  C   UNL A   1      34.570  22.319  24.681  1.00  0.00     0.098 C 
ATOM      7  N   UNL A   1      32.242  22.873  23.893  1.00  0.00    -0.339 N 
ATOM      8  C   UNL A   1      31.961  21.472  23.600  1.00  0.00     0.119 C 
ATOM      9  C   UNL A   1      33.641  23.284  23.938  1.00  0.00     0.133 C 
ATOM     10  C   UNL A   1      32.757  20.500  24.459  1.00  0.00     0.022 C 
ATOM     11  C   UNL A   1      34.242  20.834  24.514  1.00  0.00     0.017 C 
BRANCH   7  12
ATOM     12  C   UNL A   1      31.188  23.743  24.171  1.00  0.00     0.263 C 
ATOM     13  O   UNL A   1      30.391  24.076  23.288  1.00  0.00    -0.271 OA
BRANCH  12  14
ATOM     14  C   UNL A   1      31.229  24.517  25.522  1.00  0.00     0.259 C 
ATOM     15  C   UNL A   1      30.687  23.493  26.526  1.00  0.00     0.064 C 
BRANCH  14  16
ATOM     16  O   UNL A   1      30.584  25.782  25.427  1.00  0.00    -0.474 OA
BRANCH  16  17
ATOM     17  C   UNL A   1      31.103  27.003  25.719  1.00  0.00     0.197 A 
ATOM     18  C   UNL A   1      31.472  27.449  26.986  1.00  0.00     0.054 A 
ATOM     19  C   UNL A   1      31.219  27.927  24.662  1.00  0.00     0.310 A 
ATOM     20  C   UNL A   1      31.779  28.798  27.219  1.00  0.00     0.004 A 
ATOM     21  C   UNL A   1      31.530  29.279  24.881  1.00  0.00     0.090 A 
ATOM     22  C   UNL A   1      31.778  29.718  26.175  1.00  0.00     0.007 A 
BRANCH  19  23
ATOM     23  N   UNL A   1      31.051  27.499  23.277  1.00  0.00     0.066 N 
ATOM     24  O   UNL A   1      32.034  26.989  22.722  1.00  0.00    -0.258 OA
ATOM     25  O   UNL A   1      29.933  27.630  22.759  1.00  0.00    -0.258 OA
ENDBRANCH  19  23
ENDBRANCH  16  17
ENDBRANCH  14  16
ENDBRANCH  12  14
ENDBRANCH   7  12
ENDBRANCH   3   6
ENDBRANCH   1   2
BRANCH   1  26
ATOM     26  C   UNL A   1      37.652  22.289  24.805  1.00  0.00     0.023 C 
BRANCH  26  27
ATOM     27  C   UNL A   1      38.037  20.981  25.482  1.00  0.00     0.023 C 
BRANCH  27  28
ATOM     28  C   UNL A   1      39.423  20.961  26.123  1.00  0.00     0.116 C 
BRANCH  28  29
ATOM     29  N   UNL A   1      40.132  19.692  26.004  1.00  0.00    -0.352 N 
ATOM     30  C   UNL A   1      41.491  19.466  26.122  1.00  0.00     0.251 C 
ATOM     31  H   UNL A   1      39.575  18.902  25.818  1.00  0.00     0.163 HD
ATOM     32  O   UNL A   1      41.982  18.369  25.939  1.00  0.00    -0.269 OA
BRANCH  30  33
ATOM     33  C   UNL A   1      42.354  20.627  26.432  1.00  0.00     0.039 A 
ATOM     34  C   UNL A   1      42.876  21.381  25.380  1.00  0.00     0.014 A 
ATOM     35  C   UNL A   1      42.510  21.041  27.758  1.00  0.00     0.014 A 
ATOM     36  C   UNL A   1      43.455  22.621  25.652  1.00  0.00     0.010 A 
ATOM     37  C   UNL A   1      43.015  22.308  28.018  1.00  0.00     0.010 A 
ATOM     38  C   UNL A   1      43.465  23.122  26.965  1.00  0.00    -0.014 A 
BRANCH  38  39
ATOM     39  C   UNL A   1      43.888  24.513  27.266  1.00  0.00     0.031 A 
ATOM     40  C   UNL A   1      42.881  25.515  27.750  1.00  0.00     0.074 A 
ATOM     41  C   UNL A   1      45.150  24.900  26.992  1.00  0.00     0.049 A 
ATOM     42  N   UNL A   1      43.012  26.806  27.921  1.00  0.00    -0.248 NA
ATOM     43  C   UNL A   1      41.535  25.001  28.050  1.00  0.00     0.031 C 
ATOM     44  C   UNL A   1      46.210  24.037  26.468  1.00  0.00     0.029 A 
ATOM     45  N   UNL A   1      45.751  26.132  27.098  1.00  0.00    -0.354 N 
ATOM     46  C   UNL A   1      41.764  27.260  28.321  1.00  0.00     0.074 A 
ATOM     47  C   UNL A   1      40.878  26.117  28.327  1.00  0.00     0.031 C 
ATOM     48  C   UNL A   1      47.331  24.758  26.314  1.00  0.00     0.029 A 
ATOM     49  C   UNL A   1      47.062  26.142  26.687  1.00  0.00     0.049 A 
ATOM     50  H   UNL A   1      45.286  26.931  27.437  1.00  0.00     0.167 HD
ATOM     51  C   UNL A   1      41.398  28.515  28.673  1.00  0.00     0.037 A 
ATOM     52  C   UNL A   1      47.942  27.159  26.604  1.00  0.00     0.037 A 
ATOM     53  C   UNL A   1      42.290  29.642  28.707  1.00  0.00     0.049 A 
ATOM     54  C   UNL A   1      47.507  28.543  26.999  1.00  0.00     0.074 A 
ATOM     55  C   UNL A   1      42.033  30.933  29.129  1.00  0.00     0.029 A 
ATOM     56  N   UNL A   1      43.616  29.608  28.301  1.00  0.00    -0.354 N 
ATOM     57  N   UNL A   1      46.342  28.949  27.437  1.00  0.00    -0.248 NA
ATOM     58  C   UNL A   1      48.510  29.612  26.881  1.00  0.00     0.031 C 
ATOM     59  C   UNL A   1      43.194  31.692  28.949  1.00  0.00     0.029 A 
ATOM     60  C   UNL A   1      44.184  30.864  28.444  1.00  0.00     0.049 A 
ATOM     61  H   UNL A   1      44.084  28.812  27.962  1.00  0.00     0.167 HD
ATOM     62  C   UNL A   1      46.473  30.312  27.665  1.00  0.00     0.074 A 
ATOM     63  C   UNL A   1      47.837  30.663  27.329  1.00  0.00     0.031 C 
ATOM     64  C   UNL A   1      45.545  31.193  28.109  1.00  0.00     0.037 A 
BRANCH  51  65
ATOM     65  C   UNL A   1      39.967  28.731  29.063  1.00  0.00     0.064 A 
ATOM     66  C   UNL A   1      39.535  28.557  30.386  1.00  0.00     0.173 A 
ATOM     67  C   UNL A   1      39.024  29.145  28.111  1.00  0.00     0.173 A 
ATOM     68  F   UNL A   1      40.397  28.150  31.329  1.00  0.00    -0.203 F 
ATOM     69  C   UNL A   1      38.204  28.765  30.737  1.00  0.00     0.198 A 
ATOM     70  C   UNL A   1      37.699  29.378  28.471  1.00  0.00     0.198 A 
ATOM     71  F   UNL A   1      39.388  29.328  26.833  1.00  0.00    -0.203 F 
ATOM     72  F   UNL A   1      37.805  28.551  31.999  1.00  0.00    -0.200 F 
ATOM     73  C   UNL A   1      37.290  29.181  29.782  1.00  0.00     0.200 A 
ATOM     74  F   UNL A   1      36.817  29.789  27.550  1.00  0.00    -0.200 F 
ATOM     75  F   UNL A   1      36.009  29.386  30.123  1.00  0.00    -0.200 F 
ENDBRANCH  51  65
BRANCH  52  76
ATOM     76  C   UNL A   1      49.330  26.906  26.139  1.00  0.00     0.064 A 
ATOM     77  C   UNL A   1      49.654  26.993  24.778  1.00  0.00     0.173 A 
ATOM     78  C   UNL A   1      50.354  26.565  27.035  1.00  0.00     0.173 A 
ATOM     79  F   UNL A   1      48.703  27.293  23.881  1.00  0.00    -0.203 F 
ATOM     80  C   UNL A   1      50.947  26.733  24.328  1.00  0.00     0.198 A 
ATOM     81  C   UNL A   1      51.651  26.328  26.586  1.00  0.00     0.198 A 
ATOM     82  F   UNL A   1      50.093  26.469  28.347  1.00  0.00    -0.203 F 
ATOM     83  F   UNL A   1      51.220  26.784  23.017  1.00  0.00    -0.200 F 
ATOM     84  C   UNL A   1      51.946  26.406  25.232  1.00  0.00     0.200 A 
ATOM     85  F   UNL A   1      52.616  26.021  27.464  1.00  0.00    -0.200 F 
ATOM     86  F   UNL A   1      53.189  26.157  24.800  1.00  0.00    -0.200 F 
ENDBRANCH  52  76
BRANCH  64  87
ATOM     87  C   UNL A   1      45.976  32.619  28.277  1.00  0.00     0.064 A 
ATOM     88  C   UNL A   1      45.818  33.555  27.245  1.00  0.00     0.173 A 
ATOM     89  C   UNL A   1      46.498  33.065  29.500  1.00  0.00     0.173 A 
ATOM     90  F   UNL A   1      45.339  33.169  26.052  1.00  0.00    -0.203 F 
ATOM     91  C   UNL A   1      46.181  34.886  27.427  1.00  0.00     0.198 A 
ATOM     92  C   UNL A   1      46.838  34.401  29.686  1.00  0.00     0.198 A 
ATOM     93  F   UNL A   1      46.664  32.207  30.517  1.00  0.00    -0.203 F 
ATOM     94  F   UNL A   1      46.052  35.758  26.418  1.00  0.00    -0.200 F 
ATOM     95  C   UNL A   1      46.682  35.310  28.650  1.00  0.00     0.200 A 
ATOM     96  F   UNL A   1      47.313  34.812  30.871  1.00  0.00    -0.200 F 
ATOM     97  F   UNL A   1      47.020  36.594  28.828  1.00  0.00    -0.200 F 
ENDBRANCH  64  87
ENDBRANCH  38  39
ENDBRANCH  30  33
ENDBRANCH  28  29
ENDBRANCH  27  28
ENDBRANCH  26  27
ENDBRANCH   1  26
TORSDOF 16
ENDMDL
MODEL 3
REMARK VINA RESULT:     -12.4      1.971      7.902
REMARK SMILES C[C@H](Oc1ccccc1[N+](=O)[O-])C(=O)N1CCC[C@H](C(=O)NCCCCNC(=O)c2ccc(-c3c4nc(c(-c5c(F)c(F)c(F)c(F)c5F)c5ccc([nH]5)c(-c5c(F)c(F)c(F)c(F)c5F)c5nc(c(-c6c(F)c(F)c(F)c(F)c6F)c6ccc3[nH]6)C=C5)C=C4)cc2)C1
REMARK SMILES IDX 23 1 22 2 20 3 21 4 19 6 15 7 16 8 93 9 17 10 18 11 13 12
REMARK SMILES IDX 14 13 2 14 1 15 3 16 4 17 5 18 9 19 6 20 8 21 7 22 10 23
REMARK SMILES IDX 11 24 12 25 24 26 25 27 26 28 27 29 28 30 29 32 30 33 31 34
REMARK SMILES IDX 92 35 32 36 91 37 33 38 34 39 35 40 85 41 36 42 90 43 84 44
REMARK SMILES IDX 86 45 37 46 89 47 83 48 82 49 38 51 70 52 50 53 69 54 51 55
REMARK SMILES IDX 54 56 68 57 87 58 52 59 53 60 67 62 88 63 55 64 39 65 40 66
REMARK SMILES IDX 48 67 41 68 42 69 46 70 49 71 43 72 44 73 47 74 45 75 71 76
REMARK SMILES IDX 72 77 80 78 73 79 74 80 78 81 81 82 75 83 76 84 79 85 77 86
REMARK SMILES IDX 56 87 57 88 65 89 58 90 59 91 63 92 66 93 60 94 61 95 64 96
REMARK SMILES IDX 62 97
REMARK H PARENT 22 5 27 31 86 50 54 61
REMARK Flexibility Score: inf
ROOT
ATOM      1  C   UNL A   1      34.164  29.418  27.388  1.00  0.00     0.116 C 
ENDROOT
BRANCH   1   2
ATOM      2  N   UNL A   1      34.265  28.757  26.110  1.00  0.00    -0.356 N 
ATOM      3  C   UNL A   1      33.308  28.344  25.240  1.00  0.00     0.224 C 
ATOM      4  O   UNL A   1      33.710  27.890  24.162  1.00  0.00    -0.275 OA
ATOM      5  H   UNL A   1      35.187  28.573  25.818  1.00  0.00     0.163 HD
BRANCH   3   6
ATOM      6  C   UNL A   1      31.800  28.371  25.529  1.00  0.00     0.098 C 
ATOM      7  N   UNL A   1      30.656  26.137  25.749  1.00  0.00    -0.339 N 
ATOM      8  C   UNL A   1      29.731  26.456  24.667  1.00  0.00     0.119 C 
ATOM      9  C   UNL A   1      31.290  27.253  26.443  1.00  0.00     0.133 C 
ATOM     10  C   UNL A   1      30.298  27.439  23.653  1.00  0.00     0.022 C 
ATOM     11  C   UNL A   1      30.934  28.661  24.302  1.00  0.00     0.017 C 
BRANCH   7  12
ATOM     12  C   UNL A   1      30.942  24.804  26.040  1.00  0.00     0.263 C 
ATOM     13  O   UNL A   1      30.836  24.371  27.192  1.00  0.00    -0.271 OA
BRANCH  12  14
ATOM     14  C   UNL A   1      31.687  23.972  24.956  1.00  0.00     0.259 C 
ATOM     15  C   UNL A   1      31.751  22.571  25.574  1.00  0.00     0.064 C 
BRANCH  14  16
ATOM     16  O   UNL A   1      32.904  24.594  24.556  1.00  0.00    -0.474 OA
BRANCH  16  17
ATOM     17  C   UNL A   1      34.149  24.049  24.541  1.00  0.00     0.197 A 
ATOM     18  C   UNL A   1      35.079  24.115  25.574  1.00  0.00     0.054 A 
ATOM     19  C   UNL A   1      34.564  23.417  23.351  1.00  0.00     0.310 A 
ATOM     20  C   UNL A   1      36.412  23.725  25.376  1.00  0.00     0.004 A 
ATOM     21  C   UNL A   1      35.894  23.018  23.142  1.00  0.00     0.090 A 
ATOM     22  C   UNL A   1      36.827  23.206  24.154  1.00  0.00     0.007 A 
BRANCH  19  23
ATOM     23  N   UNL A   1      33.605  23.121  22.291  1.00  0.00     0.066 N 
ATOM     24  O   UNL A   1      33.560  23.911  21.338  1.00  0.00    -0.258 OA
ATOM     25  O   UNL A   1      32.933  22.084  22.388  1.00  0.00    -0.258 OA
ENDBRANCH  19  23
ENDBRANCH  16  17
ENDBRANCH  14  16
ENDBRANCH  12  14
ENDBRANCH   7  12
ENDBRANCH   3   6
ENDBRANCH   1   2
BRANCH   1  26
ATOM     26  C   UNL A   1      35.224  30.495  27.598  1.00  0.00     0.023 C 
BRANCH  26  27
ATOM     27  C   UNL A   1      34.692  31.919  27.514  1.00  0.00     0.023 C 
BRANCH  27  28
ATOM     28  C   UNL A   1      33.239  32.099  27.948  1.00  0.00     0.116 C 
BRANCH  28  29
ATOM     29  N   UNL A   1      32.757  33.474  27.908  1.00  0.00    -0.352 N 
ATOM     30  C   UNL A   1      33.235  34.562  28.618  1.00  0.00     0.251 C 
ATOM     31  H   UNL A   1      32.001  33.650  27.303  1.00  0.00     0.163 HD
ATOM     32  O   UNL A   1      32.710  35.656  28.554  1.00  0.00    -0.269 OA
BRANCH  30  33
ATOM     33  C   UNL A   1      34.392  34.339  29.513  1.00  0.00     0.039 A 
ATOM     34  C   UNL A   1      34.190  33.679  30.726  1.00  0.00     0.014 A 
ATOM     35  C   UNL A   1      35.680  34.655  29.073  1.00  0.00     0.014 A 
ATOM     36  C   UNL A   1      35.296  33.223  31.445  1.00  0.00     0.010 A 
ATOM     37  C   UNL A   1      36.774  34.133  29.751  1.00  0.00     0.010 A 
ATOM     38  C   UNL A   1      36.591  33.386  30.926  1.00  0.00    -0.014 A 
BRANCH  38  39
ATOM     39  C   UNL A   1      37.771  32.745  31.559  1.00  0.00     0.031 A 
ATOM     40  C   UNL A   1      38.426  31.566  30.899  1.00  0.00     0.074 A 
ATOM     41  C   UNL A   1      38.177  33.149  32.779  1.00  0.00     0.049 A 
ATOM     42  N   UNL A   1      39.363  30.775  31.358  1.00  0.00    -0.248 NA
ATOM     43  C   UNL A   1      37.940  31.210  29.558  1.00  0.00     0.031 C 
ATOM     44  C   UNL A   1      37.589  34.247  33.549  1.00  0.00     0.029 A 
ATOM     45  N   UNL A   1      39.170  32.668  33.597  1.00  0.00    -0.354 N 
ATOM     46  C   UNL A   1      39.557  29.816  30.375  1.00  0.00     0.074 A 
ATOM     47  C   UNL A   1      38.614  30.096  29.314  1.00  0.00     0.031 C 
ATOM     48  C   UNL A   1      38.241  34.365  34.717  1.00  0.00     0.029 A 
ATOM     49  C   UNL A   1      39.263  33.328  34.798  1.00  0.00     0.049 A 
ATOM     50  H   UNL A   1      39.759  31.919  33.346  1.00  0.00     0.167 HD
ATOM     51  C   UNL A   1      40.457  28.805  30.351  1.00  0.00     0.037 A 
ATOM     52  C   UNL A   1      40.072  33.109  35.854  1.00  0.00     0.037 A 
ATOM     53  C   UNL A   1      41.422  28.552  31.387  1.00  0.00     0.049 A 
ATOM     54  C   UNL A   1      41.060  31.977  35.801  1.00  0.00     0.074 A 
ATOM     55  C   UNL A   1      42.429  27.605  31.416  1.00  0.00     0.029 A 
ATOM     56  N   UNL A   1      41.498  29.256  32.581  1.00  0.00    -0.354 N 
ATOM     57  N   UNL A   1      41.280  31.115  34.840  1.00  0.00    -0.248 NA
ATOM     58  C   UNL A   1      41.910  31.784  36.985  1.00  0.00     0.031 C 
ATOM     59  C   UNL A   1      43.095  27.712  32.641  1.00  0.00     0.029 A 
ATOM     60  C   UNL A   1      42.523  28.748  33.362  1.00  0.00     0.049 A 
ATOM     61  H   UNL A   1      40.911  30.004  32.834  1.00  0.00     0.167 HD
ATOM     62  C   UNL A   1      42.301  30.291  35.291  1.00  0.00     0.074 A 
ATOM     63  C   UNL A   1      42.669  30.764  36.609  1.00  0.00     0.031 C 
ATOM     64  C   UNL A   1      42.878  29.235  34.669  1.00  0.00     0.037 A 
BRANCH  51  65
ATOM     65  C   UNL A   1      40.447  27.901  29.156  1.00  0.00     0.064 A 
ATOM     66  C   UNL A   1      39.637  26.757  29.111  1.00  0.00     0.173 A 
ATOM     67  C   UNL A   1      41.233  28.197  28.032  1.00  0.00     0.173 A 
ATOM     68  F   UNL A   1      38.878  26.426  30.166  1.00  0.00    -0.203 F 
ATOM     69  C   UNL A   1      39.633  25.927  27.994  1.00  0.00     0.198 A 
ATOM     70  C   UNL A   1      41.206  27.378  26.906  1.00  0.00     0.198 A 
ATOM     71  F   UNL A   1      42.023  29.281  28.025  1.00  0.00    -0.203 F 
ATOM     72  F   UNL A   1      38.883  24.815  27.990  1.00  0.00    -0.200 F 
ATOM     73  C   UNL A   1      40.411  26.241  26.891  1.00  0.00     0.200 A 
ATOM     74  F   UNL A   1      41.952  27.687  25.837  1.00  0.00    -0.200 F 
ATOM     75  F   UNL A   1      40.402  25.443  25.813  1.00  0.00    -0.200 F 
ENDBRANCH  51  65
BRANCH  52  76
ATOM     76  C   UNL A   1      39.991  33.988  37.048  1.00  0.00     0.064 A 
ATOM     77  C   UNL A   1      39.102  33.696  38.091  1.00  0.00     0.173 A 
ATOM     78  C   UNL A   1      40.787  35.137  37.170  1.00  0.00     0.173 A 
ATOM     79  F   UNL A   1      38.303  32.621  38.008  1.00  0.00    -0.203 F 
ATOM     80  C   UNL A   1      38.999  34.528  39.205  1.00  0.00     0.198 A 
ATOM     81  C   UNL A   1      40.701  35.955  38.294  1.00  0.00     0.198 A 
ATOM     82  F   UNL A   1      41.654  35.458  36.198  1.00  0.00    -0.203 F 
ATOM     83  F   UNL A   1      38.112  34.247  40.169  1.00  0.00    -0.200 F 
ATOM     84  C   UNL A   1      39.802  35.653  39.308  1.00  0.00     0.200 A 
ATOM     85  F   UNL A   1      41.484  37.036  38.395  1.00  0.00    -0.200 F 
ATOM     86  F   UNL A   1      39.705  36.452  40.378  1.00  0.00    -0.200 F 
ENDBRANCH  52  76
BRANCH  64  87
ATOM     87  C   UNL A   1      43.983  28.529  35.397  1.00  0.00     0.064 A 
ATOM     88  C   UNL A   1      45.321  28.916  35.243  1.00  0.00     0.173 A 
ATOM     89  C   UNL A   1      43.693  27.496  36.300  1.00  0.00     0.173 A 
ATOM     90  F   UNL A   1      45.647  29.888  34.377  1.00  0.00    -0.203 F 
ATOM     91  C   UNL A   1      46.333  28.283  35.958  1.00  0.00     0.198 A 
ATOM     92  C   UNL A   1      44.705  26.882  37.031  1.00  0.00     0.198 A 
ATOM     93  F   UNL A   1      42.426  27.095  36.484  1.00  0.00    -0.203 F 
ATOM     94  F   UNL A   1      47.610  28.646  35.773  1.00  0.00    -0.200 F 
ATOM     95  C   UNL A   1      46.024  27.273  36.858  1.00  0.00     0.200 A 
ATOM     96  F   UNL A   1      44.404  25.913  37.907  1.00  0.00    -0.200 F 
ATOM     97  F   UNL A   1      46.999  26.673  37.554  1.00  0.00    -0.200 F 
ENDBRANCH  64  87
ENDBRANCH  38  39
ENDBRANCH  30  33
ENDBRANCH  28  29
ENDBRANCH  27  28
ENDBRANCH  26  27
ENDBRANCH   1  26
TORSDOF 16
ENDMDL
