MODEL 1
REMARK VINA RESULT:     -13.4      0.000      0.000
REMARK SMILES CCc1cc(C(=O)c2[nH]c3cc(Cl)ccc3c2CC(=O)NCCCCNC(=O)c2ccc(-c3c4nc(c(-c5c(F)c(F)c(F)c(F)c5F)c5ccc([nH]5)c(-c5c(F)c(F)c(F)c(F)c5F)c5nc(c(-c6c(F)c(F)c(F)c(F)c6F)c6ccc3[nH]6)C=C5)C=C4)cc2)ncc1Cl
REMARK SMILES IDX 22 1 21 2 19 3 20 4 18 6 17 7 8 8 9 9 10 10 16 12 11 13
REMARK SMILES IDX 15 14 12 15 14 16 13 17 6 18 7 19 5 20 3 21 4 22 94 23 93 24
REMARK SMILES IDX 95 25 92 26 2 27 1 28 23 29 24 30 25 31 26 32 27 33 28 35
REMARK SMILES IDX 29 36 30 37 91 38 31 39 90 40 32 41 33 42 34 43 84 44 35 45
REMARK SMILES IDX 89 46 83 47 85 48 36 49 88 50 82 51 81 52 37 54 69 55 49 56
REMARK SMILES IDX 68 57 50 58 53 59 67 60 86 61 51 62 52 63 66 65 87 66 54 67
REMARK SMILES IDX 38 68 39 69 47 70 40 71 41 72 45 73 48 74 42 75 43 76 46 77
REMARK SMILES IDX 44 78 70 79 71 80 79 81 72 82 73 83 77 84 80 85 74 86 75 87
REMARK SMILES IDX 78 88 76 89 55 90 56 91 64 92 57 93 58 94 62 95 65 96 59 97
REMARK SMILES IDX 60 98 63 99 61 100
REMARK H PARENT 21 5 9 11 26 34 85 53 53 64
REMARK Flexibility Score: inf
ROOT
ATOM      1  C   UNL A   1      32.346  29.899  26.832  1.00  0.00     0.116 C 
ENDROOT
BRANCH   1   2
ATOM      2  N   UNL A   1      31.695  28.616  26.988  1.00  0.00    -0.356 N 
ATOM      3  C   UNL A   1      32.175  27.364  26.729  1.00  0.00     0.224 C 
ATOM      4  O   UNL A   1      31.483  26.398  27.064  1.00  0.00    -0.275 OA
ATOM      5  H   UNL A   1      30.773  28.651  27.331  1.00  0.00     0.163 HD
BRANCH   3   6
ATOM      6  C   UNL A   1      33.570  27.159  26.157  1.00  0.00     0.138 C 
BRANCH   6   7
ATOM      7  C   UNL A   1      33.668  26.120  25.074  1.00  0.00    -0.002 A 
ATOM      8  C   UNL A   1      33.393  26.279  23.719  1.00  0.00     0.093 A 
ATOM      9  N   UNL A   1      33.721  25.101  23.090  1.00  0.00    -0.351 N 
ATOM     10  C   UNL A   1      34.090  24.147  24.006  1.00  0.00     0.048 A 
ATOM     11  H   UNL A   1      33.696  24.961  22.116  1.00  0.00     0.167 HD
ATOM     12  C   UNL A   1      34.048  24.747  25.264  1.00  0.00     0.004 A 
ATOM     13  C   UNL A   1      34.478  22.816  23.810  1.00  0.00     0.047 A 
ATOM     14  C   UNL A   1      34.397  23.969  26.389  1.00  0.00     0.012 A 
ATOM     15  C   UNL A   1      34.827  22.075  24.942  1.00  0.00     0.043 A 
ATOM     16  C   UNL A   1      34.787  22.635  26.215  1.00  0.00     0.021 A 
ATOM     17  Cl  UNL A   1      35.321  20.436  24.754  1.00  0.00    -0.084 Cl
BRANCH   8  18
ATOM     18  C   UNL A   1      32.960  27.462  22.995  1.00  0.00     0.227 C 
ATOM     19  O   UNL A   1      33.760  28.129  22.350  1.00  0.00    -0.285 OA
BRANCH  18  20
ATOM     20  C   UNL A   1      31.490  27.821  23.010  1.00  0.00     0.113 A 
ATOM     21  C   UNL A   1      29.644  29.366  22.689  1.00  0.00    -0.026 A 
ATOM     22  C   UNL A   1      31.022  29.079  22.623  1.00  0.00     0.037 A 
ATOM     23  C   UNL A   1      28.782  28.350  23.116  1.00  0.00     0.062 A 
ATOM     24  C   UNL A   1      29.330  27.127  23.478  1.00  0.00     0.132 A 
ATOM     25  Cl  UNL A   1      27.073  28.550  23.201  1.00  0.00    -0.082 Cl
ATOM     26  N   UNL A   1      30.654  26.847  23.449  1.00  0.00    -0.251 NA
BRANCH  21  27
ATOM     27  C   UNL A   1      29.166  30.751  22.322  1.00  0.00     0.034 C 
ATOM     28  C   UNL A   1      28.780  31.577  23.543  1.00  0.00     0.009 C 
ENDBRANCH  21  27
ENDBRANCH  18  20
ENDBRANCH   8  18
ENDBRANCH   6   7
ENDBRANCH   3   6
ENDBRANCH   1   2
BRANCH   1  29
ATOM     29  C   UNL A   1      31.550  30.869  25.960  1.00  0.00     0.023 C 
BRANCH  29  30
ATOM     30  C   UNL A   1      31.328  32.261  26.556  1.00  0.00     0.023 C 
BRANCH  30  31
ATOM     31  C   UNL A   1      32.517  32.861  27.300  1.00  0.00     0.116 C 
BRANCH  31  32
ATOM     32  N   UNL A   1      32.326  34.254  27.669  1.00  0.00    -0.352 N 
ATOM     33  C   UNL A   1      33.005  35.008  28.596  1.00  0.00     0.251 C 
ATOM     34  H   UNL A   1      31.608  34.725  27.185  1.00  0.00     0.163 HD
ATOM     35  O   UNL A   1      32.650  36.155  28.839  1.00  0.00    -0.269 OA
BRANCH  33  36
ATOM     36  C   UNL A   1      34.142  34.420  29.336  1.00  0.00     0.039 A 
ATOM     37  C   UNL A   1      33.880  33.735  30.527  1.00  0.00     0.014 A 
ATOM     38  C   UNL A   1      35.453  34.533  28.865  1.00  0.00     0.014 A 
ATOM     39  C   UNL A   1      34.918  33.090  31.201  1.00  0.00     0.010 A 
ATOM     40  C   UNL A   1      36.483  33.857  29.516  1.00  0.00     0.010 A 
ATOM     41  C   UNL A   1      36.220  33.115  30.678  1.00  0.00    -0.014 A 
BRANCH  41  42
ATOM     42  C   UNL A   1      37.316  32.339  31.302  1.00  0.00     0.031 A 
ATOM     43  C   UNL A   1      37.830  32.709  32.660  1.00  0.00     0.074 A 
ATOM     44  C   UNL A   1      37.901  31.347  30.604  1.00  0.00     0.049 A 
ATOM     45  N   UNL A   1      38.872  32.246  33.304  1.00  0.00    -0.248 NA
ATOM     46  C   UNL A   1      37.085  33.749  33.385  1.00  0.00     0.031 C 
ATOM     47  C   UNL A   1      37.504  30.907  29.266  1.00  0.00     0.029 A 
ATOM     48  N   UNL A   1      38.969  30.545  30.918  1.00  0.00    -0.354 N 
ATOM     49  C   UNL A   1      38.919  32.950  34.499  1.00  0.00     0.074 A 
ATOM     50  C   UNL A   1      37.811  33.882  34.487  1.00  0.00     0.031 C 
ATOM     51  C   UNL A   1      38.317  29.913  28.873  1.00  0.00     0.029 A 
ATOM     52  C   UNL A   1      39.310  29.670  29.915  1.00  0.00     0.049 A 
ATOM     53  H   UNL A   1      39.445  30.592  31.778  1.00  0.00     0.167 HD
ATOM     54  C   UNL A   1      39.804  32.823  35.515  1.00  0.00     0.037 A 
ATOM     55  C   UNL A   1      40.323  28.787  29.839  1.00  0.00     0.037 A 
ATOM     56  C   UNL A   1      40.892  31.883  35.540  1.00  0.00     0.049 A 
ATOM     57  C   UNL A   1      41.291  28.669  30.980  1.00  0.00     0.074 A 
ATOM     58  C   UNL A   1      41.823  31.663  36.541  1.00  0.00     0.029 A 
ATOM     59  N   UNL A   1      41.191  30.999  34.515  1.00  0.00    -0.354 N 
ATOM     60  N   UNL A   1      41.322  29.336  32.107  1.00  0.00    -0.248 NA
ATOM     61  C   UNL A   1      42.370  27.683  30.833  1.00  0.00     0.031 C 
ATOM     62  C   UNL A   1      42.696  30.655  36.114  1.00  0.00     0.029 A 
ATOM     63  C   UNL A   1      42.296  30.235  34.857  1.00  0.00     0.049 A 
ATOM     64  H   UNL A   1      40.693  30.925  33.669  1.00  0.00     0.167 HD
ATOM     65  C   UNL A   1      42.413  28.844  32.808  1.00  0.00     0.074 A 
ATOM     66  C   UNL A   1      43.015  27.816  31.984  1.00  0.00     0.031 C 
ATOM     67  C   UNL A   1      42.877  29.216  34.025  1.00  0.00     0.037 A 
BRANCH  54  68
ATOM     68  C   UNL A   1      39.630  33.728  36.693  1.00  0.00     0.064 A 
ATOM     69  C   UNL A   1      40.220  35.000  36.724  1.00  0.00     0.173 A 
ATOM     70  C   UNL A   1      38.835  33.340  37.780  1.00  0.00     0.173 A 
ATOM     71  F   UNL A   1      41.000  35.406  35.711  1.00  0.00    -0.203 F 
ATOM     72  C   UNL A   1      40.028  35.848  37.811  1.00  0.00     0.198 A 
ATOM     73  C   UNL A   1      38.633  34.197  38.858  1.00  0.00     0.198 A 
ATOM     74  F   UNL A   1      38.251  32.132  37.793  1.00  0.00    -0.203 F 
ATOM     75  F   UNL A   1      40.621  37.050  37.833  1.00  0.00    -0.200 F 
ATOM     76  C   UNL A   1      39.231  35.448  38.874  1.00  0.00     0.200 A 
ATOM     77  F   UNL A   1      37.860  33.812  39.883  1.00  0.00    -0.200 F 
ATOM     78  F   UNL A   1      39.044  36.268  39.917  1.00  0.00    -0.200 F 
ENDBRANCH  54  68
BRANCH  55  79
ATOM     79  C   UNL A   1      40.473  27.945  28.630  1.00  0.00     0.064 A 
ATOM     80  C   UNL A   1      41.242  28.384  27.544  1.00  0.00     0.173 A 
ATOM     81  C   UNL A   1      39.857  26.689  28.536  1.00  0.00     0.173 A 
ATOM     82  F   UNL A   1      41.830  29.589  27.585  1.00  0.00    -0.203 F 
ATOM     83  C   UNL A   1      41.382  27.601  26.401  1.00  0.00     0.198 A 
ATOM     84  C   UNL A   1      40.011  25.900  27.399  1.00  0.00     0.198 A 
ATOM     85  F   UNL A   1      39.112  26.230  29.551  1.00  0.00    -0.203 F 
ATOM     86  F   UNL A   1      42.097  28.055  25.363  1.00  0.00    -0.200 F 
ATOM     87  C   UNL A   1      40.769  26.358  26.331  1.00  0.00     0.200 A 
ATOM     88  F   UNL A   1      39.422  24.698  27.335  1.00  0.00    -0.200 F 
ATOM     89  F   UNL A   1      40.904  25.605  25.232  1.00  0.00    -0.200 F 
ENDBRANCH  55  79
BRANCH  67  90
ATOM     90  C   UNL A   1      44.081  28.496  34.542  1.00  0.00     0.064 A 
ATOM     91  C   UNL A   1      43.957  27.298  35.258  1.00  0.00     0.173 A 
ATOM     92  C   UNL A   1      45.368  28.989  34.291  1.00  0.00     0.173 A 
ATOM     93  F   UNL A   1      42.742  26.799  35.535  1.00  0.00    -0.203 F 
ATOM     94  C   UNL A   1      45.084  26.620  35.714  1.00  0.00     0.198 A 
ATOM     95  C   UNL A   1      46.494  28.303  34.736  1.00  0.00     0.198 A 
ATOM     96  F   UNL A   1      45.533  30.134  33.611  1.00  0.00    -0.203 F 
ATOM     97  F   UNL A   1      44.945  25.489  36.418  1.00  0.00    -0.200 F 
ATOM     98  C   UNL A   1      46.351  27.121  35.449  1.00  0.00     0.200 A 
ATOM     99  F   UNL A   1      47.718  28.786  34.480  1.00  0.00    -0.200 F 
ATOM    100  F   UNL A   1      47.436  26.467  35.888  1.00  0.00    -0.200 F 
ENDBRANCH  67  90
ENDBRANCH  41  42
ENDBRANCH  33  36
ENDBRANCH  31  32
ENDBRANCH  30  31
ENDBRANCH  29  30
ENDBRANCH   1  29
TORSDOF 15
ENDMDL
MODEL 2
REMARK VINA RESULT:     -13.2      0.728      7.259
REMARK SMILES CCc1cc(C(=O)c2[nH]c3cc(Cl)ccc3c2CC(=O)NCCCCNC(=O)c2ccc(-c3c4nc(c(-c5c(F)c(F)c(F)c(F)c5F)c5ccc([nH]5)c(-c5c(F)c(F)c(F)c(F)c5F)c5nc(c(-c6c(F)c(F)c(F)c(F)c6F)c6ccc3[nH]6)C=C5)C=C4)cc2)ncc1Cl
REMARK SMILES IDX 22 1 21 2 19 3 20 4 18 6 17 7 8 8 9 9 10 10 16 12 11 13
REMARK SMILES IDX 15 14 12 15 14 16 13 17 6 18 7 19 5 20 3 21 4 22 94 23 93 24
REMARK SMILES IDX 95 25 92 26 2 27 1 28 23 29 24 30 25 31 26 32 27 33 28 35
REMARK SMILES IDX 29 36 30 37 91 38 31 39 90 40 32 41 33 42 34 43 84 44 35 45
REMARK SMILES IDX 89 46 83 47 85 48 36 49 88 50 82 51 81 52 37 54 69 55 49 56
REMARK SMILES IDX 68 57 50 58 53 59 67 60 86 61 51 62 52 63 66 65 87 66 54 67
REMARK SMILES IDX 38 68 39 69 47 70 40 71 41 72 45 73 48 74 42 75 43 76 46 77
REMARK SMILES IDX 44 78 70 79 71 80 79 81 72 82 73 83 77 84 80 85 74 86 75 87
REMARK SMILES IDX 78 88 76 89 55 90 56 91 64 92 57 93 58 94 62 95 65 96 59 97
REMARK SMILES IDX 60 98 63 99 61 100
REMARK H PARENT 21 5 9 11 26 34 85 53 53 64
REMARK Flexibility Score: inf
ROOT
ATOM      1  C   UNL A   1      31.780  29.326  25.965  1.00  0.00     0.116 C 
ENDROOT
BRANCH   1   2
ATOM      2  N   UNL A   1      31.350  28.003  26.363  1.00  0.00    -0.356 N 
ATOM      3  C   UNL A   1      32.045  26.827  26.357  1.00  0.00     0.224 C 
ATOM      4  O   UNL A   1      31.512  25.838  26.869  1.00  0.00    -0.275 OA
ATOM      5  H   UNL A   1      30.421  27.941  26.686  1.00  0.00     0.163 HD
BRANCH   3   6
ATOM      6  C   UNL A   1      33.476  26.762  25.846  1.00  0.00     0.138 C 
BRANCH   6   7
ATOM      7  C   UNL A   1      33.746  25.674  24.844  1.00  0.00    -0.002 A 
ATOM      8  C   UNL A   1      33.536  25.717  23.468  1.00  0.00     0.093 A 
ATOM      9  N   UNL A   1      34.023  24.544  22.940  1.00  0.00    -0.351 N 
ATOM     10  C   UNL A   1      34.435  23.695  23.938  1.00  0.00     0.048 A 
ATOM     11  H   UNL A   1      34.070  24.341  21.978  1.00  0.00     0.167 HD
ATOM     12  C   UNL A   1      34.256  24.365  25.147  1.00  0.00     0.004 A 
ATOM     13  C   UNL A   1      34.971  22.404  23.854  1.00  0.00     0.047 A 
ATOM     14  C   UNL A   1      34.617  23.701  26.340  1.00  0.00     0.012 A 
ATOM     15  C   UNL A   1      35.327  21.778  25.051  1.00  0.00     0.043 A 
ATOM     16  C   UNL A   1      35.153  22.409  26.279  1.00  0.00     0.021 A 
ATOM     17  Cl  UNL A   1      36.000  20.193  25.002  1.00  0.00    -0.084 Cl
BRANCH   8  18
ATOM     18  C   UNL A   1      33.027  26.798  22.643  1.00  0.00     0.227 C 
ATOM     19  O   UNL A   1      33.734  27.324  21.791  1.00  0.00    -0.285 OA
BRANCH  18  20
ATOM     20  C   UNL A   1      31.586  27.225  22.820  1.00  0.00     0.113 A 
ATOM     21  C   UNL A   1      29.789  28.854  22.701  1.00  0.00    -0.026 A 
ATOM     22  C   UNL A   1      31.135  28.503  22.484  1.00  0.00     0.037 A 
ATOM     23  C   UNL A   1      28.933  27.878  23.226  1.00  0.00     0.062 A 
ATOM     24  C   UNL A   1      29.461  26.630  23.529  1.00  0.00     0.132 A 
ATOM     25  Cl  UNL A   1      27.256  28.157  23.500  1.00  0.00    -0.082 Cl
ATOM     26  N   UNL A   1      30.760  26.290  23.354  1.00  0.00    -0.251 NA
BRANCH  21  27
ATOM     27  C   UNL A   1      29.337  30.260  22.385  1.00  0.00     0.034 C 
ATOM     28  C   UNL A   1      29.150  31.108  23.638  1.00  0.00     0.009 C 
ENDBRANCH  21  27
ENDBRANCH  18  20
ENDBRANCH   8  18
ENDBRANCH   6   7
ENDBRANCH   3   6
ENDBRANCH   1   2
BRANCH   1  29
ATOM     29  C   UNL A   1      31.979  30.270  27.151  1.00  0.00     0.023 C 
BRANCH  29  30
ATOM     30  C   UNL A   1      31.770  31.756  26.852  1.00  0.00     0.023 C 
BRANCH  30  31
ATOM     31  C   UNL A   1      32.939  32.673  27.201  1.00  0.00     0.116 C 
BRANCH  31  32
ATOM     32  N   UNL A   1      32.527  34.008  27.601  1.00  0.00    -0.352 N 
ATOM     33  C   UNL A   1      33.050  34.821  28.579  1.00  0.00     0.251 C 
ATOM     34  H   UNL A   1      31.767  34.384  27.101  1.00  0.00     0.163 HD
ATOM     35  O   UNL A   1      32.518  35.894  28.839  1.00  0.00    -0.269 OA
BRANCH  33  36
ATOM     36  C   UNL A   1      34.233  34.382  29.351  1.00  0.00     0.039 A 
ATOM     37  C   UNL A   1      34.028  33.741  30.577  1.00  0.00     0.014 A 
ATOM     38  C   UNL A   1      35.529  34.591  28.874  1.00  0.00     0.014 A 
ATOM     39  C   UNL A   1      35.119  33.233  31.285  1.00  0.00     0.010 A 
ATOM     40  C   UNL A   1      36.615  34.050  29.562  1.00  0.00     0.010 A 
ATOM     41  C   UNL A   1      36.415  33.351  30.762  1.00  0.00    -0.014 A 
BRANCH  41  42
ATOM     42  C   UNL A   1      37.575  32.715  31.428  1.00  0.00     0.031 A 
ATOM     43  C   UNL A   1      38.272  31.553  30.788  1.00  0.00     0.074 A 
ATOM     44  C   UNL A   1      37.947  33.138  32.650  1.00  0.00     0.049 A 
ATOM     45  N   UNL A   1      39.205  30.776  31.281  1.00  0.00    -0.248 NA
ATOM     46  C   UNL A   1      37.856  31.206  29.422  1.00  0.00     0.031 C 
ATOM     47  C   UNL A   1      37.333  34.246  33.385  1.00  0.00     0.029 A 
ATOM     48  N   UNL A   1      38.919  32.672  33.499  1.00  0.00    -0.354 N 
ATOM     49  C   UNL A   1      39.473  29.839  30.293  1.00  0.00     0.074 A 
ATOM     50  C   UNL A   1      38.596  30.132  29.179  1.00  0.00     0.031 C 
ATOM     51  C   UNL A   1      37.944  34.375  34.574  1.00  0.00     0.029 A 
ATOM     52  C   UNL A   1      38.966  33.339  34.699  1.00  0.00     0.049 A 
ATOM     53  H   UNL A   1      39.524  31.929  33.271  1.00  0.00     0.167 HD
ATOM     54  C   UNL A   1      40.375  28.829  30.315  1.00  0.00     0.037 A 
ATOM     55  C   UNL A   1      39.733  33.126  35.783  1.00  0.00     0.037 A 
ATOM     56  C   UNL A   1      41.263  28.549  31.411  1.00  0.00     0.049 A 
ATOM     57  C   UNL A   1      40.723  31.999  35.780  1.00  0.00     0.074 A 
ATOM     58  C   UNL A   1      42.231  27.564  31.510  1.00  0.00     0.029 A 
ATOM     59  N   UNL A   1      41.295  29.262  32.599  1.00  0.00    -0.354 N 
ATOM     60  N   UNL A   1      40.973  31.123  34.839  1.00  0.00    -0.248 NA
ATOM     61  C   UNL A   1      41.532  31.824  36.995  1.00  0.00     0.031 C 
ATOM     62  C   UNL A   1      42.839  27.672  32.766  1.00  0.00     0.029 A 
ATOM     63  C   UNL A   1      42.263  28.735  33.440  1.00  0.00     0.049 A 
ATOM     64  H   UNL A   1      40.716  30.029  32.814  1.00  0.00     0.167 HD
ATOM     65  C   UNL A   1      41.971  30.301  35.340  1.00  0.00     0.074 A 
ATOM     66  C   UNL A   1      42.290  30.787  36.666  1.00  0.00     0.031 C 
ATOM     67  C   UNL A   1      42.567  29.235  34.754  1.00  0.00     0.037 A 
BRANCH  54  68
ATOM     68  C   UNL A   1      40.447  27.948  29.109  1.00  0.00     0.064 A 
ATOM     69  C   UNL A   1      39.679  26.778  29.017  1.00  0.00     0.173 A 
ATOM     70  C   UNL A   1      41.256  28.296  28.018  1.00  0.00     0.173 A 
ATOM     71  F   UNL A   1      38.902  26.400  30.043  1.00  0.00    -0.203 F 
ATOM     72  C   UNL A   1      39.730  25.980  27.878  1.00  0.00     0.198 A 
ATOM     73  C   UNL A   1      41.292  27.504  26.875  1.00  0.00     0.198 A 
ATOM     74  F   UNL A   1      42.007  29.407  28.061  1.00  0.00    -0.203 F 
ATOM     75  F   UNL A   1      39.008  24.852  27.820  1.00  0.00    -0.200 F 
ATOM     76  C   UNL A   1      40.532  26.345  26.806  1.00  0.00     0.200 A 
ATOM     77  F   UNL A   1      42.064  27.859  25.838  1.00  0.00    -0.200 F 
ATOM     78  F   UNL A   1      40.575  25.578  25.709  1.00  0.00    -0.200 F 
ENDBRANCH  54  68
BRANCH  55  79
ATOM     79  C   UNL A   1      39.591  34.004  36.968  1.00  0.00     0.064 A 
ATOM     80  C   UNL A   1      38.768  33.630  38.039  1.00  0.00     0.173 A 
ATOM     81  C   UNL A   1      40.271  35.226  37.055  1.00  0.00     0.173 A 
ATOM     82  F   UNL A   1      38.082  32.479  37.985  1.00  0.00    -0.203 F 
ATOM     83  C   UNL A   1      38.623  34.453  39.152  1.00  0.00     0.198 A 
ATOM     84  C   UNL A   1      40.138  36.041  38.176  1.00  0.00     0.198 A 
ATOM     85  F   UNL A   1      41.068  35.623  36.053  1.00  0.00    -0.203 F 
ATOM     86  F   UNL A   1      37.808  34.088  40.151  1.00  0.00    -0.200 F 
ATOM     87  C   UNL A   1      39.311  35.656  39.222  1.00  0.00     0.200 A 
ATOM     88  F   UNL A   1      40.806  37.200  38.244  1.00  0.00    -0.200 F 
ATOM     89  F   UNL A   1      39.171  36.448  40.294  1.00  0.00    -0.200 F 
ENDBRANCH  55  79
BRANCH  67  90
ATOM     90  C   UNL A   1      43.633  28.537  35.536  1.00  0.00     0.064 A 
ATOM     91  C   UNL A   1      44.983  28.884  35.391  1.00  0.00     0.173 A 
ATOM     92  C   UNL A   1      43.299  27.540  36.462  1.00  0.00     0.173 A 
ATOM     93  F   UNL A   1      45.347  29.823  34.504  1.00  0.00    -0.203 F 
ATOM     94  C   UNL A   1      45.967  28.248  36.142  1.00  0.00     0.198 A 
ATOM     95  C   UNL A   1      44.284  26.914  37.221  1.00  0.00     0.198 A 
ATOM     96  F   UNL A   1      42.019  27.175  36.631  1.00  0.00    -0.203 F 
ATOM     97  F   UNL A   1      47.255  28.574  35.971  1.00  0.00    -0.200 F 
ATOM     98  C   UNL A   1      45.616  27.266  37.059  1.00  0.00     0.200 A 
ATOM     99  F   UNL A   1      43.945  25.967  38.107  1.00  0.00    -0.200 F 
ATOM    100  F   UNL A   1      46.565  26.654  37.782  1.00  0.00    -0.200 F 
ENDBRANCH  67  90
ENDBRANCH  41  42
ENDBRANCH  33  36
ENDBRANCH  31  32
ENDBRANCH  30  31
ENDBRANCH  29  30
ENDBRANCH   1  29
TORSDOF 15
ENDMDL
MODEL 3
REMARK VINA RESULT:     -13.2      5.464     10.152
REMARK SMILES CCc1cc(C(=O)c2[nH]c3cc(Cl)ccc3c2CC(=O)NCCCCNC(=O)c2ccc(-c3c4nc(c(-c5c(F)c(F)c(F)c(F)c5F)c5ccc([nH]5)c(-c5c(F)c(F)c(F)c(F)c5F)c5nc(c(-c6c(F)c(F)c(F)c(F)c6F)c6ccc3[nH]6)C=C5)C=C4)cc2)ncc1Cl
REMARK SMILES IDX 22 1 21 2 19 3 20 4 18 6 17 7 8 8 9 9 10 10 16 12 11 13
REMARK SMILES IDX 15 14 12 15 14 16 13 17 6 18 7 19 5 20 3 21 4 22 94 23 93 24
REMARK SMILES IDX 95 25 92 26 2 27 1 28 23 29 24 30 25 31 26 32 27 33 28 35
REMARK SMILES IDX 29 36 30 37 91 38 31 39 90 40 32 41 33 42 34 43 84 44 35 45
REMARK SMILES IDX 89 46 83 47 85 48 36 49 88 50 82 51 81 52 37 54 69 55 49 56
REMARK SMILES IDX 68 57 50 58 53 59 67 60 86 61 51 62 52 63 66 65 87 66 54 67
REMARK SMILES IDX 38 68 39 69 47 70 40 71 41 72 45 73 48 74 42 75 43 76 46 77
REMARK SMILES IDX 44 78 70 79 71 80 79 81 72 82 73 83 77 84 80 85 74 86 75 87
REMARK SMILES IDX 78 88 76 89 55 90 56 91 64 92 57 93 58 94 62 95 65 96 59 97
REMARK SMILES IDX 60 98 63 99 61 100
REMARK H PARENT 21 5 9 11 26 34 85 53 53 64
REMARK Flexibility Score: inf
ROOT
ATOM      1  C   UNL A   1      37.269  22.162  24.519  1.00  0.00     0.116 C 
ENDROOT
BRANCH   1   2
ATOM      2  N   UNL A   1      36.269  22.694  23.618  1.00  0.00    -0.356 N 
ATOM      3  C   UNL A   1      35.363  23.696  23.822  1.00  0.00     0.224 C 
ATOM      4  O   UNL A   1      34.689  24.073  22.859  1.00  0.00    -0.275 OA
ATOM      5  H   UNL A   1      36.236  22.273  22.729  1.00  0.00     0.163 HD
BRANCH   3   6
ATOM      6  C   UNL A   1      35.270  24.411  25.162  1.00  0.00     0.138 C 
BRANCH   6   7
ATOM      7  C   UNL A   1      33.902  24.925  25.517  1.00  0.00    -0.002 A 
ATOM      8  C   UNL A   1      32.868  24.228  26.134  1.00  0.00     0.093 A 
ATOM      9  N   UNL A   1      31.845  25.121  26.357  1.00  0.00    -0.351 N 
ATOM     10  C   UNL A   1      32.136  26.342  25.802  1.00  0.00     0.048 A 
ATOM     11  H   UNL A   1      31.018  24.912  26.848  1.00  0.00     0.167 HD
ATOM     12  C   UNL A   1      33.411  26.249  25.248  1.00  0.00     0.004 A 
ATOM     13  C   UNL A   1      31.377  27.519  25.773  1.00  0.00     0.047 A 
ATOM     14  C   UNL A   1      33.952  27.390  24.616  1.00  0.00     0.012 A 
ATOM     15  C   UNL A   1      31.943  28.633  25.148  1.00  0.00     0.043 A 
ATOM     16  C   UNL A   1      33.209  28.576  24.574  1.00  0.00     0.021 A 
ATOM     17  Cl  UNL A   1      31.055  30.108  25.095  1.00  0.00    -0.084 Cl
BRANCH   8  18
ATOM     18  C   UNL A   1      32.829  22.856  26.606  1.00  0.00     0.227 C 
ATOM     19  O   UNL A   1      32.847  22.604  27.806  1.00  0.00    -0.285 OA
BRANCH  18  20
ATOM     20  C   UNL A   1      32.711  21.743  25.587  1.00  0.00     0.113 A 
ATOM     21  C   UNL A   1      33.001  19.445  24.859  1.00  0.00    -0.026 A 
ATOM     22  C   UNL A   1      33.105  20.432  25.859  1.00  0.00     0.037 A 
ATOM     23  C   UNL A   1      32.467  19.819  23.620  1.00  0.00     0.062 A 
ATOM     24  C   UNL A   1      32.094  21.144  23.435  1.00  0.00     0.132 A 
ATOM     25  Cl  UNL A   1      32.242  18.706  22.326  1.00  0.00    -0.082 Cl
ATOM     26  N   UNL A   1      32.218  22.109  24.377  1.00  0.00    -0.251 NA
BRANCH  21  27
ATOM     27  C   UNL A   1      33.489  18.046  25.155  1.00  0.00     0.034 C 
ATOM     28  C   UNL A   1      34.756  17.695  24.383  1.00  0.00     0.009 C 
ENDBRANCH  21  27
ENDBRANCH  18  20
ENDBRANCH   8  18
ENDBRANCH   6   7
ENDBRANCH   3   6
ENDBRANCH   1   2
BRANCH   1  29
ATOM     29  C   UNL A   1      36.907  20.781  25.063  1.00  0.00     0.023 C 
BRANCH  29  30
ATOM     30  C   UNL A   1      38.026  19.738  25.011  1.00  0.00     0.023 C 
BRANCH  30  31
ATOM     31  C   UNL A   1      39.316  20.114  25.734  1.00  0.00     0.116 C 
BRANCH  31  32
ATOM     32  N   UNL A   1      40.285  19.031  25.787  1.00  0.00    -0.352 N 
ATOM     33  C   UNL A   1      41.630  19.083  26.065  1.00  0.00     0.251 C 
ATOM     34  H   UNL A   1      39.927  18.133  25.598  1.00  0.00     0.163 HD
ATOM     35  O   UNL A   1      42.318  18.073  25.982  1.00  0.00    -0.269 OA
BRANCH  33  36
ATOM     36  C   UNL A   1      42.262  20.372  26.422  1.00  0.00     0.039 A 
ATOM     37  C   UNL A   1      42.840  21.136  25.404  1.00  0.00     0.014 A 
ATOM     38  C   UNL A   1      42.280  20.831  27.742  1.00  0.00     0.014 A 
ATOM     39  C   UNL A   1      43.362  22.398  25.693  1.00  0.00     0.010 A 
ATOM     40  C   UNL A   1      42.766  22.106  28.024  1.00  0.00     0.010 A 
ATOM     41  C   UNL A   1      43.293  22.906  26.999  1.00  0.00    -0.014 A 
BRANCH  41  42
ATOM     42  C   UNL A   1      43.724  24.289  27.312  1.00  0.00     0.031 A 
ATOM     43  C   UNL A   1      42.735  25.295  27.817  1.00  0.00     0.074 A 
ATOM     44  C   UNL A   1      44.995  24.655  27.062  1.00  0.00     0.049 A 
ATOM     45  N   UNL A   1      42.889  26.582  28.005  1.00  0.00    -0.248 NA
ATOM     46  C   UNL A   1      41.391  24.794  28.138  1.00  0.00     0.031 C 
ATOM     47  C   UNL A   1      46.044  23.772  26.550  1.00  0.00     0.029 A 
ATOM     48  N   UNL A   1      45.613  25.873  27.185  1.00  0.00    -0.354 N 
ATOM     49  C   UNL A   1      41.658  27.047  28.447  1.00  0.00     0.074 A 
ATOM     50  C   UNL A   1      40.763  25.909  28.486  1.00  0.00     0.031 C 
ATOM     51  C   UNL A   1      47.178  24.477  26.404  1.00  0.00     0.029 A 
ATOM     52  C   UNL A   1      46.925  25.866  26.778  1.00  0.00     0.049 A 
ATOM     53  H   UNL A   1      45.160  26.676  27.530  1.00  0.00     0.167 HD
ATOM     54  C   UNL A   1      41.312  28.309  28.795  1.00  0.00     0.037 A 
ATOM     55  C   UNL A   1      47.817  26.870  26.698  1.00  0.00     0.037 A 
ATOM     56  C   UNL A   1      42.205  29.436  28.779  1.00  0.00     0.049 A 
ATOM     57  C   UNL A   1      47.404  28.259  27.088  1.00  0.00     0.074 A 
ATOM     58  C   UNL A   1      41.949  30.747  29.142  1.00  0.00     0.029 A 
ATOM     59  N   UNL A   1      43.532  29.383  28.382  1.00  0.00    -0.354 N 
ATOM     60  N   UNL A   1      46.240  28.686  27.511  1.00  0.00    -0.248 NA
ATOM     61  C   UNL A   1      48.428  29.309  26.980  1.00  0.00     0.031 C 
ATOM     62  C   UNL A   1      43.119  31.492  28.951  1.00  0.00     0.029 A 
ATOM     63  C   UNL A   1      44.107  30.639  28.487  1.00  0.00     0.049 A 
ATOM     64  H   UNL A   1      43.997  28.572  28.071  1.00  0.00     0.167 HD
ATOM     65  C   UNL A   1      46.392  30.047  27.730  1.00  0.00     0.074 A 
ATOM     66  C   UNL A   1      47.764  30.376  27.402  1.00  0.00     0.031 C 
ATOM     67  C   UNL A   1      45.473  30.945  28.159  1.00  0.00     0.037 A 
BRANCH  54  68
ATOM     68  C   UNL A   1      39.898  28.537  29.226  1.00  0.00     0.064 A 
ATOM     69  C   UNL A   1      39.497  28.305  30.550  1.00  0.00     0.173 A 
ATOM     70  C   UNL A   1      38.948  29.030  28.322  1.00  0.00     0.173 A 
ATOM     71  F   UNL A   1      40.371  27.820  31.444  1.00  0.00    -0.203 F 
ATOM     72  C   UNL A   1      38.186  28.549  30.949  1.00  0.00     0.198 A 
ATOM     73  C   UNL A   1      37.642  29.288  28.730  1.00  0.00     0.198 A 
ATOM     74  F   UNL A   1      39.287  29.267  27.046  1.00  0.00    -0.203 F 
ATOM     75  F   UNL A   1      37.815  28.298  32.212  1.00  0.00    -0.200 F 
ATOM     76  C   UNL A   1      37.261  29.045  30.041  1.00  0.00     0.200 A 
ATOM     77  F   UNL A   1      36.750  29.770  27.853  1.00  0.00    -0.200 F 
ATOM     78  F   UNL A   1      36.001  29.284  30.429  1.00  0.00    -0.200 F 
ENDBRANCH  54  68
BRANCH  55  79
ATOM     79  C   UNL A   1      49.193  26.595  26.224  1.00  0.00     0.064 A 
ATOM     80  C   UNL A   1      49.543  26.813  24.885  1.00  0.00     0.173 A 
ATOM     81  C   UNL A   1      50.181  26.114  27.094  1.00  0.00     0.173 A 
ATOM     82  F   UNL A   1      48.622  27.252  24.015  1.00  0.00    -0.203 F 
ATOM     83  C   UNL A   1      50.832  26.550  24.430  1.00  0.00     0.198 A 
ATOM     84  C   UNL A   1      51.474  25.866  26.641  1.00  0.00     0.198 A 
ATOM     85  F   UNL A   1      49.888  25.891  28.383  1.00  0.00    -0.203 F 
ATOM     86  F   UNL A   1      51.137  26.738  23.138  1.00  0.00    -0.200 F 
ATOM     87  C   UNL A   1      51.798  26.080  25.309  1.00  0.00     0.200 A 
ATOM     88  F   UNL A   1      52.406  25.417  27.492  1.00  0.00    -0.200 F 
ATOM     89  F   UNL A   1      53.038  25.827  24.870  1.00  0.00    -0.200 F 
ENDBRANCH  55  79
BRANCH  67  90
ATOM     90  C   UNL A   1      45.928  32.361  28.315  1.00  0.00     0.064 A 
ATOM     91  C   UNL A   1      46.505  32.809  29.512  1.00  0.00     0.173 A 
ATOM     92  C   UNL A   1      45.818  33.266  27.251  1.00  0.00     0.173 A 
ATOM     93  F   UNL A   1      46.614  31.980  30.561  1.00  0.00    -0.203 F 
ATOM     94  C   UNL A   1      46.949  34.122  29.640  1.00  0.00     0.198 A 
ATOM     95  C   UNL A   1      46.275  34.574  27.378  1.00  0.00     0.198 A 
ATOM     96  F   UNL A   1      45.271  32.879  26.089  1.00  0.00    -0.203 F 
ATOM     97  F   UNL A   1      47.475  34.540  30.799  1.00  0.00    -0.200 F 
ATOM     98  C   UNL A   1      46.838  35.002  28.572  1.00  0.00     0.200 A 
ATOM     99  F   UNL A   1      46.169  35.423  26.346  1.00  0.00    -0.200 F 
ATOM    100  F   UNL A   1      47.267  36.265  28.697  1.00  0.00    -0.200 F 
ENDBRANCH  67  90
ENDBRANCH  41  42
ENDBRANCH  33  36
ENDBRANCH  31  32
ENDBRANCH  30  31
ENDBRANCH  29  30
ENDBRANCH   1  29
TORSDOF 15
ENDMDL
