MODEL 1
REMARK VINA RESULT:     -11.2      0.000      0.000
REMARK SMILES C[C@H](CCO)S[C@H]1CC[C@]([NH2+]C2CC2)(C(=O)NCCCCNC(=O)c2ccc(-c3c4nc(c(-c5c(F)c(F)c(F)c(F)c5F)c5ccc([nH]5)c(-c5c(F)c(F)c(F)c(F)c5F)c5nc(c(-c6c(F)c(F)c(F)c(F)c6F)c6ccc3[nH]6)C=C5)C=C4)cc2)C1
REMARK SMILES IDX 18 1 17 2 15 3 16 4 10 6 7 7 8 8 88 9 9 10 6 11 2 12 1 13
REMARK SMILES IDX 3 14 4 15 5 16 11 18 12 21 13 22 14 23 19 24 20 25 21 26
REMARK SMILES IDX 22 27 23 28 24 30 25 31 26 32 87 33 27 34 86 35 28 36 29 37
REMARK SMILES IDX 30 38 80 39 31 40 85 41 79 42 81 43 32 44 84 45 78 46 77 47
REMARK SMILES IDX 33 49 65 50 45 51 64 52 46 53 49 54 63 55 82 56 47 57 48 58
REMARK SMILES IDX 62 60 83 61 50 62 34 63 35 64 43 65 36 66 37 67 41 68 44 69
REMARK SMILES IDX 38 70 39 71 42 72 40 73 66 74 67 75 75 76 68 77 69 78 73 79
REMARK SMILES IDX 76 80 70 81 71 82 74 83 72 84 51 85 52 86 60 87 53 88 54 89
REMARK SMILES IDX 58 90 61 91 55 92 56 93 59 94 57 95
REMARK H PARENT 17 5 5 17 11 19 11 20 22 29 81 48 49 59
REMARK Flexibility Score: inf
ROOT
ATOM      1  C   UNL A   1      33.102  30.024  26.504  1.00  0.00     0.116 C 
ENDROOT
BRANCH   1   2
ATOM      2  N   UNL A   1      33.585  29.728  25.165  1.00  0.00    -0.351 N 
ATOM      3  C   UNL A   1      33.551  28.626  24.365  1.00  0.00     0.281 C 
ATOM      4  O   UNL A   1      34.170  28.750  23.296  1.00  0.00    -0.268 OA
ATOM      5  H   UNL A   1      34.037  30.494  24.743  1.00  0.00     0.163 HD
BRANCH   3   6
ATOM      6  C   UNL A   1      32.740  27.305  24.650  1.00  0.00     0.176 C 
ATOM      7  C   UNL A   1      33.684  25.258  25.705  1.00  0.00     0.054 C 
ATOM      8  C   UNL A   1      34.143  25.329  24.247  1.00  0.00     0.022 C 
ATOM      9  C   UNL A   1      33.250  26.699  25.987  1.00  0.00     0.093 C 
ATOM     10  C   UNL A   1      33.166  26.284  23.563  1.00  0.00     0.080 C 
BRANCH   7  11
ATOM     11  S   UNL A   1      32.359  23.996  25.861  1.00  0.00    -0.155 SA
BRANCH  11  12
ATOM     12  C   UNL A   1      32.286  23.187  24.208  1.00  0.00     0.046 C 
ATOM     13  C   UNL A   1      30.955  23.271  23.471  1.00  0.00     0.019 C 
BRANCH  12  14
ATOM     14  C   UNL A   1      32.908  21.780  24.221  1.00  0.00     0.042 C 
BRANCH  14  15
ATOM     15  C   UNL A   1      32.789  20.959  25.499  1.00  0.00     0.157 C 
BRANCH  15  16
ATOM     16  O   UNL A   1      31.783  19.965  25.377  1.00  0.00    -0.396 OA
ATOM     17  H   UNL A   1      31.167  20.214  24.671  1.00  0.00     0.210 HD
ENDBRANCH  15  16
ENDBRANCH  14  15
ENDBRANCH  12  14
ENDBRANCH  11  12
ENDBRANCH   7  11
BRANCH   6  18
ATOM     18  N   UNL A   1      31.291  27.561  24.565  1.00  0.00    -0.331 N 
ATOM     19  H   UNL A   1      31.066  28.236  25.296  1.00  0.00     0.347 HD
ATOM     20  H   UNL A   1      30.880  26.630  24.648  1.00  0.00     0.347 HD
BRANCH  18  21
ATOM     21  C   UNL A   1      30.717  28.075  23.325  1.00  0.00     0.183 C 
ATOM     22  C   UNL A   1      29.229  28.132  23.130  1.00  0.00     0.071 C 
ATOM     23  C   UNL A   1      29.987  29.391  23.411  1.00  0.00     0.071 C 
ENDBRANCH  18  21
ENDBRANCH   6  18
ENDBRANCH   3   6
ENDBRANCH   1   2
BRANCH   1  24
ATOM     24  C   UNL A   1      31.670  30.553  26.487  1.00  0.00     0.023 C 
BRANCH  24  25
ATOM     25  C   UNL A   1      31.574  32.080  26.501  1.00  0.00     0.023 C 
BRANCH  25  26
ATOM     26  C   UNL A   1      32.691  32.796  27.257  1.00  0.00     0.116 C 
BRANCH  26  27
ATOM     27  N   UNL A   1      32.372  34.168  27.626  1.00  0.00    -0.352 N 
ATOM     28  C   UNL A   1      32.977  34.957  28.577  1.00  0.00     0.251 C 
ATOM     29  H   UNL A   1      31.629  34.585  27.131  1.00  0.00     0.163 HD
ATOM     30  O   UNL A   1      32.553  36.073  28.836  1.00  0.00    -0.269 OA
BRANCH  28  31
ATOM     31  C   UNL A   1      34.128  34.405  29.319  1.00  0.00     0.039 A 
ATOM     32  C   UNL A   1      33.889  33.677  30.485  1.00  0.00     0.014 A 
ATOM     33  C   UNL A   1      35.424  34.549  28.819  1.00  0.00     0.014 A 
ATOM     34  C   UNL A   1      34.949  33.023  31.113  1.00  0.00     0.010 A 
ATOM     35  C   UNL A   1      36.466  33.840  29.404  1.00  0.00     0.010 A 
ATOM     36  C   UNL A   1      36.237  33.066  30.553  1.00  0.00    -0.014 A 
BRANCH  36  37
ATOM     37  C   UNL A   1      37.359  32.302  31.150  1.00  0.00     0.031 A 
ATOM     38  C   UNL A   1      37.853  32.649  32.526  1.00  0.00     0.074 A 
ATOM     39  C   UNL A   1      37.977  31.351  30.424  1.00  0.00     0.049 A 
ATOM     40  N   UNL A   1      38.867  32.155  33.190  1.00  0.00    -0.248 NA
ATOM     41  C   UNL A   1      37.131  33.716  33.237  1.00  0.00     0.031 C 
ATOM     42  C   UNL A   1      37.624  30.966  29.057  1.00  0.00     0.029 A 
ATOM     43  N   UNL A   1      39.043  30.542  30.732  1.00  0.00    -0.354 N 
ATOM     44  C   UNL A   1      38.913  32.861  34.385  1.00  0.00     0.074 A 
ATOM     45  C   UNL A   1      37.861  33.852  34.334  1.00  0.00     0.031 C 
ATOM     46  C   UNL A   1      38.444  29.981  28.651  1.00  0.00     0.029 A 
ATOM     47  C   UNL A   1      39.399  29.691  29.715  1.00  0.00     0.049 A 
ATOM     48  H   UNL A   1      39.507  30.570  31.600  1.00  0.00     0.167 HD
ATOM     49  C   UNL A   1      39.742  32.679  35.438  1.00  0.00     0.037 A 
ATOM     50  C   UNL A   1      40.390  28.781  29.649  1.00  0.00     0.037 A 
ATOM     51  C   UNL A   1      40.765  31.668  35.497  1.00  0.00     0.049 A 
ATOM     52  C   UNL A   1      41.290  28.592  30.841  1.00  0.00     0.074 A 
ATOM     53  C   UNL A   1      41.613  31.359  36.545  1.00  0.00     0.029 A 
ATOM     54  N   UNL A   1      41.076  30.801  34.461  1.00  0.00    -0.354 N 
ATOM     55  N   UNL A   1      41.277  29.214  31.995  1.00  0.00    -0.248 NA
ATOM     56  C   UNL A   1      42.337  27.567  30.725  1.00  0.00     0.031 C 
ATOM     57  C   UNL A   1      42.465  30.331  36.128  1.00  0.00     0.029 A 
ATOM     58  C   UNL A   1      42.115  29.968  34.839  1.00  0.00     0.049 A 
ATOM     59  H   UNL A   1      40.624  30.780  33.586  1.00  0.00     0.167 HD
ATOM     60  C   UNL A   1      42.289  28.638  32.750  1.00  0.00     0.074 A 
ATOM     61  C   UNL A   1      42.887  27.606  31.930  1.00  0.00     0.031 C 
ATOM     62  C   UNL A   1      42.688  28.937  34.011  1.00  0.00     0.037 A 
BRANCH  49  63
ATOM     63  C   UNL A   1      39.571  33.587  36.622  1.00  0.00     0.064 A 
ATOM     64  C   UNL A   1      40.208  34.835  36.687  1.00  0.00     0.173 A 
ATOM     65  C   UNL A   1      38.731  33.222  37.684  1.00  0.00     0.173 A 
ATOM     66  F   UNL A   1      41.032  35.225  35.703  1.00  0.00    -0.203 F 
ATOM     67  C   UNL A   1      40.031  35.673  37.786  1.00  0.00     0.198 A 
ATOM     68  C   UNL A   1      38.532  34.075  38.766  1.00  0.00     0.198 A 
ATOM     69  F   UNL A   1      38.095  32.041  37.669  1.00  0.00    -0.203 F 
ATOM     70  F   UNL A   1      40.687  36.840  37.848  1.00  0.00    -0.200 F 
ATOM     71  C   UNL A   1      39.188  35.296  38.819  1.00  0.00     0.200 A 
ATOM     72  F   UNL A   1      37.708  33.715  39.759  1.00  0.00    -0.200 F 
ATOM     73  F   UNL A   1      39.012  36.107  39.871  1.00  0.00    -0.200 F 
ENDBRANCH  49  63
BRANCH  50  74
ATOM     74  C   UNL A   1      40.570  27.961  28.423  1.00  0.00     0.064 A 
ATOM     75  C   UNL A   1      39.974  26.697  28.311  1.00  0.00     0.173 A 
ATOM     76  C   UNL A   1      41.348  28.414  27.347  1.00  0.00     0.173 A 
ATOM     77  F   UNL A   1      39.239  26.212  29.321  1.00  0.00    -0.203 F 
ATOM     78  C   UNL A   1      40.170  25.906  27.180  1.00  0.00     0.198 A 
ATOM     79  C   UNL A   1      41.519  27.634  26.205  1.00  0.00     0.198 A 
ATOM     80  F   UNL A   1      41.934  29.618  27.402  1.00  0.00    -0.203 F 
ATOM     81  F   UNL A   1      39.629  24.682  27.120  1.00  0.00    -0.200 F 
ATOM     82  C   UNL A   1      40.937  26.377  26.126  1.00  0.00     0.200 A 
ATOM     83  F   UNL A   1      42.250  28.098  25.183  1.00  0.00    -0.200 F 
ATOM     84  F   UNL A   1      41.124  25.618  25.039  1.00  0.00    -0.200 F 
ENDBRANCH  50  74
BRANCH  62  85
ATOM     85  C   UNL A   1      43.799  28.113  34.593  1.00  0.00     0.064 A 
ATOM     86  C   UNL A   1      45.138  28.523  34.518  1.00  0.00     0.173 A 
ATOM     87  C   UNL A   1      43.513  26.920  35.274  1.00  0.00     0.173 A 
ATOM     88  F   UNL A   1      45.463  29.649  33.865  1.00  0.00    -0.203 F 
ATOM     89  C   UNL A   1      46.152  27.755  35.081  1.00  0.00     0.198 A 
ATOM     90  C   UNL A   1      44.527  26.170  35.862  1.00  0.00     0.198 A 
ATOM     91  F   UNL A   1      42.246  26.488  35.380  1.00  0.00    -0.203 F 
ATOM     92  F   UNL A   1      47.430  28.142  34.957  1.00  0.00    -0.200 F 
ATOM     93  C   UNL A   1      45.846  26.584  35.759  1.00  0.00     0.200 A 
ATOM     94  F   UNL A   1      44.228  25.046  36.528  1.00  0.00    -0.200 F 
ATOM     95  F   UNL A   1      46.825  25.851  36.307  1.00  0.00    -0.200 F 
ENDBRANCH  62  85
ENDBRANCH  36  37
ENDBRANCH  28  31
ENDBRANCH  26  27
ENDBRANCH  25  26
ENDBRANCH  24  25
ENDBRANCH   1  24
TORSDOF 18
ENDMDL
MODEL 2
REMARK VINA RESULT:     -11.1      0.709      7.301
REMARK SMILES C[C@H](CCO)S[C@H]1CC[C@]([NH2+]C2CC2)(C(=O)NCCCCNC(=O)c2ccc(-c3c4nc(c(-c5c(F)c(F)c(F)c(F)c5F)c5ccc([nH]5)c(-c5c(F)c(F)c(F)c(F)c5F)c5nc(c(-c6c(F)c(F)c(F)c(F)c6F)c6ccc3[nH]6)C=C5)C=C4)cc2)C1
REMARK SMILES IDX 18 1 17 2 15 3 16 4 10 6 7 7 8 8 88 9 9 10 6 11 2 12 1 13
REMARK SMILES IDX 3 14 4 15 5 16 11 18 12 21 13 22 14 23 19 24 20 25 21 26
REMARK SMILES IDX 22 27 23 28 24 30 25 31 26 32 87 33 27 34 86 35 28 36 29 37
REMARK SMILES IDX 30 38 80 39 31 40 85 41 79 42 81 43 32 44 84 45 78 46 77 47
REMARK SMILES IDX 33 49 65 50 45 51 64 52 46 53 49 54 63 55 82 56 47 57 48 58
REMARK SMILES IDX 62 60 83 61 50 62 34 63 35 64 43 65 36 66 37 67 41 68 44 69
REMARK SMILES IDX 38 70 39 71 42 72 40 73 66 74 67 75 75 76 68 77 69 78 73 79
REMARK SMILES IDX 76 80 70 81 71 82 74 83 72 84 51 85 52 86 60 87 53 88 54 89
REMARK SMILES IDX 58 90 61 91 55 92 56 93 59 94 57 95
REMARK H PARENT 17 5 5 17 11 19 11 20 22 29 81 48 49 59
REMARK Flexibility Score: inf
ROOT
ATOM      1  C   UNL A   1      33.299  29.781  26.597  1.00  0.00     0.116 C 
ENDROOT
BRANCH   1   2
ATOM      2  N   UNL A   1      33.651  29.623  25.196  1.00  0.00    -0.351 N 
ATOM      3  C   UNL A   1      33.526  28.611  24.293  1.00  0.00     0.281 C 
ATOM      4  O   UNL A   1      34.044  28.842  23.189  1.00  0.00    -0.268 OA
ATOM      5  H   UNL A   1      34.073  30.427  24.814  1.00  0.00     0.163 HD
BRANCH   3   6
ATOM      6  C   UNL A   1      32.725  27.272  24.515  1.00  0.00     0.176 C 
ATOM      7  C   UNL A   1      33.714  25.148  25.355  1.00  0.00     0.054 C 
ATOM      8  C   UNL A   1      34.096  25.333  23.885  1.00  0.00     0.022 C 
ATOM      9  C   UNL A   1      33.301  26.562  25.773  1.00  0.00     0.093 C 
ATOM     10  C   UNL A   1      33.089  26.339  23.330  1.00  0.00     0.080 C 
BRANCH   7  11
ATOM     11  S   UNL A   1      32.393  23.878  25.481  1.00  0.00    -0.155 SA
BRANCH  11  12
ATOM     12  C   UNL A   1      33.201  22.309  24.956  1.00  0.00     0.046 C 
ATOM     13  C   UNL A   1      32.937  21.855  23.526  1.00  0.00     0.019 C 
BRANCH  12  14
ATOM     14  C   UNL A   1      33.045  21.195  26.006  1.00  0.00     0.042 C 
BRANCH  14  15
ATOM     15  C   UNL A   1      33.021  19.752  25.517  1.00  0.00     0.157 C 
BRANCH  15  16
ATOM     16  O   UNL A   1      33.002  18.842  26.607  1.00  0.00    -0.396 OA
ATOM     17  H   UNL A   1      33.168  17.944  26.280  1.00  0.00     0.210 HD
ENDBRANCH  15  16
ENDBRANCH  14  15
ENDBRANCH  12  14
ENDBRANCH  11  12
ENDBRANCH   7  11
BRANCH   6  18
ATOM     18  N   UNL A   1      31.275  27.534  24.528  1.00  0.00    -0.331 N 
ATOM     19  H   UNL A   1      31.147  28.479  24.890  1.00  0.00     0.347 HD
ATOM     20  H   UNL A   1      30.899  26.766  25.085  1.00  0.00     0.347 HD
BRANCH  18  21
ATOM     21  C   UNL A   1      30.513  27.453  23.284  1.00  0.00     0.183 C 
ATOM     22  C   UNL A   1      29.127  28.023  23.191  1.00  0.00     0.071 C 
ATOM     23  C   UNL A   1      30.270  28.748  22.554  1.00  0.00     0.071 C 
ENDBRANCH  18  21
ENDBRANCH   6  18
ENDBRANCH   3   6
ENDBRANCH   1   2
BRANCH   1  24
ATOM     24  C   UNL A   1      31.884  30.328  26.769  1.00  0.00     0.023 C 
BRANCH  24  25
ATOM     25  C   UNL A   1      31.787  31.849  26.622  1.00  0.00     0.023 C 
BRANCH  25  26
ATOM     26  C   UNL A   1      32.819  32.648  27.414  1.00  0.00     0.116 C 
BRANCH  26  27
ATOM     27  N   UNL A   1      32.432  34.029  27.667  1.00  0.00    -0.352 N 
ATOM     28  C   UNL A   1      32.995  34.922  28.548  1.00  0.00     0.251 C 
ATOM     29  H   UNL A   1      31.673  34.366  27.139  1.00  0.00     0.163 HD
ATOM     30  O   UNL A   1      32.517  36.034  28.713  1.00  0.00    -0.269 OA
BRANCH  28  31
ATOM     31  C   UNL A   1      34.169  34.491  29.334  1.00  0.00     0.039 A 
ATOM     32  C   UNL A   1      33.963  33.918  30.589  1.00  0.00     0.014 A 
ATOM     33  C   UNL A   1      35.453  34.589  28.794  1.00  0.00     0.014 A 
ATOM     34  C   UNL A   1      35.046  33.369  31.276  1.00  0.00     0.010 A 
ATOM     35  C   UNL A   1      36.518  33.979  29.447  1.00  0.00     0.010 A 
ATOM     36  C   UNL A   1      36.323  33.359  30.691  1.00  0.00    -0.014 A 
BRANCH  36  37
ATOM     37  C   UNL A   1      37.469  32.698  31.360  1.00  0.00     0.031 A 
ATOM     38  C   UNL A   1      38.165  31.546  30.691  1.00  0.00     0.074 A 
ATOM     39  C   UNL A   1      37.830  33.085  32.598  1.00  0.00     0.049 A 
ATOM     40  N   UNL A   1      39.132  30.789  31.143  1.00  0.00    -0.248 NA
ATOM     41  C   UNL A   1      37.690  31.179  29.348  1.00  0.00     0.031 C 
ATOM     42  C   UNL A   1      37.193  34.151  33.372  1.00  0.00     0.029 A 
ATOM     43  N   UNL A   1      38.816  32.616  33.431  1.00  0.00    -0.354 N 
ATOM     44  C   UNL A   1      39.366  29.848  30.149  1.00  0.00     0.074 A 
ATOM     45  C   UNL A   1      38.408  30.095  29.094  1.00  0.00     0.031 C 
ATOM     46  C   UNL A   1      37.816  34.269  34.556  1.00  0.00     0.029 A 
ATOM     47  C   UNL A   1      38.873  33.267  34.639  1.00  0.00     0.049 A 
ATOM     48  H   UNL A   1      39.425  31.883  33.184  1.00  0.00     0.167 HD
ATOM     49  C   UNL A   1      40.314  28.882  30.111  1.00  0.00     0.037 A 
ATOM     50  C   UNL A   1      39.685  33.071  35.695  1.00  0.00     0.037 A 
ATOM     51  C   UNL A   1      41.286  28.662  31.148  1.00  0.00     0.049 A 
ATOM     52  C   UNL A   1      40.738  31.998  35.620  1.00  0.00     0.074 A 
ATOM     53  C   UNL A   1      42.329  27.754  31.175  1.00  0.00     0.029 A 
ATOM     54  N   UNL A   1      41.335  29.363  32.344  1.00  0.00    -0.354 N 
ATOM     55  N   UNL A   1      40.999  31.162  34.644  1.00  0.00    -0.248 NA
ATOM     56  C   UNL A   1      41.614  31.846  36.790  1.00  0.00     0.031 C 
ATOM     57  C   UNL A   1      42.984  27.877  32.405  1.00  0.00     0.029 A 
ATOM     58  C   UNL A   1      42.379  28.895  33.123  1.00  0.00     0.049 A 
ATOM     59  H   UNL A   1      40.718  30.087  32.601  1.00  0.00     0.167 HD
ATOM     60  C   UNL A   1      42.085  30.408  35.068  1.00  0.00     0.074 A 
ATOM     61  C   UNL A   1      42.443  30.895  36.383  1.00  0.00     0.031 C 
ATOM     62  C   UNL A   1      42.728  29.402  34.425  1.00  0.00     0.037 A 
BRANCH  49  63
ATOM     63  C   UNL A   1      40.351  27.994  28.901  1.00  0.00     0.064 A 
ATOM     64  C   UNL A   1      41.099  28.335  27.763  1.00  0.00     0.173 A 
ATOM     65  C   UNL A   1      39.664  26.772  28.893  1.00  0.00     0.173 A 
ATOM     66  F   UNL A   1      41.764  29.499  27.716  1.00  0.00    -0.203 F 
ATOM     67  C   UNL A   1      41.135  27.497  26.652  1.00  0.00     0.198 A 
ATOM     68  C   UNL A   1      39.727  25.922  27.791  1.00  0.00     0.198 A 
ATOM     69  F   UNL A   1      38.937  26.397  29.956  1.00  0.00    -0.203 F 
ATOM     70  F   UNL A   1      41.817  27.865  25.559  1.00  0.00    -0.200 F 
ATOM     71  C   UNL A   1      40.456  26.288  26.670  1.00  0.00     0.200 A 
ATOM     72  F   UNL A   1      39.079  24.750  27.814  1.00  0.00    -0.200 F 
ATOM     73  F   UNL A   1      40.499  25.479  25.603  1.00  0.00    -0.200 F 
ENDBRANCH  49  63
BRANCH  50  74
ATOM     74  C   UNL A   1      39.555  33.924  36.904  1.00  0.00     0.064 A 
ATOM     75  C   UNL A   1      38.791  33.503  38.002  1.00  0.00     0.173 A 
ATOM     76  C   UNL A   1      40.177  35.178  36.985  1.00  0.00     0.173 A 
ATOM     77  F   UNL A   1      38.160  32.320  37.963  1.00  0.00    -0.203 F 
ATOM     78  C   UNL A   1      38.633  34.314  39.124  1.00  0.00     0.198 A 
ATOM     79  C   UNL A   1      40.042  35.977  38.120  1.00  0.00     0.198 A 
ATOM     80  F   UNL A   1      40.923  35.625  35.966  1.00  0.00    -0.203 F 
ATOM     81  F   UNL A   1      37.857  33.907  40.138  1.00  0.00    -0.200 F 
ATOM     82  C   UNL A   1      39.262  35.547  39.184  1.00  0.00     0.200 A 
ATOM     83  F   UNL A   1      40.663  37.162  38.181  1.00  0.00    -0.200 F 
ATOM     84  F   UNL A   1      39.111  36.327  40.264  1.00  0.00    -0.200 F 
ENDBRANCH  50  74
BRANCH  62  85
ATOM     85  C   UNL A   1      43.908  28.788  35.120  1.00  0.00     0.064 A 
ATOM     86  C   UNL A   1      45.207  29.286  34.944  1.00  0.00     0.173 A 
ATOM     87  C   UNL A   1      43.728  27.716  36.007  1.00  0.00     0.173 A 
ATOM     88  F   UNL A   1      45.431  30.299  34.094  1.00  0.00    -0.203 F 
ATOM     89  C   UNL A   1      46.286  28.715  35.612  1.00  0.00     0.198 A 
ATOM     90  C   UNL A   1      44.805  27.168  36.696  1.00  0.00     0.198 A 
ATOM     91  F   UNL A   1      42.503  27.209  36.216  1.00  0.00    -0.203 F 
ATOM     92  F   UNL A   1      47.526  29.176  35.393  1.00  0.00    -0.200 F 
ATOM     93  C   UNL A   1      46.084  27.664  36.493  1.00  0.00     0.200 A 
ATOM     94  F   UNL A   1      44.606  26.161  37.558  1.00  0.00    -0.200 F 
ATOM     95  F   UNL A   1      47.125  27.122  37.141  1.00  0.00    -0.200 F 
ENDBRANCH  62  85
ENDBRANCH  36  37
ENDBRANCH  28  31
ENDBRANCH  26  27
ENDBRANCH  25  26
ENDBRANCH  24  25
ENDBRANCH   1  24
TORSDOF 18
ENDMDL
MODEL 3
REMARK VINA RESULT:     -11.1      0.809      7.570
REMARK SMILES C[C@H](CCO)S[C@H]1CC[C@]([NH2+]C2CC2)(C(=O)NCCCCNC(=O)c2ccc(-c3c4nc(c(-c5c(F)c(F)c(F)c(F)c5F)c5ccc([nH]5)c(-c5c(F)c(F)c(F)c(F)c5F)c5nc(c(-c6c(F)c(F)c(F)c(F)c6F)c6ccc3[nH]6)C=C5)C=C4)cc2)C1
REMARK SMILES IDX 18 1 17 2 15 3 16 4 10 6 7 7 8 8 88 9 9 10 6 11 2 12 1 13
REMARK SMILES IDX 3 14 4 15 5 16 11 18 12 21 13 22 14 23 19 24 20 25 21 26
REMARK SMILES IDX 22 27 23 28 24 30 25 31 26 32 87 33 27 34 86 35 28 36 29 37
REMARK SMILES IDX 30 38 80 39 31 40 85 41 79 42 81 43 32 44 84 45 78 46 77 47
REMARK SMILES IDX 33 49 65 50 45 51 64 52 46 53 49 54 63 55 82 56 47 57 48 58
REMARK SMILES IDX 62 60 83 61 50 62 34 63 35 64 43 65 36 66 37 67 41 68 44 69
REMARK SMILES IDX 38 70 39 71 42 72 40 73 66 74 67 75 75 76 68 77 69 78 73 79
REMARK SMILES IDX 76 80 70 81 71 82 74 83 72 84 51 85 52 86 60 87 53 88 54 89
REMARK SMILES IDX 58 90 61 91 55 92 56 93 59 94 57 95
REMARK H PARENT 17 5 5 17 11 19 11 20 22 29 81 48 49 59
REMARK Flexibility Score: inf
ROOT
ATOM      1  C   UNL A   1      33.322  29.724  26.700  1.00  0.00     0.116 C 
ENDROOT
BRANCH   1   2
ATOM      2  N   UNL A   1      33.674  29.579  25.297  1.00  0.00    -0.351 N 
ATOM      3  C   UNL A   1      33.604  28.556  24.400  1.00  0.00     0.281 C 
ATOM      4  O   UNL A   1      34.102  28.811  23.292  1.00  0.00    -0.268 OA
ATOM      5  H   UNL A   1      34.045  30.404  24.908  1.00  0.00     0.163 HD
BRANCH   3   6
ATOM      6  C   UNL A   1      32.886  27.173  24.635  1.00  0.00     0.176 C 
ATOM      7  C   UNL A   1      34.006  25.113  25.470  1.00  0.00     0.054 C 
ATOM      8  C   UNL A   1      34.362  25.316  23.996  1.00  0.00     0.022 C 
ATOM      9  C   UNL A   1      33.515  26.503  25.888  1.00  0.00     0.093 C 
ATOM     10  C   UNL A   1      33.292  26.259  23.449  1.00  0.00     0.080 C 
BRANCH   7  11
ATOM     11  S   UNL A   1      32.764  23.769  25.613  1.00  0.00    -0.155 SA
BRANCH  11  12
ATOM     12  C   UNL A   1      33.274  22.524  24.356  1.00  0.00     0.046 C 
ATOM     13  C   UNL A   1      32.278  22.242  23.237  1.00  0.00     0.019 C 
BRANCH  12  14
ATOM     14  C   UNL A   1      33.870  21.259  24.998  1.00  0.00     0.042 C 
BRANCH  14  15
ATOM     15  C   UNL A   1      33.609  21.021  26.480  1.00  0.00     0.157 C 
BRANCH  15  16
ATOM     16  O   UNL A   1      33.171  19.691  26.716  1.00  0.00    -0.396 OA
ATOM     17  H   UNL A   1      32.493  19.454  26.064  1.00  0.00     0.210 HD
ENDBRANCH  15  16
ENDBRANCH  14  15
ENDBRANCH  12  14
ENDBRANCH  11  12
ENDBRANCH   7  11
BRANCH   6  18
ATOM     18  N   UNL A   1      31.423  27.350  24.661  1.00  0.00    -0.331 N 
ATOM     19  H   UNL A   1      31.245  28.354  24.636  1.00  0.00     0.347 HD
ATOM     20  H   UNL A   1      31.138  26.848  25.503  1.00  0.00     0.347 HD
BRANCH  18  21
ATOM     21  C   UNL A   1      30.601  26.748  23.615  1.00  0.00     0.183 C 
ATOM     22  C   UNL A   1      29.829  25.486  23.871  1.00  0.00     0.071 C 
ATOM     23  C   UNL A   1      29.108  26.795  23.816  1.00  0.00     0.071 C 
ENDBRANCH  18  21
ENDBRANCH   6  18
ENDBRANCH   3   6
ENDBRANCH   1   2
BRANCH   1  24
ATOM     24  C   UNL A   1      31.905  30.267  26.876  1.00  0.00     0.023 C 
BRANCH  24  25
ATOM     25  C   UNL A   1      31.793  31.780  26.673  1.00  0.00     0.023 C 
BRANCH  25  26
ATOM     26  C   UNL A   1      32.848  32.614  27.396  1.00  0.00     0.116 C 
BRANCH  26  27
ATOM     27  N   UNL A   1      32.446  33.992  27.643  1.00  0.00    -0.352 N 
ATOM     28  C   UNL A   1      32.988  34.890  28.533  1.00  0.00     0.251 C 
ATOM     29  H   UNL A   1      31.691  34.323  27.105  1.00  0.00     0.163 HD
ATOM     30  O   UNL A   1      32.498  35.997  28.692  1.00  0.00    -0.269 OA
BRANCH  28  31
ATOM     31  C   UNL A   1      34.154  34.468  29.335  1.00  0.00     0.039 A 
ATOM     32  C   UNL A   1      33.935  33.885  30.583  1.00  0.00     0.014 A 
ATOM     33  C   UNL A   1      35.446  34.585  28.817  1.00  0.00     0.014 A 
ATOM     34  C   UNL A   1      35.014  33.345  31.285  1.00  0.00     0.010 A 
ATOM     35  C   UNL A   1      36.508  33.985  29.483  1.00  0.00     0.010 A 
ATOM     36  C   UNL A   1      36.300  33.355  30.720  1.00  0.00    -0.014 A 
BRANCH  36  37
ATOM     37  C   UNL A   1      37.443  32.703  31.405  1.00  0.00     0.031 A 
ATOM     38  C   UNL A   1      38.147  31.547  30.752  1.00  0.00     0.074 A 
ATOM     39  C   UNL A   1      37.795  33.104  32.641  1.00  0.00     0.049 A 
ATOM     40  N   UNL A   1      39.112  30.796  31.219  1.00  0.00    -0.248 NA
ATOM     41  C   UNL A   1      37.682  31.164  29.410  1.00  0.00     0.031 C 
ATOM     42  C   UNL A   1      37.149  34.177  33.399  1.00  0.00     0.029 A 
ATOM     43  N   UNL A   1      38.776  32.647  33.485  1.00  0.00    -0.354 N 
ATOM     44  C   UNL A   1      39.356  29.846  30.236  1.00  0.00     0.074 A 
ATOM     45  C   UNL A   1      38.404  30.079  29.173  1.00  0.00     0.031 C 
ATOM     46  C   UNL A   1      37.764  34.309  34.586  1.00  0.00     0.029 A 
ATOM     47  C   UNL A   1      38.823  33.311  34.687  1.00  0.00     0.049 A 
ATOM     48  H   UNL A   1      39.389  31.913  33.250  1.00  0.00     0.167 HD
ATOM     49  C   UNL A   1      40.306  28.882  30.215  1.00  0.00     0.037 A 
ATOM     50  C   UNL A   1      39.628  33.128  35.750  1.00  0.00     0.037 A 
ATOM     51  C   UNL A   1      41.272  28.676  31.261  1.00  0.00     0.049 A 
ATOM     52  C   UNL A   1      40.684  32.057  35.694  1.00  0.00     0.074 A 
ATOM     53  C   UNL A   1      42.317  27.771  31.304  1.00  0.00     0.029 A 
ATOM     54  N   UNL A   1      41.311  29.390  32.450  1.00  0.00    -0.354 N 
ATOM     55  N   UNL A   1      40.955  31.212  34.729  1.00  0.00    -0.248 NA
ATOM     56  C   UNL A   1      41.553  31.919  36.871  1.00  0.00     0.031 C 
ATOM     57  C   UNL A   1      42.963  27.908  32.538  1.00  0.00     0.029 A 
ATOM     58  C   UNL A   1      42.351  28.932  33.241  1.00  0.00     0.049 A 
ATOM     59  H   UNL A   1      40.690  30.114  32.695  1.00  0.00     0.167 HD
ATOM     60  C   UNL A   1      42.040  30.465  35.168  1.00  0.00     0.074 A 
ATOM     61  C   UNL A   1      42.388  30.967  36.480  1.00  0.00     0.031 C 
ATOM     62  C   UNL A   1      42.689  29.454  34.540  1.00  0.00     0.037 A 
BRANCH  49  63
ATOM     63  C   UNL A   1      40.354  27.982  29.015  1.00  0.00     0.064 A 
ATOM     64  C   UNL A   1      39.636  26.777  28.972  1.00  0.00     0.173 A 
ATOM     65  C   UNL A   1      41.096  28.345  27.881  1.00  0.00     0.173 A 
ATOM     66  F   UNL A   1      38.922  26.377  30.035  1.00  0.00    -0.203 F 
ATOM     67  C   UNL A   1      39.681  25.956  27.847  1.00  0.00     0.198 A 
ATOM     68  C   UNL A   1      41.113  27.537  26.747  1.00  0.00     0.198 A 
ATOM     69  F   UNL A   1      41.797  29.489  27.869  1.00  0.00    -0.203 F 
ATOM     70  F   UNL A   1      39.025  24.788  27.847  1.00  0.00    -0.200 F 
ATOM     71  C   UNL A   1      40.412  26.341  26.734  1.00  0.00     0.200 A 
ATOM     72  F   UNL A   1      41.811  27.915  25.668  1.00  0.00    -0.200 F 
ATOM     73  F   UNL A   1      40.446  25.555  25.650  1.00  0.00    -0.200 F 
ENDBRANCH  49  63
BRANCH  50  74
ATOM     74  C   UNL A   1      39.488  33.994  36.950  1.00  0.00     0.064 A 
ATOM     75  C   UNL A   1      40.120  35.244  37.010  1.00  0.00     0.173 A 
ATOM     76  C   UNL A   1      38.734  33.589  38.060  1.00  0.00     0.173 A 
ATOM     77  F   UNL A   1      40.868  35.666  35.981  1.00  0.00    -0.203 F 
ATOM     78  C   UNL A   1      40.024  36.045  38.147  1.00  0.00     0.198 A 
ATOM     79  C   UNL A   1      38.615  34.403  39.185  1.00  0.00     0.198 A 
ATOM     80  F   UNL A   1      38.106  32.405  38.050  1.00  0.00    -0.203 F 
ATOM     81  F   UNL A   1      40.678  37.214  38.197  1.00  0.00    -0.200 F 
ATOM     82  C   UNL A   1      39.268  35.627  39.231  1.00  0.00     0.200 A 
ATOM     83  F   UNL A   1      37.873  34.002  40.226  1.00  0.00    -0.200 F 
ATOM     84  F   UNL A   1      39.175  36.397  40.323  1.00  0.00    -0.200 F 
ENDBRANCH  50  74
BRANCH  62  85
ATOM     85  C   UNL A   1      43.866  28.850  35.249  1.00  0.00     0.064 A 
ATOM     86  C   UNL A   1      43.723  27.752  36.110  1.00  0.00     0.173 A 
ATOM     87  C   UNL A   1      45.158  29.349  35.028  1.00  0.00     0.173 A 
ATOM     88  F   UNL A   1      42.505  27.250  36.365  1.00  0.00    -0.203 F 
ATOM     89  C   UNL A   1      44.829  27.193  36.744  1.00  0.00     0.198 A 
ATOM     90  C   UNL A   1      46.265  28.768  35.640  1.00  0.00     0.198 A 
ATOM     91  F   UNL A   1      45.349  30.393  34.206  1.00  0.00    -0.203 F 
ATOM     92  F   UNL A   1      44.663  26.174  37.599  1.00  0.00    -0.200 F 
ATOM     93  C   UNL A   1      46.098  27.695  36.502  1.00  0.00     0.200 A 
ATOM     94  F   UNL A   1      47.492  29.246  35.394  1.00  0.00    -0.200 F 
ATOM     95  F   UNL A   1      47.162  27.149  37.108  1.00  0.00    -0.200 F 
ENDBRANCH  62  85
ENDBRANCH  36  37
ENDBRANCH  28  31
ENDBRANCH  26  27
ENDBRANCH  25  26
ENDBRANCH  24  25
ENDBRANCH   1  24
TORSDOF 18
ENDMDL
