MODEL 1
REMARK VINA RESULT:     -12.7      0.000      0.000
REMARK SMILES O=C(Cc1cccc(-c2ccn(C(F)F)c(=O)c2)c1)NCCCCNC(=O)c1ccc(-c2c3nc(c(-c4c(F)c(F)c(F)c(F)c4F)c4ccc([nH]4)c(-c4c(F)c(F)c(F)c(F)c4F)c4nc(c(-c5c(F)c(F)c(F)c(F)c5F)c5ccc2[nH]5)C=C4)C=C3)cc1
REMARK SMILES IDX 22 1 21 2 20 3 1 4 2 5 3 7 4 8 5 9 19 10 6 11 8 12 7 13 9 14
REMARK SMILES IDX 10 15 18 16 11 17 16 18 12 19 17 20 13 21 14 22 15 23 23 24
REMARK SMILES IDX 24 25 25 26 26 27 27 29 28 30 29 31 90 32 30 33 89 34 31 35
REMARK SMILES IDX 32 36 33 37 83 38 34 39 88 40 82 41 84 42 35 43 87 44 81 45
REMARK SMILES IDX 80 46 36 48 68 49 48 50 67 51 49 52 52 53 66 54 85 55 50 56
REMARK SMILES IDX 51 57 65 59 86 60 53 61 37 62 38 63 46 64 39 65 40 66 44 67
REMARK SMILES IDX 47 68 41 69 42 70 45 71 43 72 69 73 70 74 78 75 71 76 72 77
REMARK SMILES IDX 76 78 79 79 73 80 74 81 77 82 75 83 54 84 55 85 63 86 56 87
REMARK SMILES IDX 57 88 61 89 64 90 58 91 59 92 62 93 60 94
REMARK H PARENT 20 6 25 28 84 47 52 58
REMARK Flexibility Score: inf
ROOT
ATOM      1  C   UNL A   1      31.483  30.827  25.967  1.00  0.00     0.023 C 
ENDROOT
BRANCH   1   2
ATOM      2  C   UNL A   1      31.784  29.740  26.998  1.00  0.00     0.116 C 
BRANCH   2   3
ATOM      3  N   UNL A   1      32.879  28.889  26.584  1.00  0.00    -0.356 N 
ATOM      4  O   UNL A   1      31.816  26.882  26.953  1.00  0.00    -0.275 OA
ATOM      5  C   UNL A   1      32.793  27.512  26.563  1.00  0.00     0.224 C 
ATOM      6  H   UNL A   1      33.724  29.312  26.307  1.00  0.00     0.163 HD
BRANCH   5   7
ATOM      7  C   UNL A   1      34.029  26.838  25.988  1.00  0.00     0.135 C 
BRANCH   7   8
ATOM      8  C   UNL A   1      33.707  25.986  24.782  1.00  0.00    -0.038 A 
ATOM      9  C   UNL A   1      33.373  26.567  23.550  1.00  0.00     0.004 A 
ATOM     10  C   UNL A   1      33.724  24.588  24.886  1.00  0.00     0.013 A 
ATOM     11  C   UNL A   1      33.037  25.771  22.456  1.00  0.00     0.001 A 
ATOM     12  C   UNL A   1      33.411  23.779  23.784  1.00  0.00    -0.018 A 
ATOM     13  C   UNL A   1      33.052  24.382  22.573  1.00  0.00     0.009 A 
BRANCH  12  14
ATOM     14  C   UNL A   1      33.483  22.310  23.915  1.00  0.00    -0.011 A 
ATOM     15  C   UNL A   1      32.384  21.433  23.562  1.00  0.00     0.027 A 
ATOM     16  C   UNL A   1      34.600  21.776  24.441  1.00  0.00     0.080 A 
ATOM     17  C   UNL A   1      32.468  20.116  23.781  1.00  0.00     0.095 A 
ATOM     18  C   UNL A   1      34.716  20.312  24.671  1.00  0.00     0.255 A 
ATOM     19  N   UNL A   1      33.606  19.557  24.332  1.00  0.00    -0.258 N 
ATOM     20  O   UNL A   1      35.762  19.876  25.148  1.00  0.00    -0.269 OA
BRANCH  19  21
ATOM     21  C   UNL A   1      33.674  18.143  24.595  1.00  0.00     0.451 C 
ATOM     22  F   UNL A   1      32.440  17.582  24.586  1.00  0.00    -0.185 F 
ATOM     23  F   UNL A   1      34.429  17.514  23.661  1.00  0.00    -0.185 F 
ENDBRANCH  19  21
ENDBRANCH  12  14
ENDBRANCH   7   8
ENDBRANCH   5   7
ENDBRANCH   2   3
ENDBRANCH   1   2
BRANCH   1  24
ATOM     24  C   UNL A   1      31.298  32.239  26.532  1.00  0.00     0.023 C 
BRANCH  24  25
ATOM     25  C   UNL A   1      32.503  32.818  27.267  1.00  0.00     0.116 C 
BRANCH  25  26
ATOM     26  N   UNL A   1      32.324  34.218  27.615  1.00  0.00    -0.352 N 
ATOM     27  C   UNL A   1      32.979  34.982  28.548  1.00  0.00     0.251 C 
ATOM     28  H   UNL A   1      31.626  34.690  27.104  1.00  0.00     0.163 HD
ATOM     29  O   UNL A   1      32.565  36.112  28.811  1.00  0.00    -0.269 OA
BRANCH  27  30
ATOM     30  C   UNL A   1      34.164  34.458  29.264  1.00  0.00     0.039 A 
ATOM     31  C   UNL A   1      33.982  33.845  30.508  1.00  0.00     0.014 A 
ATOM     32  C   UNL A   1      35.453  34.589  28.738  1.00  0.00     0.014 A 
ATOM     33  C   UNL A   1      35.076  33.306  31.190  1.00  0.00     0.010 A 
ATOM     34  C   UNL A   1      36.534  33.992  29.386  1.00  0.00     0.010 A 
ATOM     35  C   UNL A   1      36.357  33.343  30.617  1.00  0.00    -0.014 A 
BRANCH  35  36
ATOM     36  C   UNL A   1      37.518  32.695  31.286  1.00  0.00     0.031 A 
ATOM     37  C   UNL A   1      38.244  31.559  30.621  1.00  0.00     0.074 A 
ATOM     38  C   UNL A   1      37.877  33.086  32.524  1.00  0.00     0.049 A 
ATOM     39  N   UNL A   1      39.224  30.820  31.080  1.00  0.00    -0.248 NA
ATOM     40  C   UNL A   1      37.796  31.189  29.270  1.00  0.00     0.031 C 
ATOM     41  C   UNL A   1      37.229  34.146  33.297  1.00  0.00     0.029 A 
ATOM     42  N   UNL A   1      38.869  32.628  33.357  1.00  0.00    -0.354 N 
ATOM     43  C   UNL A   1      39.498  29.893  30.082  1.00  0.00     0.074 A 
ATOM     44  C   UNL A   1      38.548  30.129  29.016  1.00  0.00     0.031 C 
ATOM     45  C   UNL A   1      37.846  34.267  34.483  1.00  0.00     0.029 A 
ATOM     46  C   UNL A   1      38.909  33.270  34.570  1.00  0.00     0.049 A 
ATOM     47  H   UNL A   1      39.492  31.907  33.108  1.00  0.00     0.167 HD
ATOM     48  C   UNL A   1      40.467  28.946  30.049  1.00  0.00     0.037 A 
ATOM     49  C   UNL A   1      39.704  33.070  35.639  1.00  0.00     0.037 A 
ATOM     50  C   UNL A   1      41.425  28.724  31.102  1.00  0.00     0.049 A 
ATOM     51  C   UNL A   1      40.767  32.007  35.581  1.00  0.00     0.074 A 
ATOM     52  C   UNL A   1      42.476  27.825  31.138  1.00  0.00     0.029 A 
ATOM     53  N   UNL A   1      41.446  29.409  32.308  1.00  0.00    -0.354 N 
ATOM     54  N   UNL A   1      41.055  31.178  34.608  1.00  0.00    -0.248 NA
ATOM     55  C   UNL A   1      41.619  31.856  36.769  1.00  0.00     0.031 C 
ATOM     56  C   UNL A   1      43.105  27.933  32.382  1.00  0.00     0.029 A 
ATOM     57  C   UNL A   1      42.478  28.937  33.103  1.00  0.00     0.049 A 
ATOM     58  H   UNL A   1      40.819  30.125  32.563  1.00  0.00     0.167 HD
ATOM     59  C   UNL A   1      42.136  30.428  35.053  1.00  0.00     0.074 A 
ATOM     60  C   UNL A   1      42.461  30.910  36.378  1.00  0.00     0.031 C 
ATOM     61  C   UNL A   1      42.797  29.429  34.418  1.00  0.00     0.037 A 
BRANCH  48  62
ATOM     62  C   UNL A   1      40.544  28.075  28.828  1.00  0.00     0.064 A 
ATOM     63  C   UNL A   1      39.845  26.861  28.747  1.00  0.00     0.173 A 
ATOM     64  C   UNL A   1      41.293  28.475  27.711  1.00  0.00     0.173 A 
ATOM     65  F   UNL A   1      39.121  26.428  29.790  1.00  0.00    -0.203 F 
ATOM     66  C   UNL A   1      39.919  26.065  27.607  1.00  0.00     0.198 A 
ATOM     67  C   UNL A   1      41.340  27.691  26.561  1.00  0.00     0.198 A 
ATOM     68  F   UNL A   1      41.974  29.631  27.733  1.00  0.00    -0.203 F 
ATOM     69  F   UNL A   1      39.285  24.885  27.573  1.00  0.00    -0.200 F 
ATOM     70  C   UNL A   1      40.661  26.483  26.513  1.00  0.00     0.200 A 
ATOM     71  F   UNL A   1      42.047  28.104  25.499  1.00  0.00    -0.200 F 
ATOM     72  F   UNL A   1      40.727  25.720  25.414  1.00  0.00    -0.200 F 
ENDBRANCH  48  62
BRANCH  49  73
ATOM     73  C   UNL A   1      39.537  33.912  36.853  1.00  0.00     0.064 A 
ATOM     74  C   UNL A   1      40.147  35.169  36.948  1.00  0.00     0.173 A 
ATOM     75  C   UNL A   1      38.766  33.477  37.941  1.00  0.00     0.173 A 
ATOM     76  F   UNL A   1      40.912  35.619  35.942  1.00  0.00    -0.203 F 
ATOM     77  C   UNL A   1      40.010  35.952  38.092  1.00  0.00     0.198 A 
ATOM     78  C   UNL A   1      38.605  34.273  39.073  1.00  0.00     0.198 A 
ATOM     79  F   UNL A   1      38.156  32.284  37.898  1.00  0.00    -0.203 F 
ATOM     80  F   UNL A   1      40.642  37.132  38.174  1.00  0.00    -0.200 F 
ATOM     81  C   UNL A   1      39.234  35.506  39.151  1.00  0.00     0.200 A 
ATOM     82  F   UNL A   1      37.841  33.845  40.087  1.00  0.00    -0.200 F 
ATOM     83  F   UNL A   1      39.097  36.261  40.249  1.00  0.00    -0.200 F 
ENDBRANCH  49  73
BRANCH  61  84
ATOM     84  C   UNL A   1      43.963  28.811  35.136  1.00  0.00     0.064 A 
ATOM     85  C   UNL A   1      43.808  27.693  35.969  1.00  0.00     0.173 A 
ATOM     86  C   UNL A   1      45.257  29.321  34.956  1.00  0.00     0.173 A 
ATOM     87  F   UNL A   1      42.588  27.178  36.185  1.00  0.00    -0.203 F 
ATOM     88  C   UNL A   1      44.903  27.125  36.614  1.00  0.00     0.198 A 
ATOM     89  C   UNL A   1      46.354  28.733  35.580  1.00  0.00     0.198 A 
ATOM     90  F   UNL A   1      45.462  30.386  34.166  1.00  0.00    -0.203 F 
ATOM     91  F   UNL A   1      44.724  26.086  37.442  1.00  0.00    -0.200 F 
ATOM     92  C   UNL A   1      46.174  27.639  36.413  1.00  0.00     0.200 A 
ATOM     93  F   UNL A   1      47.584  29.223  35.374  1.00  0.00    -0.200 F 
ATOM     94  F   UNL A   1      47.227  27.086  37.031  1.00  0.00    -0.200 F 
ENDBRANCH  61  84
ENDBRANCH  35  36
ENDBRANCH  27  30
ENDBRANCH  25  26
ENDBRANCH  24  25
ENDBRANCH   1  24
TORSDOF 14
ENDMDL
MODEL 2
REMARK VINA RESULT:     -12.7      5.440     10.443
REMARK SMILES O=C(Cc1cccc(-c2ccn(C(F)F)c(=O)c2)c1)NCCCCNC(=O)c1ccc(-c2c3nc(c(-c4c(F)c(F)c(F)c(F)c4F)c4ccc([nH]4)c(-c4c(F)c(F)c(F)c(F)c4F)c4nc(c(-c5c(F)c(F)c(F)c(F)c5F)c5ccc2[nH]5)C=C4)C=C3)cc1
REMARK SMILES IDX 22 1 21 2 20 3 1 4 2 5 3 7 4 8 5 9 19 10 6 11 8 12 7 13 9 14
REMARK SMILES IDX 10 15 18 16 11 17 16 18 12 19 17 20 13 21 14 22 15 23 23 24
REMARK SMILES IDX 24 25 25 26 26 27 27 29 28 30 29 31 90 32 30 33 89 34 31 35
REMARK SMILES IDX 32 36 33 37 83 38 34 39 88 40 82 41 84 42 35 43 87 44 81 45
REMARK SMILES IDX 80 46 36 48 68 49 48 50 67 51 49 52 52 53 66 54 85 55 50 56
REMARK SMILES IDX 51 57 65 59 86 60 53 61 37 62 38 63 46 64 39 65 40 66 44 67
REMARK SMILES IDX 47 68 41 69 42 70 45 71 43 72 69 73 70 74 78 75 71 76 72 77
REMARK SMILES IDX 76 78 79 79 73 80 74 81 77 82 75 83 54 84 55 85 63 86 56 87
REMARK SMILES IDX 57 88 61 89 64 90 58 91 59 92 62 93 60 94
REMARK H PARENT 20 6 25 28 84 47 52 58
REMARK Flexibility Score: inf
ROOT
ATOM      1  C   UNL A   1      48.609  26.024  32.168  1.00  0.00     0.023 C 
ENDROOT
BRANCH   1   2
ATOM      2  C   UNL A   1      48.901  25.582  30.735  1.00  0.00     0.116 C 
BRANCH   2   3
ATOM      3  N   UNL A   1      47.756  25.762  29.868  1.00  0.00    -0.356 N 
ATOM      4  O   UNL A   1      48.374  27.813  29.028  1.00  0.00    -0.275 OA
ATOM      5  C   UNL A   1      47.600  26.862  29.049  1.00  0.00     0.224 C 
ATOM      6  H   UNL A   1      47.056  25.070  29.864  1.00  0.00     0.163 HD
BRANCH   5   7
ATOM      7  C   UNL A   1      46.377  26.777  28.150  1.00  0.00     0.135 C 
BRANCH   7   8
ATOM      8  C   UNL A   1      46.643  25.978  26.895  1.00  0.00    -0.038 A 
ATOM      9  C   UNL A   1      47.504  26.458  25.898  1.00  0.00     0.004 A 
ATOM     10  C   UNL A   1      46.014  24.740  26.705  1.00  0.00     0.013 A 
ATOM     11  C   UNL A   1      47.709  25.732  24.725  1.00  0.00     0.001 A 
ATOM     12  C   UNL A   1      46.234  23.990  25.540  1.00  0.00    -0.018 A 
ATOM     13  C   UNL A   1      47.074  24.504  24.545  1.00  0.00     0.009 A 
BRANCH  12  14
ATOM     14  C   UNL A   1      45.592  22.669  25.392  1.00  0.00    -0.011 A 
ATOM     15  C   UNL A   1      44.263  22.379  25.895  1.00  0.00     0.027 A 
ATOM     16  C   UNL A   1      46.301  21.682  24.816  1.00  0.00     0.080 A 
ATOM     17  C   UNL A   1      43.760  21.142  25.813  1.00  0.00     0.095 A 
ATOM     18  C   UNL A   1      45.747  20.307  24.699  1.00  0.00     0.255 A 
ATOM     19  N   UNL A   1      44.485  20.116  25.234  1.00  0.00    -0.258 N 
ATOM     20  O   UNL A   1      46.435  19.444  24.158  1.00  0.00    -0.269 OA
BRANCH  19  21
ATOM     21  C   UNL A   1      43.948  18.781  25.181  1.00  0.00     0.451 C 
ATOM     22  F   UNL A   1      44.518  17.985  26.118  1.00  0.00    -0.185 F 
ATOM     23  F   UNL A   1      42.609  18.789  25.393  1.00  0.00    -0.185 F 
ENDBRANCH  19  21
ENDBRANCH  12  14
ENDBRANCH   7   8
ENDBRANCH   5   7
ENDBRANCH   2   3
ENDBRANCH   1   2
BRANCH   1  24
ATOM     24  C   UNL A   1      49.210  25.140  33.266  1.00  0.00     0.023 C 
BRANCH  24  25
ATOM     25  C   UNL A   1      48.204  24.375  34.121  1.00  0.00     0.116 C 
BRANCH  25  26
ATOM     26  N   UNL A   1      48.277  24.736  35.526  1.00  0.00    -0.352 N 
ATOM     27  C   UNL A   1      47.530  25.639  36.242  1.00  0.00     0.251 C 
ATOM     28  H   UNL A   1      48.967  24.262  36.045  1.00  0.00     0.163 HD
ATOM     29  O   UNL A   1      47.860  25.926  37.394  1.00  0.00    -0.269 OA
BRANCH  27  30
ATOM     30  C   UNL A   1      46.348  26.295  35.640  1.00  0.00     0.039 A 
ATOM     31  C   UNL A   1      46.509  27.545  35.033  1.00  0.00     0.014 A 
ATOM     32  C   UNL A   1      45.081  25.707  35.692  1.00  0.00     0.014 A 
ATOM     33  C   UNL A   1      45.419  28.171  34.422  1.00  0.00     0.010 A 
ATOM     34  C   UNL A   1      44.010  26.301  35.024  1.00  0.00     0.010 A 
ATOM     35  C   UNL A   1      44.167  27.537  34.381  1.00  0.00    -0.014 A 
BRANCH  35  36
ATOM     36  C   UNL A   1      43.019  28.147  33.657  1.00  0.00     0.031 A 
ATOM     37  C   UNL A   1      42.798  27.859  32.198  1.00  0.00     0.074 A 
ATOM     38  C   UNL A   1      42.211  29.014  34.298  1.00  0.00     0.049 A 
ATOM     39  N   UNL A   1      41.903  28.358  31.381  1.00  0.00    -0.248 NA
ATOM     40  C   UNL A   1      43.719  26.903  31.567  1.00  0.00     0.031 C 
ATOM     41  C   UNL A   1      42.342  29.411  35.700  1.00  0.00     0.029 A 
ATOM     42  N   UNL A   1      41.127  29.730  33.850  1.00  0.00    -0.354 N 
ATOM     43  C   UNL A   1      42.162  27.786  30.141  1.00  0.00     0.074 A 
ATOM     44  C   UNL A   1      43.328  26.944  30.302  1.00  0.00     0.031 C 
ATOM     45  C   UNL A   1      41.370  30.286  36.002  1.00  0.00     0.029 A 
ATOM     46  C   UNL A   1      40.570  30.541  34.807  1.00  0.00     0.049 A 
ATOM     47  H   UNL A   1      40.783  29.666  32.930  1.00  0.00     0.167 HD
ATOM     48  C   UNL A   1      41.477  27.933  28.982  1.00  0.00     0.037 A 
ATOM     49  C   UNL A   1      39.539  31.404  34.730  1.00  0.00     0.037 A 
ATOM     50  C   UNL A   1      40.304  28.755  28.827  1.00  0.00     0.049 A 
ATOM     51  C   UNL A   1      38.799  31.555  33.428  1.00  0.00     0.074 A 
ATOM     52  C   UNL A   1      39.511  28.927  27.706  1.00  0.00     0.029 A 
ATOM     53  N   UNL A   1      39.757  29.548  29.826  1.00  0.00    -0.354 N 
ATOM     54  N   UNL A   1      39.016  30.963  32.280  1.00  0.00    -0.248 NA
ATOM     55  C   UNL A   1      37.666  32.491  33.415  1.00  0.00     0.031 C 
ATOM     56  C   UNL A   1      38.512  29.856  28.012  1.00  0.00     0.029 A 
ATOM     57  C   UNL A   1      38.651  30.226  29.341  1.00  0.00     0.049 A 
ATOM     58  H   UNL A   1      40.105  29.619  30.745  1.00  0.00     0.167 HD
ATOM     59  C   UNL A   1      38.034  31.432  31.417  1.00  0.00     0.074 A 
ATOM     60  C   UNL A   1      37.211  32.347  32.178  1.00  0.00     0.031 C 
ATOM     61  C   UNL A   1      37.835  31.130  30.110  1.00  0.00     0.037 A 
BRANCH  48  62
ATOM     62  C   UNL A   1      41.977  27.182  27.781  1.00  0.00     0.064 A 
ATOM     63  C   UNL A   1      41.469  25.919  27.441  1.00  0.00     0.173 A 
ATOM     64  C   UNL A   1      42.948  27.746  26.940  1.00  0.00     0.173 A 
ATOM     65  F   UNL A   1      40.546  25.331  28.218  1.00  0.00    -0.203 F 
ATOM     66  C   UNL A   1      41.937  25.235  26.322  1.00  0.00     0.198 A 
ATOM     67  C   UNL A   1      43.391  27.072  25.804  1.00  0.00     0.198 A 
ATOM     68  F   UNL A   1      43.462  28.954  27.215  1.00  0.00    -0.203 F 
ATOM     69  F   UNL A   1      41.474  24.008  26.047  1.00  0.00    -0.200 F 
ATOM     70  C   UNL A   1      42.892  25.814  25.501  1.00  0.00     0.200 A 
ATOM     71  F   UNL A   1      44.305  27.640  25.004  1.00  0.00    -0.200 F 
ATOM     72  F   UNL A   1      43.338  25.158  24.421  1.00  0.00    -0.200 F 
ENDBRANCH  48  62
BRANCH  49  73
ATOM     73  C   UNL A   1      39.130  32.179  35.930  1.00  0.00     0.064 A 
ATOM     74  C   UNL A   1      39.595  33.483  36.140  1.00  0.00     0.173 A 
ATOM     75  C   UNL A   1      38.267  31.632  36.892  1.00  0.00     0.173 A 
ATOM     76  F   UNL A   1      40.439  34.041  35.259  1.00  0.00    -0.203 F 
ATOM     77  C   UNL A   1      39.231  34.205  37.274  1.00  0.00     0.198 A 
ATOM     78  C   UNL A   1      37.880  32.365  38.011  1.00  0.00     0.198 A 
ATOM     79  F   UNL A   1      37.789  30.389  36.736  1.00  0.00    -0.203 F 
ATOM     80  F   UNL A   1      39.726  35.435  37.471  1.00  0.00    -0.200 F 
ATOM     81  C   UNL A   1      38.368  33.648  38.205  1.00  0.00     0.200 A 
ATOM     82  F   UNL A   1      37.033  31.828  38.901  1.00  0.00    -0.200 F 
ATOM     83  F   UNL A   1      38.012  34.344  39.293  1.00  0.00    -0.200 F 
ENDBRANCH  49  73
BRANCH  61  84
ATOM     84  C   UNL A   1      36.660  31.769  29.428  1.00  0.00     0.064 A 
ATOM     85  C   UNL A   1      36.645  33.136  29.113  1.00  0.00     0.173 A 
ATOM     86  C   UNL A   1      35.553  30.996  29.049  1.00  0.00     0.173 A 
ATOM     87  F   UNL A   1      37.673  33.922  29.467  1.00  0.00    -0.203 F 
ATOM     88  C   UNL A   1      35.553  33.709  28.466  1.00  0.00     0.198 A 
ATOM     89  C   UNL A   1      34.475  31.566  28.377  1.00  0.00     0.198 A 
ATOM     90  F   UNL A   1      35.519  29.683  29.322  1.00  0.00    -0.203 F 
ATOM     91  F   UNL A   1      35.540  35.026  28.217  1.00  0.00    -0.200 F 
ATOM     92  C   UNL A   1      34.474  32.923  28.092  1.00  0.00     0.200 A 
ATOM     93  F   UNL A   1      33.439  30.803  28.004  1.00  0.00    -0.200 F 
ATOM     94  F   UNL A   1      33.427  33.476  27.464  1.00  0.00    -0.200 F 
ENDBRANCH  61  84
ENDBRANCH  35  36
ENDBRANCH  27  30
ENDBRANCH  25  26
ENDBRANCH  24  25
ENDBRANCH   1  24
TORSDOF 14
ENDMDL
MODEL 3
REMARK VINA RESULT:     -12.5      4.067      8.229
REMARK SMILES O=C(Cc1cccc(-c2ccn(C(F)F)c(=O)c2)c1)NCCCCNC(=O)c1ccc(-c2c3nc(c(-c4c(F)c(F)c(F)c(F)c4F)c4ccc([nH]4)c(-c4c(F)c(F)c(F)c(F)c4F)c4nc(c(-c5c(F)c(F)c(F)c(F)c5F)c5ccc2[nH]5)C=C4)C=C3)cc1
REMARK SMILES IDX 22 1 21 2 20 3 1 4 2 5 3 7 4 8 5 9 19 10 6 11 8 12 7 13 9 14
REMARK SMILES IDX 10 15 18 16 11 17 16 18 12 19 17 20 13 21 14 22 15 23 23 24
REMARK SMILES IDX 24 25 25 26 26 27 27 29 28 30 29 31 90 32 30 33 89 34 31 35
REMARK SMILES IDX 32 36 33 37 83 38 34 39 88 40 82 41 84 42 35 43 87 44 81 45
REMARK SMILES IDX 80 46 36 48 68 49 48 50 67 51 49 52 52 53 66 54 85 55 50 56
REMARK SMILES IDX 51 57 65 59 86 60 53 61 37 62 38 63 46 64 39 65 40 66 44 67
REMARK SMILES IDX 47 68 41 69 42 70 45 71 43 72 69 73 70 74 78 75 71 76 72 77
REMARK SMILES IDX 76 78 79 79 73 80 74 81 77 82 75 83 54 84 55 85 63 86 56 87
REMARK SMILES IDX 57 88 61 89 64 90 58 91 59 92 62 93 60 94
REMARK H PARENT 20 6 25 28 84 47 52 58
REMARK Flexibility Score: inf
ROOT
ATOM      1  C   UNL A   1      35.233  22.738  26.708  1.00  0.00     0.023 C 
ENDROOT
BRANCH   1   2
ATOM      2  C   UNL A   1      34.249  21.569  26.711  1.00  0.00     0.116 C 
BRANCH   2   3
ATOM      3  N   UNL A   1      32.985  21.923  26.100  1.00  0.00    -0.356 N 
ATOM      4  O   UNL A   1      32.059  22.917  27.957  1.00  0.00    -0.275 OA
ATOM      5  C   UNL A   1      31.993  22.608  26.773  1.00  0.00     0.224 C 
ATOM      6  H   UNL A   1      32.826  21.663  25.164  1.00  0.00     0.163 HD
BRANCH   5   7
ATOM      7  C   UNL A   1      30.804  22.964  25.894  1.00  0.00     0.135 C 
BRANCH   7   8
ATOM      8  C   UNL A   1      31.085  24.155  25.007  1.00  0.00    -0.038 A 
ATOM      9  C   UNL A   1      30.767  24.134  23.642  1.00  0.00     0.004 A 
ATOM     10  C   UNL A   1      31.687  25.302  25.542  1.00  0.00     0.013 A 
ATOM     11  C   UNL A   1      31.069  25.223  22.825  1.00  0.00     0.001 A 
ATOM     12  C   UNL A   1      31.973  26.412  24.733  1.00  0.00    -0.018 A 
ATOM     13  C   UNL A   1      31.673  26.356  23.367  1.00  0.00     0.009 A 
BRANCH  12  14
ATOM     14  C   UNL A   1      32.565  27.621  25.338  1.00  0.00    -0.011 A 
ATOM     15  C   UNL A   1      33.865  27.624  25.980  1.00  0.00     0.027 A 
ATOM     16  C   UNL A   1      31.835  28.751  25.339  1.00  0.00     0.080 A 
ATOM     17  C   UNL A   1      34.320  28.725  26.589  1.00  0.00     0.095 A 
ATOM     18  C   UNL A   1      32.336  29.988  25.994  1.00  0.00     0.255 A 
ATOM     19  N   UNL A   1      33.572  29.888  26.609  1.00  0.00    -0.258 N 
ATOM     20  O   UNL A   1      31.630  30.994  25.961  1.00  0.00    -0.269 OA
BRANCH  19  21
ATOM     21  C   UNL A   1      34.055  31.058  27.295  1.00  0.00     0.451 C 
ATOM     22  F   UNL A   1      33.659  31.065  28.591  1.00  0.00    -0.185 F 
ATOM     23  F   UNL A   1      35.410  31.108  27.270  1.00  0.00    -0.185 F 
ENDBRANCH  19  21
ENDBRANCH  12  14
ENDBRANCH   7   8
ENDBRANCH   5   7
ENDBRANCH   2   3
ENDBRANCH   1   2
BRANCH   1  24
ATOM     24  C   UNL A   1      35.483  23.386  25.341  1.00  0.00     0.023 C 
BRANCH  24  25
ATOM     25  C   UNL A   1      36.914  23.849  25.084  1.00  0.00     0.116 C 
BRANCH  25  26
ATOM     26  N   UNL A   1      37.900  22.850  25.460  1.00  0.00    -0.352 N 
ATOM     27  C   UNL A   1      39.072  22.992  26.160  1.00  0.00     0.251 C 
ATOM     28  H   UNL A   1      37.697  21.931  25.167  1.00  0.00     0.163 HD
ATOM     29  O   UNL A   1      39.858  22.046  26.231  1.00  0.00    -0.269 OA
BRANCH  27  30
ATOM     30  C   UNL A   1      39.418  24.276  26.810  1.00  0.00     0.039 A 
ATOM     31  C   UNL A   1      39.000  24.497  28.127  1.00  0.00     0.014 A 
ATOM     32  C   UNL A   1      40.125  25.272  26.130  1.00  0.00     0.014 A 
ATOM     33  C   UNL A   1      39.346  25.682  28.781  1.00  0.00     0.010 A 
ATOM     34  C   UNL A   1      40.527  26.425  26.806  1.00  0.00     0.010 A 
ATOM     35  C   UNL A   1      40.144  26.641  28.138  1.00  0.00    -0.014 A 
BRANCH  35  36
ATOM     36  C   UNL A   1      40.597  27.867  28.848  1.00  0.00     0.031 A 
ATOM     37  C   UNL A   1      42.006  27.974  29.362  1.00  0.00     0.074 A 
ATOM     38  C   UNL A   1      39.720  28.861  29.090  1.00  0.00     0.049 A 
ATOM     39  N   UNL A   1      42.560  28.926  30.072  1.00  0.00    -0.248 NA
ATOM     40  C   UNL A   1      42.906  26.851  29.059  1.00  0.00     0.031 C 
ATOM     41  C   UNL A   1      38.314  28.864  28.684  1.00  0.00     0.029 A 
ATOM     42  N   UNL A   1      39.876  30.056  29.750  1.00  0.00    -0.354 N 
ATOM     43  C   UNL A   1      43.865  28.512  30.309  1.00  0.00     0.074 A 
ATOM     44  C   UNL A   1      44.004  27.200  29.712  1.00  0.00     0.031 C 
ATOM     45  C   UNL A   1      37.741  30.008  29.089  1.00  0.00     0.029 A 
ATOM     46  C   UNL A   1      38.727  30.803  29.816  1.00  0.00     0.049 A 
ATOM     47  H   UNL A   1      40.733  30.348  30.138  1.00  0.00     0.167 HD
ATOM     48  C   UNL A   1      44.860  29.173  30.946  1.00  0.00     0.037 A 
ATOM     49  C   UNL A   1      38.488  31.990  30.406  1.00  0.00     0.037 A 
ATOM     50  C   UNL A   1      44.728  30.486  31.521  1.00  0.00     0.049 A 
ATOM     51  C   UNL A   1      39.609  32.702  31.115  1.00  0.00     0.074 A 
ATOM     52  C   UNL A   1      45.694  31.260  32.141  1.00  0.00     0.029 A 
ATOM     53  N   UNL A   1      43.551  31.221  31.551  1.00  0.00    -0.354 N 
ATOM     54  N   UNL A   1      40.853  32.326  31.279  1.00  0.00    -0.248 NA
ATOM     55  C   UNL A   1      39.292  34.005  31.714  1.00  0.00     0.031 C 
ATOM     56  C   UNL A   1      45.093  32.442  32.584  1.00  0.00     0.029 A 
ATOM     57  C   UNL A   1      43.763  32.429  32.196  1.00  0.00     0.049 A 
ATOM     58  H   UNL A   1      42.692  30.927  31.169  1.00  0.00     0.167 HD
ATOM     59  C   UNL A   1      41.474  33.355  31.975  1.00  0.00     0.074 A 
ATOM     60  C   UNL A   1      40.473  34.377  32.189  1.00  0.00     0.031 C 
ATOM     61  C   UNL A   1      42.759  33.443  32.397  1.00  0.00     0.037 A 
BRANCH  48  62
ATOM     62  C   UNL A   1      46.192  28.485  31.052  1.00  0.00     0.064 A 
ATOM     63  C   UNL A   1      46.503  27.650  32.136  1.00  0.00     0.173 A 
ATOM     64  C   UNL A   1      47.155  28.632  30.042  1.00  0.00     0.173 A 
ATOM     65  F   UNL A   1      45.621  27.483  33.134  1.00  0.00    -0.203 F 
ATOM     66  C   UNL A   1      47.738  27.014  32.221  1.00  0.00     0.198 A 
ATOM     67  C   UNL A   1      48.377  27.970  30.115  1.00  0.00     0.198 A 
ATOM     68  F   UNL A   1      46.906  29.413  28.980  1.00  0.00    -0.203 F 
ATOM     69  F   UNL A   1      48.032  26.263  33.291  1.00  0.00    -0.200 F 
ATOM     70  C   UNL A   1      48.672  27.169  31.207  1.00  0.00     0.200 A 
ATOM     71  F   UNL A   1      49.273  28.110  29.127  1.00  0.00    -0.200 F 
ATOM     72  F   UNL A   1      49.858  26.551  31.287  1.00  0.00    -0.200 F 
ENDBRANCH  48  62
BRANCH  49  73
ATOM     73  C   UNL A   1      37.131  32.593  30.334  1.00  0.00     0.064 A 
ATOM     74  C   UNL A   1      36.756  33.397  29.251  1.00  0.00     0.173 A 
ATOM     75  C   UNL A   1      36.184  32.378  31.346  1.00  0.00     0.173 A 
ATOM     76  F   UNL A   1      37.634  33.649  28.269  1.00  0.00    -0.203 F 
ATOM     77  C   UNL A   1      35.492  33.981  29.190  1.00  0.00     0.198 A 
ATOM     78  C   UNL A   1      34.911  32.938  31.271  1.00  0.00     0.198 A 
ATOM     79  F   UNL A   1      36.492  31.611  32.402  1.00  0.00    -0.203 F 
ATOM     80  F   UNL A   1      35.175  34.782  28.163  1.00  0.00    -0.200 F 
ATOM     81  C   UNL A   1      34.569  33.745  30.197  1.00  0.00     0.200 A 
ATOM     82  F   UNL A   1      34.016  32.695  32.238  1.00  0.00    -0.200 F 
ATOM     83  F   UNL A   1      33.351  34.301  30.136  1.00  0.00    -0.200 F 
ENDBRANCH  49  73
BRANCH  61  84
ATOM     84  C   UNL A   1      43.166  34.702  33.107  1.00  0.00     0.064 A 
ATOM     85  C   UNL A   1      43.575  35.845  32.404  1.00  0.00     0.173 A 
ATOM     86  C   UNL A   1      43.110  34.777  34.506  1.00  0.00     0.173 A 
ATOM     87  F   UNL A   1      43.661  35.819  31.065  1.00  0.00    -0.203 F 
ATOM     88  C   UNL A   1      43.935  37.009  33.078  1.00  0.00     0.198 A 
ATOM     89  C   UNL A   1      43.443  35.952  35.176  1.00  0.00     0.198 A 
ATOM     90  F   UNL A   1      42.721  33.714  35.226  1.00  0.00    -0.203 F 
ATOM     91  F   UNL A   1      44.366  38.074  32.388  1.00  0.00    -0.200 F 
ATOM     92  C   UNL A   1      43.861  37.064  34.461  1.00  0.00     0.200 A 
ATOM     93  F   UNL A   1      43.358  36.007  36.513  1.00  0.00    -0.200 F 
ATOM     94  F   UNL A   1      44.202  38.187  35.108  1.00  0.00    -0.200 F 
ENDBRANCH  61  84
ENDBRANCH  35  36
ENDBRANCH  27  30
ENDBRANCH  25  26
ENDBRANCH  24  25
ENDBRANCH   1  24
TORSDOF 14
ENDMDL
