MODEL 1
REMARK VINA RESULT:     -13.0      0.000      0.000
REMARK SMILES CC(C)(C[N@H+]1C[C@@H]2C[NH2+]C[C@H]2C1(C)C)C(=O)NCCCCNC(=O)c1ccc(-c2c3nc(c(-c4c(F)c(F)c(F)c(F)c4F)c4ccc([nH]4)c(-c4c(F)c(F)c(F)c(F)c4F)c4nc(c(-c5c(F)c(F)c(F)c(F)c5F)c5ccc2[nH]5)C=C4)C=C3)cc1
REMARK SMILES IDX 19 1 18 2 17 3 15 4 16 5 2 7 1 8 3 9 4 10 5 11 6 12 12 13
REMARK SMILES IDX 7 15 11 16 13 17 14 18 8 19 10 20 9 21 20 24 21 25 22 26
REMARK SMILES IDX 23 27 24 29 25 30 26 31 87 32 27 33 86 34 28 35 29 36 30 37
REMARK SMILES IDX 80 38 31 39 85 40 79 41 81 42 32 43 84 44 78 45 77 46 33 48
REMARK SMILES IDX 65 49 45 50 64 51 46 52 49 53 63 54 82 55 47 56 48 57 62 59
REMARK SMILES IDX 83 60 50 61 34 62 35 63 43 64 36 65 37 66 41 67 44 68 38 69
REMARK SMILES IDX 39 70 42 71 40 72 66 73 67 74 75 75 68 76 69 77 73 78 76 79
REMARK SMILES IDX 70 80 71 81 74 82 72 83 51 84 52 85 60 86 53 87 54 88 58 89
REMARK SMILES IDX 61 90 55 91 56 92 59 93 57 94
REMARK H PARENT 17 6 5 14 9 22 9 23 22 28 81 47 49 58
REMARK Flexibility Score: inf
ROOT
ATOM      1  C   UNL A   1      32.054  30.057  27.014  1.00  0.00     0.023 C 
ENDROOT
BRANCH   1   2
ATOM      2  C   UNL A   1      33.370  29.430  26.554  1.00  0.00     0.116 C 
BRANCH   2   3
ATOM      3  N   UNL A   1      33.657  29.586  25.139  1.00  0.00    -0.355 N 
ATOM      4  C   UNL A   1      33.385  28.816  24.046  1.00  0.00     0.231 C 
ATOM      5  O   UNL A   1      33.566  29.365  22.953  1.00  0.00    -0.274 OA
ATOM      6  H   UNL A   1      34.147  30.413  24.926  1.00  0.00     0.163 HD
BRANCH   4   7
ATOM      7  C   UNL A   1      32.849  27.375  24.134  1.00  0.00     0.092 C 
ATOM      8  C   UNL A   1      32.892  26.686  22.751  1.00  0.00     0.027 C 
ATOM      9  C   UNL A   1      31.336  27.467  24.458  1.00  0.00     0.027 C 
BRANCH   7  10
ATOM     10  C   UNL A   1      33.600  26.518  25.199  1.00  0.00     0.279 C 
BRANCH  10  11
ATOM     11  N   UNL A   1      33.612  25.065  25.176  1.00  0.00    -0.329 N 
ATOM     12  C   UNL A   1      34.901  24.406  24.909  1.00  0.00     0.272 C 
ATOM     13  C   UNL A   1      32.591  24.089  25.623  1.00  0.00     0.101 C 
ATOM     14  H   UNL A   1      32.883  25.505  24.614  1.00  0.00     0.348 HD
ATOM     15  C   UNL A   1      34.867  23.439  26.047  1.00  0.00     0.114 C 
ATOM     16  C   UNL A   1      33.474  22.862  25.931  1.00  0.00     0.119 C 
ATOM     17  C   UNL A   1      31.651  24.411  26.783  1.00  0.00     0.079 C 
ATOM     18  C   UNL A   1      31.683  23.755  24.415  1.00  0.00     0.079 C 
ATOM     19  C   UNL A   1      35.678  22.186  26.182  1.00  0.00     0.270 C 
ATOM     20  C   UNL A   1      33.489  22.016  27.182  1.00  0.00     0.271 C 
ATOM     21  N   UNL A   1      34.857  21.412  27.158  1.00  0.00    -0.345 N 
ATOM     22  H   UNL A   1      35.278  21.467  28.086  1.00  0.00     0.346 HD
ATOM     23  H   UNL A   1      34.810  20.430  26.887  1.00  0.00     0.346 HD
ENDBRANCH  10  11
ENDBRANCH   7  10
ENDBRANCH   4   7
ENDBRANCH   2   3
ENDBRANCH   1   2
BRANCH   1  24
ATOM     24  C   UNL A   1      31.892  31.549  26.756  1.00  0.00     0.023 C 
BRANCH  24  25
ATOM     25  C   UNL A   1      32.958  32.438  27.375  1.00  0.00     0.116 C 
BRANCH  25  26
ATOM     26  N   UNL A   1      32.510  33.800  27.625  1.00  0.00    -0.352 N 
ATOM     27  C   UNL A   1      33.025  34.748  28.478  1.00  0.00     0.251 C 
ATOM     28  H   UNL A   1      31.722  34.084  27.108  1.00  0.00     0.163 HD
ATOM     29  O   UNL A   1      32.478  35.833  28.604  1.00  0.00    -0.269 OA
BRANCH  27  30
ATOM     30  C   UNL A   1      34.217  34.418  29.287  1.00  0.00     0.039 A 
ATOM     31  C   UNL A   1      34.027  33.854  30.550  1.00  0.00     0.014 A 
ATOM     32  C   UNL A   1      35.503  34.601  28.776  1.00  0.00     0.014 A 
ATOM     33  C   UNL A   1      35.128  33.376  31.261  1.00  0.00     0.010 A 
ATOM     34  C   UNL A   1      36.591  34.059  29.451  1.00  0.00     0.010 A 
ATOM     35  C   UNL A   1      36.409  33.423  30.688  1.00  0.00    -0.014 A 
BRANCH  35  36
ATOM     36  C   UNL A   1      37.572  32.775  31.341  1.00  0.00     0.031 A 
ATOM     37  C   UNL A   1      38.250  31.611  30.683  1.00  0.00     0.074 A 
ATOM     38  C   UNL A   1      37.951  33.179  32.569  1.00  0.00     0.049 A 
ATOM     39  N   UNL A   1      39.197  30.835  31.147  1.00  0.00    -0.248 NA
ATOM     40  C   UNL A   1      37.785  31.257  29.333  1.00  0.00     0.031 C 
ATOM     41  C   UNL A   1      37.346  34.278  33.323  1.00  0.00     0.029 A 
ATOM     42  N   UNL A   1      38.926  32.699  33.407  1.00  0.00    -0.354 N 
ATOM     43  C   UNL A   1      39.431  29.895  30.153  1.00  0.00     0.074 A 
ATOM     44  C   UNL A   1      38.495  30.167  29.082  1.00  0.00     0.031 C 
ATOM     45  C   UNL A   1      37.972  34.399  34.503  1.00  0.00     0.029 A 
ATOM     46  C   UNL A   1      38.991  33.359  34.610  1.00  0.00     0.049 A 
ATOM     47  H   UNL A   1      39.522  31.953  33.169  1.00  0.00     0.167 HD
ATOM     48  C   UNL A   1      40.357  28.908  30.130  1.00  0.00     0.037 A 
ATOM     49  C   UNL A   1      39.773  33.140  35.682  1.00  0.00     0.037 A 
ATOM     50  C   UNL A   1      41.294  28.652  31.191  1.00  0.00     0.049 A 
ATOM     51  C   UNL A   1      40.762  32.006  35.650  1.00  0.00     0.074 A 
ATOM     52  C   UNL A   1      42.311  27.716  31.238  1.00  0.00     0.029 A 
ATOM     53  N   UNL A   1      41.323  29.336  32.399  1.00  0.00    -0.354 N 
ATOM     54  N   UNL A   1      41.016  31.159  34.683  1.00  0.00    -0.248 NA
ATOM     55  C   UNL A   1      41.565  31.794  36.861  1.00  0.00     0.031 C 
ATOM     56  C   UNL A   1      42.928  27.802  32.491  1.00  0.00     0.029 A 
ATOM     57  C   UNL A   1      42.323  28.822  33.209  1.00  0.00     0.049 A 
ATOM     58  H   UNL A   1      40.723  30.077  32.643  1.00  0.00     0.167 HD
ATOM     59  C   UNL A   1      42.022  30.329  35.157  1.00  0.00     0.074 A 
ATOM     60  C   UNL A   1      42.339  30.781  36.496  1.00  0.00     0.031 C 
ATOM     61  C   UNL A   1      42.626  29.286  34.539  1.00  0.00     0.037 A 
BRANCH  48  62
ATOM     62  C   UNL A   1      40.397  28.031  28.914  1.00  0.00     0.064 A 
ATOM     63  C   UNL A   1      39.678  26.828  28.853  1.00  0.00     0.173 A 
ATOM     64  C   UNL A   1      41.146  28.406  27.789  1.00  0.00     0.173 A 
ATOM     65  F   UNL A   1      38.957  26.418  29.909  1.00  0.00    -0.203 F 
ATOM     66  C   UNL A   1      39.733  26.016  27.723  1.00  0.00     0.198 A 
ATOM     67  C   UNL A   1      41.175  27.605  26.649  1.00  0.00     0.198 A 
ATOM     68  F   UNL A   1      41.848  29.548  27.792  1.00  0.00    -0.203 F 
ATOM     69  F   UNL A   1      39.080  24.845  27.709  1.00  0.00    -0.200 F 
ATOM     70  C   UNL A   1      40.477  26.408  26.621  1.00  0.00     0.200 A 
ATOM     71  F   UNL A   1      41.885  27.991  25.579  1.00  0.00    -0.200 F 
ATOM     72  F   UNL A   1      40.526  25.627  25.533  1.00  0.00    -0.200 F 
ENDBRANCH  48  62
BRANCH  49  73
ATOM     73  C   UNL A   1      39.662  34.020  36.873  1.00  0.00     0.064 A 
ATOM     74  C   UNL A   1      38.861  33.649  37.962  1.00  0.00     0.173 A 
ATOM     75  C   UNL A   1      40.354  35.237  36.954  1.00  0.00     0.173 A 
ATOM     76  F   UNL A   1      38.163  32.504  37.921  1.00  0.00    -0.203 F 
ATOM     77  C   UNL A   1      38.746  34.469  39.083  1.00  0.00     0.198 A 
ATOM     78  C   UNL A   1      40.258  36.044  38.087  1.00  0.00     0.198 A 
ATOM     79  F   UNL A   1      41.136  35.634  35.940  1.00  0.00    -0.203 F 
ATOM     80  F   UNL A   1      37.946  34.107  40.095  1.00  0.00    -0.200 F 
ATOM     81  C   UNL A   1      39.450  35.662  39.147  1.00  0.00     0.200 A 
ATOM     82  F   UNL A   1      40.949  37.189  38.151  1.00  0.00    -0.200 F 
ATOM     83  F   UNL A   1      39.345  36.446  40.228  1.00  0.00    -0.200 F 
ENDBRANCH  49  73
BRANCH  61  84
ATOM     84  C   UNL A   1      43.709  28.574  35.294  1.00  0.00     0.064 A 
ATOM     85  C   UNL A   1      45.056  28.938  35.160  1.00  0.00     0.173 A 
ATOM     86  C   UNL A   1      43.389  27.553  36.202  1.00  0.00     0.173 A 
ATOM     87  F   UNL A   1      45.412  29.896  34.290  1.00  0.00    -0.203 F 
ATOM     88  C   UNL A   1      46.046  28.294  35.896  1.00  0.00     0.198 A 
ATOM     89  C   UNL A   1      44.379  26.929  36.955  1.00  0.00     0.198 A 
ATOM     90  F   UNL A   1      42.114  27.171  36.368  1.00  0.00    -0.203 F 
ATOM     91  F   UNL A   1      47.333  28.633  35.725  1.00  0.00    -0.200 F 
ATOM     92  C   UNL A   1      45.707  27.298  36.799  1.00  0.00     0.200 A 
ATOM     93  F   UNL A   1      44.048  25.975  37.836  1.00  0.00    -0.200 F 
ATOM     94  F   UNL A   1      46.661  26.688  37.515  1.00  0.00    -0.200 F 
ENDBRANCH  61  84
ENDBRANCH  35  36
ENDBRANCH  27  30
ENDBRANCH  25  26
ENDBRANCH  24  25
ENDBRANCH   1  24
TORSDOF 13
ENDMDL
MODEL 2
REMARK VINA RESULT:     -12.9      0.186      1.152
REMARK SMILES CC(C)(C[N@H+]1C[C@@H]2C[NH2+]C[C@H]2C1(C)C)C(=O)NCCCCNC(=O)c1ccc(-c2c3nc(c(-c4c(F)c(F)c(F)c(F)c4F)c4ccc([nH]4)c(-c4c(F)c(F)c(F)c(F)c4F)c4nc(c(-c5c(F)c(F)c(F)c(F)c5F)c5ccc2[nH]5)C=C4)C=C3)cc1
REMARK SMILES IDX 19 1 18 2 17 3 15 4 16 5 2 7 1 8 3 9 4 10 5 11 6 12 12 13
REMARK SMILES IDX 7 15 11 16 13 17 14 18 8 19 10 20 9 21 20 24 21 25 22 26
REMARK SMILES IDX 23 27 24 29 25 30 26 31 87 32 27 33 86 34 28 35 29 36 30 37
REMARK SMILES IDX 80 38 31 39 85 40 79 41 81 42 32 43 84 44 78 45 77 46 33 48
REMARK SMILES IDX 65 49 45 50 64 51 46 52 49 53 63 54 82 55 47 56 48 57 62 59
REMARK SMILES IDX 83 60 50 61 34 62 35 63 43 64 36 65 37 66 41 67 44 68 38 69
REMARK SMILES IDX 39 70 42 71 40 72 66 73 67 74 75 75 68 76 69 77 73 78 76 79
REMARK SMILES IDX 70 80 71 81 74 82 72 83 51 84 52 85 60 86 53 87 54 88 58 89
REMARK SMILES IDX 61 90 55 91 56 92 59 93 57 94
REMARK H PARENT 17 6 5 14 9 22 9 23 22 28 81 47 49 58
REMARK Flexibility Score: inf
ROOT
ATOM      1  C   UNL A   1      32.072  29.907  26.854  1.00  0.00     0.023 C 
ENDROOT
BRANCH   1   2
ATOM      2  C   UNL A   1      33.417  29.333  26.409  1.00  0.00     0.116 C 
BRANCH   2   3
ATOM      3  N   UNL A   1      33.719  29.514  25.000  1.00  0.00    -0.355 N 
ATOM      4  C   UNL A   1      33.483  28.749  23.895  1.00  0.00     0.231 C 
ATOM      5  O   UNL A   1      33.665  29.315  22.810  1.00  0.00    -0.274 OA
ATOM      6  H   UNL A   1      34.189  30.355  24.803  1.00  0.00     0.163 HD
BRANCH   4   7
ATOM      7  C   UNL A   1      32.985  27.293  23.959  1.00  0.00     0.092 C 
ATOM      8  C   UNL A   1      33.131  26.599  22.585  1.00  0.00     0.027 C 
ATOM      9  C   UNL A   1      31.454  27.342  24.192  1.00  0.00     0.027 C 
BRANCH   7  10
ATOM     10  C   UNL A   1      33.695  26.463  25.072  1.00  0.00     0.279 C 
BRANCH  10  11
ATOM     11  N   UNL A   1      33.684  25.010  25.100  1.00  0.00    -0.329 N 
ATOM     12  C   UNL A   1      34.967  24.322  24.883  1.00  0.00     0.272 C 
ATOM     13  C   UNL A   1      32.639  24.067  25.562  1.00  0.00     0.101 C 
ATOM     14  H   UNL A   1      32.974  25.441  24.510  1.00  0.00     0.348 HD
ATOM     15  C   UNL A   1      34.897  23.397  26.053  1.00  0.00     0.114 C 
ATOM     16  C   UNL A   1      33.496  22.837  25.930  1.00  0.00     0.119 C 
ATOM     17  C   UNL A   1      31.683  24.444  26.691  1.00  0.00     0.079 C 
ATOM     18  C   UNL A   1      31.749  23.703  24.349  1.00  0.00     0.079 C 
ATOM     19  C   UNL A   1      35.684  22.137  26.248  1.00  0.00     0.270 C 
ATOM     20  C   UNL A   1      33.474  22.037  27.211  1.00  0.00     0.271 C 
ATOM     21  N   UNL A   1      34.832  21.411  27.235  1.00  0.00    -0.345 N 
ATOM     22  H   UNL A   1      35.236  21.493  28.169  1.00  0.00     0.346 HD
ATOM     23  H   UNL A   1      34.775  20.421  26.998  1.00  0.00     0.346 HD
ENDBRANCH  10  11
ENDBRANCH   7  10
ENDBRANCH   4   7
ENDBRANCH   2   3
ENDBRANCH   1   2
BRANCH   1  24
ATOM     24  C   UNL A   1      31.894  31.410  26.692  1.00  0.00     0.023 C 
BRANCH  24  25
ATOM     25  C   UNL A   1      32.926  32.271  27.404  1.00  0.00     0.116 C 
BRANCH  25  26
ATOM     26  N   UNL A   1      32.491  33.642  27.625  1.00  0.00    -0.352 N 
ATOM     27  C   UNL A   1      33.021  34.606  28.451  1.00  0.00     0.251 C 
ATOM     28  H   UNL A   1      31.701  33.920  27.108  1.00  0.00     0.163 HD
ATOM     29  O   UNL A   1      32.483  35.698  28.554  1.00  0.00    -0.269 OA
BRANCH  27  30
ATOM     30  C   UNL A   1      34.216  34.286  29.258  1.00  0.00     0.039 A 
ATOM     31  C   UNL A   1      34.034  33.675  30.501  1.00  0.00     0.014 A 
ATOM     32  C   UNL A   1      35.500  34.523  28.764  1.00  0.00     0.014 A 
ATOM     33  C   UNL A   1      35.143  33.206  31.204  1.00  0.00     0.010 A 
ATOM     34  C   UNL A   1      36.598  33.992  29.429  1.00  0.00     0.010 A 
ATOM     35  C   UNL A   1      36.427  33.311  30.644  1.00  0.00    -0.014 A 
BRANCH  35  36
ATOM     36  C   UNL A   1      37.604  32.677  31.284  1.00  0.00     0.031 A 
ATOM     37  C   UNL A   1      38.295  31.527  30.615  1.00  0.00     0.074 A 
ATOM     38  C   UNL A   1      37.986  33.080  32.512  1.00  0.00     0.049 A 
ATOM     39  N   UNL A   1      39.256  30.762  31.068  1.00  0.00    -0.248 NA
ATOM     40  C   UNL A   1      37.825  31.173  29.267  1.00  0.00     0.031 C 
ATOM     41  C   UNL A   1      37.370  34.165  33.277  1.00  0.00     0.029 A 
ATOM     42  N   UNL A   1      38.974  32.610  33.341  1.00  0.00    -0.354 N 
ATOM     43  C   UNL A   1      39.496  29.831  30.068  1.00  0.00     0.074 A 
ATOM     44  C   UNL A   1      38.549  30.095  29.005  1.00  0.00     0.031 C 
ATOM     45  C   UNL A   1      38.003  34.290  34.453  1.00  0.00     0.029 A 
ATOM     46  C   UNL A   1      39.038  33.265  34.546  1.00  0.00     0.049 A 
ATOM     47  H   UNL A   1      39.579  31.874  33.094  1.00  0.00     0.167 HD
ATOM     48  C   UNL A   1      40.437  28.858  30.033  1.00  0.00     0.037 A 
ATOM     49  C   UNL A   1      39.831  33.051  35.612  1.00  0.00     0.037 A 
ATOM     50  C   UNL A   1      41.386  28.611  31.086  1.00  0.00     0.049 A 
ATOM     51  C   UNL A   1      40.836  31.932  35.567  1.00  0.00     0.074 A 
ATOM     52  C   UNL A   1      42.417  27.689  31.120  1.00  0.00     0.029 A 
ATOM     53  N   UNL A   1      41.414  29.289  32.297  1.00  0.00    -0.354 N 
ATOM     54  N   UNL A   1      41.095  31.094  34.593  1.00  0.00    -0.248 NA
ATOM     55  C   UNL A   1      41.652  31.726  36.771  1.00  0.00     0.031 C 
ATOM     56  C   UNL A   1      43.041  27.778  32.370  1.00  0.00     0.029 A 
ATOM     57  C   UNL A   1      42.426  28.784  33.097  1.00  0.00     0.049 A 
ATOM     58  H   UNL A   1      40.804  30.019  32.550  1.00  0.00     0.167 HD
ATOM     59  C   UNL A   1      42.117  30.277  35.056  1.00  0.00     0.074 A 
ATOM     60  C   UNL A   1      42.438  30.727  36.395  1.00  0.00     0.031 C 
ATOM     61  C   UNL A   1      42.732  29.246  34.427  1.00  0.00     0.037 A 
BRANCH  48  62
ATOM     62  C   UNL A   1      40.482  27.988  28.812  1.00  0.00     0.064 A 
ATOM     63  C   UNL A   1      39.768  26.782  28.744  1.00  0.00     0.173 A 
ATOM     64  C   UNL A   1      41.229  28.372  27.689  1.00  0.00     0.173 A 
ATOM     65  F   UNL A   1      39.048  26.363  29.797  1.00  0.00    -0.203 F 
ATOM     66  C   UNL A   1      39.826  25.977  27.609  1.00  0.00     0.198 A 
ATOM     67  C   UNL A   1      41.262  27.578  26.545  1.00  0.00     0.198 A 
ATOM     68  F   UNL A   1      41.927  29.518  27.700  1.00  0.00    -0.203 F 
ATOM     69  F   UNL A   1      39.178  24.804  27.588  1.00  0.00    -0.200 F 
ATOM     70  C   UNL A   1      40.569  26.379  26.509  1.00  0.00     0.200 A 
ATOM     71  F   UNL A   1      41.971  27.973  25.478  1.00  0.00    -0.200 F 
ATOM     72  F   UNL A   1      40.622  25.604  25.417  1.00  0.00    -0.200 F 
ENDBRANCH  48  62
BRANCH  49  73
ATOM     73  C   UNL A   1      39.715  33.923  36.809  1.00  0.00     0.064 A 
ATOM     74  C   UNL A   1      38.916  33.541  37.895  1.00  0.00     0.173 A 
ATOM     75  C   UNL A   1      40.401  35.143  36.897  1.00  0.00     0.173 A 
ATOM     76  F   UNL A   1      38.223  32.394  37.846  1.00  0.00    -0.203 F 
ATOM     77  C   UNL A   1      38.797  34.354  39.021  1.00  0.00     0.198 A 
ATOM     78  C   UNL A   1      40.302  35.942  38.035  1.00  0.00     0.198 A 
ATOM     79  F   UNL A   1      41.182  35.550  35.886  1.00  0.00    -0.203 F 
ATOM     80  F   UNL A   1      37.998  33.982  40.031  1.00  0.00    -0.200 F 
ATOM     81  C   UNL A   1      39.496  35.550  39.092  1.00  0.00     0.200 A 
ATOM     82  F   UNL A   1      40.987  37.091  38.106  1.00  0.00    -0.200 F 
ATOM     83  F   UNL A   1      39.387  36.326  40.179  1.00  0.00    -0.200 F 
ENDBRANCH  49  73
BRANCH  61  84
ATOM     84  C   UNL A   1      43.831  28.546  35.171  1.00  0.00     0.064 A 
ATOM     85  C   UNL A   1      43.574  27.424  35.971  1.00  0.00     0.173 A 
ATOM     86  C   UNL A   1      45.161  28.972  35.039  1.00  0.00     0.173 A 
ATOM     87  F   UNL A   1      42.315  26.991  36.143  1.00  0.00    -0.203 F 
ATOM     88  C   UNL A   1      44.609  26.761  36.625  1.00  0.00     0.198 A 
ATOM     89  C   UNL A   1      46.196  28.291  35.674  1.00  0.00     0.198 A 
ATOM     90  F   UNL A   1      45.458  30.038  34.282  1.00  0.00    -0.203 F 
ATOM     91  F   UNL A   1      44.337  25.712  37.415  1.00  0.00    -0.200 F 
ATOM     92  C   UNL A   1      45.919  27.189  36.469  1.00  0.00     0.200 A 
ATOM     93  F   UNL A   1      47.463  28.698  35.512  1.00  0.00    -0.200 F 
ATOM     94  F   UNL A   1      46.915  26.543  37.090  1.00  0.00    -0.200 F 
ENDBRANCH  61  84
ENDBRANCH  35  36
ENDBRANCH  27  30
ENDBRANCH  25  26
ENDBRANCH  24  25
ENDBRANCH   1  24
TORSDOF 13
ENDMDL
MODEL 3
REMARK VINA RESULT:     -12.9      5.748     11.284
REMARK SMILES CC(C)(C[N@H+]1C[C@@H]2C[NH2+]C[C@H]2C1(C)C)C(=O)NCCCCNC(=O)c1ccc(-c2c3nc(c(-c4c(F)c(F)c(F)c(F)c4F)c4ccc([nH]4)c(-c4c(F)c(F)c(F)c(F)c4F)c4nc(c(-c5c(F)c(F)c(F)c(F)c5F)c5ccc2[nH]5)C=C4)C=C3)cc1
REMARK SMILES IDX 19 1 18 2 17 3 15 4 16 5 2 7 1 8 3 9 4 10 5 11 6 12 12 13
REMARK SMILES IDX 7 15 11 16 13 17 14 18 8 19 10 20 9 21 20 24 21 25 22 26
REMARK SMILES IDX 23 27 24 29 25 30 26 31 87 32 27 33 86 34 28 35 29 36 30 37
REMARK SMILES IDX 80 38 31 39 85 40 79 41 81 42 32 43 84 44 78 45 77 46 33 48
REMARK SMILES IDX 65 49 45 50 64 51 46 52 49 53 63 54 82 55 47 56 48 57 62 59
REMARK SMILES IDX 83 60 50 61 34 62 35 63 43 64 36 65 37 66 41 67 44 68 38 69
REMARK SMILES IDX 39 70 42 71 40 72 66 73 67 74 75 75 68 76 69 77 73 78 76 79
REMARK SMILES IDX 70 80 71 81 74 82 72 83 51 84 52 85 60 86 53 87 54 88 58 89
REMARK SMILES IDX 61 90 55 91 56 92 59 93 57 94
REMARK H PARENT 17 6 5 14 9 22 9 23 22 28 81 47 49 58
REMARK Flexibility Score: inf
ROOT
ATOM      1  C   UNL A   1      37.190  21.639  24.534  1.00  0.00     0.023 C 
ENDROOT
BRANCH   1   2
ATOM      2  C   UNL A   1      36.826  22.649  25.622  1.00  0.00     0.116 C 
BRANCH   2   3
ATOM      3  N   UNL A   1      35.906  22.152  26.630  1.00  0.00    -0.355 N 
ATOM      4  C   UNL A   1      34.546  22.177  26.739  1.00  0.00     0.231 C 
ATOM      5  O   UNL A   1      34.072  21.447  27.619  1.00  0.00    -0.274 OA
ATOM      6  H   UNL A   1      36.354  21.710  27.387  1.00  0.00     0.163 HD
BRANCH   4   7
ATOM      7  C   UNL A   1      33.635  23.011  25.819  1.00  0.00     0.092 C 
ATOM      8  C   UNL A   1      32.212  23.127  26.412  1.00  0.00     0.027 C 
ATOM      9  C   UNL A   1      33.431  22.197  24.516  1.00  0.00     0.027 C 
BRANCH   7  10
ATOM     10  C   UNL A   1      34.220  24.424  25.513  1.00  0.00     0.279 C 
BRANCH  10  11
ATOM     11  N   UNL A   1      33.397  25.543  25.088  1.00  0.00    -0.329 N 
ATOM     12  C   UNL A   1      33.230  26.656  26.037  1.00  0.00     0.272 C 
ATOM     13  C   UNL A   1      32.876  25.897  23.747  1.00  0.00     0.101 C 
ATOM     14  H   UNL A   1      32.981  24.620  24.959  1.00  0.00     0.348 HD
ATOM     15  C   UNL A   1      33.556  27.768  25.096  1.00  0.00     0.114 C 
ATOM     16  C   UNL A   1      32.706  27.423  23.892  1.00  0.00     0.119 C 
ATOM     17  C   UNL A   1      33.652  25.535  22.482  1.00  0.00     0.079 C 
ATOM     18  C   UNL A   1      31.476  25.257  23.590  1.00  0.00     0.079 C 
ATOM     19  C   UNL A   1      33.216  29.217  25.270  1.00  0.00     0.270 C 
ATOM     20  C   UNL A   1      33.202  28.508  22.964  1.00  0.00     0.271 C 
ATOM     21  N   UNL A   1      33.277  29.703  23.861  1.00  0.00    -0.345 N 
ATOM     22  H   UNL A   1      34.154  30.201  23.703  1.00  0.00     0.346 HD
ATOM     23  H   UNL A   1      32.507  30.343  23.669  1.00  0.00     0.346 HD
ENDBRANCH  10  11
ENDBRANCH   7  10
ENDBRANCH   4   7
ENDBRANCH   2   3
ENDBRANCH   1   2
BRANCH   1  24
ATOM     24  C   UNL A   1      37.888  20.369  25.001  1.00  0.00     0.023 C 
BRANCH  24  25
ATOM     25  C   UNL A   1      39.181  20.580  25.773  1.00  0.00     0.116 C 
BRANCH  25  26
ATOM     26  N   UNL A   1      40.035  19.402  25.817  1.00  0.00    -0.352 N 
ATOM     27  C   UNL A   1      41.377  19.305  26.098  1.00  0.00     0.251 C 
ATOM     28  H   UNL A   1      39.585  18.550  25.615  1.00  0.00     0.163 HD
ATOM     29  O   UNL A   1      41.949  18.228  26.030  1.00  0.00    -0.269 OA
BRANCH  27  30
ATOM     30  C   UNL A   1      42.135  20.529  26.428  1.00  0.00     0.039 A 
ATOM     31  C   UNL A   1      42.662  21.286  25.379  1.00  0.00     0.014 A 
ATOM     32  C   UNL A   1      42.265  20.959  27.750  1.00  0.00     0.014 A 
ATOM     33  C   UNL A   1      43.230  22.531  25.649  1.00  0.00     0.010 A 
ATOM     34  C   UNL A   1      42.763  22.230  28.010  1.00  0.00     0.010 A 
ATOM     35  C   UNL A   1      43.231  23.035  26.960  1.00  0.00    -0.014 A 
BRANCH  35  36
ATOM     36  C   UNL A   1      43.672  24.419  27.257  1.00  0.00     0.031 A 
ATOM     37  C   UNL A   1      42.683  25.435  27.741  1.00  0.00     0.074 A 
ATOM     38  C   UNL A   1      44.944  24.777  26.996  1.00  0.00     0.049 A 
ATOM     39  N   UNL A   1      42.844  26.720  27.935  1.00  0.00    -0.248 NA
ATOM     40  C   UNL A   1      41.324  24.947  28.021  1.00  0.00     0.031 C 
ATOM     41  C   UNL A   1      45.989  23.884  26.491  1.00  0.00     0.029 A 
ATOM     42  N   UNL A   1      45.571  25.993  27.104  1.00  0.00    -0.354 N 
ATOM     43  C   UNL A   1      41.607  27.194  28.347  1.00  0.00     0.074 A 
ATOM     44  C   UNL A   1      40.693  26.072  28.328  1.00  0.00     0.031 C 
ATOM     45  C   UNL A   1      47.129  24.577  26.349  1.00  0.00     0.029 A 
ATOM     46  C   UNL A   1      46.886  25.971  26.707  1.00  0.00     0.049 A 
ATOM     47  H   UNL A   1      45.121  26.804  27.434  1.00  0.00     0.167 HD
ATOM     48  C   UNL A   1      41.271  28.450  28.726  1.00  0.00     0.037 A 
ATOM     49  C   UNL A   1      47.788  26.966  26.627  1.00  0.00     0.037 A 
ATOM     50  C   UNL A   1      42.187  29.559  28.757  1.00  0.00     0.049 A 
ATOM     51  C   UNL A   1      47.376  28.363  27.008  1.00  0.00     0.074 A 
ATOM     52  C   UNL A   1      41.960  30.855  29.183  1.00  0.00     0.029 A 
ATOM     53  N   UNL A   1      43.510  29.500  28.338  1.00  0.00    -0.354 N 
ATOM     54  N   UNL A   1      46.220  28.790  27.451  1.00  0.00    -0.248 NA
ATOM     55  C   UNL A   1      48.393  29.413  26.870  1.00  0.00     0.031 C 
ATOM     56  C   UNL A   1      43.132  31.593  28.980  1.00  0.00     0.029 A 
ATOM     57  C   UNL A   1      44.102  30.746  28.468  1.00  0.00     0.049 A 
ATOM     58  H   UNL A   1      43.959  28.693  27.999  1.00  0.00     0.167 HD
ATOM     59  C   UNL A   1      46.374  30.153  27.667  1.00  0.00     0.074 A 
ATOM     60  C   UNL A   1      47.741  30.478  27.315  1.00  0.00     0.031 C 
ATOM     61  C   UNL A   1      45.464  31.052  28.114  1.00  0.00     0.037 A 
BRANCH  48  62
ATOM     62  C   UNL A   1      39.848  28.688  29.136  1.00  0.00     0.064 A 
ATOM     63  C   UNL A   1      38.877  29.103  28.211  1.00  0.00     0.173 A 
ATOM     64  C   UNL A   1      39.443  28.479  30.462  1.00  0.00     0.173 A 
ATOM     65  F   UNL A   1      39.216  29.329  26.932  1.00  0.00    -0.203 F 
ATOM     66  C   UNL A   1      37.562  29.331  28.606  1.00  0.00     0.198 A 
ATOM     67  C   UNL A   1      38.120  28.681  30.848  1.00  0.00     0.198 A 
ATOM     68  F   UNL A   1      40.330  28.078  31.385  1.00  0.00    -0.203 F 
ATOM     69  F   UNL A   1      36.665  29.778  27.716  1.00  0.00    -0.200 F 
ATOM     70  C   UNL A   1      37.184  29.114  29.922  1.00  0.00     0.200 A 
ATOM     71  F   UNL A   1      37.753  28.460  32.118  1.00  0.00    -0.200 F 
ATOM     72  F   UNL A   1      35.917  29.332  30.300  1.00  0.00    -0.200 F 
ENDBRANCH  48  62
BRANCH  49  73
ATOM     73  C   UNL A   1      49.174  26.676  26.178  1.00  0.00     0.064 A 
ATOM     74  C   UNL A   1      49.538  26.846  24.835  1.00  0.00     0.173 A 
ATOM     75  C   UNL A   1      50.158  26.236  27.073  1.00  0.00     0.173 A 
ATOM     76  F   UNL A   1      48.624  27.244  23.938  1.00  0.00    -0.203 F 
ATOM     77  C   UNL A   1      50.835  26.573  24.402  1.00  0.00     0.198 A 
ATOM     78  C   UNL A   1      51.461  25.988  26.644  1.00  0.00     0.198 A 
ATOM     79  F   UNL A   1      49.859  26.063  28.369  1.00  0.00    -0.203 F 
ATOM     80  F   UNL A   1      51.148  26.709  23.107  1.00  0.00    -0.200 F 
ATOM     81  C   UNL A   1      51.796  26.151  25.309  1.00  0.00     0.200 A 
ATOM     82  F   UNL A   1      52.390  25.593  27.524  1.00  0.00    -0.200 F 
ATOM     83  F   UNL A   1      53.044  25.896  24.893  1.00  0.00    -0.200 F 
ENDBRANCH  49  73
BRANCH  61  84
ATOM     84  C   UNL A   1      45.923  32.472  28.271  1.00  0.00     0.064 A 
ATOM     85  C   UNL A   1      45.770  33.408  27.239  1.00  0.00     0.173 A 
ATOM     86  C   UNL A   1      46.471  32.911  29.485  1.00  0.00     0.173 A 
ATOM     87  F   UNL A   1      45.269  33.030  26.053  1.00  0.00    -0.203 F 
ATOM     88  C   UNL A   1      46.165  34.731  27.412  1.00  0.00     0.198 A 
ATOM     89  C   UNL A   1      46.840  34.242  29.663  1.00  0.00     0.198 A 
ATOM     90  F   UNL A   1      46.633  32.054  30.504  1.00  0.00    -0.203 F 
ATOM     91  F   UNL A   1      46.045  35.603  26.399  1.00  0.00    -0.200 F 
ATOM     92  C   UNL A   1      46.690  35.149  28.625  1.00  0.00     0.200 A 
ATOM     93  F   UNL A   1      47.337  34.646  30.840  1.00  0.00    -0.200 F 
ATOM     94  F   UNL A   1      47.059  36.426  28.794  1.00  0.00    -0.200 F 
ENDBRANCH  61  84
ENDBRANCH  35  36
ENDBRANCH  27  30
ENDBRANCH  25  26
ENDBRANCH  24  25
ENDBRANCH   1  24
TORSDOF 13
ENDMDL
