MODEL 1
REMARK VINA RESULT:     -12.3      0.000      0.000
REMARK SMILES C[C@@H]1[C@@H](C(=O)NCCCCNC(=O)c2ccc(-c3c4nc(c(-c5c(F)c(F)c(F)c(F)c5F)c5ccc([nH]5)c(-c5c(F)c(F)c(F)c(F)c5F)c5nc(c(-c6c(F)c(F)c(F)c(F)c6F)c6ccc3[nH]6)C=C5)C=C4)cc2)CCN1C(=O)Nc1nccs1
REMARK SMILES IDX 8 1 7 2 6 3 4 4 5 5 3 7 1 8 2 9 79 10 77 11 78 12 80 13
REMARK SMILES IDX 81 14 82 15 83 17 84 18 87 19 85 20 86 21 9 22 10 23 11 24
REMARK SMILES IDX 12 25 13 27 14 28 15 29 76 30 16 31 75 32 17 33 18 34 19 35
REMARK SMILES IDX 69 36 20 37 74 38 68 39 70 40 21 41 73 42 67 43 66 44 22 46
REMARK SMILES IDX 54 47 34 48 53 49 35 50 38 51 52 52 71 53 36 54 37 55 51 57
REMARK SMILES IDX 72 58 39 59 23 60 24 61 32 62 25 63 26 64 30 65 33 66 27 67
REMARK SMILES IDX 28 68 31 69 29 70 55 71 56 72 64 73 57 74 58 75 62 76 65 77
REMARK SMILES IDX 59 78 60 79 63 80 61 81 40 82 41 83 49 84 42 85 43 86 47 87
REMARK SMILES IDX 50 88 44 89 45 90 48 91 46 92
REMARK H PARENT 6 6 82 16 11 26 70 45 38 56
REMARK Flexibility Score: inf
ROOT
ATOM      1  C   UNL A   1      31.565  30.576  26.540  1.00  0.00     0.023 C 
ENDROOT
BRANCH   1   2
ATOM      2  C   UNL A   1      32.976  30.020  26.687  1.00  0.00     0.116 C 
BRANCH   2   3
ATOM      3  N   UNL A   1      33.621  29.759  25.417  1.00  0.00    -0.356 N 
ATOM      4  C   UNL A   1      33.665  28.587  24.715  1.00  0.00     0.225 C 
ATOM      5  O   UNL A   1      34.229  28.597  23.622  1.00  0.00    -0.275 OA
ATOM      6  H   UNL A   1      34.089  30.523  25.007  1.00  0.00     0.163 HD
BRANCH   4   7
ATOM      7  C   UNL A   1      33.074  27.334  25.353  1.00  0.00     0.102 C 
ATOM      8  C   UNL A   1      33.689  24.984  25.995  1.00  0.00     0.032 C 
ATOM      9  C   UNL A   1      33.790  26.052  24.893  1.00  0.00     0.096 C 
ATOM     10  N   UNL A   1      33.056  25.631  23.692  1.00  0.00    -0.321 N 
ATOM     11  C   UNL A   1      31.626  27.067  24.935  1.00  0.00     0.037 C 
ATOM     12  C   UNL A   1      31.761  26.288  23.639  1.00  0.00     0.122 C 
BRANCH  10  13
ATOM     13  C   UNL A   1      33.468  24.979  22.565  1.00  0.00     0.323 C 
ATOM     14  O   UNL A   1      33.621  25.610  21.509  1.00  0.00    -0.248 OA
ATOM     15  N   UNL A   1      33.880  23.699  22.535  1.00  0.00    -0.283 N 
ATOM     16  H   UNL A   1      34.430  23.478  21.749  1.00  0.00     0.174 HD
BRANCH  15  17
ATOM     17  C   UNL A   1      33.687  22.651  23.376  1.00  0.00     0.190 A 
ATOM     18  N   UNL A   1      34.526  22.020  24.155  1.00  0.00    -0.228 NA
ATOM     19  S   UNL A   1      32.068  22.099  23.425  1.00  0.00    -0.105 S 
ATOM     20  C   UNL A   1      33.896  20.944  24.743  1.00  0.00     0.125 A 
ATOM     21  C   UNL A   1      32.564  20.794  24.425  1.00  0.00     0.088 A 
ENDBRANCH  15  17
ENDBRANCH  10  13
ENDBRANCH   4   7
ENDBRANCH   2   3
ENDBRANCH   1   2
BRANCH   1  22
ATOM     22  C   UNL A   1      31.448  32.093  26.659  1.00  0.00     0.023 C 
BRANCH  22  23
ATOM     23  C   UNL A   1      32.648  32.794  27.283  1.00  0.00     0.116 C 
BRANCH  23  24
ATOM     24  N   UNL A   1      32.383  34.185  27.621  1.00  0.00    -0.352 N 
ATOM     25  C   UNL A   1      32.966  34.985  28.577  1.00  0.00     0.251 C 
ATOM     26  H   UNL A   1      31.680  34.618  27.086  1.00  0.00     0.163 HD
ATOM     27  O   UNL A   1      32.508  36.093  28.815  1.00  0.00    -0.269 OA
BRANCH  25  28
ATOM     28  C   UNL A   1      34.131  34.487  29.339  1.00  0.00     0.039 A 
ATOM     29  C   UNL A   1      33.917  33.866  30.572  1.00  0.00     0.014 A 
ATOM     30  C   UNL A   1      35.427  34.615  28.834  1.00  0.00     0.014 A 
ATOM     31  C   UNL A   1      34.996  33.307  31.261  1.00  0.00     0.010 A 
ATOM     32  C   UNL A   1      36.484  33.975  29.472  1.00  0.00     0.010 A 
ATOM     33  C   UNL A   1      36.282  33.320  30.696  1.00  0.00    -0.014 A 
BRANCH  33  34
ATOM     34  C   UNL A   1      37.433  32.674  31.376  1.00  0.00     0.031 A 
ATOM     35  C   UNL A   1      38.148  31.527  30.716  1.00  0.00     0.074 A 
ATOM     36  C   UNL A   1      37.793  33.070  32.613  1.00  0.00     0.049 A 
ATOM     37  N   UNL A   1      39.122  30.780  31.174  1.00  0.00    -0.248 NA
ATOM     38  C   UNL A   1      37.686  31.147  29.372  1.00  0.00     0.031 C 
ATOM     39  C   UNL A   1      37.151  34.139  33.380  1.00  0.00     0.029 A 
ATOM     40  N   UNL A   1      38.784  32.613  33.447  1.00  0.00    -0.354 N 
ATOM     41  C   UNL A   1      39.373  29.838  30.185  1.00  0.00     0.074 A 
ATOM     42  C   UNL A   1      38.409  30.064  29.132  1.00  0.00     0.031 C 
ATOM     43  C   UNL A   1      37.781  34.274  34.559  1.00  0.00     0.029 A 
ATOM     44  C   UNL A   1      38.841  33.275  34.650  1.00  0.00     0.049 A 
ATOM     45  H   UNL A   1      39.395  31.880  33.205  1.00  0.00     0.167 HD
ATOM     46  C   UNL A   1      40.339  28.889  30.144  1.00  0.00     0.037 A 
ATOM     47  C   UNL A   1      39.654  33.090  35.709  1.00  0.00     0.037 A 
ATOM     48  C   UNL A   1      41.309  28.681  31.187  1.00  0.00     0.049 A 
ATOM     49  C   UNL A   1      40.708  32.019  35.646  1.00  0.00     0.074 A 
ATOM     50  C   UNL A   1      42.360  27.782  31.221  1.00  0.00     0.029 A 
ATOM     51  N   UNL A   1      41.345  29.383  32.384  1.00  0.00    -0.354 N 
ATOM     52  N   UNL A   1      40.981  31.178  34.678  1.00  0.00    -0.248 NA
ATOM     53  C   UNL A   1      41.577  31.876  36.823  1.00  0.00     0.031 C 
ATOM     54  C   UNL A   1      42.997  27.900  32.460  1.00  0.00     0.029 A 
ATOM     55  C   UNL A   1      42.386  28.920  33.172  1.00  0.00     0.049 A 
ATOM     56  H   UNL A   1      40.723  30.103  32.635  1.00  0.00     0.167 HD
ATOM     57  C   UNL A   1      42.072  30.435  35.110  1.00  0.00     0.074 A 
ATOM     58  C   UNL A   1      42.418  30.933  36.425  1.00  0.00     0.031 C 
ATOM     59  C   UNL A   1      42.730  29.434  34.474  1.00  0.00     0.037 A 
BRANCH  46  60
ATOM     60  C   UNL A   1      40.389  28.004  28.931  1.00  0.00     0.064 A 
ATOM     61  C   UNL A   1      41.139  28.350  27.795  1.00  0.00     0.173 A 
ATOM     62  C   UNL A   1      39.698  26.784  28.910  1.00  0.00     0.173 A 
ATOM     63  F   UNL A   1      41.811  29.511  27.757  1.00  0.00    -0.203 F 
ATOM     64  C   UNL A   1      41.162  27.527  26.672  1.00  0.00     0.198 A 
ATOM     65  C   UNL A   1      39.753  25.946  27.799  1.00  0.00     0.198 A 
ATOM     66  F   UNL A   1      38.970  26.399  29.969  1.00  0.00    -0.203 F 
ATOM     67  F   UNL A   1      41.835  27.910  25.578  1.00  0.00    -0.200 F 
ATOM     68  C   UNL A   1      40.476  26.323  26.677  1.00  0.00     0.200 A 
ATOM     69  F   UNL A   1      39.102  24.775  27.812  1.00  0.00    -0.200 F 
ATOM     70  F   UNL A   1      40.505  25.530  25.598  1.00  0.00    -0.200 F 
ENDBRANCH  46  60
BRANCH  47  71
ATOM     71  C   UNL A   1      39.522  33.960  36.908  1.00  0.00     0.064 A 
ATOM     72  C   UNL A   1      40.157  35.209  36.963  1.00  0.00     0.173 A 
ATOM     73  C   UNL A   1      38.770  33.562  38.023  1.00  0.00     0.173 A 
ATOM     74  F   UNL A   1      40.904  35.626  35.931  1.00  0.00    -0.203 F 
ATOM     75  C   UNL A   1      40.066  36.015  38.097  1.00  0.00     0.198 A 
ATOM     76  C   UNL A   1      38.653  34.383  39.144  1.00  0.00     0.198 A 
ATOM     77  F   UNL A   1      38.137  32.381  38.020  1.00  0.00    -0.203 F 
ATOM     78  F   UNL A   1      40.726  37.180  38.142  1.00  0.00    -0.200 F 
ATOM     79  C   UNL A   1      39.309  35.604  39.183  1.00  0.00     0.200 A 
ATOM     80  F   UNL A   1      37.908  33.990  40.184  1.00  0.00    -0.200 F 
ATOM     81  F   UNL A   1      39.219  36.381  40.271  1.00  0.00    -0.200 F 
ENDBRANCH  47  71
BRANCH  59  82
ATOM     82  C   UNL A   1      43.927  28.846  35.164  1.00  0.00     0.064 A 
ATOM     83  C   UNL A   1      45.219  29.358  34.981  1.00  0.00     0.173 A 
ATOM     84  C   UNL A   1      43.767  27.772  36.056  1.00  0.00     0.173 A 
ATOM     85  F   UNL A   1      45.427  30.373  34.129  1.00  0.00    -0.203 F 
ATOM     86  C   UNL A   1      46.311  28.799  35.639  1.00  0.00     0.198 A 
ATOM     87  C   UNL A   1      44.857  27.239  36.741  1.00  0.00     0.198 A 
ATOM     88  F   UNL A   1      42.552  27.249  36.276  1.00  0.00    -0.203 F 
ATOM     89  F   UNL A   1      47.544  29.270  35.405  1.00  0.00    -0.200 F 
ATOM     90  C   UNL A   1      46.128  27.747  36.524  1.00  0.00     0.200 A 
ATOM     91  F   UNL A   1      44.675  26.234  37.608  1.00  0.00    -0.200 F 
ATOM     92  F   UNL A   1      47.180  27.216  37.163  1.00  0.00    -0.200 F 
ENDBRANCH  59  82
ENDBRANCH  33  34
ENDBRANCH  25  28
ENDBRANCH  23  24
ENDBRANCH  22  23
ENDBRANCH   1  22
TORSDOF 13
ENDMDL
MODEL 2
REMARK VINA RESULT:     -12.3      0.415      1.230
REMARK SMILES C[C@@H]1[C@@H](C(=O)NCCCCNC(=O)c2ccc(-c3c4nc(c(-c5c(F)c(F)c(F)c(F)c5F)c5ccc([nH]5)c(-c5c(F)c(F)c(F)c(F)c5F)c5nc(c(-c6c(F)c(F)c(F)c(F)c6F)c6ccc3[nH]6)C=C5)C=C4)cc2)CCN1C(=O)Nc1nccs1
REMARK SMILES IDX 8 1 7 2 6 3 4 4 5 5 3 7 1 8 2 9 79 10 77 11 78 12 80 13
REMARK SMILES IDX 81 14 82 15 83 17 84 18 87 19 85 20 86 21 9 22 10 23 11 24
REMARK SMILES IDX 12 25 13 27 14 28 15 29 76 30 16 31 75 32 17 33 18 34 19 35
REMARK SMILES IDX 69 36 20 37 74 38 68 39 70 40 21 41 73 42 67 43 66 44 22 46
REMARK SMILES IDX 54 47 34 48 53 49 35 50 38 51 52 52 71 53 36 54 37 55 51 57
REMARK SMILES IDX 72 58 39 59 23 60 24 61 32 62 25 63 26 64 30 65 33 66 27 67
REMARK SMILES IDX 28 68 31 69 29 70 55 71 56 72 64 73 57 74 58 75 62 76 65 77
REMARK SMILES IDX 59 78 60 79 63 80 61 81 40 82 41 83 49 84 42 85 43 86 47 87
REMARK SMILES IDX 50 88 44 89 45 90 48 91 46 92
REMARK H PARENT 6 6 82 16 11 26 70 45 38 56
REMARK Flexibility Score: inf
ROOT
ATOM      1  C   UNL A   1      31.620  30.617  26.308  1.00  0.00     0.023 C 
ENDROOT
BRANCH   1   2
ATOM      2  C   UNL A   1      33.043  30.100  26.478  1.00  0.00     0.116 C 
BRANCH   2   3
ATOM      3  N   UNL A   1      33.677  29.754  25.223  1.00  0.00    -0.356 N 
ATOM      4  C   UNL A   1      33.666  28.553  24.571  1.00  0.00     0.225 C 
ATOM      5  O   UNL A   1      34.231  28.488  23.481  1.00  0.00    -0.275 OA
ATOM      6  H   UNL A   1      34.181  30.477  24.782  1.00  0.00     0.163 HD
BRANCH   4   7
ATOM      7  C   UNL A   1      33.014  27.358  25.261  1.00  0.00     0.102 C 
ATOM      8  C   UNL A   1      33.530  25.030  26.050  1.00  0.00     0.032 C 
ATOM      9  C   UNL A   1      33.699  26.029  24.894  1.00  0.00     0.096 C 
ATOM     10  N   UNL A   1      32.985  25.565  23.698  1.00  0.00    -0.321 N 
ATOM     11  C   UNL A   1      31.571  27.115  24.815  1.00  0.00     0.037 C 
ATOM     12  C   UNL A   1      31.715  26.260  23.569  1.00  0.00     0.122 C 
BRANCH  10  13
ATOM     13  C   UNL A   1      33.405  24.837  22.621  1.00  0.00     0.323 C 
ATOM     14  O   UNL A   1      33.709  25.414  21.567  1.00  0.00    -0.248 OA
ATOM     15  N   UNL A   1      33.670  23.518  22.653  1.00  0.00    -0.283 N 
ATOM     16  H   UNL A   1      34.250  23.214  21.918  1.00  0.00     0.174 HD
BRANCH  15  17
ATOM     17  C   UNL A   1      33.296  22.525  23.498  1.00  0.00     0.190 A 
ATOM     18  N   UNL A   1      32.122  21.995  23.721  1.00  0.00    -0.228 NA
ATOM     19  S   UNL A   1      34.595  21.856  24.389  1.00  0.00    -0.105 S 
ATOM     20  C   UNL A   1      32.210  21.085  24.753  1.00  0.00     0.125 A 
ATOM     21  C   UNL A   1      33.471  20.912  25.279  1.00  0.00     0.088 A 
ENDBRANCH  15  17
ENDBRANCH  10  13
ENDBRANCH   4   7
ENDBRANCH   2   3
ENDBRANCH   1   2
BRANCH   1  22
ATOM     22  C   UNL A   1      31.405  32.073  26.710  1.00  0.00     0.023 C 
BRANCH  22  23
ATOM     23  C   UNL A   1      32.622  32.776  27.297  1.00  0.00     0.116 C 
BRANCH  23  24
ATOM     24  N   UNL A   1      32.376  34.176  27.611  1.00  0.00    -0.352 N 
ATOM     25  C   UNL A   1      32.976  34.987  28.546  1.00  0.00     0.251 C 
ATOM     26  H   UNL A   1      31.673  34.607  27.073  1.00  0.00     0.163 HD
ATOM     27  O   UNL A   1      32.532  36.105  28.768  1.00  0.00    -0.269 OA
BRANCH  25  28
ATOM     28  C   UNL A   1      34.142  34.491  29.308  1.00  0.00     0.039 A 
ATOM     29  C   UNL A   1      33.932  33.900  30.556  1.00  0.00     0.014 A 
ATOM     30  C   UNL A   1      35.433  34.591  28.787  1.00  0.00     0.014 A 
ATOM     31  C   UNL A   1      35.010  33.343  31.247  1.00  0.00     0.010 A 
ATOM     32  C   UNL A   1      36.489  33.950  29.428  1.00  0.00     0.010 A 
ATOM     33  C   UNL A   1      36.291  33.326  30.669  1.00  0.00    -0.014 A 
BRANCH  33  34
ATOM     34  C   UNL A   1      37.441  32.679  31.352  1.00  0.00     0.031 A 
ATOM     35  C   UNL A   1      38.162  31.538  30.690  1.00  0.00     0.074 A 
ATOM     36  C   UNL A   1      37.793  33.071  32.593  1.00  0.00     0.049 A 
ATOM     37  N   UNL A   1      39.135  30.792  31.149  1.00  0.00    -0.248 NA
ATOM     38  C   UNL A   1      37.707  31.163  29.341  1.00  0.00     0.031 C 
ATOM     39  C   UNL A   1      37.144  34.134  33.361  1.00  0.00     0.029 A 
ATOM     40  N   UNL A   1      38.781  32.613  33.429  1.00  0.00    -0.354 N 
ATOM     41  C   UNL A   1      39.394  29.856  30.157  1.00  0.00     0.074 A 
ATOM     42  C   UNL A   1      38.435  30.084  29.100  1.00  0.00     0.031 C 
ATOM     43  C   UNL A   1      37.767  34.264  34.544  1.00  0.00     0.029 A 
ATOM     44  C   UNL A   1      38.829  33.268  34.636  1.00  0.00     0.049 A 
ATOM     45  H   UNL A   1      39.395  31.882  33.187  1.00  0.00     0.167 HD
ATOM     46  C   UNL A   1      40.363  28.909  30.116  1.00  0.00     0.037 A 
ATOM     47  C   UNL A   1      39.637  33.081  35.698  1.00  0.00     0.037 A 
ATOM     48  C   UNL A   1      41.329  28.699  31.162  1.00  0.00     0.049 A 
ATOM     49  C   UNL A   1      40.695  32.012  35.636  1.00  0.00     0.074 A 
ATOM     50  C   UNL A   1      42.382  27.802  31.198  1.00  0.00     0.029 A 
ATOM     51  N   UNL A   1      41.356  29.395  32.363  1.00  0.00    -0.354 N 
ATOM     52  N   UNL A   1      40.975  31.177  34.664  1.00  0.00    -0.248 NA
ATOM     53  C   UNL A   1      41.558  31.867  36.816  1.00  0.00     0.031 C 
ATOM     54  C   UNL A   1      43.012  27.916  32.440  1.00  0.00     0.029 A 
ATOM     55  C   UNL A   1      42.395  28.931  33.155  1.00  0.00     0.049 A 
ATOM     56  H   UNL A   1      40.731  30.112  32.615  1.00  0.00     0.167 HD
ATOM     57  C   UNL A   1      42.066  30.435  35.099  1.00  0.00     0.074 A 
ATOM     58  C   UNL A   1      42.404  30.927  36.418  1.00  0.00     0.031 C 
ATOM     59  C   UNL A   1      42.730  29.440  34.461  1.00  0.00     0.037 A 
BRANCH  46  60
ATOM     60  C   UNL A   1      40.422  28.030  28.899  1.00  0.00     0.064 A 
ATOM     61  C   UNL A   1      39.722  26.815  28.832  1.00  0.00     0.173 A 
ATOM     62  C   UNL A   1      41.170  28.416  27.777  1.00  0.00     0.173 A 
ATOM     63  F   UNL A   1      38.999  26.392  29.881  1.00  0.00    -0.203 F 
ATOM     64  C   UNL A   1      39.800  26.003  27.703  1.00  0.00     0.198 A 
ATOM     65  C   UNL A   1      41.217  27.619  26.636  1.00  0.00     0.198 A 
ATOM     66  F   UNL A   1      41.855  29.569  27.783  1.00  0.00    -0.203 F 
ATOM     67  F   UNL A   1      39.172  24.818  27.688  1.00  0.00    -0.200 F 
ATOM     68  C   UNL A   1      40.541  26.408  26.604  1.00  0.00     0.200 A 
ATOM     69  F   UNL A   1      41.921  28.020  25.569  1.00  0.00    -0.200 F 
ATOM     70  F   UNL A   1      40.610  25.628  25.517  1.00  0.00    -0.200 F 
ENDBRANCH  46  60
BRANCH  47  71
ATOM     71  C   UNL A   1      39.497  33.944  36.901  1.00  0.00     0.064 A 
ATOM     72  C   UNL A   1      40.129  35.194  36.966  1.00  0.00     0.173 A 
ATOM     73  C   UNL A   1      38.739  33.539  38.009  1.00  0.00     0.173 A 
ATOM     74  F   UNL A   1      40.881  35.618  35.940  1.00  0.00    -0.203 F 
ATOM     75  C   UNL A   1      40.030  35.994  38.103  1.00  0.00     0.198 A 
ATOM     76  C   UNL A   1      38.615  34.354  39.133  1.00  0.00     0.198 A 
ATOM     77  F   UNL A   1      38.109  32.356  37.996  1.00  0.00    -0.203 F 
ATOM     78  F   UNL A   1      40.688  37.160  38.158  1.00  0.00    -0.200 F 
ATOM     79  C   UNL A   1      39.268  35.576  39.183  1.00  0.00     0.200 A 
ATOM     80  F   UNL A   1      37.864  33.954  40.167  1.00  0.00    -0.200 F 
ATOM     81  F   UNL A   1      39.169  36.347  40.274  1.00  0.00    -0.200 F 
ENDBRANCH  47  71
BRANCH  59  82
ATOM     82  C   UNL A   1      43.925  28.851  35.155  1.00  0.00     0.064 A 
ATOM     83  C   UNL A   1      45.215  29.373  34.987  1.00  0.00     0.173 A 
ATOM     84  C   UNL A   1      43.765  27.767  36.033  1.00  0.00     0.173 A 
ATOM     85  F   UNL A   1      45.424  30.399  34.148  1.00  0.00    -0.203 F 
ATOM     86  C   UNL A   1      46.306  28.813  35.648  1.00  0.00     0.198 A 
ATOM     87  C   UNL A   1      44.853  27.234  36.721  1.00  0.00     0.198 A 
ATOM     88  F   UNL A   1      42.552  27.234  36.239  1.00  0.00    -0.203 F 
ATOM     89  F   UNL A   1      47.537  29.294  35.428  1.00  0.00    -0.200 F 
ATOM     90  C   UNL A   1      46.123  27.751  36.520  1.00  0.00     0.200 A 
ATOM     91  F   UNL A   1      44.670  26.218  37.577  1.00  0.00    -0.200 F 
ATOM     92  F   UNL A   1      47.172  27.220  37.162  1.00  0.00    -0.200 F 
ENDBRANCH  59  82
ENDBRANCH  33  34
ENDBRANCH  25  28
ENDBRANCH  23  24
ENDBRANCH  22  23
ENDBRANCH   1  22
TORSDOF 13
ENDMDL
MODEL 3
REMARK VINA RESULT:     -12.3      5.719     11.240
REMARK SMILES C[C@@H]1[C@@H](C(=O)NCCCCNC(=O)c2ccc(-c3c4nc(c(-c5c(F)c(F)c(F)c(F)c5F)c5ccc([nH]5)c(-c5c(F)c(F)c(F)c(F)c5F)c5nc(c(-c6c(F)c(F)c(F)c(F)c6F)c6ccc3[nH]6)C=C5)C=C4)cc2)CCN1C(=O)Nc1nccs1
REMARK SMILES IDX 8 1 7 2 6 3 4 4 5 5 3 7 1 8 2 9 79 10 77 11 78 12 80 13
REMARK SMILES IDX 81 14 82 15 83 17 84 18 87 19 85 20 86 21 9 22 10 23 11 24
REMARK SMILES IDX 12 25 13 27 14 28 15 29 76 30 16 31 75 32 17 33 18 34 19 35
REMARK SMILES IDX 69 36 20 37 74 38 68 39 70 40 21 41 73 42 67 43 66 44 22 46
REMARK SMILES IDX 54 47 34 48 53 49 35 50 38 51 52 52 71 53 36 54 37 55 51 57
REMARK SMILES IDX 72 58 39 59 23 60 24 61 32 62 25 63 26 64 30 65 33 66 27 67
REMARK SMILES IDX 28 68 31 69 29 70 55 71 56 72 64 73 57 74 58 75 62 76 65 77
REMARK SMILES IDX 59 78 60 79 63 80 61 81 40 82 41 83 49 84 42 85 43 86 47 87
REMARK SMILES IDX 50 88 44 89 45 90 48 91 46 92
REMARK H PARENT 6 6 82 16 11 26 70 45 38 56
REMARK Flexibility Score: inf
ROOT
ATOM      1  C   UNL A   1      37.158  20.877  24.581  1.00  0.00     0.023 C 
ENDROOT
BRANCH   1   2
ATOM      2  C   UNL A   1      37.240  22.121  25.456  1.00  0.00     0.116 C 
BRANCH   2   3
ATOM      3  N   UNL A   1      36.247  22.143  26.510  1.00  0.00    -0.356 N 
ATOM      4  C   UNL A   1      35.031  22.766  26.515  1.00  0.00     0.225 C 
ATOM      5  O   UNL A   1      34.314  22.612  27.502  1.00  0.00    -0.275 OA
ATOM      6  H   UNL A   1      36.478  21.646  27.329  1.00  0.00     0.163 HD
BRANCH   4   7
ATOM      7  C   UNL A   1      34.667  23.659  25.332  1.00  0.00     0.102 C 
ATOM      8  C   UNL A   1      34.042  26.029  24.786  1.00  0.00     0.032 C 
ATOM      9  C   UNL A   1      33.801  24.859  25.754  1.00  0.00     0.096 C 
ATOM     10  N   UNL A   1      32.420  24.372  25.647  1.00  0.00    -0.321 N 
ATOM     11  C   UNL A   1      33.778  22.962  24.299  1.00  0.00     0.037 C 
ATOM     12  C   UNL A   1      32.372  23.170  24.831  1.00  0.00     0.122 C 
BRANCH  10  13
ATOM     13  C   UNL A   1      31.294  24.687  26.355  1.00  0.00     0.323 C 
ATOM     14  O   UNL A   1      30.927  23.956  27.286  1.00  0.00    -0.248 OA
ATOM     15  N   UNL A   1      30.612  25.839  26.223  1.00  0.00    -0.283 N 
ATOM     16  H   UNL A   1      30.040  26.050  26.996  1.00  0.00     0.174 HD
BRANCH  15  17
ATOM     17  C   UNL A   1      30.555  26.767  25.235  1.00  0.00     0.190 A 
ATOM     18  N   UNL A   1      31.163  27.918  25.113  1.00  0.00    -0.228 NA
ATOM     19  S   UNL A   1      29.534  26.325  23.935  1.00  0.00    -0.105 S 
ATOM     20  C   UNL A   1      30.708  28.568  23.986  1.00  0.00     0.125 A 
ATOM     21  C   UNL A   1      29.777  27.877  23.242  1.00  0.00     0.088 A 
ENDBRANCH  15  17
ENDBRANCH  10  13
ENDBRANCH   4   7
ENDBRANCH   2   3
ENDBRANCH   1   2
BRANCH   1  22
ATOM     22  C   UNL A   1      38.091  19.737  24.982  1.00  0.00     0.023 C 
BRANCH  22  23
ATOM     23  C   UNL A   1      39.308  20.147  25.803  1.00  0.00     0.116 C 
BRANCH  23  24
ATOM     24  N   UNL A   1      40.307  19.092  25.905  1.00  0.00    -0.352 N 
ATOM     25  C   UNL A   1      41.663  19.183  26.116  1.00  0.00     0.251 C 
ATOM     26  H   UNL A   1      39.959  18.177  25.808  1.00  0.00     0.163 HD
ATOM     27  O   UNL A   1      42.369  18.188  26.026  1.00  0.00    -0.269 OA
BRANCH  25  28
ATOM     28  C   UNL A   1      42.272  20.495  26.422  1.00  0.00     0.039 A 
ATOM     29  C   UNL A   1      42.781  21.265  25.373  1.00  0.00     0.014 A 
ATOM     30  C   UNL A   1      42.326  20.972  27.733  1.00  0.00     0.014 A 
ATOM     31  C   UNL A   1      43.275  22.545  25.631  1.00  0.00     0.010 A 
ATOM     32  C   UNL A   1      42.727  22.282  27.975  1.00  0.00     0.010 A 
ATOM     33  C   UNL A   1      43.213  23.081  26.929  1.00  0.00    -0.014 A 
BRANCH  33  34
ATOM     34  C   UNL A   1      43.668  24.465  27.218  1.00  0.00     0.031 A 
ATOM     35  C   UNL A   1      42.691  25.483  27.738  1.00  0.00     0.074 A 
ATOM     36  C   UNL A   1      44.939  24.824  26.951  1.00  0.00     0.049 A 
ATOM     37  N   UNL A   1      42.870  26.758  27.979  1.00  0.00    -0.248 NA
ATOM     38  C   UNL A   1      41.320  25.014  27.991  1.00  0.00     0.031 C 
ATOM     39  C   UNL A   1      45.971  23.943  26.402  1.00  0.00     0.029 A 
ATOM     40  N   UNL A   1      45.578  26.031  27.097  1.00  0.00    -0.354 N 
ATOM     41  C   UNL A   1      41.635  27.241  28.393  1.00  0.00     0.074 A 
ATOM     42  C   UNL A   1      40.701  26.140  28.308  1.00  0.00     0.031 C 
ATOM     43  C   UNL A   1      47.119  24.630  26.284  1.00  0.00     0.029 A 
ATOM     44  C   UNL A   1      46.895  26.009  26.707  1.00  0.00     0.049 A 
ATOM     45  H   UNL A   1      45.133  26.836  27.449  1.00  0.00     0.167 HD
ATOM     46  C   UNL A   1      41.315  28.481  28.833  1.00  0.00     0.037 A 
ATOM     47  C   UNL A   1      47.815  26.993  26.686  1.00  0.00     0.037 A 
ATOM     48  C   UNL A   1      42.252  29.568  28.934  1.00  0.00     0.049 A 
ATOM     49  C   UNL A   1      47.430  28.367  27.164  1.00  0.00     0.074 A 
ATOM     50  C   UNL A   1      42.041  30.849  29.414  1.00  0.00     0.029 A 
ATOM     51  N   UNL A   1      43.583  29.503  28.544  1.00  0.00    -0.354 N 
ATOM     52  N   UNL A   1      46.277  28.796  27.618  1.00  0.00    -0.248 NA
ATOM     53  C   UNL A   1      48.480  29.395  27.136  1.00  0.00     0.031 C 
ATOM     54  C   UNL A   1      43.227  31.574  29.263  1.00  0.00     0.029 A 
ATOM     55  C   UNL A   1      44.197  30.727  28.752  1.00  0.00     0.049 A 
ATOM     56  H   UNL A   1      44.024  28.704  28.174  1.00  0.00     0.167 HD
ATOM     57  C   UNL A   1      46.471  30.126  27.964  1.00  0.00     0.074 A 
ATOM     58  C   UNL A   1      47.857  30.432  27.678  1.00  0.00     0.031 C 
ATOM     59  C   UNL A   1      45.583  31.013  28.476  1.00  0.00     0.037 A 
BRANCH  46  60
ATOM     60  C   UNL A   1      39.888  28.726  29.235  1.00  0.00     0.064 A 
ATOM     61  C   UNL A   1      38.930  29.185  28.316  1.00  0.00     0.173 A 
ATOM     62  C   UNL A   1      39.466  28.479  30.550  1.00  0.00     0.173 A 
ATOM     63  F   UNL A   1      39.281  29.447  27.048  1.00  0.00    -0.203 F 
ATOM     64  C   UNL A   1      37.615  29.423  28.709  1.00  0.00     0.198 A 
ATOM     65  C   UNL A   1      38.142  28.684  30.930  1.00  0.00     0.198 A 
ATOM     66  F   UNL A   1      40.336  28.036  31.469  1.00  0.00    -0.203 F 
ATOM     67  F   UNL A   1      36.735  29.919  27.827  1.00  0.00    -0.200 F 
ATOM     68  C   UNL A   1      37.220  29.166  30.012  1.00  0.00     0.200 A 
ATOM     69  F   UNL A   1      37.758  28.420  32.186  1.00  0.00    -0.200 F 
ATOM     70  F   UNL A   1      35.953  29.389  30.386  1.00  0.00    -0.200 F 
ENDBRANCH  46  60
BRANCH  47  71
ATOM     71  C   UNL A   1      49.200  26.708  26.224  1.00  0.00     0.064 A 
ATOM     72  C   UNL A   1      50.163  26.202  27.109  1.00  0.00     0.173 A 
ATOM     73  C   UNL A   1      49.592  26.940  24.898  1.00  0.00     0.173 A 
ATOM     74  F   UNL A   1      49.843  25.982  28.392  1.00  0.00    -0.203 F 
ATOM     75  C   UNL A   1      51.471  25.964  26.691  1.00  0.00     0.198 A 
ATOM     76  C   UNL A   1      50.892  26.671  24.473  1.00  0.00     0.198 A 
ATOM     77  F   UNL A   1      48.708  27.416  24.009  1.00  0.00    -0.203 F 
ATOM     78  F   UNL A   1      52.384  25.531  27.571  1.00  0.00    -0.200 F 
ATOM     79  C   UNL A   1      51.833  26.193  25.372  1.00  0.00     0.200 A 
ATOM     80  F   UNL A   1      51.233  26.877  23.195  1.00  0.00    -0.200 F 
ATOM     81  F   UNL A   1      53.090  25.960  24.970  1.00  0.00    -0.200 F 
ENDBRANCH  47  71
BRANCH  59  82
ATOM     82  C   UNL A   1      46.093  32.385  28.815  1.00  0.00     0.064 A 
ATOM     83  C   UNL A   1      46.651  32.684  30.065  1.00  0.00     0.173 A 
ATOM     84  C   UNL A   1      46.055  33.407  27.852  1.00  0.00     0.173 A 
ATOM     85  F   UNL A   1      46.698  31.748  31.025  1.00  0.00    -0.203 F 
ATOM     86  C   UNL A   1      47.124  33.962  30.351  1.00  0.00     0.198 A 
ATOM     87  C   UNL A   1      46.563  34.674  28.129  1.00  0.00     0.198 A 
ATOM     88  F   UNL A   1      45.540  33.174  26.636  1.00  0.00    -0.203 F 
ATOM     89  F   UNL A   1      47.603  34.239  31.572  1.00  0.00    -0.200 F 
ATOM     90  C   UNL A   1      47.088  34.953  29.382  1.00  0.00     0.200 A 
ATOM     91  F   UNL A   1      46.542  35.624  27.184  1.00  0.00    -0.200 F 
ATOM     92  F   UNL A   1      47.552  36.180  29.656  1.00  0.00    -0.200 F 
ENDBRANCH  59  82
ENDBRANCH  33  34
ENDBRANCH  25  28
ENDBRANCH  23  24
ENDBRANCH  22  23
ENDBRANCH   1  22
TORSDOF 13
ENDMDL
