MODEL 1
REMARK VINA RESULT:     -12.9      0.000      0.000
REMARK SMILES C/C=C(\C)[C@@H]1C=C[C@@H]2C[C@H](C)C[C@H](C)[C@@H]2[C@@H]1C(=O)C1=C(NCCCCNC(=O)c2ccc(-c3c4nc(c(-c5c(F)c(F)c(F)c(F)c5F)c5ccc([nH]5)c(-c5c(F)c(F)c(F)c(F)c5F)c5nc(c(-c6c(F)c(F)c(F)c(F)c6F)c6ccc3[nH]6)C=C5)C=C4)cc2)[C@H](C[C@](C)(O)C(=O)[O-])NC1=O
REMARK SMILES IDX 23 1 22 2 21 3 20 5 19 6 101 7 92 8 100 9 102 10 17 12 18 13
REMARK SMILES IDX 16 14 5 15 6 16 7 17 15 18 8 19 13 20 9 21 12 22 14 23 10 24
REMARK SMILES IDX 11 25 3 26 1 27 2 28 4 29 93 30 94 31 95 32 96 33 97 35
REMARK SMILES IDX 98 36 99 37 24 38 25 39 26 40 27 41 28 43 29 44 30 45 91 46
REMARK SMILES IDX 31 47 90 48 32 49 33 50 34 51 84 52 35 53 89 54 83 55 85 56
REMARK SMILES IDX 36 57 88 58 82 59 81 60 37 62 69 63 49 64 68 65 50 66 53 67
REMARK SMILES IDX 67 68 86 69 51 70 52 71 66 73 87 74 54 75 38 76 39 77 47 78
REMARK SMILES IDX 40 79 41 80 45 81 48 82 42 83 43 84 46 85 44 86 70 87 71 88
REMARK SMILES IDX 79 89 72 90 73 91 77 92 80 93 74 94 75 95 78 96 76 97 55 98
REMARK SMILES IDX 56 99 64 100 57 101 58 102 62 103 65 104 59 105 60 106
REMARK SMILES IDX 63 107 61 108
REMARK H PARENT 21 4 100 11 96 34 26 42 85 61 53 72
REMARK Flexibility Score: inf
ROOT
ATOM      1  C   UNL A   1      31.221  31.090  26.531  1.00  0.00     0.023 C 
ENDROOT
BRANCH   1   2
ATOM      2  C   UNL A   1      31.379  30.316  25.223  1.00  0.00     0.113 C 
BRANCH   2   3
ATOM      3  N   UNL A   1      30.945  28.941  25.394  1.00  0.00    -0.386 N 
ATOM      4  H   UNL A   1      30.679  28.673  26.303  1.00  0.00     0.160 HD
BRANCH   3   5
ATOM      5  C   UNL A   1      30.866  27.968  24.417  1.00  0.00     0.050 C 
ATOM      6  C   UNL A   1      31.095  26.637  24.466  1.00  0.00     0.104 C 
ATOM      7  C   UNL A   1      30.607  26.140  23.164  1.00  0.00     0.257 C 
ATOM      8  C   UNL A   1      30.481  28.421  23.003  1.00  0.00     0.133 C 
ATOM      9  N   UNL A   1      30.578  27.191  22.290  1.00  0.00    -0.343 N 
ATOM     10  O   UNL A   1      30.181  25.039  22.870  1.00  0.00    -0.269 OA
ATOM     11  H   UNL A   1      30.616  27.110  21.310  1.00  0.00     0.164 HD
BRANCH   6  12
ATOM     12  C   UNL A   1      31.508  25.794  25.619  1.00  0.00     0.174 C 
ATOM     13  O   UNL A   1      30.613  25.217  26.249  1.00  0.00    -0.294 OA
BRANCH  12  14
ATOM     14  C   UNL A   1      32.991  25.672  26.114  1.00  0.00     0.076 C 
ATOM     15  C   UNL A   1      33.936  26.893  25.893  1.00  0.00     0.048 C 
ATOM     16  C   UNL A   1      34.201  27.049  24.412  1.00  0.00    -0.022 C 
ATOM     17  C   UNL A   1      34.298  25.963  23.617  1.00  0.00    -0.027 C 
ATOM     18  C   UNL A   1      33.834  24.445  25.608  1.00  0.00     0.010 C 
ATOM     19  C   UNL A   1      34.140  24.520  24.098  1.00  0.00     0.016 C 
ATOM     20  C   UNL A   1      33.480  23.019  26.066  1.00  0.00    -0.010 C 
ATOM     21  C   UNL A   1      33.117  23.764  23.247  1.00  0.00     0.011 C 
ATOM     22  C   UNL A   1      32.330  22.410  25.283  1.00  0.00     0.007 C 
ATOM     23  C   UNL A   1      33.269  22.909  27.576  1.00  0.00     0.008 C 
ATOM     24  C   UNL A   1      32.606  22.419  23.778  1.00  0.00    -0.013 C 
ATOM     25  C   UNL A   1      31.321  22.021  23.042  1.00  0.00     0.007 C 
BRANCH  15  26
ATOM     26  C   UNL A   1      33.756  28.121  26.796  1.00  0.00    -0.070 C 
ATOM     27  C   UNL A   1      34.600  30.311  27.834  1.00  0.00     0.035 C 
ATOM     28  C   UNL A   1      34.617  29.160  26.871  1.00  0.00    -0.031 C 
ATOM     29  C   UNL A   1      32.597  27.958  27.770  1.00  0.00     0.040 C 
ENDBRANCH  15  26
ENDBRANCH  12  14
ENDBRANCH   6  12
BRANCH   8  30
ATOM     30  C   UNL A   1      29.031  28.935  22.880  1.00  0.00     0.072 C 
BRANCH  30  31
ATOM     31  C   UNL A   1      28.893  30.350  22.294  1.00  0.00     0.103 C 
ATOM     32  C   UNL A   1      27.976  30.357  21.074  1.00  0.00     0.049 C 
BRANCH  31  33
ATOM     33  O   UNL A   1      30.189  30.761  21.829  1.00  0.00    -0.384 OA
ATOM     34  H   UNL A   1      30.834  30.666  22.547  1.00  0.00     0.211 HD
ENDBRANCH  31  33
BRANCH  31  35
ATOM     35  C   UNL A   1      28.393  31.354  23.345  1.00  0.00     0.073 C 
ATOM     36  O   UNL A   1      28.951  32.374  23.716  1.00  0.00    -0.547 OA
ATOM     37  O   UNL A   1      27.171  31.027  23.823  1.00  0.00    -0.547 OA
ENDBRANCH  31  35
ENDBRANCH  30  31
ENDBRANCH   8  30
ENDBRANCH   3   5
ENDBRANCH   2   3
ENDBRANCH   1   2
BRANCH   1  38
ATOM     38  C   UNL A   1      31.370  32.602  26.418  1.00  0.00     0.023 C 
BRANCH  38  39
ATOM     39  C   UNL A   1      32.642  33.128  27.063  1.00  0.00     0.116 C 
BRANCH  39  40
ATOM     40  N   UNL A   1      32.427  34.422  27.697  1.00  0.00    -0.352 N 
ATOM     41  C   UNL A   1      33.019  34.953  28.817  1.00  0.00     0.251 C 
ATOM     42  H   UNL A   1      31.761  35.000  27.260  1.00  0.00     0.163 HD
ATOM     43  O   UNL A   1      32.556  35.953  29.355  1.00  0.00    -0.269 OA
BRANCH  41  44
ATOM     44  C   UNL A   1      34.216  34.299  29.380  1.00  0.00     0.039 A 
ATOM     45  C   UNL A   1      35.481  34.645  28.898  1.00  0.00     0.014 A 
ATOM     46  C   UNL A   1      34.082  33.348  30.394  1.00  0.00     0.014 A 
ATOM     47  C   UNL A   1      36.618  34.094  29.491  1.00  0.00     0.010 A 
ATOM     48  C   UNL A   1      35.212  32.867  31.039  1.00  0.00     0.010 A 
ATOM     49  C   UNL A   1      36.491  33.231  30.591  1.00  0.00    -0.014 A 
BRANCH  49  50
ATOM     50  C   UNL A   1      37.669  32.659  31.284  1.00  0.00     0.031 A 
ATOM     51  C   UNL A   1      38.437  31.545  30.631  1.00  0.00     0.074 A 
ATOM     52  C   UNL A   1      37.975  33.054  32.534  1.00  0.00     0.049 A 
ATOM     53  N   UNL A   1      39.350  30.758  31.137  1.00  0.00    -0.248 NA
ATOM     54  C   UNL A   1      38.092  31.245  29.231  1.00  0.00     0.031 C 
ATOM     55  C   UNL A   1      37.273  34.087  33.297  1.00  0.00     0.029 A 
ATOM     56  N   UNL A   1      38.951  32.613  33.392  1.00  0.00    -0.354 N 
ATOM     57  C   UNL A   1      39.635  29.830  30.146  1.00  0.00     0.074 A 
ATOM     58  C   UNL A   1      38.795  30.144  29.011  1.00  0.00     0.031 C 
ATOM     59  C   UNL A   1      37.855  34.216  34.501  1.00  0.00     0.029 A 
ATOM     60  C   UNL A   1      38.946  33.251  34.606  1.00  0.00     0.049 A 
ATOM     61  H   UNL A   1      39.595  31.906  33.157  1.00  0.00     0.167 HD
ATOM     62  C   UNL A   1      40.522  28.809  30.181  1.00  0.00     0.037 A 
ATOM     63  C   UNL A   1      39.732  33.071  35.683  1.00  0.00     0.037 A 
ATOM     64  C   UNL A   1      41.419  28.555  31.274  1.00  0.00     0.049 A 
ATOM     65  C   UNL A   1      40.799  32.016  35.645  1.00  0.00     0.074 A 
ATOM     66  C   UNL A   1      42.408  27.594  31.378  1.00  0.00     0.029 A 
ATOM     67  N   UNL A   1      41.451  29.295  32.447  1.00  0.00    -0.354 N 
ATOM     68  N   UNL A   1      41.068  31.148  34.701  1.00  0.00    -0.248 NA
ATOM     69  C   UNL A   1      41.673  31.914  36.823  1.00  0.00     0.031 C 
ATOM     70  C   UNL A   1      43.041  27.752  32.617  1.00  0.00     0.029 A 
ATOM     71  C   UNL A   1      42.453  28.821  33.275  1.00  0.00     0.049 A 
ATOM     72  H   UNL A   1      40.850  30.045  32.659  1.00  0.00     0.167 HD
ATOM     73  C   UNL A   1      42.144  30.406  35.161  1.00  0.00     0.074 A 
ATOM     74  C   UNL A   1      42.490  30.932  36.465  1.00  0.00     0.031 C 
ATOM     75  C   UNL A   1      42.785  29.374  34.560  1.00  0.00     0.037 A 
BRANCH  62  76
ATOM     76  C   UNL A   1      40.563  27.895  28.995  1.00  0.00     0.064 A 
ATOM     77  C   UNL A   1      41.394  28.154  27.895  1.00  0.00     0.173 A 
ATOM     78  C   UNL A   1      39.764  26.743  28.963  1.00  0.00     0.173 A 
ATOM     79  F   UNL A   1      42.160  29.254  27.873  1.00  0.00    -0.203 F 
ATOM     80  C   UNL A   1      41.403  27.304  26.793  1.00  0.00     0.198 A 
ATOM     81  C   UNL A   1      39.793  25.884  27.868  1.00  0.00     0.198 A 
ATOM     82  F   UNL A   1      38.952  26.454  29.991  1.00  0.00    -0.203 F 
ATOM     83  F   UNL A   1      42.170  27.595  25.732  1.00  0.00    -0.200 F 
ATOM     84  C   UNL A   1      40.607  26.168  26.782  1.00  0.00     0.200 A 
ATOM     85  F   UNL A   1      39.026  24.785  27.859  1.00  0.00    -0.200 F 
ATOM     86  F   UNL A   1      40.616  25.354  25.718  1.00  0.00    -0.200 F 
ENDBRANCH  62  76
BRANCH  63  87
ATOM     87  C   UNL A   1      39.561  33.940  36.872  1.00  0.00     0.064 A 
ATOM     88  C   UNL A   1      38.786  33.510  37.958  1.00  0.00     0.173 A 
ATOM     89  C   UNL A   1      40.173  35.197  36.956  1.00  0.00     0.173 A 
ATOM     90  F   UNL A   1      38.169  32.320  37.910  1.00  0.00    -0.203 F 
ATOM     91  C   UNL A   1      38.619  34.313  39.083  1.00  0.00     0.198 A 
ATOM     92  C   UNL A   1      40.018  35.993  38.090  1.00  0.00     0.198 A 
ATOM     93  F   UNL A   1      40.928  35.646  35.943  1.00  0.00    -0.203 F 
ATOM     94  F   UNL A   1      37.851  33.893  40.097  1.00  0.00    -0.200 F 
ATOM     95  C   UNL A   1      39.238  35.553  39.150  1.00  0.00     0.200 A 
ATOM     96  F   UNL A   1      40.624  37.186  38.155  1.00  0.00    -0.200 F 
ATOM     97  F   UNL A   1      39.080  36.324  40.233  1.00  0.00    -0.200 F 
ENDBRANCH  63  87
BRANCH  75  98
ATOM     98  C   UNL A   1      43.937  28.768  35.297  1.00  0.00     0.064 A 
ATOM     99  C   UNL A   1      43.743  27.732  36.220  1.00  0.00     0.173 A 
ATOM    100  C   UNL A   1      45.247  29.195  35.039  1.00  0.00     0.173 A 
ATOM    101  F   UNL A   1      42.504  27.306  36.505  1.00  0.00    -0.203 F 
ATOM    102  C   UNL A   1      44.825  27.148  36.870  1.00  0.00     0.198 A 
ATOM    103  C   UNL A   1      46.328  28.598  35.681  1.00  0.00     0.198 A 
ATOM    104  F   UNL A   1      45.475  30.183  34.162  1.00  0.00    -0.203 F 
ATOM    105  F   UNL A   1      44.620  26.175  37.767  1.00  0.00    -0.200 F 
ATOM    106  C   UNL A   1      46.117  27.578  36.596  1.00  0.00     0.200 A 
ATOM    107  F   UNL A   1      47.575  29.012  35.415  1.00  0.00    -0.200 F 
ATOM    108  F   UNL A   1      47.158  27.012  37.221  1.00  0.00    -0.200 F 
ENDBRANCH  75  98
ENDBRANCH  49  50
ENDBRANCH  41  44
ENDBRANCH  39  40
ENDBRANCH  38  39
ENDBRANCH   1  38
TORSDOF 18
ENDMDL
MODEL 2
REMARK VINA RESULT:     -11.5      1.215      7.048
REMARK SMILES C/C=C(\C)[C@@H]1C=C[C@@H]2C[C@H](C)C[C@H](C)[C@@H]2[C@@H]1C(=O)C1=C(NCCCCNC(=O)c2ccc(-c3c4nc(c(-c5c(F)c(F)c(F)c(F)c5F)c5ccc([nH]5)c(-c5c(F)c(F)c(F)c(F)c5F)c5nc(c(-c6c(F)c(F)c(F)c(F)c6F)c6ccc3[nH]6)C=C5)C=C4)cc2)[C@H](C[C@](C)(O)C(=O)[O-])NC1=O
REMARK SMILES IDX 23 1 22 2 21 3 20 5 19 6 101 7 92 8 100 9 102 10 17 12 18 13
REMARK SMILES IDX 16 14 5 15 6 16 7 17 15 18 8 19 13 20 9 21 12 22 14 23 10 24
REMARK SMILES IDX 11 25 3 26 1 27 2 28 4 29 93 30 94 31 95 32 96 33 97 35
REMARK SMILES IDX 98 36 99 37 24 38 25 39 26 40 27 41 28 43 29 44 30 45 91 46
REMARK SMILES IDX 31 47 90 48 32 49 33 50 34 51 84 52 35 53 89 54 83 55 85 56
REMARK SMILES IDX 36 57 88 58 82 59 81 60 37 62 69 63 49 64 68 65 50 66 53 67
REMARK SMILES IDX 67 68 86 69 51 70 52 71 66 73 87 74 54 75 38 76 39 77 47 78
REMARK SMILES IDX 40 79 41 80 45 81 48 82 42 83 43 84 46 85 44 86 70 87 71 88
REMARK SMILES IDX 79 89 72 90 73 91 77 92 80 93 74 94 75 95 78 96 76 97 55 98
REMARK SMILES IDX 56 99 64 100 57 101 58 102 62 103 65 104 59 105 60 106
REMARK SMILES IDX 63 107 61 108
REMARK H PARENT 21 4 100 11 96 34 26 42 85 61 53 72
REMARK Flexibility Score: inf
ROOT
ATOM      1  C   UNL A   1      31.031  31.501  26.336  1.00  0.00     0.023 C 
ENDROOT
BRANCH   1   2
ATOM      2  C   UNL A   1      31.986  30.756  25.405  1.00  0.00     0.113 C 
BRANCH   2   3
ATOM      3  N   UNL A   1      31.447  29.450  25.068  1.00  0.00    -0.386 N 
ATOM      4  H   UNL A   1      31.131  28.897  25.819  1.00  0.00     0.160 HD
BRANCH   3   5
ATOM      5  C   UNL A   1      31.331  28.901  23.806  1.00  0.00     0.050 C 
ATOM      6  C   UNL A   1      31.899  27.804  23.259  1.00  0.00     0.104 C 
ATOM      7  C   UNL A   1      31.187  27.634  21.976  1.00  0.00     0.257 C 
ATOM      8  C   UNL A   1      30.436  29.635  22.800  1.00  0.00     0.133 C 
ATOM      9  N   UNL A   1      30.627  28.834  21.637  1.00  0.00    -0.343 N 
ATOM     10  O   UNL A   1      30.990  26.621  21.332  1.00  0.00    -0.269 OA
ATOM     11  H   UNL A   1      30.389  29.106  20.721  1.00  0.00     0.164 HD
BRANCH   6  12
ATOM     12  C   UNL A   1      32.842  26.828  23.865  1.00  0.00     0.174 C 
ATOM     13  O   UNL A   1      33.782  26.436  23.163  1.00  0.00    -0.294 OA
BRANCH  12  14
ATOM     14  C   UNL A   1      32.653  26.220  25.298  1.00  0.00     0.076 C 
ATOM     15  C   UNL A   1      33.709  26.582  26.388  1.00  0.00     0.048 C 
ATOM     16  C   UNL A   1      35.026  25.928  26.033  1.00  0.00    -0.022 C 
ATOM     17  C   UNL A   1      35.050  24.716  25.441  1.00  0.00    -0.027 C 
ATOM     18  C   UNL A   1      32.504  24.660  25.419  1.00  0.00     0.010 C 
ATOM     19  C   UNL A   1      33.806  23.912  25.062  1.00  0.00     0.016 C 
ATOM     20  C   UNL A   1      31.251  23.955  24.870  1.00  0.00    -0.010 C 
ATOM     21  C   UNL A   1      33.856  23.476  23.596  1.00  0.00     0.011 C 
ATOM     22  C   UNL A   1      31.309  23.722  23.371  1.00  0.00     0.007 C 
ATOM     23  C   UNL A   1      29.948  24.629  25.297  1.00  0.00     0.008 C 
ATOM     24  C   UNL A   1      32.562  22.941  22.969  1.00  0.00    -0.013 C 
ATOM     25  C   UNL A   1      32.679  22.955  21.440  1.00  0.00     0.007 C 
BRANCH  15  26
ATOM     26  C   UNL A   1      33.667  27.989  27.000  1.00  0.00    -0.070 C 
ATOM     27  C   UNL A   1      34.788  30.187  27.705  1.00  0.00     0.035 C 
ATOM     28  C   UNL A   1      34.693  28.867  26.996  1.00  0.00    -0.031 C 
ATOM     29  C   UNL A   1      32.399  28.229  27.808  1.00  0.00     0.040 C 
ENDBRANCH  15  26
ENDBRANCH  12  14
ENDBRANCH   6  12
BRANCH   8  30
ATOM     30  C   UNL A   1      28.935  29.611  23.159  1.00  0.00     0.072 C 
BRANCH  30  31
ATOM     31  C   UNL A   1      28.206  30.953  22.984  1.00  0.00     0.103 C 
ATOM     32  C   UNL A   1      28.966  32.089  23.662  1.00  0.00     0.049 C 
BRANCH  31  33
ATOM     33  O   UNL A   1      26.940  30.855  23.656  1.00  0.00    -0.384 OA
ATOM     34  H   UNL A   1      26.557  31.740  23.754  1.00  0.00     0.211 HD
ENDBRANCH  31  33
BRANCH  31  35
ATOM     35  C   UNL A   1      27.965  31.280  21.501  1.00  0.00     0.073 C 
ATOM     36  O   UNL A   1      27.930  30.494  20.568  1.00  0.00    -0.547 OA
ATOM     37  O   UNL A   1      27.721  32.595  21.302  1.00  0.00    -0.547 OA
ENDBRANCH  31  35
ENDBRANCH  30  31
ENDBRANCH   8  30
ENDBRANCH   3   5
ENDBRANCH   2   3
ENDBRANCH   1   2
BRANCH   1  38
ATOM     38  C   UNL A   1      31.691  32.248  27.489  1.00  0.00     0.023 C 
BRANCH  38  39
ATOM     39  C   UNL A   1      32.781  33.206  27.037  1.00  0.00     0.116 C 
BRANCH  39  40
ATOM     40  N   UNL A   1      32.738  34.457  27.783  1.00  0.00    -0.352 N 
ATOM     41  C   UNL A   1      33.405  34.811  28.930  1.00  0.00     0.251 C 
ATOM     42  H   UNL A   1      32.146  35.149  27.411  1.00  0.00     0.163 HD
ATOM     43  O   UNL A   1      33.079  35.810  29.561  1.00  0.00    -0.269 OA
BRANCH  41  44
ATOM     44  C   UNL A   1      34.516  33.965  29.409  1.00  0.00     0.039 A 
ATOM     45  C   UNL A   1      35.823  34.255  29.010  1.00  0.00     0.014 A 
ATOM     46  C   UNL A   1      34.259  32.891  30.264  1.00  0.00     0.014 A 
ATOM     47  C   UNL A   1      36.883  33.512  29.534  1.00  0.00     0.010 A 
ATOM     48  C   UNL A   1      35.316  32.210  30.849  1.00  0.00     0.010 A 
ATOM     49  C   UNL A   1      36.638  32.510  30.486  1.00  0.00    -0.014 A 
BRANCH  49  50
ATOM     50  C   UNL A   1      37.733  31.728  31.106  1.00  0.00     0.031 A 
ATOM     51  C   UNL A   1      38.141  32.028  32.521  1.00  0.00     0.074 A 
ATOM     52  C   UNL A   1      38.428  30.839  30.372  1.00  0.00     0.049 A 
ATOM     53  N   UNL A   1      39.196  31.630  33.182  1.00  0.00    -0.248 NA
ATOM     54  C   UNL A   1      37.267  32.942  33.274  1.00  0.00     0.031 C 
ATOM     55  C   UNL A   1      38.165  30.498  28.973  1.00  0.00     0.029 A 
ATOM     56  N   UNL A   1      39.518  30.073  30.702  1.00  0.00    -0.354 N 
ATOM     57  C   UNL A   1      39.150  32.299  34.397  1.00  0.00     0.074 A 
ATOM     58  C   UNL A   1      37.968  33.133  34.381  1.00  0.00     0.031 C 
ATOM     59  C   UNL A   1      39.054  29.575  28.571  1.00  0.00     0.029 A 
ATOM     60  C   UNL A   1      39.969  29.287  29.672  1.00  0.00     0.049 A 
ATOM     61  H   UNL A   1      39.936  30.086  31.593  1.00  0.00     0.167 HD
ATOM     62  C   UNL A   1      40.015  32.218  35.434  1.00  0.00     0.037 A 
ATOM     63  C   UNL A   1      41.010  28.435  29.624  1.00  0.00     0.037 A 
ATOM     64  C   UNL A   1      41.136  31.321  35.483  1.00  0.00     0.049 A 
ATOM     65  C   UNL A   1      41.878  28.267  30.837  1.00  0.00     0.074 A 
ATOM     66  C   UNL A   1      42.030  31.108  36.517  1.00  0.00     0.029 A 
ATOM     67  N   UNL A   1      41.497  30.464  34.454  1.00  0.00    -0.354 N 
ATOM     68  N   UNL A   1      41.822  28.896  31.985  1.00  0.00    -0.248 NA
ATOM     69  C   UNL A   1      42.955  27.270  30.749  1.00  0.00     0.031 C 
ATOM     70  C   UNL A   1      42.935  30.118  36.112  1.00  0.00     0.029 A 
ATOM     71  C   UNL A   1      42.592  29.708  34.833  1.00  0.00     0.049 A 
ATOM     72  H   UNL A   1      41.041  30.403  33.583  1.00  0.00     0.167 HD
ATOM     73  C   UNL A   1      42.844  28.368  32.759  1.00  0.00     0.074 A 
ATOM     74  C   UNL A   1      43.498  27.356  31.956  1.00  0.00     0.031 C 
ATOM     75  C   UNL A   1      43.212  28.698  34.020  1.00  0.00     0.037 A 
BRANCH  62  76
ATOM     76  C   UNL A   1      39.774  33.127  36.600  1.00  0.00     0.064 A 
ATOM     77  C   UNL A   1      38.892  32.779  37.633  1.00  0.00     0.173 A 
ATOM     78  C   UNL A   1      40.440  34.358  36.686  1.00  0.00     0.173 A 
ATOM     79  F   UNL A   1      38.218  31.621  37.584  1.00  0.00    -0.203 F 
ATOM     80  C   UNL A   1      38.665  33.646  38.699  1.00  0.00     0.198 A 
ATOM     81  C   UNL A   1      40.227  35.212  37.765  1.00  0.00     0.198 A 
ATOM     82  F   UNL A   1      41.293  34.735  35.722  1.00  0.00    -0.203 F 
ATOM     83  F   UNL A   1      37.782  33.315  39.652  1.00  0.00    -0.200 F 
ATOM     84  C   UNL A   1      39.335  34.858  38.767  1.00  0.00     0.200 A 
ATOM     85  F   UNL A   1      40.878  36.382  37.831  1.00  0.00    -0.200 F 
ATOM     86  F   UNL A   1      39.113  35.691  39.792  1.00  0.00    -0.200 F 
ENDBRANCH  62  76
BRANCH  63  87
ATOM     87  C   UNL A   1      41.260  27.648  28.393  1.00  0.00     0.064 A 
ATOM     88  C   UNL A   1      42.163  28.112  27.426  1.00  0.00     0.173 A 
ATOM     89  C   UNL A   1      40.622  26.422  28.164  1.00  0.00     0.173 A 
ATOM     90  F   UNL A   1      42.781  29.290  27.598  1.00  0.00    -0.203 F 
ATOM     91  C   UNL A   1      42.410  27.382  26.266  1.00  0.00     0.198 A 
ATOM     92  C   UNL A   1      40.883  25.685  27.010  1.00  0.00     0.198 A 
ATOM     93  F   UNL A   1      39.755  25.937  29.064  1.00  0.00    -0.203 F 
ATOM     94  F   UNL A   1      43.257  27.859  25.344  1.00  0.00    -0.200 F 
ATOM     95  C   UNL A   1      41.773  26.167  26.061  1.00  0.00     0.200 A 
ATOM     96  F   UNL A   1      40.273  24.508  26.818  1.00  0.00    -0.200 F 
ATOM     97  F   UNL A   1      42.013  25.463  24.947  1.00  0.00    -0.200 F 
ENDBRANCH  63  87
BRANCH  75  98
ATOM     98  C   UNL A   1      44.356  27.938  34.614  1.00  0.00     0.064 A 
ATOM     99  C   UNL A   1      44.147  26.734  35.300  1.00  0.00     0.173 A 
ATOM    100  C   UNL A   1      45.671  28.395  34.454  1.00  0.00     0.173 A 
ATOM    101  F   UNL A   1      42.902  26.270  35.486  1.00  0.00    -0.203 F 
ATOM    102  C   UNL A   1      45.221  26.014  35.814  1.00  0.00     0.198 A 
ATOM    103  C   UNL A   1      46.743  27.665  34.958  1.00  0.00     0.198 A 
ATOM    104  F   UNL A   1      45.913  29.543  33.804  1.00  0.00    -0.203 F 
ATOM    105  F   UNL A   1      45.002  24.876  36.486  1.00  0.00    -0.200 F 
ATOM    106  C   UNL A   1      46.518  26.478  35.638  1.00  0.00     0.200 A 
ATOM    107  F   UNL A   1      47.995  28.112  34.788  1.00  0.00    -0.200 F 
ATOM    108  F   UNL A   1      47.551  25.782  36.132  1.00  0.00    -0.200 F 
ENDBRANCH  75  98
ENDBRANCH  49  50
ENDBRANCH  41  44
ENDBRANCH  39  40
ENDBRANCH  38  39
ENDBRANCH   1  38
TORSDOF 18
ENDMDL
MODEL 3
REMARK VINA RESULT:     -11.3      1.534      7.343
REMARK SMILES C/C=C(\C)[C@@H]1C=C[C@@H]2C[C@H](C)C[C@H](C)[C@@H]2[C@@H]1C(=O)C1=C(NCCCCNC(=O)c2ccc(-c3c4nc(c(-c5c(F)c(F)c(F)c(F)c5F)c5ccc([nH]5)c(-c5c(F)c(F)c(F)c(F)c5F)c5nc(c(-c6c(F)c(F)c(F)c(F)c6F)c6ccc3[nH]6)C=C5)C=C4)cc2)[C@H](C[C@](C)(O)C(=O)[O-])NC1=O
REMARK SMILES IDX 23 1 22 2 21 3 20 5 19 6 101 7 92 8 100 9 102 10 17 12 18 13
REMARK SMILES IDX 16 14 5 15 6 16 7 17 15 18 8 19 13 20 9 21 12 22 14 23 10 24
REMARK SMILES IDX 11 25 3 26 1 27 2 28 4 29 93 30 94 31 95 32 96 33 97 35
REMARK SMILES IDX 98 36 99 37 24 38 25 39 26 40 27 41 28 43 29 44 30 45 91 46
REMARK SMILES IDX 31 47 90 48 32 49 33 50 34 51 84 52 35 53 89 54 83 55 85 56
REMARK SMILES IDX 36 57 88 58 82 59 81 60 37 62 69 63 49 64 68 65 50 66 53 67
REMARK SMILES IDX 67 68 86 69 51 70 52 71 66 73 87 74 54 75 38 76 39 77 47 78
REMARK SMILES IDX 40 79 41 80 45 81 48 82 42 83 43 84 46 85 44 86 70 87 71 88
REMARK SMILES IDX 79 89 72 90 73 91 77 92 80 93 74 94 75 95 78 96 76 97 55 98
REMARK SMILES IDX 56 99 64 100 57 101 58 102 62 103 65 104 59 105 60 106
REMARK SMILES IDX 63 107 61 108
REMARK H PARENT 21 4 100 11 96 34 26 42 85 61 53 72
REMARK Flexibility Score: inf
ROOT
ATOM      1  C   UNL A   1      34.256  29.830  27.208  1.00  0.00     0.023 C 
ENDROOT
BRANCH   1   2
ATOM      2  C   UNL A   1      34.359  28.428  26.610  1.00  0.00     0.113 C 
BRANCH   2   3
ATOM      3  N   UNL A   1      33.037  27.915  26.293  1.00  0.00    -0.386 N 
ATOM      4  H   UNL A   1      32.352  28.000  26.995  1.00  0.00     0.160 HD
BRANCH   3   5
ATOM      5  C   UNL A   1      32.639  27.319  25.113  1.00  0.00     0.050 C 
ATOM      6  C   UNL A   1      32.667  26.027  24.716  1.00  0.00     0.104 C 
ATOM      7  C   UNL A   1      31.886  26.021  23.461  1.00  0.00     0.257 C 
ATOM      8  C   UNL A   1      32.086  28.235  24.014  1.00  0.00     0.133 C 
ATOM      9  N   UNL A   1      31.866  27.295  22.966  1.00  0.00    -0.343 N 
ATOM     10  O   UNL A   1      31.251  25.116  22.953  1.00  0.00    -0.269 OA
ATOM     11  H   UNL A   1      31.719  27.529  22.022  1.00  0.00     0.164 HD
BRANCH   6  12
ATOM     12  C   UNL A   1      33.141  24.825  25.450  1.00  0.00     0.174 C 
ATOM     13  O   UNL A   1      34.146  24.953  26.160  1.00  0.00    -0.294 OA
BRANCH  12  14
ATOM     14  C   UNL A   1      32.486  23.408  25.302  1.00  0.00     0.076 C 
ATOM     15  C   UNL A   1      31.591  22.893  26.471  1.00  0.00     0.048 C 
ATOM     16  C   UNL A   1      32.465  22.617  27.675  1.00  0.00    -0.022 C 
ATOM     17  C   UNL A   1      33.716  22.138  27.517  1.00  0.00    -0.027 C 
ATOM     18  C   UNL A   1      33.433  22.193  24.986  1.00  0.00     0.010 C 
ATOM     19  C   UNL A   1      34.369  21.851  26.164  1.00  0.00     0.016 C 
ATOM     20  C   UNL A   1      34.141  22.095  23.624  1.00  0.00    -0.010 C 
ATOM     21  C   UNL A   1      35.734  22.535  26.054  1.00  0.00     0.011 C 
ATOM     22  C   UNL A   1      35.394  22.948  23.542  1.00  0.00     0.007 C 
ATOM     23  C   UNL A   1      33.203  22.335  22.441  1.00  0.00     0.008 C 
ATOM     24  C   UNL A   1      36.379  22.614  24.664  1.00  0.00    -0.013 C 
ATOM     25  C   UNL A   1      37.495  23.667  24.667  1.00  0.00     0.007 C 
BRANCH  15  26
ATOM     26  C   UNL A   1      30.191  23.500  26.634  1.00  0.00    -0.070 C 
ATOM     27  C   UNL A   1      28.564  25.484  26.587  1.00  0.00     0.035 C 
ATOM     28  C   UNL A   1      29.855  24.768  26.312  1.00  0.00    -0.031 C 
ATOM     29  C   UNL A   1      29.248  22.582  27.398  1.00  0.00     0.040 C 
ENDBRANCH  15  26
ENDBRANCH  12  14
ENDBRANCH   6  12
BRANCH   8  30
ATOM     30  C   UNL A   1      30.733  28.891  24.364  1.00  0.00     0.072 C 
BRANCH  30  31
ATOM     31  C   UNL A   1      30.032  29.593  23.190  1.00  0.00     0.103 C 
ATOM     32  C   UNL A   1      28.995  28.682  22.539  1.00  0.00     0.049 C 
BRANCH  31  33
ATOM     33  O   UNL A   1      31.022  29.862  22.184  1.00  0.00    -0.384 OA
ATOM     34  H   UNL A   1      31.129  30.820  22.084  1.00  0.00     0.211 HD
ENDBRANCH  31  33
BRANCH  31  35
ATOM     35  C   UNL A   1      29.384  30.918  23.625  1.00  0.00     0.073 C 
ATOM     36  O   UNL A   1      28.348  31.406  23.204  1.00  0.00    -0.547 OA
ATOM     37  O   UNL A   1      30.071  31.518  24.623  1.00  0.00    -0.547 OA
ENDBRANCH  31  35
ENDBRANCH  30  31
ENDBRANCH   8  30
ENDBRANCH   3   5
ENDBRANCH   2   3
ENDBRANCH   1   2
BRANCH   1  38
ATOM     38  C   UNL A   1      33.331  30.789  26.469  1.00  0.00     0.023 C 
BRANCH  38  39
ATOM     39  C   UNL A   1      32.364  31.516  27.389  1.00  0.00     0.116 C 
BRANCH  39  40
ATOM     40  N   UNL A   1      32.517  32.963  27.294  1.00  0.00    -0.352 N 
ATOM     41  C   UNL A   1      33.389  33.792  27.956  1.00  0.00     0.251 C 
ATOM     42  H   UNL A   1      31.908  33.411  26.664  1.00  0.00     0.163 HD
ATOM     43  O   UNL A   1      33.231  35.007  27.941  1.00  0.00    -0.269 OA
BRANCH  41  44
ATOM     44  C   UNL A   1      34.519  33.203  28.702  1.00  0.00     0.039 A 
ATOM     45  C   UNL A   1      34.304  32.685  29.981  1.00  0.00     0.014 A 
ATOM     46  C   UNL A   1      35.790  33.157  28.124  1.00  0.00     0.014 A 
ATOM     47  C   UNL A   1      35.350  32.048  30.651  1.00  0.00     0.010 A 
ATOM     48  C   UNL A   1      36.804  32.450  28.752  1.00  0.00     0.010 A 
ATOM     49  C   UNL A   1      36.597  31.893  30.024  1.00  0.00    -0.014 A 
BRANCH  49  50
ATOM     50  C   UNL A   1      37.723  31.183  30.673  1.00  0.00     0.031 A 
ATOM     51  C   UNL A   1      38.089  31.525  32.090  1.00  0.00     0.074 A 
ATOM     52  C   UNL A   1      38.480  30.324  29.964  1.00  0.00     0.049 A 
ATOM     53  N   UNL A   1      39.153  31.197  32.775  1.00  0.00    -0.248 NA
ATOM     54  C   UNL A   1      37.152  32.399  32.815  1.00  0.00     0.031 C 
ATOM     55  C   UNL A   1      38.260  29.949  28.567  1.00  0.00     0.029 A 
ATOM     56  N   UNL A   1      39.605  29.626  30.323  1.00  0.00    -0.354 N 
ATOM     57  C   UNL A   1      39.048  31.879  33.978  1.00  0.00     0.074 A 
ATOM     58  C   UNL A   1      37.822  32.646  33.930  1.00  0.00     0.031 C 
ATOM     59  C   UNL A   1      39.207  29.073  28.193  1.00  0.00     0.029 A 
ATOM     60  C   UNL A   1      40.118  28.853  29.313  1.00  0.00     0.049 A 
ATOM     61  H   UNL A   1      40.006  29.676  31.221  1.00  0.00     0.167 HD
ATOM     62  C   UNL A   1      39.898  31.863  35.031  1.00  0.00     0.037 A 
ATOM     63  C   UNL A   1      41.205  28.060  29.295  1.00  0.00     0.037 A 
ATOM     64  C   UNL A   1      41.068  31.031  35.111  1.00  0.00     0.049 A 
ATOM     65  C   UNL A   1      42.060  27.958  30.524  1.00  0.00     0.074 A 
ATOM     66  C   UNL A   1      41.954  30.883  36.163  1.00  0.00     0.029 A 
ATOM     67  N   UNL A   1      41.494  30.181  34.102  1.00  0.00    -0.354 N 
ATOM     68  N   UNL A   1      41.950  28.600  31.662  1.00  0.00    -0.248 NA
ATOM     69  C   UNL A   1      43.194  27.023  30.469  1.00  0.00     0.031 C 
ATOM     70  C   UNL A   1      42.920  29.941  35.788  1.00  0.00     0.029 A 
ATOM     71  C   UNL A   1      42.623  29.494  34.510  1.00  0.00     0.049 A 
ATOM     72  H   UNL A   1      41.057  30.082  33.224  1.00  0.00     0.167 HD
ATOM     73  C   UNL A   1      42.986  28.141  32.461  1.00  0.00     0.074 A 
ATOM     74  C   UNL A   1      43.710  27.157  31.684  1.00  0.00     0.031 C 
ATOM     75  C   UNL A   1      43.313  28.509  33.722  1.00  0.00     0.037 A 
BRANCH  62  76
ATOM     76  C   UNL A   1      39.586  32.772  36.179  1.00  0.00     0.064 A 
ATOM     77  C   UNL A   1      40.171  34.042  36.292  1.00  0.00     0.173 A 
ATOM     78  C   UNL A   1      38.685  32.369  37.175  1.00  0.00     0.173 A 
ATOM     79  F   UNL A   1      41.053  34.462  35.373  1.00  0.00    -0.203 F 
ATOM     80  C   UNL A   1      39.884  34.865  37.377  1.00  0.00     0.198 A 
ATOM     81  C   UNL A   1      38.384  33.205  38.247  1.00  0.00     0.198 A 
ATOM     82  F   UNL A   1      38.101  31.163  37.111  1.00  0.00    -0.203 F 
ATOM     83  F   UNL A   1      40.489  36.056  37.490  1.00  0.00    -0.200 F 
ATOM     84  C   UNL A   1      38.988  34.449  38.350  1.00  0.00     0.200 A 
ATOM     85  F   UNL A   1      37.515  32.803  39.185  1.00  0.00    -0.200 F 
ATOM     86  F   UNL A   1      38.716  35.242  39.394  1.00  0.00    -0.200 F 
ENDBRANCH  62  76
BRANCH  63  87
ATOM     87  C   UNL A   1      41.521  27.271  28.080  1.00  0.00     0.064 A 
ATOM     88  C   UNL A   1      42.352  27.803  27.085  1.00  0.00     0.173 A 
ATOM     89  C   UNL A   1      41.016  25.978  27.894  1.00  0.00     0.173 A 
ATOM     90  F   UNL A   1      42.841  29.045  27.216  1.00  0.00    -0.203 F 
ATOM     91  C   UNL A   1      42.660  27.073  25.941  1.00  0.00     0.198 A 
ATOM     92  C   UNL A   1      41.338  25.241  26.755  1.00  0.00     0.198 A 
ATOM     93  F   UNL A   1      40.221  25.427  28.823  1.00  0.00    -0.203 F 
ATOM     94  F   UNL A   1      43.436  27.613  24.991  1.00  0.00    -0.200 F 
ATOM     95  C   UNL A   1      42.156  25.791  25.778  1.00  0.00     0.200 A 
ATOM     96  F   UNL A   1      40.857  24.001  26.605  1.00  0.00    -0.200 F 
ATOM     97  F   UNL A   1      42.454  25.087  24.678  1.00  0.00    -0.200 F 
ENDBRANCH  63  87
BRANCH  75  98
ATOM     98  C   UNL A   1      44.487  27.824  34.347  1.00  0.00     0.064 A 
ATOM     99  C   UNL A   1      45.774  28.372  34.263  1.00  0.00     0.173 A 
ATOM    100  C   UNL A   1      44.313  26.638  35.074  1.00  0.00     0.173 A 
ATOM    101  F   UNL A   1      45.984  29.498  33.564  1.00  0.00    -0.203 F 
ATOM    102  C   UNL A   1      46.853  27.749  34.881  1.00  0.00     0.198 A 
ATOM    103  C   UNL A   1      45.393  26.025  35.702  1.00  0.00     0.198 A 
ATOM    104  F   UNL A   1      43.098  26.082  35.178  1.00  0.00    -0.203 F 
ATOM    105  F   UNL A   1      48.081  28.274  34.772  1.00  0.00    -0.200 F 
ATOM    106  C   UNL A   1      46.661  26.579  35.604  1.00  0.00     0.200 A 
ATOM    107  F   UNL A   1      45.207  24.897  36.401  1.00  0.00    -0.200 F 
ATOM    108  F   UNL A   1      47.701  25.981  36.201  1.00  0.00    -0.200 F 
ENDBRANCH  75  98
ENDBRANCH  49  50
ENDBRANCH  41  44
ENDBRANCH  39  40
ENDBRANCH  38  39
ENDBRANCH   1  38
TORSDOF 18
ENDMDL
