MODEL 1
REMARK VINA RESULT:     -15.5      0.000      0.000
REMARK SMILES Cc1ccc(-c2cc(C(=O)NCCCCNC(=O)c3ccc(-c4c5nc(c(-c6c(F)c(F)c(F)c(F)c6F)c6ccc([nH]6)c(-c6c(F)c(F)c(F)c(F)c6F)c6nc(c(-c7c(F)c(F)c(F)c(F)c7F)c7ccc4[nH]7)C=C6)C=C5)cc3)c3c(-c4cccc([N+](=O)[O-])c4)[nH]nc3n2)cc1
REMARK SMILES IDX 13 1 12 2 11 3 9 4 10 5 8 7 6 8 7 9 96 10 95 11 82 12 94 13
REMARK SMILES IDX 83 14 93 15 5 17 1 18 2 19 3 20 98 21 4 22 97 23 84 24 85 25
REMARK SMILES IDX 92 26 86 27 88 28 87 29 89 30 90 31 91 32 14 33 15 34 16 35
REMARK SMILES IDX 17 36 18 38 19 39 20 40 81 41 21 42 80 43 22 44 23 45 24 46
REMARK SMILES IDX 74 47 25 48 79 49 73 50 75 51 26 52 78 53 72 54 71 55 27 57
REMARK SMILES IDX 59 58 39 59 58 60 40 61 43 62 57 63 76 64 41 65 42 66 56 68
REMARK SMILES IDX 77 69 44 70 28 71 29 72 37 73 30 74 31 75 35 76 38 77 32 78
REMARK SMILES IDX 33 79 36 80 34 81 60 82 61 83 69 84 62 85 63 86 67 87 70 88
REMARK SMILES IDX 64 89 65 90 68 91 66 92 45 93 46 94 54 95 47 96 48 97 52 98
REMARK SMILES IDX 55 99 49 100 50 101 53 102 51 103
REMARK H PARENT 11 6 93 16 16 37 75 56 43 67
REMARK Flexibility Score: inf
ROOT
ATOM      1  C   UNL A   1      31.823  29.330  26.127  1.00  0.00     0.023 C 
ENDROOT
BRANCH   1   2
ATOM      2  C   UNL A   1      32.713  28.086  26.001  1.00  0.00     0.116 C 
BRANCH   2   3
ATOM      3  N   UNL A   1      32.033  26.853  26.365  1.00  0.00    -0.352 N 
ATOM      4  C   UNL A   1      32.153  25.519  26.058  1.00  0.00     0.252 C 
ATOM      5  O   UNL A   1      31.438  24.792  26.743  1.00  0.00    -0.269 OA
ATOM      6  H   UNL A   1      31.293  27.016  26.995  1.00  0.00     0.163 HD
BRANCH   4   7
ATOM      7  C   UNL A   1      33.076  24.945  25.044  1.00  0.00     0.055 A 
ATOM      8  C   UNL A   1      35.131  23.653  24.465  1.00  0.00     0.074 A 
ATOM      9  C   UNL A   1      34.309  24.370  25.369  1.00  0.00     0.043 A 
ATOM     10  N   UNL A   1      34.900  23.499  23.142  1.00  0.00    -0.226 NA
ATOM     11  C   UNL A   1      33.751  24.102  22.742  1.00  0.00     0.182 A 
ATOM     12  C   UNL A   1      32.866  24.806  23.652  1.00  0.00     0.059 A 
ATOM     13  N   UNL A   1      33.295  24.110  21.492  1.00  0.00    -0.154 NA
ATOM     14  C   UNL A   1      31.852  25.281  22.830  1.00  0.00     0.076 A 
ATOM     15  N   UNL A   1      32.158  24.811  21.574  1.00  0.00    -0.275 N 
ATOM     16  H   UNL A   1      31.583  24.978  20.793  1.00  0.00     0.190 HD
BRANCH   8  17
ATOM     17  C   UNL A   1      36.299  22.963  25.034  1.00  0.00     0.000 A 
ATOM     18  C   UNL A   1      40.104  21.256  26.170  1.00  0.00     0.044 C 
ATOM     19  C   UNL A   1      38.764  21.835  25.822  1.00  0.00    -0.051 A 
ATOM     20  C   UNL A   1      37.833  21.082  25.094  1.00  0.00     0.004 A 
ATOM     21  C   UNL A   1      38.438  23.139  26.199  1.00  0.00     0.004 A 
ATOM     22  C   UNL A   1      36.608  21.638  24.707  1.00  0.00     0.010 A 
ATOM     23  C   UNL A   1      37.217  23.690  25.816  1.00  0.00     0.010 A 
ENDBRANCH   8  17
BRANCH  14  24
ATOM     24  C   UNL A   1      30.688  26.134  23.021  1.00  0.00     0.007 A 
ATOM     25  C   UNL A   1      29.569  25.661  23.720  1.00  0.00     0.011 A 
ATOM     26  C   UNL A   1      30.708  27.456  22.559  1.00  0.00     0.096 A 
ATOM     27  C   UNL A   1      28.497  26.512  24.003  1.00  0.00     0.008 A 
ATOM     28  C   UNL A   1      29.648  28.313  22.881  1.00  0.00     0.270 A 
ATOM     29  C   UNL A   1      28.539  27.846  23.597  1.00  0.00     0.085 A 
BRANCH  28  30
ATOM     30  N   UNL A   1      29.732  29.731  22.512  1.00  0.00     0.062 N 
ATOM     31  O   UNL A   1      29.912  30.007  21.317  1.00  0.00    -0.258 OA
ATOM     32  O   UNL A   1      29.619  30.572  23.416  1.00  0.00    -0.258 OA
ENDBRANCH  28  30
ENDBRANCH  14  24
ENDBRANCH   4   7
ENDBRANCH   2   3
ENDBRANCH   1   2
BRANCH   1  33
ATOM     33  C   UNL A   1      32.433  30.475  26.946  1.00  0.00     0.023 C 
BRANCH  33  34
ATOM     34  C   UNL A   1      33.706  30.100  27.695  1.00  0.00     0.116 C 
BRANCH  34  35
ATOM     35  N   UNL A   1      34.390  31.207  28.346  1.00  0.00    -0.352 N 
ATOM     36  C   UNL A   1      35.631  31.237  28.978  1.00  0.00     0.251 C 
ATOM     37  H   UNL A   1      33.902  32.063  28.340  1.00  0.00     0.163 HD
ATOM     38  O   UNL A   1      36.002  32.230  29.560  1.00  0.00    -0.269 OA
BRANCH  36  39
ATOM     39  C   UNL A   1      36.556  30.084  28.803  1.00  0.00     0.039 A 
ATOM     40  C   UNL A   1      36.751  29.238  29.902  1.00  0.00     0.014 A 
ATOM     41  C   UNL A   1      37.373  29.976  27.682  1.00  0.00     0.014 A 
ATOM     42  C   UNL A   1      37.923  28.491  29.986  1.00  0.00     0.010 A 
ATOM     43  C   UNL A   1      38.582  29.320  27.808  1.00  0.00     0.010 A 
ATOM     44  C   UNL A   1      38.890  28.650  28.997  1.00  0.00    -0.014 A 
BRANCH  44  45
ATOM     45  C   UNL A   1      40.288  28.279  29.177  1.00  0.00     0.031 A 
ATOM     46  C   UNL A   1      40.789  26.979  28.688  1.00  0.00     0.074 A 
ATOM     47  C   UNL A   1      41.143  29.184  29.708  1.00  0.00     0.049 A 
ATOM     48  N   UNL A   1      41.927  26.475  29.025  1.00  0.00    -0.248 NA
ATOM     49  C   UNL A   1      39.999  26.089  27.842  1.00  0.00     0.031 C 
ATOM     50  C   UNL A   1      42.605  29.158  29.670  1.00  0.00     0.029 A 
ATOM     51  N   UNL A   1      40.840  30.232  30.598  1.00  0.00    -0.354 N 
ATOM     52  C   UNL A   1      42.146  25.367  28.243  1.00  0.00     0.074 A 
ATOM     53  C   UNL A   1      40.869  25.094  27.635  1.00  0.00     0.031 C 
ATOM     54  C   UNL A   1      43.079  29.899  30.683  1.00  0.00     0.029 A 
ATOM     55  C   UNL A   1      41.938  30.291  31.490  1.00  0.00     0.049 A 
ATOM     56  H   UNL A   1      40.036  30.800  30.600  1.00  0.00     0.167 HD
ATOM     57  C   UNL A   1      43.422  24.908  28.113  1.00  0.00     0.037 A 
ATOM     58  C   UNL A   1      41.801  30.024  32.821  1.00  0.00     0.037 A 
ATOM     59  C   UNL A   1      44.283  25.492  29.146  1.00  0.00     0.049 A 
ATOM     60  C   UNL A   1      42.686  28.906  33.320  1.00  0.00     0.074 A 
ATOM     61  C   UNL A   1      45.270  26.462  29.136  1.00  0.00     0.029 A 
ATOM     62  N   UNL A   1      43.987  25.245  30.485  1.00  0.00    -0.354 N 
ATOM     63  N   UNL A   1      43.215  27.997  32.549  1.00  0.00    -0.248 NA
ATOM     64  C   UNL A   1      43.021  28.712  34.727  1.00  0.00     0.031 C 
ATOM     65  C   UNL A   1      45.511  26.851  30.482  1.00  0.00     0.029 A 
ATOM     66  C   UNL A   1      44.701  26.089  31.309  1.00  0.00     0.049 A 
ATOM     67  H   UNL A   1      43.353  24.561  30.800  1.00  0.00     0.167 HD
ATOM     68  C   UNL A   1      43.926  27.106  33.314  1.00  0.00     0.074 A 
ATOM     69  C   UNL A   1      43.791  27.612  34.667  1.00  0.00     0.031 C 
ATOM     70  C   UNL A   1      44.551  26.024  32.757  1.00  0.00     0.037 A 
BRANCH  57  71
ATOM     71  C   UNL A   1      43.964  24.094  26.946  1.00  0.00     0.064 A 
ATOM     72  C   UNL A   1      43.617  22.728  26.813  1.00  0.00     0.173 A 
ATOM     73  C   UNL A   1      44.922  24.536  26.007  1.00  0.00     0.173 A 
ATOM     74  F   UNL A   1      42.714  22.157  27.622  1.00  0.00    -0.203 F 
ATOM     75  C   UNL A   1      44.203  21.885  25.859  1.00  0.00     0.198 A 
ATOM     76  C   UNL A   1      45.475  23.703  25.029  1.00  0.00     0.198 A 
ATOM     77  F   UNL A   1      45.412  25.777  26.007  1.00  0.00    -0.203 F 
ATOM     78  F   UNL A   1      43.875  20.586  25.827  1.00  0.00    -0.200 F 
ATOM     79  C   UNL A   1      45.131  22.373  24.965  1.00  0.00     0.200 A 
ATOM     80  F   UNL A   1      46.375  24.205  24.169  1.00  0.00    -0.200 F 
ATOM     81  F   UNL A   1      45.700  21.570  24.057  1.00  0.00    -0.200 F 
ENDBRANCH  57  71
BRANCH  58  82
ATOM     82  C   UNL A   1      40.453  30.348  33.351  1.00  0.00     0.064 A 
ATOM     83  C   UNL A   1      40.123  31.702  33.556  1.00  0.00     0.173 A 
ATOM     84  C   UNL A   1      39.399  29.429  33.288  1.00  0.00     0.173 A 
ATOM     85  F   UNL A   1      41.096  32.627  33.618  1.00  0.00    -0.203 F 
ATOM     86  C   UNL A   1      38.798  32.132  33.577  1.00  0.00     0.198 A 
ATOM     87  C   UNL A   1      38.071  29.862  33.323  1.00  0.00     0.198 A 
ATOM     88  F   UNL A   1      39.646  28.129  33.072  1.00  0.00    -0.203 F 
ATOM     89  F   UNL A   1      38.523  33.441  33.655  1.00  0.00    -0.200 F 
ATOM     90  C   UNL A   1      37.774  31.213  33.431  1.00  0.00     0.200 A 
ATOM     91  F   UNL A   1      37.078  28.978  33.148  1.00  0.00    -0.200 F 
ATOM     92  F   UNL A   1      36.503  31.632  33.348  1.00  0.00    -0.200 F 
ENDBRANCH  58  82
BRANCH  70  93
ATOM     93  C   UNL A   1      45.148  24.846  33.500  1.00  0.00     0.064 A 
ATOM     94  C   UNL A   1      44.460  23.655  33.791  1.00  0.00     0.173 A 
ATOM     95  C   UNL A   1      46.529  24.833  33.828  1.00  0.00     0.173 A 
ATOM     96  F   UNL A   1      43.187  23.474  33.418  1.00  0.00    -0.203 F 
ATOM     97  C   UNL A   1      45.081  22.570  34.421  1.00  0.00     0.198 A 
ATOM     98  C   UNL A   1      47.159  23.728  34.398  1.00  0.00     0.198 A 
ATOM     99  F   UNL A   1      47.320  25.885  33.575  1.00  0.00    -0.203 F 
ATOM    100  F   UNL A   1      44.363  21.476  34.714  1.00  0.00    -0.200 F 
ATOM    101  C   UNL A   1      46.429  22.601  34.714  1.00  0.00     0.200 A 
ATOM    102  F   UNL A   1      48.481  23.755  34.621  1.00  0.00    -0.200 F 
ATOM    103  F   UNL A   1      47.029  21.541  35.271  1.00  0.00    -0.200 F 
ENDBRANCH  70  93
ENDBRANCH  44  45
ENDBRANCH  36  39
ENDBRANCH  34  35
ENDBRANCH  33  34
ENDBRANCH   1  33
TORSDOF 14
ENDMDL
MODEL 2
REMARK VINA RESULT:     -15.4      3.850     10.041
REMARK SMILES Cc1ccc(-c2cc(C(=O)NCCCCNC(=O)c3ccc(-c4c5nc(c(-c6c(F)c(F)c(F)c(F)c6F)c6ccc([nH]6)c(-c6c(F)c(F)c(F)c(F)c6F)c6nc(c(-c7c(F)c(F)c(F)c(F)c7F)c7ccc4[nH]7)C=C6)C=C5)cc3)c3c(-c4cccc([N+](=O)[O-])c4)[nH]nc3n2)cc1
REMARK SMILES IDX 13 1 12 2 11 3 9 4 10 5 8 7 6 8 7 9 96 10 95 11 82 12 94 13
REMARK SMILES IDX 83 14 93 15 5 17 1 18 2 19 3 20 98 21 4 22 97 23 84 24 85 25
REMARK SMILES IDX 92 26 86 27 88 28 87 29 89 30 90 31 91 32 14 33 15 34 16 35
REMARK SMILES IDX 17 36 18 38 19 39 20 40 81 41 21 42 80 43 22 44 23 45 24 46
REMARK SMILES IDX 74 47 25 48 79 49 73 50 75 51 26 52 78 53 72 54 71 55 27 57
REMARK SMILES IDX 59 58 39 59 58 60 40 61 43 62 57 63 76 64 41 65 42 66 56 68
REMARK SMILES IDX 77 69 44 70 28 71 29 72 37 73 30 74 31 75 35 76 38 77 32 78
REMARK SMILES IDX 33 79 36 80 34 81 60 82 61 83 69 84 62 85 63 86 67 87 70 88
REMARK SMILES IDX 64 89 65 90 68 91 66 92 45 93 46 94 54 95 47 96 48 97 52 98
REMARK SMILES IDX 55 99 49 100 50 101 53 102 51 103
REMARK H PARENT 11 6 93 16 16 37 75 56 43 67
REMARK Flexibility Score: inf
ROOT
ATOM      1  C   UNL A   1      36.429  21.852  24.237  1.00  0.00     0.023 C 
ENDROOT
BRANCH   1   2
ATOM      2  C   UNL A   1      35.624  23.085  24.673  1.00  0.00     0.116 C 
BRANCH   2   3
ATOM      3  N   UNL A   1      34.932  23.737  23.573  1.00  0.00    -0.352 N 
ATOM      4  C   UNL A   1      33.932  24.671  23.436  1.00  0.00     0.252 C 
ATOM      5  O   UNL A   1      33.772  25.051  22.279  1.00  0.00    -0.269 OA
ATOM      6  H   UNL A   1      35.265  23.429  22.698  1.00  0.00     0.163 HD
BRANCH   4   7
ATOM      7  C   UNL A   1      33.125  25.241  24.546  1.00  0.00     0.055 A 
ATOM      8  C   UNL A   1      32.518  27.156  26.026  1.00  0.00     0.074 A 
ATOM      9  C   UNL A   1      33.368  26.501  25.100  1.00  0.00     0.043 A 
ATOM     10  N   UNL A   1      31.405  26.629  26.583  1.00  0.00    -0.226 NA
ATOM     11  C   UNL A   1      31.152  25.369  26.144  1.00  0.00     0.182 A 
ATOM     12  C   UNL A   1      31.978  24.689  25.164  1.00  0.00     0.059 A 
ATOM     13  N   UNL A   1      30.124  24.621  26.540  1.00  0.00    -0.154 NA
ATOM     14  C   UNL A   1      31.383  23.441  25.034  1.00  0.00     0.076 A 
ATOM     15  N   UNL A   1      30.281  23.482  25.857  1.00  0.00    -0.275 N 
ATOM     16  H   UNL A   1      29.653  22.728  25.937  1.00  0.00     0.190 HD
BRANCH   8  17
ATOM     17  C   UNL A   1      32.843  28.553  26.354  1.00  0.00     0.000 A 
ATOM     18  C   UNL A   1      33.702  32.453  28.007  1.00  0.00     0.044 C 
ATOM     19  C   UNL A   1      33.425  31.115  27.388  1.00  0.00    -0.051 A 
ATOM     20  C   UNL A   1      32.167  30.834  26.838  1.00  0.00     0.004 A 
ATOM     21  C   UNL A   1      34.409  30.125  27.374  1.00  0.00     0.004 A 
ATOM     22  C   UNL A   1      31.879  29.565  26.320  1.00  0.00     0.010 A 
ATOM     23  C   UNL A   1      34.122  28.865  26.855  1.00  0.00     0.010 A 
ENDBRANCH   8  17
BRANCH  14  24
ATOM     24  C   UNL A   1      31.705  22.218  24.314  1.00  0.00     0.007 A 
ATOM     25  C   UNL A   1      31.659  22.187  22.913  1.00  0.00     0.011 A 
ATOM     26  C   UNL A   1      32.122  21.082  25.018  1.00  0.00     0.096 A 
ATOM     27  C   UNL A   1      32.076  21.051  22.215  1.00  0.00     0.008 A 
ATOM     28  C   UNL A   1      32.575  19.961  24.311  1.00  0.00     0.270 A 
ATOM     29  C   UNL A   1      32.549  19.938  22.910  1.00  0.00     0.085 A 
BRANCH  28  30
ATOM     30  N   UNL A   1      33.137  18.824  25.047  1.00  0.00     0.062 N 
ATOM     31  O   UNL A   1      34.187  18.322  24.621  1.00  0.00    -0.258 OA
ATOM     32  O   UNL A   1      32.529  18.428  26.053  1.00  0.00    -0.258 OA
ENDBRANCH  28  30
ENDBRANCH  14  24
ENDBRANCH   4   7
ENDBRANCH   2   3
ENDBRANCH   1   2
BRANCH   1  33
ATOM     33  C   UNL A   1      37.698  21.592  25.057  1.00  0.00     0.023 C 
BRANCH  33  34
ATOM     34  C   UNL A   1      38.281  22.834  25.721  1.00  0.00     0.116 C 
BRANCH  34  35
ATOM     35  N   UNL A   1      39.631  22.682  26.241  1.00  0.00    -0.352 N 
ATOM     36  C   UNL A   1      40.489  23.640  26.777  1.00  0.00     0.251 C 
ATOM     37  H   UNL A   1      39.992  21.767  26.210  1.00  0.00     0.163 HD
ATOM     38  O   UNL A   1      41.627  23.352  27.070  1.00  0.00    -0.269 OA
BRANCH  36  39
ATOM     39  C   UNL A   1      39.947  24.983  27.120  1.00  0.00     0.039 A 
ATOM     40  C   UNL A   1      40.376  26.070  26.348  1.00  0.00     0.014 A 
ATOM     41  C   UNL A   1      39.230  25.195  28.292  1.00  0.00     0.014 A 
ATOM     42  C   UNL A   1      40.332  27.351  26.894  1.00  0.00     0.010 A 
ATOM     43  C   UNL A   1      39.279  26.445  28.879  1.00  0.00     0.010 A 
ATOM     44  C   UNL A   1      39.909  27.502  28.212  1.00  0.00    -0.014 A 
BRANCH  44  45
ATOM     45  C   UNL A   1      40.213  28.676  29.020  1.00  0.00     0.031 A 
ATOM     46  C   UNL A   1      39.214  29.751  29.188  1.00  0.00     0.074 A 
ATOM     47  C   UNL A   1      41.384  28.721  29.697  1.00  0.00     0.049 A 
ATOM     48  N   UNL A   1      39.487  30.917  29.666  1.00  0.00    -0.248 NA
ATOM     49  C   UNL A   1      37.830  29.629  28.740  1.00  0.00     0.031 C 
ATOM     50  C   UNL A   1      41.742  29.613  30.800  1.00  0.00     0.029 A 
ATOM     51  N   UNL A   1      42.593  28.084  29.362  1.00  0.00    -0.354 N 
ATOM     52  C   UNL A   1      38.301  31.584  29.855  1.00  0.00     0.074 A 
ATOM     53  C   UNL A   1      37.327  30.802  29.139  1.00  0.00     0.031 C 
ATOM     54  C   UNL A   1      43.079  29.708  30.865  1.00  0.00     0.029 A 
ATOM     55  C   UNL A   1      43.609  29.007  29.710  1.00  0.00     0.049 A 
ATOM     56  H   UNL A   1      42.708  27.188  28.969  1.00  0.00     0.167 HD
ATOM     57  C   UNL A   1      38.284  32.643  30.713  1.00  0.00     0.037 A 
ATOM     58  C   UNL A   1      44.426  29.567  28.772  1.00  0.00     0.037 A 
ATOM     59  C   UNL A   1      39.649  33.092  30.997  1.00  0.00     0.049 A 
ATOM     60  C   UNL A   1      44.392  31.077  28.746  1.00  0.00     0.074 A 
ATOM     61  C   UNL A   1      40.484  32.987  32.096  1.00  0.00     0.029 A 
ATOM     62  N   UNL A   1      40.441  33.544  29.944  1.00  0.00    -0.354 N 
ATOM     63  N   UNL A   1      43.417  31.792  29.234  1.00  0.00    -0.248 NA
ATOM     64  C   UNL A   1      45.441  31.895  28.145  1.00  0.00     0.031 C 
ATOM     65  C   UNL A   1      41.803  33.308  31.674  1.00  0.00     0.029 A 
ATOM     66  C   UNL A   1      41.761  33.647  30.331  1.00  0.00     0.049 A 
ATOM     67  H   UNL A   1      40.104  33.760  29.044  1.00  0.00     0.167 HD
ATOM     68  C   UNL A   1      43.671  33.123  29.014  1.00  0.00     0.074 A 
ATOM     69  C   UNL A   1      44.960  33.134  28.349  1.00  0.00     0.031 C 
ATOM     70  C   UNL A   1      42.783  34.092  29.392  1.00  0.00     0.037 A 
BRANCH  57  71
ATOM     71  C   UNL A   1      37.067  33.163  31.465  1.00  0.00     0.064 A 
ATOM     72  C   UNL A   1      36.079  33.914  30.783  1.00  0.00     0.173 A 
ATOM     73  C   UNL A   1      36.865  33.085  32.861  1.00  0.00     0.173 A 
ATOM     74  F   UNL A   1      36.121  34.075  29.454  1.00  0.00    -0.203 F 
ATOM     75  C   UNL A   1      35.022  34.554  31.444  1.00  0.00     0.198 A 
ATOM     76  C   UNL A   1      35.785  33.690  33.513  1.00  0.00     0.198 A 
ATOM     77  F   UNL A   1      37.717  32.465  33.678  1.00  0.00    -0.203 F 
ATOM     78  F   UNL A   1      34.156  35.302  30.744  1.00  0.00    -0.200 F 
ATOM     79  C   UNL A   1      34.872  34.440  32.809  1.00  0.00     0.200 A 
ATOM     80  F   UNL A   1      35.662  33.561  34.843  1.00  0.00    -0.200 F 
ATOM     81  F   UNL A   1      33.867  35.056  33.444  1.00  0.00    -0.200 F 
ENDBRANCH  57  71
BRANCH  58  82
ATOM     82  C   UNL A   1      44.649  28.697  27.590  1.00  0.00     0.064 A 
ATOM     83  C   UNL A   1      45.512  27.591  27.727  1.00  0.00     0.173 A 
ATOM     84  C   UNL A   1      43.771  28.699  26.500  1.00  0.00     0.173 A 
ATOM     85  F   UNL A   1      46.370  27.535  28.758  1.00  0.00    -0.203 F 
ATOM     86  C   UNL A   1      45.416  26.486  26.884  1.00  0.00     0.198 A 
ATOM     87  C   UNL A   1      43.686  27.595  25.649  1.00  0.00     0.198 A 
ATOM     88  F   UNL A   1      42.909  29.712  26.327  1.00  0.00    -0.203 F 
ATOM     89  F   UNL A   1      46.170  25.403  27.116  1.00  0.00    -0.200 F 
ATOM     90  C   UNL A   1      44.482  26.478  25.863  1.00  0.00     0.200 A 
ATOM     91  F   UNL A   1      42.760  27.571  24.679  1.00  0.00    -0.200 F 
ATOM     92  F   UNL A   1      44.316  25.379  25.113  1.00  0.00    -0.200 F 
ENDBRANCH  58  82
BRANCH  70  93
ATOM     93  C   UNL A   1      42.820  35.554  28.994  1.00  0.00     0.064 A 
ATOM     94  C   UNL A   1      42.151  36.094  27.882  1.00  0.00     0.173 A 
ATOM     95  C   UNL A   1      43.442  36.509  29.838  1.00  0.00     0.173 A 
ATOM     96  F   UNL A   1      41.409  35.328  27.071  1.00  0.00    -0.203 F 
ATOM     97  C   UNL A   1      42.163  37.465  27.598  1.00  0.00     0.198 A 
ATOM     98  C   UNL A   1      43.400  37.880  29.587  1.00  0.00     0.198 A 
ATOM     99  F   UNL A   1      44.087  36.144  30.955  1.00  0.00    -0.203 F 
ATOM    100  F   UNL A   1      41.545  37.918  26.498  1.00  0.00    -0.200 F 
ATOM    101  C   UNL A   1      42.776  38.357  28.454  1.00  0.00     0.200 A 
ATOM    102  F   UNL A   1      43.950  38.736  30.460  1.00  0.00    -0.200 F 
ATOM    103  F   UNL A   1      42.742  39.673  28.204  1.00  0.00    -0.200 F 
ENDBRANCH  70  93
ENDBRANCH  44  45
ENDBRANCH  36  39
ENDBRANCH  34  35
ENDBRANCH  33  34
ENDBRANCH   1  33
TORSDOF 14
ENDMDL
MODEL 3
REMARK VINA RESULT:     -14.5      3.887      9.436
REMARK SMILES Cc1ccc(-c2cc(C(=O)NCCCCNC(=O)c3ccc(-c4c5nc(c(-c6c(F)c(F)c(F)c(F)c6F)c6ccc([nH]6)c(-c6c(F)c(F)c(F)c(F)c6F)c6nc(c(-c7c(F)c(F)c(F)c(F)c7F)c7ccc4[nH]7)C=C6)C=C5)cc3)c3c(-c4cccc([N+](=O)[O-])c4)[nH]nc3n2)cc1
REMARK SMILES IDX 13 1 12 2 11 3 9 4 10 5 8 7 6 8 7 9 96 10 95 11 82 12 94 13
REMARK SMILES IDX 83 14 93 15 5 17 1 18 2 19 3 20 98 21 4 22 97 23 84 24 85 25
REMARK SMILES IDX 92 26 86 27 88 28 87 29 89 30 90 31 91 32 14 33 15 34 16 35
REMARK SMILES IDX 17 36 18 38 19 39 20 40 81 41 21 42 80 43 22 44 23 45 24 46
REMARK SMILES IDX 74 47 25 48 79 49 73 50 75 51 26 52 78 53 72 54 71 55 27 57
REMARK SMILES IDX 59 58 39 59 58 60 40 61 43 62 57 63 76 64 41 65 42 66 56 68
REMARK SMILES IDX 77 69 44 70 28 71 29 72 37 73 30 74 31 75 35 76 38 77 32 78
REMARK SMILES IDX 33 79 36 80 34 81 60 82 61 83 69 84 62 85 63 86 67 87 70 88
REMARK SMILES IDX 64 89 65 90 68 91 66 92 45 93 46 94 54 95 47 96 48 97 52 98
REMARK SMILES IDX 55 99 49 100 50 101 53 102 51 103
REMARK H PARENT 11 6 93 16 16 37 75 56 43 67
REMARK Flexibility Score: inf
ROOT
ATOM      1  C   UNL A   1      36.090  23.272  25.230  1.00  0.00     0.023 C 
ENDROOT
BRANCH   1   2
ATOM      2  C   UNL A   1      35.500  24.680  25.395  1.00  0.00     0.116 C 
BRANCH   2   3
ATOM      3  N   UNL A   1      34.657  25.083  24.280  1.00  0.00    -0.352 N 
ATOM      4  C   UNL A   1      33.400  24.773  23.816  1.00  0.00     0.252 C 
ATOM      5  O   UNL A   1      33.025  25.498  22.898  1.00  0.00    -0.269 OA
ATOM      6  H   UNL A   1      35.101  25.751  23.709  1.00  0.00     0.163 HD
BRANCH   4   7
ATOM      7  C   UNL A   1      32.514  23.712  24.363  1.00  0.00     0.055 A 
ATOM      8  C   UNL A   1      31.967  21.300  24.693  1.00  0.00     0.074 A 
ATOM      9  C   UNL A   1      32.667  22.357  24.057  1.00  0.00     0.043 A 
ATOM     10  N   UNL A   1      30.987  21.446  25.613  1.00  0.00    -0.226 NA
ATOM     11  C   UNL A   1      30.735  22.748  25.901  1.00  0.00     0.182 A 
ATOM     12  C   UNL A   1      31.464  23.850  25.300  1.00  0.00     0.059 A 
ATOM     13  N   UNL A   1      29.814  23.169  26.765  1.00  0.00    -0.154 NA
ATOM     14  C   UNL A   1      30.870  24.980  25.846  1.00  0.00     0.076 A 
ATOM     15  N   UNL A   1      29.922  24.501  26.720  1.00  0.00    -0.275 N 
ATOM     16  H   UNL A   1      29.364  25.095  27.272  1.00  0.00     0.190 HD
BRANCH   8  17
ATOM     17  C   UNL A   1      32.395  19.931  24.369  1.00  0.00     0.000 A 
ATOM     18  C   UNL A   1      34.294  16.207  23.270  1.00  0.00     0.044 C 
ATOM     19  C   UNL A   1      33.596  17.472  23.673  1.00  0.00    -0.051 A 
ATOM     20  C   UNL A   1      32.765  18.145  22.766  1.00  0.00     0.004 A 
ATOM     21  C   UNL A   1      33.785  18.008  24.949  1.00  0.00     0.004 A 
ATOM     22  C   UNL A   1      32.165  19.361  23.113  1.00  0.00     0.010 A 
ATOM     23  C   UNL A   1      33.184  19.217  25.292  1.00  0.00     0.010 A 
ENDBRANCH   8  17
BRANCH  14  24
ATOM     24  C   UNL A   1      31.011  26.415  25.644  1.00  0.00     0.007 A 
ATOM     25  C   UNL A   1      31.814  27.177  26.505  1.00  0.00     0.011 A 
ATOM     26  C   UNL A   1      30.392  27.031  24.549  1.00  0.00     0.096 A 
ATOM     27  C   UNL A   1      32.042  28.531  26.249  1.00  0.00     0.008 A 
ATOM     28  C   UNL A   1      30.657  28.379  24.277  1.00  0.00     0.270 A 
ATOM     29  C   UNL A   1      31.477  29.135  25.127  1.00  0.00     0.085 A 
BRANCH  28  30
ATOM     30  N   UNL A   1      30.117  28.987  23.057  1.00  0.00     0.062 N 
ATOM     31  O   UNL A   1      29.549  30.084  23.160  1.00  0.00    -0.258 OA
ATOM     32  O   UNL A   1      30.257  28.369  21.991  1.00  0.00    -0.258 OA
ENDBRANCH  28  30
ENDBRANCH  14  24
ENDBRANCH   4   7
ENDBRANCH   2   3
ENDBRANCH   1   2
BRANCH   1  33
ATOM     33  C   UNL A   1      37.313  22.983  26.109  1.00  0.00     0.023 C 
BRANCH  33  34
ATOM     34  C   UNL A   1      38.619  22.839  25.338  1.00  0.00     0.116 C 
BRANCH  34  35
ATOM     35  N   UNL A   1      39.802  22.625  26.157  1.00  0.00    -0.352 N 
ATOM     36  C   UNL A   1      40.539  23.538  26.909  1.00  0.00     0.251 C 
ATOM     37  H   UNL A   1      40.131  21.698  26.184  1.00  0.00     0.163 HD
ATOM     38  O   UNL A   1      41.565  23.201  27.453  1.00  0.00    -0.269 OA
BRANCH  36  39
ATOM     39  C   UNL A   1      39.973  24.892  27.155  1.00  0.00     0.039 A 
ATOM     40  C   UNL A   1      40.490  25.956  26.404  1.00  0.00     0.014 A 
ATOM     41  C   UNL A   1      39.135  25.141  28.237  1.00  0.00     0.014 A 
ATOM     42  C   UNL A   1      40.397  27.252  26.907  1.00  0.00     0.010 A 
ATOM     43  C   UNL A   1      39.131  26.406  28.791  1.00  0.00     0.010 A 
ATOM     44  C   UNL A   1      39.837  27.441  28.167  1.00  0.00    -0.014 A 
BRANCH  44  45
ATOM     45  C   UNL A   1      40.060  28.636  28.971  1.00  0.00     0.031 A 
ATOM     46  C   UNL A   1      39.051  29.714  29.012  1.00  0.00     0.074 A 
ATOM     47  C   UNL A   1      41.160  28.700  29.758  1.00  0.00     0.049 A 
ATOM     48  N   UNL A   1      39.277  30.892  29.485  1.00  0.00    -0.248 NA
ATOM     49  C   UNL A   1      37.718  29.578  28.434  1.00  0.00     0.031 C 
ATOM     50  C   UNL A   1      41.408  29.620  30.868  1.00  0.00     0.029 A 
ATOM     51  N   UNL A   1      42.396  28.056  29.560  1.00  0.00    -0.354 N 
ATOM     52  C   UNL A   1      38.079  31.561  29.540  1.00  0.00     0.074 A 
ATOM     53  C   UNL A   1      37.179  30.759  28.751  1.00  0.00     0.031 C 
ATOM     54  C   UNL A   1      42.732  29.719  31.062  1.00  0.00     0.029 A 
ATOM     55  C   UNL A   1      43.372  28.990  29.982  1.00  0.00     0.049 A 
ATOM     56  H   UNL A   1      42.547  27.151  29.204  1.00  0.00     0.167 HD
ATOM     57  C   UNL A   1      37.978  32.642  30.364  1.00  0.00     0.037 A 
ATOM     58  C   UNL A   1      44.279  29.527  29.116  1.00  0.00     0.037 A 
ATOM     59  C   UNL A   1      39.309  33.100  30.770  1.00  0.00     0.049 A 
ATOM     60  C   UNL A   1      44.249  31.036  29.048  1.00  0.00     0.074 A 
ATOM     61  C   UNL A   1      40.032  33.025  31.948  1.00  0.00     0.029 A 
ATOM     62  N   UNL A   1      40.201  33.526  29.788  1.00  0.00    -0.354 N 
ATOM     63  N   UNL A   1      43.231  31.761  29.419  1.00  0.00    -0.248 NA
ATOM     64  C   UNL A   1      45.353  31.840  28.532  1.00  0.00     0.031 C 
ATOM     65  C   UNL A   1      41.387  33.337  31.649  1.00  0.00     0.029 A 
ATOM     66  C   UNL A   1      41.477  33.641  30.300  1.00  0.00     0.049 A 
ATOM     67  H   UNL A   1      39.955  33.719  28.854  1.00  0.00     0.167 HD
ATOM     68  C   UNL A   1      43.507  33.086  29.192  1.00  0.00     0.074 A 
ATOM     69  C   UNL A   1      44.855  33.083  28.657  1.00  0.00     0.031 C 
ATOM     70  C   UNL A   1      42.587  34.063  29.455  1.00  0.00     0.037 A 
BRANCH  57  71
ATOM     71  C   UNL A   1      36.694  33.179  30.980  1.00  0.00     0.064 A 
ATOM     72  C   UNL A   1      35.781  33.915  30.186  1.00  0.00     0.173 A 
ATOM     73  C   UNL A   1      36.353  33.132  32.350  1.00  0.00     0.173 A 
ATOM     74  F   UNL A   1      35.956  34.047  28.864  1.00  0.00    -0.203 F 
ATOM     75  C   UNL A   1      34.665  34.570  30.724  1.00  0.00     0.198 A 
ATOM     76  C   UNL A   1      35.215  33.751  32.877  1.00  0.00     0.198 A 
ATOM     77  F   UNL A   1      37.118  32.529  33.262  1.00  0.00    -0.203 F 
ATOM     78  F   UNL A   1      33.875  35.303  29.926  1.00  0.00    -0.200 F 
ATOM     79  C   UNL A   1      34.380  34.486  32.069  1.00  0.00     0.200 A 
ATOM     80  F   UNL A   1      34.960  33.652  34.191  1.00  0.00    -0.200 F 
ATOM     81  F   UNL A   1      33.318  35.116  32.588  1.00  0.00    -0.200 F 
ENDBRANCH  57  71
BRANCH  58  82
ATOM     82  C   UNL A   1      44.616  28.627  27.984  1.00  0.00     0.064 A 
ATOM     83  C   UNL A   1      45.418  27.498  28.244  1.00  0.00     0.173 A 
ATOM     84  C   UNL A   1      43.878  28.636  26.794  1.00  0.00     0.173 A 
ATOM     85  F   UNL A   1      46.142  27.436  29.373  1.00  0.00    -0.203 F 
ATOM     86  C   UNL A   1      45.390  26.381  27.413  1.00  0.00     0.198 A 
ATOM     87  C   UNL A   1      43.863  27.518  25.956  1.00  0.00     0.198 A 
ATOM     88  F   UNL A   1      43.078  29.671  26.501  1.00  0.00    -0.203 F 
ATOM     89  F   UNL A   1      46.074  25.279  27.752  1.00  0.00    -0.200 F 
ATOM     90  C   UNL A   1      44.589  26.382  26.285  1.00  0.00     0.200 A 
ATOM     91  F   UNL A   1      43.061  27.503  24.881  1.00  0.00    -0.200 F 
ATOM     92  F   UNL A   1      44.479  25.273  25.537  1.00  0.00    -0.200 F 
ENDBRANCH  58  82
BRANCH  70  93
ATOM     93  C   UNL A   1      42.664  35.515  29.025  1.00  0.00     0.064 A 
ATOM     94  C   UNL A   1      41.933  36.071  27.961  1.00  0.00     0.173 A 
ATOM     95  C   UNL A   1      43.402  36.450  29.796  1.00  0.00     0.173 A 
ATOM     96  F   UNL A   1      41.088  35.331  27.231  1.00  0.00    -0.203 F 
ATOM     97  C   UNL A   1      41.990  37.434  27.649  1.00  0.00     0.198 A 
ATOM     98  C   UNL A   1      43.408  37.817  29.521  1.00  0.00     0.198 A 
ATOM     99  F   UNL A   1      44.119  36.071  30.864  1.00  0.00    -0.203 F 
ATOM    100  F   UNL A   1      41.306  37.901  26.595  1.00  0.00    -0.200 F 
ATOM    101  C   UNL A   1      42.716  38.308  28.434  1.00  0.00     0.200 A 
ATOM    102  F   UNL A   1      44.071  38.657  30.328  1.00  0.00    -0.200 F 
ATOM    103  F   UNL A   1      42.728  39.619  28.160  1.00  0.00    -0.200 F 
ENDBRANCH  70  93
ENDBRANCH  44  45
ENDBRANCH  36  39
ENDBRANCH  34  35
ENDBRANCH  33  34
ENDBRANCH   1  33
TORSDOF 14
ENDMDL
