MODEL 1
REMARK VINA RESULT:     -12.7      0.000      0.000
REMARK SMILES Nc1ccc(N2CC3(CCC3)C2)c(C(=O)NCCCCNC(=O)c2ccc(-c3c4nc(c(-c5c(F)c(F)c(F)c(F)c5F)c5ccc([nH]5)c(-c5c(F)c(F)c(F)c(F)c5F)c5nc(c(-c6c(F)c(F)c(F)c(F)c6F)c6ccc3[nH]6)C=C5)C=C4)cc2)c1
REMARK SMILES IDX 19 1 18 2 17 3 16 4 14 5 15 6 13 8 2 9 3 10 87 11 4 12 5 13
REMARK SMILES IDX 1 14 6 17 7 18 12 19 8 20 9 21 11 22 10 23 20 24 21 25 22 26
REMARK SMILES IDX 23 28 24 29 25 30 86 31 26 32 85 33 27 34 28 35 29 36 79 37
REMARK SMILES IDX 30 38 84 39 78 40 80 41 31 42 83 43 77 44 76 45 32 47 64 48
REMARK SMILES IDX 44 49 63 50 45 51 48 52 62 53 81 54 46 55 47 56 61 58 82 59
REMARK SMILES IDX 49 60 33 61 34 62 42 63 35 64 36 65 40 66 43 67 37 68 38 69
REMARK SMILES IDX 41 70 39 71 65 72 66 73 74 74 67 75 68 76 72 77 75 78 69 79
REMARK SMILES IDX 70 80 73 81 71 82 50 83 51 84 59 85 52 86 53 87 57 88 60 89
REMARK SMILES IDX 54 90 55 91 58 92 56 93
REMARK H PARENT 16 7 1 15 1 16 21 27 80 46 48 57
REMARK Flexibility Score: inf
ROOT
ATOM      1  C   UNL A   1      31.615  31.985  26.752  1.00  0.00     0.023 C 
ENDROOT
BRANCH   1   2
ATOM      2  C   UNL A   1      31.787  30.463  26.851  1.00  0.00     0.023 C 
BRANCH   2   3
ATOM      3  C   UNL A   1      33.231  29.987  26.676  1.00  0.00     0.116 C 
BRANCH   3   4
ATOM      4  N   UNL A   1      33.503  29.763  25.276  1.00  0.00    -0.352 N 
ATOM      5  C   UNL A   1      33.305  28.726  24.399  1.00  0.00     0.253 C 
ATOM      6  O   UNL A   1      33.848  28.924  23.314  1.00  0.00    -0.269 OA
ATOM      7  H   UNL A   1      33.933  30.539  24.849  1.00  0.00     0.163 HD
BRANCH   5   8
ATOM      8  C   UNL A   1      32.465  27.505  24.683  1.00  0.00     0.065 A 
ATOM      9  C   UNL A   1      32.236  25.370  25.880  1.00  0.00     0.032 A 
ATOM     10  C   UNL A   1      30.868  25.396  25.658  1.00  0.00     0.027 A 
ATOM     11  C   UNL A   1      33.020  26.385  25.327  1.00  0.00     0.041 A 
ATOM     12  C   UNL A   1      30.296  26.438  24.927  1.00  0.00     0.029 A 
ATOM     13  C   UNL A   1      31.074  27.494  24.410  1.00  0.00     0.050 A 
BRANCH   9  14
ATOM     14  N   UNL A   1      32.829  24.305  26.541  1.00  0.00    -0.399 N 
ATOM     15  H   UNL A   1      32.281  23.701  27.092  1.00  0.00     0.156 HD
ATOM     16  H   UNL A   1      33.799  24.154  26.459  1.00  0.00     0.156 HD
ENDBRANCH   9  14
BRANCH  13  17
ATOM     17  N   UNL A   1      30.409  28.474  23.665  1.00  0.00    -0.370 N 
ATOM     18  C   UNL A   1      29.931  28.496  22.316  1.00  0.00     0.125 C 
ATOM     19  C   UNL A   1      30.103  29.853  23.917  1.00  0.00     0.125 C 
ATOM     20  C   UNL A   1      29.191  29.738  22.725  1.00  0.00     0.005 C 
ATOM     21  C   UNL A   1      29.008  30.910  21.805  1.00  0.00     0.011 C 
ATOM     22  C   UNL A   1      27.698  29.639  22.956  1.00  0.00     0.011 C 
ATOM     23  C   UNL A   1      27.625  31.112  22.486  1.00  0.00     0.001 C 
ENDBRANCH  13  17
ENDBRANCH   5   8
ENDBRANCH   3   4
ENDBRANCH   2   3
ENDBRANCH   1   2
BRANCH   1  24
ATOM     24  C   UNL A   1      32.808  32.801  27.233  1.00  0.00     0.116 C 
BRANCH  24  25
ATOM     25  N   UNL A   1      32.450  34.154  27.626  1.00  0.00    -0.352 N 
ATOM     26  C   UNL A   1      32.997  34.938  28.612  1.00  0.00     0.251 C 
ATOM     27  H   UNL A   1      31.714  34.565  27.115  1.00  0.00     0.163 HD
ATOM     28  O   UNL A   1      32.503  36.022  28.890  1.00  0.00    -0.269 OA
BRANCH  26  29
ATOM     29  C   UNL A   1      34.167  34.440  29.362  1.00  0.00     0.039 A 
ATOM     30  C   UNL A   1      33.952  33.786  30.577  1.00  0.00     0.014 A 
ATOM     31  C   UNL A   1      35.461  34.599  28.860  1.00  0.00     0.014 A 
ATOM     32  C   UNL A   1      35.035  33.234  31.262  1.00  0.00     0.010 A 
ATOM     33  C   UNL A   1      36.531  33.995  29.511  1.00  0.00     0.010 A 
ATOM     34  C   UNL A   1      36.327  33.307  30.717  1.00  0.00    -0.014 A 
BRANCH  34  35
ATOM     35  C   UNL A   1      37.479  32.660  31.390  1.00  0.00     0.031 A 
ATOM     36  C   UNL A   1      38.185  31.510  30.734  1.00  0.00     0.074 A 
ATOM     37  C   UNL A   1      37.839  33.065  32.622  1.00  0.00     0.049 A 
ATOM     38  N   UNL A   1      39.163  30.769  31.191  1.00  0.00    -0.248 NA
ATOM     39  C   UNL A   1      37.710  31.119  29.397  1.00  0.00     0.031 C 
ATOM     40  C   UNL A   1      37.192  34.137  33.382  1.00  0.00     0.029 A 
ATOM     41  N   UNL A   1      38.827  32.613  33.460  1.00  0.00    -0.354 N 
ATOM     42  C   UNL A   1      39.408  29.820  30.209  1.00  0.00     0.074 A 
ATOM     43  C   UNL A   1      38.444  30.044  29.153  1.00  0.00     0.031 C 
ATOM     44  C   UNL A   1      37.813  34.272  34.565  1.00  0.00     0.029 A 
ATOM     45  C   UNL A   1      38.877  33.277  34.660  1.00  0.00     0.049 A 
ATOM     46  H   UNL A   1      39.443  31.882  33.222  1.00  0.00     0.167 HD
ATOM     47  C   UNL A   1      40.364  28.862  30.182  1.00  0.00     0.037 A 
ATOM     48  C   UNL A   1      39.687  33.098  35.720  1.00  0.00     0.037 A 
ATOM     49  C   UNL A   1      41.337  28.660  31.223  1.00  0.00     0.049 A 
ATOM     50  C   UNL A   1      40.748  32.033  35.661  1.00  0.00     0.074 A 
ATOM     51  C   UNL A   1      42.387  27.761  31.261  1.00  0.00     0.029 A 
ATOM     52  N   UNL A   1      41.375  29.372  32.414  1.00  0.00    -0.354 N 
ATOM     53  N   UNL A   1      41.018  31.188  34.697  1.00  0.00    -0.248 NA
ATOM     54  C   UNL A   1      41.622  31.904  36.835  1.00  0.00     0.031 C 
ATOM     55  C   UNL A   1      43.038  27.900  32.493  1.00  0.00     0.029 A 
ATOM     56  C   UNL A   1      42.421  28.918  33.203  1.00  0.00     0.049 A 
ATOM     57  H   UNL A   1      40.752  30.092  32.662  1.00  0.00     0.167 HD
ATOM     58  C   UNL A   1      42.106  30.445  35.133  1.00  0.00     0.074 A 
ATOM     59  C   UNL A   1      42.456  30.949  36.445  1.00  0.00     0.031 C 
ATOM     60  C   UNL A   1      42.758  29.437  34.503  1.00  0.00     0.037 A 
BRANCH  47  61
ATOM     61  C   UNL A   1      40.405  27.960  28.983  1.00  0.00     0.064 A 
ATOM     62  C   UNL A   1      41.179  28.271  27.855  1.00  0.00     0.173 A 
ATOM     63  C   UNL A   1      39.681  26.757  28.971  1.00  0.00     0.173 A 
ATOM     64  F   UNL A   1      41.879  29.414  27.812  1.00  0.00    -0.203 F 
ATOM     65  C   UNL A   1      41.201  27.429  26.746  1.00  0.00     0.198 A 
ATOM     66  C   UNL A   1      39.729  25.903  27.872  1.00  0.00     0.198 A 
ATOM     67  F   UNL A   1      38.929  26.409  30.026  1.00  0.00    -0.203 F 
ATOM     68  F   UNL A   1      41.906  27.774  25.659  1.00  0.00    -0.200 F 
ATOM     69  C   UNL A   1      40.481  26.243  26.758  1.00  0.00     0.200 A 
ATOM     70  F   UNL A   1      39.043  24.752  27.889  1.00  0.00    -0.200 F 
ATOM     71  F   UNL A   1      40.507  25.433  25.691  1.00  0.00    -0.200 F 
ENDBRANCH  47  61
BRANCH  48  72
ATOM     72  C   UNL A   1      39.547  33.971  36.914  1.00  0.00     0.064 A 
ATOM     73  C   UNL A   1      38.784  33.561  38.016  1.00  0.00     0.173 A 
ATOM     74  C   UNL A   1      40.177  35.221  36.983  1.00  0.00     0.173 A 
ATOM     75  F   UNL A   1      38.147  32.381  37.987  1.00  0.00    -0.203 F 
ATOM     76  C   UNL A   1      38.641  34.377  39.135  1.00  0.00     0.198 A 
ATOM     77  C   UNL A   1      40.055  36.026  38.114  1.00  0.00     0.198 A 
ATOM     78  F   UNL A   1      40.924  35.656  35.957  1.00  0.00    -0.203 F 
ATOM     79  F   UNL A   1      37.873  33.978  40.158  1.00  0.00    -0.200 F 
ATOM     80  C   UNL A   1      39.281  35.607  39.186  1.00  0.00     0.200 A 
ATOM     81  F   UNL A   1      40.686  37.207  38.166  1.00  0.00    -0.200 F 
ATOM     82  F   UNL A   1      39.149  36.389  40.266  1.00  0.00    -0.200 F 
ENDBRANCH  48  72
BRANCH  60  83
ATOM     83  C   UNL A   1      43.937  28.835  35.209  1.00  0.00     0.064 A 
ATOM     84  C   UNL A   1      45.237  29.329  35.021  1.00  0.00     0.173 A 
ATOM     85  C   UNL A   1      43.758  27.781  36.116  1.00  0.00     0.173 A 
ATOM     86  F   UNL A   1      45.462  30.325  34.152  1.00  0.00    -0.203 F 
ATOM     87  C   UNL A   1      46.316  28.772  35.701  1.00  0.00     0.198 A 
ATOM     88  C   UNL A   1      44.836  27.245  36.815  1.00  0.00     0.198 A 
ATOM     89  F   UNL A   1      42.533  27.278  36.335  1.00  0.00    -0.203 F 
ATOM     90  F   UNL A   1      47.556  29.231  35.475  1.00  0.00    -0.200 F 
ATOM     91  C   UNL A   1      46.115  27.738  36.603  1.00  0.00     0.200 A 
ATOM     92  F   UNL A   1      44.637  26.255  37.695  1.00  0.00    -0.200 F 
ATOM     93  F   UNL A   1      47.154  27.210  37.262  1.00  0.00    -0.200 F 
ENDBRANCH  60  83
ENDBRANCH  34  35
ENDBRANCH  26  29
ENDBRANCH  24  25
ENDBRANCH   1  24
TORSDOF 13
ENDMDL
MODEL 2
REMARK VINA RESULT:     -12.7      0.180      1.621
REMARK SMILES Nc1ccc(N2CC3(CCC3)C2)c(C(=O)NCCCCNC(=O)c2ccc(-c3c4nc(c(-c5c(F)c(F)c(F)c(F)c5F)c5ccc([nH]5)c(-c5c(F)c(F)c(F)c(F)c5F)c5nc(c(-c6c(F)c(F)c(F)c(F)c6F)c6ccc3[nH]6)C=C5)C=C4)cc2)c1
REMARK SMILES IDX 19 1 18 2 17 3 16 4 14 5 15 6 13 8 2 9 3 10 87 11 4 12 5 13
REMARK SMILES IDX 1 14 6 17 7 18 12 19 8 20 9 21 11 22 10 23 20 24 21 25 22 26
REMARK SMILES IDX 23 28 24 29 25 30 86 31 26 32 85 33 27 34 28 35 29 36 79 37
REMARK SMILES IDX 30 38 84 39 78 40 80 41 31 42 83 43 77 44 76 45 32 47 64 48
REMARK SMILES IDX 44 49 63 50 45 51 48 52 62 53 81 54 46 55 47 56 61 58 82 59
REMARK SMILES IDX 49 60 33 61 34 62 42 63 35 64 36 65 40 66 43 67 37 68 38 69
REMARK SMILES IDX 41 70 39 71 65 72 66 73 74 74 67 75 68 76 72 77 75 78 69 79
REMARK SMILES IDX 70 80 73 81 71 82 50 83 51 84 59 85 52 86 53 87 57 88 60 89
REMARK SMILES IDX 54 90 55 91 58 92 56 93
REMARK H PARENT 16 7 1 15 1 16 21 27 80 46 48 57
REMARK Flexibility Score: inf
ROOT
ATOM      1  C   UNL A   1      31.584  31.923  26.823  1.00  0.00     0.023 C 
ENDROOT
BRANCH   1   2
ATOM      2  C   UNL A   1      31.832  30.409  26.773  1.00  0.00     0.023 C 
BRANCH   2   3
ATOM      3  C   UNL A   1      33.303  30.024  26.601  1.00  0.00     0.116 C 
BRANCH   3   4
ATOM      4  N   UNL A   1      33.581  29.772  25.207  1.00  0.00    -0.352 N 
ATOM      5  C   UNL A   1      33.423  28.703  24.361  1.00  0.00     0.253 C 
ATOM      6  O   UNL A   1      33.955  28.892  23.269  1.00  0.00    -0.269 OA
ATOM      7  H   UNL A   1      33.978  30.552  24.756  1.00  0.00     0.163 HD
BRANCH   5   8
ATOM      8  C   UNL A   1      32.633  27.457  24.682  1.00  0.00     0.065 A 
ATOM      9  C   UNL A   1      32.499  25.345  25.933  1.00  0.00     0.032 A 
ATOM     10  C   UNL A   1      31.128  25.313  25.723  1.00  0.00     0.027 A 
ATOM     11  C   UNL A   1      33.238  26.376  25.348  1.00  0.00     0.041 A 
ATOM     12  C   UNL A   1      30.510  26.313  24.972  1.00  0.00     0.029 A 
ATOM     13  C   UNL A   1      31.242  27.385  24.422  1.00  0.00     0.050 A 
BRANCH   9  14
ATOM     14  N   UNL A   1      33.138  24.321  26.614  1.00  0.00    -0.399 N 
ATOM     15  H   UNL A   1      34.076  24.427  26.896  1.00  0.00     0.156 HD
ATOM     16  H   UNL A   1      32.655  23.487  26.814  1.00  0.00     0.156 HD
ENDBRANCH   9  14
BRANCH  13  17
ATOM     17  N   UNL A   1      30.533  28.320  23.660  1.00  0.00    -0.370 N 
ATOM     18  C   UNL A   1      30.113  28.324  22.292  1.00  0.00     0.125 C 
ATOM     19  C   UNL A   1      30.107  29.666  23.914  1.00  0.00     0.125 C 
ATOM     20  C   UNL A   1      29.259  29.497  22.681  1.00  0.00     0.005 C 
ATOM     21  C   UNL A   1      29.022  30.664  21.768  1.00  0.00     0.011 C 
ATOM     22  C   UNL A   1      27.770  29.276  22.846  1.00  0.00     0.011 C 
ATOM     23  C   UNL A   1      27.599  30.744  22.390  1.00  0.00     0.001 C 
ENDBRANCH  13  17
ENDBRANCH   5   8
ENDBRANCH   3   4
ENDBRANCH   2   3
ENDBRANCH   1   2
BRANCH   1  24
ATOM     24  C   UNL A   1      32.794  32.761  27.215  1.00  0.00     0.116 C 
BRANCH  24  25
ATOM     25  N   UNL A   1      32.444  34.118  27.603  1.00  0.00    -0.352 N 
ATOM     26  C   UNL A   1      33.003  34.906  28.577  1.00  0.00     0.251 C 
ATOM     27  H   UNL A   1      31.705  34.527  27.096  1.00  0.00     0.163 HD
ATOM     28  O   UNL A   1      32.516  35.994  28.853  1.00  0.00    -0.269 OA
BRANCH  26  29
ATOM     29  C   UNL A   1      34.179  34.410  29.320  1.00  0.00     0.039 A 
ATOM     30  C   UNL A   1      33.972  33.738  30.526  1.00  0.00     0.014 A 
ATOM     31  C   UNL A   1      35.470  34.588  28.818  1.00  0.00     0.014 A 
ATOM     32  C   UNL A   1      35.061  33.188  31.203  1.00  0.00     0.010 A 
ATOM     33  C   UNL A   1      36.547  33.986  29.460  1.00  0.00     0.010 A 
ATOM     34  C   UNL A   1      36.351  33.279  30.657  1.00  0.00    -0.014 A 
BRANCH  34  35
ATOM     35  C   UNL A   1      37.510  32.635  31.320  1.00  0.00     0.031 A 
ATOM     36  C   UNL A   1      38.229  31.502  30.647  1.00  0.00     0.074 A 
ATOM     37  C   UNL A   1      37.867  33.025  32.558  1.00  0.00     0.049 A 
ATOM     38  N   UNL A   1      39.215  30.766  31.092  1.00  0.00    -0.248 NA
ATOM     39  C   UNL A   1      37.757  31.127  29.304  1.00  0.00     0.031 C 
ATOM     40  C   UNL A   1      37.209  34.079  33.334  1.00  0.00     0.029 A 
ATOM     41  N   UNL A   1      38.860  32.572  33.388  1.00  0.00    -0.354 N 
ATOM     42  C   UNL A   1      39.469  29.834  30.096  1.00  0.00     0.074 A 
ATOM     43  C   UNL A   1      38.502  30.064  29.044  1.00  0.00     0.031 C 
ATOM     44  C   UNL A   1      37.829  34.203  34.518  1.00  0.00     0.029 A 
ATOM     45  C   UNL A   1      38.904  33.218  34.598  1.00  0.00     0.049 A 
ATOM     46  H   UNL A   1      39.483  31.851  33.139  1.00  0.00     0.167 HD
ATOM     47  C   UNL A   1      40.436  28.886  30.054  1.00  0.00     0.037 A 
ATOM     48  C   UNL A   1      39.716  33.032  35.656  1.00  0.00     0.037 A 
ATOM     49  C   UNL A   1      41.411  28.679  31.092  1.00  0.00     0.049 A 
ATOM     50  C   UNL A   1      40.788  31.979  35.580  1.00  0.00     0.074 A 
ATOM     51  C   UNL A   1      42.471  27.791  31.117  1.00  0.00     0.029 A 
ATOM     52  N   UNL A   1      41.442  29.374  32.293  1.00  0.00    -0.354 N 
ATOM     53  N   UNL A   1      41.067  31.151  34.604  1.00  0.00    -0.248 NA
ATOM     54  C   UNL A   1      41.664  31.842  36.752  1.00  0.00     0.031 C 
ATOM     55  C   UNL A   1      43.121  27.919  32.350  1.00  0.00     0.029 A 
ATOM     56  C   UNL A   1      42.493  28.919  33.075  1.00  0.00     0.049 A 
ATOM     57  H   UNL A   1      40.811  30.083  32.553  1.00  0.00     0.167 HD
ATOM     58  C   UNL A   1      42.162  30.414  35.028  1.00  0.00     0.074 A 
ATOM     59  C   UNL A   1      42.507  30.902  36.348  1.00  0.00     0.031 C 
ATOM     60  C   UNL A   1      42.825  29.422  34.383  1.00  0.00     0.037 A 
BRANCH  47  61
ATOM     61  C   UNL A   1      40.485  28.003  28.842  1.00  0.00     0.064 A 
ATOM     62  C   UNL A   1      41.250  28.343  27.716  1.00  0.00     0.173 A 
ATOM     63  C   UNL A   1      39.781  26.789  28.815  1.00  0.00     0.173 A 
ATOM     64  F   UNL A   1      41.932  29.498  27.686  1.00  0.00    -0.203 F 
ATOM     65  C   UNL A   1      41.280  27.518  26.594  1.00  0.00     0.198 A 
ATOM     66  C   UNL A   1      39.838  25.953  27.703  1.00  0.00     0.198 A 
ATOM     67  F   UNL A   1      39.039  26.414  29.868  1.00  0.00    -0.203 F 
ATOM     68  F   UNL A   1      41.975  27.890  25.510  1.00  0.00    -0.200 F 
ATOM     69  C   UNL A   1      40.580  26.321  26.591  1.00  0.00     0.200 A 
ATOM     70  F   UNL A   1      39.170  24.791  27.706  1.00  0.00    -0.200 F 
ATOM     71  F   UNL A   1      40.613  25.527  25.512  1.00  0.00    -0.200 F 
ENDBRANCH  47  61
BRANCH  48  72
ATOM     72  C   UNL A   1      39.567  33.885  36.862  1.00  0.00     0.064 A 
ATOM     73  C   UNL A   1      40.183  35.142  36.932  1.00  0.00     0.173 A 
ATOM     74  C   UNL A   1      38.802  33.469  37.961  1.00  0.00     0.173 A 
ATOM     75  F   UNL A   1      40.940  35.573  35.913  1.00  0.00    -0.203 F 
ATOM     76  C   UNL A   1      40.054  35.944  38.063  1.00  0.00     0.198 A 
ATOM     77  C   UNL A   1      38.652  34.283  39.082  1.00  0.00     0.198 A 
ATOM     78  F   UNL A   1      38.187  32.277  37.940  1.00  0.00    -0.203 F 
ATOM     79  F   UNL A   1      40.686  37.124  38.120  1.00  0.00    -0.200 F 
ATOM     80  C   UNL A   1      39.284  35.516  39.135  1.00  0.00     0.200 A 
ATOM     81  F   UNL A   1      37.896  33.873  40.110  1.00  0.00    -0.200 F 
ATOM     82  F   UNL A   1      39.156  36.291  40.221  1.00  0.00    -0.200 F 
ENDBRANCH  48  72
BRANCH  60  83
ATOM     83  C   UNL A   1      44.010  28.822  35.080  1.00  0.00     0.064 A 
ATOM     84  C   UNL A   1      43.876  27.729  35.949  1.00  0.00     0.173 A 
ATOM     85  C   UNL A   1      45.300  29.318  34.840  1.00  0.00     0.173 A 
ATOM     86  F   UNL A   1      42.662  27.229  36.223  1.00  0.00    -0.203 F 
ATOM     87  C   UNL A   1      44.990  27.171  36.570  1.00  0.00     0.198 A 
ATOM     88  C   UNL A   1      46.414  28.740  35.440  1.00  0.00     0.198 A 
ATOM     89  F   UNL A   1      45.481  30.358  34.011  1.00  0.00    -0.203 F 
ATOM     90  F   UNL A   1      44.835  26.155  37.431  1.00  0.00    -0.200 F 
ATOM     91  C   UNL A   1      46.257  27.670  36.309  1.00  0.00     0.200 A 
ATOM     92  F   UNL A   1      47.639  29.215  35.178  1.00  0.00    -0.200 F 
ATOM     93  F   UNL A   1      47.329  27.125  36.902  1.00  0.00    -0.200 F 
ENDBRANCH  60  83
ENDBRANCH  34  35
ENDBRANCH  26  29
ENDBRANCH  24  25
ENDBRANCH   1  24
TORSDOF 13
ENDMDL
MODEL 3
REMARK VINA RESULT:     -12.7      0.131      1.616
REMARK SMILES Nc1ccc(N2CC3(CCC3)C2)c(C(=O)NCCCCNC(=O)c2ccc(-c3c4nc(c(-c5c(F)c(F)c(F)c(F)c5F)c5ccc([nH]5)c(-c5c(F)c(F)c(F)c(F)c5F)c5nc(c(-c6c(F)c(F)c(F)c(F)c6F)c6ccc3[nH]6)C=C5)C=C4)cc2)c1
REMARK SMILES IDX 19 1 18 2 17 3 16 4 14 5 15 6 13 8 2 9 3 10 87 11 4 12 5 13
REMARK SMILES IDX 1 14 6 17 7 18 12 19 8 20 9 21 11 22 10 23 20 24 21 25 22 26
REMARK SMILES IDX 23 28 24 29 25 30 86 31 26 32 85 33 27 34 28 35 29 36 79 37
REMARK SMILES IDX 30 38 84 39 78 40 80 41 31 42 83 43 77 44 76 45 32 47 64 48
REMARK SMILES IDX 44 49 63 50 45 51 48 52 62 53 81 54 46 55 47 56 61 58 82 59
REMARK SMILES IDX 49 60 33 61 34 62 42 63 35 64 36 65 40 66 43 67 37 68 38 69
REMARK SMILES IDX 41 70 39 71 65 72 66 73 74 74 67 75 68 76 72 77 75 78 69 79
REMARK SMILES IDX 70 80 73 81 71 82 50 83 51 84 59 85 52 86 53 87 57 88 60 89
REMARK SMILES IDX 54 90 55 91 58 92 56 93
REMARK H PARENT 16 7 1 15 1 16 21 27 80 46 48 57
REMARK Flexibility Score: inf
ROOT
ATOM      1  C   UNL A   1      31.591  31.910  26.840  1.00  0.00     0.023 C 
ENDROOT
BRANCH   1   2
ATOM      2  C   UNL A   1      31.842  30.396  26.787  1.00  0.00     0.023 C 
BRANCH   2   3
ATOM      3  C   UNL A   1      33.313  30.014  26.604  1.00  0.00     0.116 C 
BRANCH   3   4
ATOM      4  N   UNL A   1      33.582  29.775  25.205  1.00  0.00    -0.352 N 
ATOM      5  C   UNL A   1      33.416  28.716  24.349  1.00  0.00     0.253 C 
ATOM      6  O   UNL A   1      33.944  28.914  23.257  1.00  0.00    -0.269 OA
ATOM      7  H   UNL A   1      33.981  30.559  24.761  1.00  0.00     0.163 HD
BRANCH   5   8
ATOM      8  C   UNL A   1      32.623  27.470  24.662  1.00  0.00     0.065 A 
ATOM      9  C   UNL A   1      32.481  25.351  25.900  1.00  0.00     0.032 A 
ATOM     10  C   UNL A   1      31.111  25.323  25.686  1.00  0.00     0.027 A 
ATOM     11  C   UNL A   1      33.224  26.384  25.323  1.00  0.00     0.041 A 
ATOM     12  C   UNL A   1      30.497  26.329  24.940  1.00  0.00     0.029 A 
ATOM     13  C   UNL A   1      31.232  27.402  24.398  1.00  0.00     0.050 A 
BRANCH   9  14
ATOM     14  N   UNL A   1      33.117  24.322  26.576  1.00  0.00    -0.399 N 
ATOM     15  H   UNL A   1      32.795  24.042  27.464  1.00  0.00     0.156 HD
ATOM     16  H   UNL A   1      33.892  23.870  26.169  1.00  0.00     0.156 HD
ENDBRANCH   9  14
BRANCH  13  17
ATOM     17  N   UNL A   1      30.527  28.343  23.639  1.00  0.00    -0.370 N 
ATOM     18  C   UNL A   1      30.066  28.333  22.284  1.00  0.00     0.125 C 
ATOM     19  C   UNL A   1      30.146  29.705  23.880  1.00  0.00     0.125 C 
ATOM     20  C   UNL A   1      29.258  29.538  22.676  1.00  0.00     0.005 C 
ATOM     21  C   UNL A   1      29.026  30.694  21.748  1.00  0.00     0.011 C 
ATOM     22  C   UNL A   1      27.768  29.362  22.889  1.00  0.00     0.011 C 
ATOM     23  C   UNL A   1      27.625  30.826  22.411  1.00  0.00     0.001 C 
ENDBRANCH  13  17
ENDBRANCH   5   8
ENDBRANCH   3   4
ENDBRANCH   2   3
ENDBRANCH   1   2
BRANCH   1  24
ATOM     24  C   UNL A   1      32.806  32.751  27.215  1.00  0.00     0.116 C 
BRANCH  24  25
ATOM     25  N   UNL A   1      32.459  34.111  27.591  1.00  0.00    -0.352 N 
ATOM     26  C   UNL A   1      33.017  34.905  28.563  1.00  0.00     0.251 C 
ATOM     27  H   UNL A   1      31.724  34.520  27.079  1.00  0.00     0.163 HD
ATOM     28  O   UNL A   1      32.533  35.996  28.829  1.00  0.00    -0.269 OA
BRANCH  26  29
ATOM     29  C   UNL A   1      34.187  34.409  29.314  1.00  0.00     0.039 A 
ATOM     30  C   UNL A   1      33.972  33.740  30.521  1.00  0.00     0.014 A 
ATOM     31  C   UNL A   1      35.482  34.585  28.820  1.00  0.00     0.014 A 
ATOM     32  C   UNL A   1      35.056  33.190  31.206  1.00  0.00     0.010 A 
ATOM     33  C   UNL A   1      36.554  33.983  29.471  1.00  0.00     0.010 A 
ATOM     34  C   UNL A   1      36.350  33.279  30.668  1.00  0.00    -0.014 A 
BRANCH  34  35
ATOM     35  C   UNL A   1      37.504  32.636  31.340  1.00  0.00     0.031 A 
ATOM     36  C   UNL A   1      38.224  31.498  30.676  1.00  0.00     0.074 A 
ATOM     37  C   UNL A   1      37.854  33.030  32.578  1.00  0.00     0.049 A 
ATOM     38  N   UNL A   1      39.205  30.762  31.129  1.00  0.00    -0.248 NA
ATOM     39  C   UNL A   1      37.759  31.118  29.332  1.00  0.00     0.031 C 
ATOM     40  C   UNL A   1      37.195  34.088  33.347  1.00  0.00     0.029 A 
ATOM     41  N   UNL A   1      38.842  32.578  33.416  1.00  0.00    -0.354 N 
ATOM     42  C   UNL A   1      39.463  29.825  30.139  1.00  0.00     0.074 A 
ATOM     43  C   UNL A   1      38.503  30.052  29.080  1.00  0.00     0.031 C 
ATOM     44  C   UNL A   1      37.808  34.216  34.534  1.00  0.00     0.029 A 
ATOM     45  C   UNL A   1      38.881  33.229  34.624  1.00  0.00     0.049 A 
ATOM     46  H   UNL A   1      39.465  31.855  33.174  1.00  0.00     0.167 HD
ATOM     47  C   UNL A   1      40.428  28.875  30.106  1.00  0.00     0.037 A 
ATOM     48  C   UNL A   1      39.686  33.046  35.686  1.00  0.00     0.037 A 
ATOM     49  C   UNL A   1      41.397  28.670  31.150  1.00  0.00     0.049 A 
ATOM     50  C   UNL A   1      40.757  31.991  35.621  1.00  0.00     0.074 A 
ATOM     51  C   UNL A   1      42.455  27.780  31.185  1.00  0.00     0.029 A 
ATOM     52  N   UNL A   1      41.423  29.370  32.349  1.00  0.00    -0.354 N 
ATOM     53  N   UNL A   1      41.039  31.158  34.649  1.00  0.00    -0.248 NA
ATOM     54  C   UNL A   1      41.626  31.856  36.798  1.00  0.00     0.031 C 
ATOM     55  C   UNL A   1      43.098  27.912  32.421  1.00  0.00     0.029 A 
ATOM     56  C   UNL A   1      42.469  28.917  33.139  1.00  0.00     0.049 A 
ATOM     57  H   UNL A   1      40.792  30.082  32.602  1.00  0.00     0.167 HD
ATOM     58  C   UNL A   1      42.131  30.420  35.083  1.00  0.00     0.074 A 
ATOM     59  C   UNL A   1      42.470  30.913  36.403  1.00  0.00     0.031 C 
ATOM     60  C   UNL A   1      42.795  29.424  34.446  1.00  0.00     0.037 A 
BRANCH  47  61
ATOM     61  C   UNL A   1      40.482  27.987  28.898  1.00  0.00     0.064 A 
ATOM     62  C   UNL A   1      39.767  26.781  28.839  1.00  0.00     0.173 A 
ATOM     63  C   UNL A   1      41.239  28.356  27.775  1.00  0.00     0.173 A 
ATOM     64  F   UNL A   1      39.039  26.377  29.891  1.00  0.00    -0.203 F 
ATOM     65  C   UNL A   1      39.833  25.962  27.715  1.00  0.00     0.198 A 
ATOM     66  C   UNL A   1      41.279  27.548  26.641  1.00  0.00     0.198 A 
ATOM     67  F   UNL A   1      41.937  29.501  27.776  1.00  0.00    -0.203 F 
ATOM     68  F   UNL A   1      39.183  24.790  27.704  1.00  0.00    -0.200 F 
ATOM     69  C   UNL A   1      40.584  26.349  26.615  1.00  0.00     0.200 A 
ATOM     70  F   UNL A   1      41.995  27.929  25.574  1.00  0.00    -0.200 F 
ATOM     71  F   UNL A   1      40.643  25.561  25.532  1.00  0.00    -0.200 F 
ENDBRANCH  47  61
BRANCH  48  72
ATOM     72  C   UNL A   1      39.532  33.904  36.888  1.00  0.00     0.064 A 
ATOM     73  C   UNL A   1      40.142  35.165  36.952  1.00  0.00     0.173 A 
ATOM     74  C   UNL A   1      38.770  33.490  37.989  1.00  0.00     0.173 A 
ATOM     75  F   UNL A   1      40.897  35.595  35.930  1.00  0.00    -0.203 F 
ATOM     76  C   UNL A   1      40.009  35.972  38.079  1.00  0.00     0.198 A 
ATOM     77  C   UNL A   1      38.615  34.310  39.106  1.00  0.00     0.198 A 
ATOM     78  F   UNL A   1      38.161  32.295  37.974  1.00  0.00    -0.203 F 
ATOM     79  F   UNL A   1      40.635  37.156  38.130  1.00  0.00    -0.200 F 
ATOM     80  C   UNL A   1      39.241  35.546  39.153  1.00  0.00     0.200 A 
ATOM     81  F   UNL A   1      37.862  33.901  40.136  1.00  0.00    -0.200 F 
ATOM     82  F   UNL A   1      39.108  36.326  40.234  1.00  0.00    -0.200 F 
ENDBRANCH  48  72
BRANCH  60  83
ATOM     83  C   UNL A   1      43.975  28.825  35.151  1.00  0.00     0.064 A 
ATOM     84  C   UNL A   1      45.272  29.331  34.974  1.00  0.00     0.173 A 
ATOM     85  C   UNL A   1      43.800  27.760  36.048  1.00  0.00     0.173 A 
ATOM     86  F   UNL A   1      45.493  30.337  34.115  1.00  0.00    -0.203 F 
ATOM     87  C   UNL A   1      46.353  28.776  35.654  1.00  0.00     0.198 A 
ATOM     88  C   UNL A   1      44.879  27.227  36.746  1.00  0.00     0.198 A 
ATOM     89  F   UNL A   1      42.578  27.246  36.256  1.00  0.00    -0.203 F 
ATOM     90  F   UNL A   1      47.589  29.246  35.438  1.00  0.00    -0.200 F 
ATOM     91  C   UNL A   1      46.155  27.732  36.545  1.00  0.00     0.200 A 
ATOM     92  F   UNL A   1      44.685  26.226  37.616  1.00  0.00    -0.200 F 
ATOM     93  F   UNL A   1      47.196  27.205  37.204  1.00  0.00    -0.200 F 
ENDBRANCH  60  83
ENDBRANCH  34  35
ENDBRANCH  26  29
ENDBRANCH  24  25
ENDBRANCH   1  24
TORSDOF 13
ENDMDL
