MODEL 1
REMARK VINA RESULT:     -14.1      0.000      0.000
REMARK SMILES C/C(=N\NC(N)=O)c1nnn(-c2ccc(C(=O)NCCCCNC(=O)c3ccc(-c4c5nc(c(-c6c(F)c(F)c(F)c(F)c6F)c6ccc([nH]6)c(-c6c(F)c(F)c(F)c(F)c6F)c6nc(c(-c7c(F)c(F)c(F)c(F)c7F)c7ccc4[nH]7)C=C6)C=C5)cc3)cc2)c1C
REMARK SMILES IDX 20 1 19 2 18 3 16 4 17 5 15 7 12 8 13 9 90 10 14 11 89 12
REMARK SMILES IDX 11 13 8 14 9 15 91 16 10 17 92 18 2 19 1 20 3 21 4 22 5 23
REMARK SMILES IDX 6 25 7 26 21 29 22 30 23 31 24 32 25 34 26 35 27 36 88 37
REMARK SMILES IDX 28 38 87 39 29 40 30 41 31 42 81 43 32 44 86 45 80 46 82 47
REMARK SMILES IDX 33 48 85 49 79 50 78 51 34 53 66 54 46 55 65 56 47 57 50 58
REMARK SMILES IDX 64 59 83 60 48 61 49 62 63 64 84 65 51 66 35 67 36 68 44 69
REMARK SMILES IDX 37 70 38 71 42 72 45 73 39 74 40 75 43 76 41 77 67 78 68 79
REMARK SMILES IDX 76 80 69 81 70 82 74 83 77 84 71 85 72 86 75 87 73 88 52 89
REMARK SMILES IDX 53 90 61 91 54 92 55 93 59 94 62 95 56 96 57 97 60 98 58 99
REMARK H PARENT 18 6 4 24 6 27 6 28 23 33 82 52 50 63
REMARK Flexibility Score: inf
ROOT
ATOM      1  C   UNL A   1      36.985  21.823  24.270  1.00  0.00     0.023 C 
ENDROOT
BRANCH   1   2
ATOM      2  C   UNL A   1      36.721  20.721  25.310  1.00  0.00     0.116 C 
BRANCH   2   3
ATOM      3  N   UNL A   1      35.600  19.878  24.936  1.00  0.00    -0.352 N 
ATOM      4  C   UNL A   1      34.239  20.075  24.926  1.00  0.00     0.251 C 
ATOM      5  O   UNL A   1      33.543  19.157  24.487  1.00  0.00    -0.269 OA
ATOM      6  H   UNL A   1      35.869  18.983  24.625  1.00  0.00     0.163 HD
BRANCH   4   7
ATOM      7  C   UNL A   1      33.575  21.344  25.352  1.00  0.00     0.039 A 
ATOM      8  C   UNL A   1      32.426  23.846  25.850  1.00  0.00     0.067 A 
ATOM      9  C   UNL A   1      31.882  23.039  24.852  1.00  0.00     0.029 A 
ATOM     10  C   UNL A   1      33.444  23.374  26.674  1.00  0.00     0.029 A 
ATOM     11  C   UNL A   1      32.482  21.801  24.588  1.00  0.00     0.016 A 
ATOM     12  C   UNL A   1      33.978  22.109  26.448  1.00  0.00     0.016 A 
BRANCH   8  13
ATOM     13  N   UNL A   1      32.033  25.188  25.966  1.00  0.00    -0.217 N 
ATOM     14  C   UNL A   1      31.725  27.315  25.649  1.00  0.00     0.132 A 
ATOM     15  N   UNL A   1      30.884  26.890  26.645  1.00  0.00    -0.128 NA
ATOM     16  C   UNL A   1      32.464  26.244  25.184  1.00  0.00     0.071 A 
ATOM     17  N   UNL A   1      31.029  25.578  26.777  1.00  0.00    -0.061 NA
ATOM     18  C   UNL A   1      33.354  26.116  24.003  1.00  0.00     0.069 C 
BRANCH  14  19
ATOM     19  C   UNL A   1      31.603  28.622  25.031  1.00  0.00     0.087 C 
ATOM     20  C   UNL A   1      32.680  29.605  25.405  1.00  0.00     0.071 C 
ATOM     21  N   UNL A   1      30.600  28.777  24.218  1.00  0.00    -0.174 NA
BRANCH  21  22
ATOM     22  N   UNL A   1      30.343  29.964  23.586  1.00  0.00    -0.229 N 
ATOM     23  C   UNL A   1      29.783  30.144  22.341  1.00  0.00     0.332 C 
ATOM     24  H   UNL A   1      30.585  30.782  24.079  1.00  0.00     0.195 HD
ATOM     25  N   UNL A   1      29.625  31.461  22.027  1.00  0.00    -0.350 N 
ATOM     26  O   UNL A   1      29.424  29.280  21.553  1.00  0.00    -0.247 OA
ATOM     27  H   UNL A   1      29.914  32.156  22.662  1.00  0.00     0.161 HD
ATOM     28  H   UNL A   1      29.223  31.717  21.166  1.00  0.00     0.161 HD
ENDBRANCH  21  22
ENDBRANCH  14  19
ENDBRANCH   8  13
ENDBRANCH   4   7
ENDBRANCH   2   3
ENDBRANCH   1   2
BRANCH   1  29
ATOM     29  C   UNL A   1      37.265  23.225  24.831  1.00  0.00     0.023 C 
BRANCH  29  30
ATOM     30  C   UNL A   1      38.062  23.253  26.127  1.00  0.00     0.116 C 
BRANCH  30  31
ATOM     31  N   UNL A   1      39.332  22.516  26.062  1.00  0.00    -0.352 N 
ATOM     32  C   UNL A   1      40.618  22.991  26.309  1.00  0.00     0.251 C 
ATOM     33  H   UNL A   1      39.266  21.566  25.811  1.00  0.00     0.163 HD
ATOM     34  O   UNL A   1      41.608  22.437  25.875  1.00  0.00    -0.269 OA
BRANCH  32  35
ATOM     35  C   UNL A   1      40.738  24.185  27.163  1.00  0.00     0.039 A 
ATOM     36  C   UNL A   1      41.727  24.353  28.136  1.00  0.00     0.014 A 
ATOM     37  C   UNL A   1      39.847  25.202  26.866  1.00  0.00     0.014 A 
ATOM     38  C   UNL A   1      41.842  25.601  28.748  1.00  0.00     0.010 A 
ATOM     39  C   UNL A   1      40.166  26.473  27.227  1.00  0.00     0.010 A 
ATOM     40  C   UNL A   1      41.057  26.659  28.269  1.00  0.00    -0.014 A 
BRANCH  40  41
ATOM     41  C   UNL A   1      41.093  28.003  28.815  1.00  0.00     0.031 A 
ATOM     42  C   UNL A   1      42.186  28.876  28.332  1.00  0.00     0.074 A 
ATOM     43  C   UNL A   1      40.066  28.484  29.551  1.00  0.00     0.049 A 
ATOM     44  N   UNL A   1      43.183  29.311  29.022  1.00  0.00    -0.248 NA
ATOM     45  C   UNL A   1      42.246  29.228  26.907  1.00  0.00     0.031 C 
ATOM     46  C   UNL A   1      38.776  27.858  29.889  1.00  0.00     0.029 A 
ATOM     47  N   UNL A   1      39.937  29.720  30.091  1.00  0.00    -0.354 N 
ATOM     48  C   UNL A   1      43.929  30.120  28.172  1.00  0.00     0.074 A 
ATOM     49  C   UNL A   1      43.387  29.922  26.852  1.00  0.00     0.031 C 
ATOM     50  C   UNL A   1      37.926  28.791  30.369  1.00  0.00     0.029 A 
ATOM     51  C   UNL A   1      38.663  30.026  30.547  1.00  0.00     0.049 A 
ATOM     52  H   UNL A   1      40.688  30.353  30.154  1.00  0.00     0.167 HD
ATOM     53  C   UNL A   1      44.815  31.027  28.672  1.00  0.00     0.037 A 
ATOM     54  C   UNL A   1      38.251  31.221  31.030  1.00  0.00     0.037 A 
ATOM     55  C   UNL A   1      45.038  30.814  30.081  1.00  0.00     0.049 A 
ATOM     56  C   UNL A   1      39.472  31.937  31.487  1.00  0.00     0.074 A 
ATOM     57  C   UNL A   1      45.575  29.781  30.824  1.00  0.00     0.029 A 
ATOM     58  N   UNL A   1      44.307  31.571  30.966  1.00  0.00    -0.354 N 
ATOM     59  N   UNL A   1      40.199  31.532  32.495  1.00  0.00    -0.248 NA
ATOM     60  C   UNL A   1      40.163  32.783  30.522  1.00  0.00     0.031 C 
ATOM     61  C   UNL A   1      44.740  29.689  31.977  1.00  0.00     0.029 A 
ATOM     62  C   UNL A   1      43.795  30.714  31.909  1.00  0.00     0.049 A 
ATOM     63  H   UNL A   1      44.176  32.546  30.931  1.00  0.00     0.167 HD
ATOM     64  C   UNL A   1      41.513  31.700  32.078  1.00  0.00     0.074 A 
ATOM     65  C   UNL A   1      41.428  32.547  30.888  1.00  0.00     0.031 C 
ATOM     66  C   UNL A   1      42.515  30.901  32.551  1.00  0.00     0.037 A 
BRANCH  53  67
ATOM     67  C   UNL A   1      45.243  32.298  27.995  1.00  0.00     0.064 A 
ATOM     68  C   UNL A   1      44.274  33.274  27.690  1.00  0.00     0.173 A 
ATOM     69  C   UNL A   1      46.497  32.459  27.372  1.00  0.00     0.173 A 
ATOM     70  F   UNL A   1      43.047  33.210  28.228  1.00  0.00    -0.203 F 
ATOM     71  C   UNL A   1      44.519  34.288  26.762  1.00  0.00     0.198 A 
ATOM     72  C   UNL A   1      46.753  33.503  26.484  1.00  0.00     0.198 A 
ATOM     73  F   UNL A   1      47.475  31.555  27.508  1.00  0.00    -0.203 F 
ATOM     74  F   UNL A   1      43.530  35.121  26.409  1.00  0.00    -0.200 F 
ATOM     75  C   UNL A   1      45.756  34.396  26.153  1.00  0.00     0.200 A 
ATOM     76  F   UNL A   1      47.953  33.582  25.891  1.00  0.00    -0.200 F 
ATOM     77  F   UNL A   1      45.973  35.325  25.213  1.00  0.00    -0.200 F 
ENDBRANCH  53  67
BRANCH  54  78
ATOM     78  C   UNL A   1      36.940  31.871  30.805  1.00  0.00     0.064 A 
ATOM     79  C   UNL A   1      36.008  32.015  31.843  1.00  0.00     0.173 A 
ATOM     80  C   UNL A   1      36.682  32.601  29.626  1.00  0.00     0.173 A 
ATOM     81  F   UNL A   1      36.201  31.389  33.013  1.00  0.00    -0.203 F 
ATOM     82  C   UNL A   1      34.895  32.856  31.718  1.00  0.00     0.198 A 
ATOM     83  C   UNL A   1      35.571  33.436  29.501  1.00  0.00     0.198 A 
ATOM     84  F   UNL A   1      37.550  32.589  28.605  1.00  0.00    -0.203 F 
ATOM     85  F   UNL A   1      34.055  33.014  32.751  1.00  0.00    -0.200 F 
ATOM     86  C   UNL A   1      34.685  33.575  30.552  1.00  0.00     0.200 A 
ATOM     87  F   UNL A   1      35.400  34.151  28.380  1.00  0.00    -0.200 F 
ATOM     88  F   UNL A   1      33.655  34.427  30.454  1.00  0.00    -0.200 F 
ENDBRANCH  54  78
BRANCH  66  89
ATOM     89  C   UNL A   1      42.187  29.971  33.689  1.00  0.00     0.064 A 
ATOM     90  C   UNL A   1      41.757  28.643  33.516  1.00  0.00     0.173 A 
ATOM     91  C   UNL A   1      42.464  30.384  34.997  1.00  0.00     0.173 A 
ATOM     92  F   UNL A   1      41.578  28.131  32.296  1.00  0.00    -0.203 F 
ATOM     93  C   UNL A   1      41.561  27.790  34.601  1.00  0.00     0.198 A 
ATOM     94  C   UNL A   1      42.303  29.520  36.079  1.00  0.00     0.198 A 
ATOM     95  F   UNL A   1      42.943  31.617  35.224  1.00  0.00    -0.203 F 
ATOM     96  F   UNL A   1      41.140  26.532  34.400  1.00  0.00    -0.200 F 
ATOM     97  C   UNL A   1      41.841  28.228  35.883  1.00  0.00     0.200 A 
ATOM     98  F   UNL A   1      42.625  29.931  37.313  1.00  0.00    -0.200 F 
ATOM     99  F   UNL A   1      41.691  27.398  36.925  1.00  0.00    -0.200 F 
ENDBRANCH  66  89
ENDBRANCH  40  41
ENDBRANCH  32  35
ENDBRANCH  30  31
ENDBRANCH  29  30
ENDBRANCH   1  29
TORSDOF 14
ENDMDL
MODEL 2
REMARK VINA RESULT:     -13.8      5.489      9.997
REMARK SMILES C/C(=N\NC(N)=O)c1nnn(-c2ccc(C(=O)NCCCCNC(=O)c3ccc(-c4c5nc(c(-c6c(F)c(F)c(F)c(F)c6F)c6ccc([nH]6)c(-c6c(F)c(F)c(F)c(F)c6F)c6nc(c(-c7c(F)c(F)c(F)c(F)c7F)c7ccc4[nH]7)C=C6)C=C5)cc3)cc2)c1C
REMARK SMILES IDX 20 1 19 2 18 3 16 4 17 5 15 7 12 8 13 9 90 10 14 11 89 12
REMARK SMILES IDX 11 13 8 14 9 15 91 16 10 17 92 18 2 19 1 20 3 21 4 22 5 23
REMARK SMILES IDX 6 25 7 26 21 29 22 30 23 31 24 32 25 34 26 35 27 36 88 37
REMARK SMILES IDX 28 38 87 39 29 40 30 41 31 42 81 43 32 44 86 45 80 46 82 47
REMARK SMILES IDX 33 48 85 49 79 50 78 51 34 53 66 54 46 55 65 56 47 57 50 58
REMARK SMILES IDX 64 59 83 60 48 61 49 62 63 64 84 65 51 66 35 67 36 68 44 69
REMARK SMILES IDX 37 70 38 71 42 72 45 73 39 74 40 75 43 76 41 77 67 78 68 79
REMARK SMILES IDX 76 80 69 81 70 82 74 83 77 84 71 85 72 86 75 87 73 88 52 89
REMARK SMILES IDX 53 90 61 91 54 92 55 93 59 94 62 95 56 96 57 97 60 98 58 99
REMARK H PARENT 18 6 4 24 6 27 6 28 23 33 82 52 50 63
REMARK Flexibility Score: inf
ROOT
ATOM      1  C   UNL A   1      45.492  32.644  26.127  1.00  0.00     0.023 C 
ENDROOT
BRANCH   1   2
ATOM      2  C   UNL A   1      45.560  31.452  27.095  1.00  0.00     0.116 C 
BRANCH   2   3
ATOM      3  N   UNL A   1      44.660  31.616  28.223  1.00  0.00    -0.352 N 
ATOM      4  C   UNL A   1      43.638  30.847  28.729  1.00  0.00     0.251 C 
ATOM      5  O   UNL A   1      43.093  31.248  29.760  1.00  0.00    -0.269 OA
ATOM      6  H   UNL A   1      44.815  32.446  28.730  1.00  0.00     0.163 HD
BRANCH   4   7
ATOM      7  C   UNL A   1      43.204  29.543  28.142  1.00  0.00     0.039 A 
ATOM      8  C   UNL A   1      42.696  26.985  27.130  1.00  0.00     0.067 A 
ATOM      9  C   UNL A   1      42.854  27.148  28.505  1.00  0.00     0.029 A 
ATOM     10  C   UNL A   1      42.666  28.086  26.278  1.00  0.00     0.029 A 
ATOM     11  C   UNL A   1      43.138  28.428  29.001  1.00  0.00     0.016 A 
ATOM     12  C   UNL A   1      42.874  29.360  26.799  1.00  0.00     0.016 A 
BRANCH   8  13
ATOM     13  N   UNL A   1      42.679  25.699  26.568  1.00  0.00    -0.217 N 
ATOM     14  C   UNL A   1      43.223  23.809  25.647  1.00  0.00     0.132 A 
ATOM     15  N   UNL A   1      41.938  23.718  26.116  1.00  0.00    -0.128 NA
ATOM     16  C   UNL A   1      43.730  25.062  25.934  1.00  0.00     0.071 A 
ATOM     17  N   UNL A   1      41.645  24.851  26.741  1.00  0.00    -0.061 NA
ATOM     18  C   UNL A   1      45.108  25.601  25.829  1.00  0.00     0.069 C 
BRANCH  14  19
ATOM     19  C   UNL A   1      43.971  22.651  25.194  1.00  0.00     0.087 C 
ATOM     20  C   UNL A   1      44.523  22.758  23.798  1.00  0.00     0.071 C 
ATOM     21  N   UNL A   1      44.091  21.680  26.050  1.00  0.00    -0.174 NA
BRANCH  21  22
ATOM     22  N   UNL A   1      44.744  20.514  25.751  1.00  0.00    -0.229 N 
ATOM     23  C   UNL A   1      44.199  19.358  25.238  1.00  0.00     0.332 C 
ATOM     24  H   UNL A   1      45.714  20.501  25.922  1.00  0.00     0.195 HD
ATOM     25  N   UNL A   1      45.136  18.394  25.016  1.00  0.00    -0.350 N 
ATOM     26  O   UNL A   1      43.025  19.145  24.966  1.00  0.00    -0.247 OA
ATOM     27  H   UNL A   1      46.081  18.567  25.235  1.00  0.00     0.161 HD
ATOM     28  H   UNL A   1      44.869  17.525  24.638  1.00  0.00     0.161 HD
ENDBRANCH  21  22
ENDBRANCH  14  19
ENDBRANCH   8  13
ENDBRANCH   4   7
ENDBRANCH   2   3
ENDBRANCH   1   2
BRANCH   1  29
ATOM     29  C   UNL A   1      44.086  33.093  25.708  1.00  0.00     0.023 C 
BRANCH  29  30
ATOM     30  C   UNL A   1      43.987  34.532  25.219  1.00  0.00     0.116 C 
BRANCH  30  31
ATOM     31  N   UNL A   1      45.022  35.420  25.770  1.00  0.00    -0.352 N 
ATOM     32  C   UNL A   1      44.932  36.270  26.869  1.00  0.00     0.251 C 
ATOM     33  H   UNL A   1      45.889  35.413  25.301  1.00  0.00     0.163 HD
ATOM     34  O   UNL A   1      45.678  37.218  27.018  1.00  0.00    -0.269 OA
BRANCH  32  35
ATOM     35  C   UNL A   1      43.911  35.950  27.881  1.00  0.00     0.039 A 
ATOM     36  C   UNL A   1      42.589  36.400  27.825  1.00  0.00     0.014 A 
ATOM     37  C   UNL A   1      44.326  35.071  28.866  1.00  0.00     0.014 A 
ATOM     38  C   UNL A   1      41.678  35.878  28.744  1.00  0.00     0.010 A 
ATOM     39  C   UNL A   1      43.388  34.349  29.532  1.00  0.00     0.010 A 
ATOM     40  C   UNL A   1      42.095  34.839  29.587  1.00  0.00    -0.014 A 
BRANCH  40  41
ATOM     41  C   UNL A   1      41.240  34.209  30.576  1.00  0.00     0.031 A 
ATOM     42  C   UNL A   1      41.825  34.022  31.922  1.00  0.00     0.074 A 
ATOM     43  C   UNL A   1      39.925  34.006  30.333  1.00  0.00     0.049 A 
ATOM     44  N   UNL A   1      42.128  32.901  32.480  1.00  0.00    -0.248 NA
ATOM     45  C   UNL A   1      42.213  35.203  32.705  1.00  0.00     0.031 C 
ATOM     46  C   UNL A   1      39.115  34.388  29.164  1.00  0.00     0.029 A 
ATOM     47  N   UNL A   1      38.999  33.471  31.165  1.00  0.00    -0.354 N 
ATOM     48  C   UNL A   1      42.609  33.207  33.748  1.00  0.00     0.074 A 
ATOM     49  C   UNL A   1      42.771  34.638  33.781  1.00  0.00     0.031 C 
ATOM     50  C   UNL A   1      37.802  34.279  29.462  1.00  0.00     0.029 A 
ATOM     51  C   UNL A   1      37.683  33.648  30.761  1.00  0.00     0.049 A 
ATOM     52  H   UNL A   1      39.240  32.995  31.991  1.00  0.00     0.167 HD
ATOM     53  C   UNL A   1      42.656  32.257  34.724  1.00  0.00     0.037 A 
ATOM     54  C   UNL A   1      36.578  33.301  31.461  1.00  0.00     0.037 A 
ATOM     55  C   UNL A   1      42.423  30.942  34.181  1.00  0.00     0.049 A 
ATOM     56  C   UNL A   1      36.999  32.248  32.424  1.00  0.00     0.074 A 
ATOM     57  C   UNL A   1      43.095  30.141  33.278  1.00  0.00     0.029 A 
ATOM     58  N   UNL A   1      41.144  30.440  34.247  1.00  0.00    -0.354 N 
ATOM     59  N   UNL A   1      37.402  31.063  32.050  1.00  0.00    -0.248 NA
ATOM     60  C   UNL A   1      37.460  32.677  33.738  1.00  0.00     0.031 C 
ATOM     61  C   UNL A   1      42.069  29.540  32.489  1.00  0.00     0.029 A 
ATOM     62  C   UNL A   1      40.836  29.946  33.003  1.00  0.00     0.049 A 
ATOM     63  H   UNL A   1      40.559  30.434  35.038  1.00  0.00     0.167 HD
ATOM     64  C   UNL A   1      38.494  30.785  32.862  1.00  0.00     0.074 A 
ATOM     65  C   UNL A   1      38.432  31.780  33.934  1.00  0.00     0.031 C 
ATOM     66  C   UNL A   1      39.508  29.975  32.435  1.00  0.00     0.037 A 
BRANCH  53  67
ATOM     67  C   UNL A   1      42.592  32.516  36.202  1.00  0.00     0.064 A 
ATOM     68  C   UNL A   1      43.613  32.014  37.033  1.00  0.00     0.173 A 
ATOM     69  C   UNL A   1      41.430  32.969  36.859  1.00  0.00     0.173 A 
ATOM     70  F   UNL A   1      44.758  31.554  36.507  1.00  0.00    -0.203 F 
ATOM     71  C   UNL A   1      43.445  31.896  38.414  1.00  0.00     0.198 A 
ATOM     72  C   UNL A   1      41.287  32.896  38.244  1.00  0.00     0.198 A 
ATOM     73  F   UNL A   1      40.354  33.388  36.182  1.00  0.00    -0.203 F 
ATOM     74  F   UNL A   1      44.391  31.298  39.151  1.00  0.00    -0.200 F 
ATOM     75  C   UNL A   1      42.278  32.328  39.017  1.00  0.00     0.200 A 
ATOM     76  F   UNL A   1      40.142  33.306  38.809  1.00  0.00    -0.200 F 
ATOM     77  F   UNL A   1      42.086  32.155  40.331  1.00  0.00    -0.200 F 
ENDBRANCH  53  67
BRANCH  54  78
ATOM     78  C   UNL A   1      35.307  34.056  31.554  1.00  0.00     0.064 A 
ATOM     79  C   UNL A   1      35.081  34.981  32.584  1.00  0.00     0.173 A 
ATOM     80  C   UNL A   1      34.392  34.077  30.482  1.00  0.00     0.173 A 
ATOM     81  F   UNL A   1      35.928  35.057  33.619  1.00  0.00    -0.203 F 
ATOM     82  C   UNL A   1      34.015  35.888  32.533  1.00  0.00     0.198 A 
ATOM     83  C   UNL A   1      33.328  34.978  30.434  1.00  0.00     0.198 A 
ATOM     84  F   UNL A   1      34.563  33.283  29.415  1.00  0.00    -0.203 F 
ATOM     85  F   UNL A   1      33.862  36.797  33.507  1.00  0.00    -0.200 F 
ATOM     86  C   UNL A   1      33.147  35.893  31.452  1.00  0.00     0.200 A 
ATOM     87  F   UNL A   1      32.518  34.994  29.366  1.00  0.00    -0.200 F 
ATOM     88  F   UNL A   1      32.165  36.802  31.373  1.00  0.00    -0.200 F 
ENDBRANCH  54  78
BRANCH  66  89
ATOM     89  C   UNL A   1      39.309  29.231  31.141  1.00  0.00     0.064 A 
ATOM     90  C   UNL A   1      39.630  29.757  29.877  1.00  0.00     0.173 A 
ATOM     91  C   UNL A   1      38.926  27.886  31.190  1.00  0.00     0.173 A 
ATOM     92  F   UNL A   1      40.112  30.996  29.750  1.00  0.00    -0.203 F 
ATOM     93  C   UNL A   1      39.522  28.994  28.717  1.00  0.00     0.198 A 
ATOM     94  C   UNL A   1      38.851  27.111  30.034  1.00  0.00     0.198 A 
ATOM     95  F   UNL A   1      38.671  27.304  32.373  1.00  0.00    -0.203 F 
ATOM     96  F   UNL A   1      39.827  29.532  27.526  1.00  0.00    -0.200 F 
ATOM     97  C   UNL A   1      39.138  27.667  28.797  1.00  0.00     0.200 A 
ATOM     98  F   UNL A   1      38.530  25.813  30.123  1.00  0.00    -0.200 F 
ATOM     99  F   UNL A   1      39.069  26.918  27.687  1.00  0.00    -0.200 F 
ENDBRANCH  66  89
ENDBRANCH  40  41
ENDBRANCH  32  35
ENDBRANCH  30  31
ENDBRANCH  29  30
ENDBRANCH   1  29
TORSDOF 14
ENDMDL
MODEL 3
REMARK VINA RESULT:     -13.7      3.230      9.242
REMARK SMILES C/C(=N\NC(N)=O)c1nnn(-c2ccc(C(=O)NCCCCNC(=O)c3ccc(-c4c5nc(c(-c6c(F)c(F)c(F)c(F)c6F)c6ccc([nH]6)c(-c6c(F)c(F)c(F)c(F)c6F)c6nc(c(-c7c(F)c(F)c(F)c(F)c7F)c7ccc4[nH]7)C=C6)C=C5)cc3)cc2)c1C
REMARK SMILES IDX 20 1 19 2 18 3 16 4 17 5 15 7 12 8 13 9 90 10 14 11 89 12
REMARK SMILES IDX 11 13 8 14 9 15 91 16 10 17 92 18 2 19 1 20 3 21 4 22 5 23
REMARK SMILES IDX 6 25 7 26 21 29 22 30 23 31 24 32 25 34 26 35 27 36 88 37
REMARK SMILES IDX 28 38 87 39 29 40 30 41 31 42 81 43 32 44 86 45 80 46 82 47
REMARK SMILES IDX 33 48 85 49 79 50 78 51 34 53 66 54 46 55 65 56 47 57 50 58
REMARK SMILES IDX 64 59 83 60 48 61 49 62 63 64 84 65 51 66 35 67 36 68 44 69
REMARK SMILES IDX 37 70 38 71 42 72 45 73 39 74 40 75 43 76 41 77 67 78 68 79
REMARK SMILES IDX 76 80 69 81 70 82 74 83 77 84 71 85 72 86 75 87 73 88 52 89
REMARK SMILES IDX 53 90 61 91 54 92 55 93 59 94 62 95 56 96 57 97 60 98 58 99
REMARK H PARENT 18 6 4 24 6 27 6 28 23 33 82 52 50 63
REMARK Flexibility Score: inf
ROOT
ATOM      1  C   UNL A   1      32.133  30.248  26.549  1.00  0.00     0.023 C 
ENDROOT
BRANCH   1   2
ATOM      2  C   UNL A   1      31.839  29.470  25.256  1.00  0.00     0.116 C 
BRANCH   2   3
ATOM      3  N   UNL A   1      32.950  29.530  24.322  1.00  0.00    -0.352 N 
ATOM      4  C   UNL A   1      33.724  28.566  23.719  1.00  0.00     0.251 C 
ATOM      5  O   UNL A   1      34.571  28.952  22.911  1.00  0.00    -0.269 OA
ATOM      6  H   UNL A   1      33.197  30.449  24.066  1.00  0.00     0.163 HD
BRANCH   4   7
ATOM      7  C   UNL A   1      33.551  27.098  23.940  1.00  0.00     0.039 A 
ATOM      8  C   UNL A   1      33.551  24.346  24.443  1.00  0.00     0.067 A 
ATOM      9  C   UNL A   1      33.721  25.228  25.509  1.00  0.00     0.029 A 
ATOM     10  C   UNL A   1      33.263  24.817  23.165  1.00  0.00     0.029 A 
ATOM     11  C   UNL A   1      33.749  26.604  25.245  1.00  0.00     0.016 A 
ATOM     12  C   UNL A   1      33.218  26.189  22.935  1.00  0.00     0.016 A 
BRANCH   8  13
ATOM     13  N   UNL A   1      33.783  22.973  24.618  1.00  0.00    -0.217 N 
ATOM     14  C   UNL A   1      33.561  20.826  24.863  1.00  0.00     0.132 A 
ATOM     15  N   UNL A   1      34.882  21.110  24.627  1.00  0.00    -0.128 NA
ATOM     16  C   UNL A   1      32.829  21.998  24.849  1.00  0.00     0.071 A 
ATOM     17  N   UNL A   1      34.991  22.413  24.406  1.00  0.00    -0.061 NA
ATOM     18  C   UNL A   1      31.363  22.230  24.848  1.00  0.00     0.069 C 
BRANCH  14  19
ATOM     19  C   UNL A   1      33.037  19.473  24.832  1.00  0.00     0.087 C 
ATOM     20  C   UNL A   1      32.528  19.020  23.490  1.00  0.00     0.071 C 
ATOM     21  N   UNL A   1      33.092  18.815  25.952  1.00  0.00    -0.174 NA
BRANCH  21  22
ATOM     22  N   UNL A   1      32.608  17.540  26.080  1.00  0.00    -0.229 N 
ATOM     23  C   UNL A   1      33.249  16.366  25.751  1.00  0.00     0.332 C 
ATOM     24  H   UNL A   1      31.699  17.454  26.448  1.00  0.00     0.195 HD
ATOM     25  N   UNL A   1      32.501  15.266  26.044  1.00  0.00    -0.350 N 
ATOM     26  O   UNL A   1      34.365  16.237  25.267  1.00  0.00    -0.247 OA
ATOM     27  H   UNL A   1      31.602  15.371  26.434  1.00  0.00     0.161 HD
ATOM     28  H   UNL A   1      32.858  14.366  25.866  1.00  0.00     0.161 HD
ENDBRANCH  21  22
ENDBRANCH  14  19
ENDBRANCH   8  13
ENDBRANCH   4   7
ENDBRANCH   2   3
ENDBRANCH   1   2
BRANCH   1  29
ATOM     29  C   UNL A   1      33.455  29.911  27.252  1.00  0.00     0.023 C 
BRANCH  29  30
ATOM     30  C   UNL A   1      34.471  31.044  27.291  1.00  0.00     0.116 C 
BRANCH  30  31
ATOM     31  N   UNL A   1      34.374  31.891  28.490  1.00  0.00    -0.352 N 
ATOM     32  C   UNL A   1      35.150  31.840  29.645  1.00  0.00     0.251 C 
ATOM     33  H   UNL A   1      33.672  32.581  28.473  1.00  0.00     0.163 HD
ATOM     34  O   UNL A   1      34.768  32.302  30.702  1.00  0.00    -0.269 OA
BRANCH  32  35
ATOM     35  C   UNL A   1      36.486  31.231  29.529  1.00  0.00     0.039 A 
ATOM     36  C   UNL A   1      37.671  31.964  29.418  1.00  0.00     0.014 A 
ATOM     37  C   UNL A   1      36.506  29.851  29.642  1.00  0.00     0.014 A 
ATOM     38  C   UNL A   1      38.880  31.273  29.500  1.00  0.00     0.010 A 
ATOM     39  C   UNL A   1      37.659  29.246  30.030  1.00  0.00     0.010 A 
ATOM     40  C   UNL A   1      38.855  29.909  29.820  1.00  0.00    -0.014 A 
BRANCH  40  41
ATOM     41  C   UNL A   1      40.044  29.086  29.943  1.00  0.00     0.031 A 
ATOM     42  C   UNL A   1      40.534  28.846  31.319  1.00  0.00     0.074 A 
ATOM     43  C   UNL A   1      40.538  28.412  28.880  1.00  0.00     0.049 A 
ATOM     44  N   UNL A   1      41.628  29.292  31.833  1.00  0.00    -0.248 NA
ATOM     45  C   UNL A   1      39.679  28.120  32.267  1.00  0.00     0.031 C 
ATOM     46  C   UNL A   1      40.015  28.307  27.507  1.00  0.00     0.029 A 
ATOM     47  N   UNL A   1      41.607  27.580  28.847  1.00  0.00    -0.354 N 
ATOM     48  C   UNL A   1      41.691  28.786  33.127  1.00  0.00     0.074 A 
ATOM     49  C   UNL A   1      40.405  28.190  33.388  1.00  0.00     0.031 C 
ATOM     50  C   UNL A   1      40.631  27.294  26.860  1.00  0.00     0.029 A 
ATOM     51  C   UNL A   1      41.709  26.810  27.698  1.00  0.00     0.049 A 
ATOM     52  H   UNL A   1      42.260  27.525  29.581  1.00  0.00     0.167 HD
ATOM     53  C   UNL A   1      42.874  28.744  33.803  1.00  0.00     0.037 A 
ATOM     54  C   UNL A   1      42.620  25.836  27.465  1.00  0.00     0.037 A 
ATOM     55  C   UNL A   1      43.888  29.511  33.123  1.00  0.00     0.049 A 
ATOM     56  C   UNL A   1      43.771  26.108  28.367  1.00  0.00     0.074 A 
ATOM     57  C   UNL A   1      44.036  30.850  32.814  1.00  0.00     0.029 A 
ATOM     58  N   UNL A   1      44.748  28.838  32.288  1.00  0.00    -0.354 N 
ATOM     59  N   UNL A   1      44.538  27.159  28.243  1.00  0.00    -0.248 NA
ATOM     60  C   UNL A   1      43.750  25.505  29.693  1.00  0.00     0.031 C 
ATOM     61  C   UNL A   1      44.580  30.862  31.496  1.00  0.00     0.029 A 
ATOM     62  C   UNL A   1      44.804  29.539  31.109  1.00  0.00     0.049 A 
ATOM     63  H   UNL A   1      45.235  28.008  32.496  1.00  0.00     0.167 HD
ATOM     64  C   UNL A   1      44.747  27.602  29.543  1.00  0.00     0.074 A 
ATOM     65  C   UNL A   1      44.305  26.498  30.397  1.00  0.00     0.031 C 
ATOM     66  C   UNL A   1      44.977  28.921  29.815  1.00  0.00     0.037 A 
BRANCH  53  67
ATOM     67  C   UNL A   1      43.227  27.771  34.892  1.00  0.00     0.064 A 
ATOM     68  C   UNL A   1      43.598  28.263  36.159  1.00  0.00     0.173 A 
ATOM     69  C   UNL A   1      43.503  26.410  34.654  1.00  0.00     0.173 A 
ATOM     70  F   UNL A   1      43.383  29.547  36.483  1.00  0.00    -0.203 F 
ATOM     71  C   UNL A   1      44.275  27.468  37.086  1.00  0.00     0.198 A 
ATOM     72  C   UNL A   1      44.134  25.606  35.603  1.00  0.00     0.198 A 
ATOM     73  F   UNL A   1      43.279  25.841  33.463  1.00  0.00    -0.203 F 
ATOM     74  F   UNL A   1      44.720  28.010  38.228  1.00  0.00    -0.200 F 
ATOM     75  C   UNL A   1      44.551  26.143  36.803  1.00  0.00     0.200 A 
ATOM     76  F   UNL A   1      44.406  24.328  35.305  1.00  0.00    -0.200 F 
ATOM     77  F   UNL A   1      45.257  25.397  37.661  1.00  0.00    -0.200 F 
ENDBRANCH  53  67
BRANCH  54  78
ATOM     78  C   UNL A   1      42.392  24.548  26.771  1.00  0.00     0.064 A 
ATOM     79  C   UNL A   1      43.206  24.139  25.704  1.00  0.00     0.173 A 
ATOM     80  C   UNL A   1      41.532  23.570  27.313  1.00  0.00     0.173 A 
ATOM     81  F   UNL A   1      44.081  24.995  25.159  1.00  0.00    -0.203 F 
ATOM     82  C   UNL A   1      43.177  22.824  25.223  1.00  0.00     0.198 A 
ATOM     83  C   UNL A   1      41.502  22.262  26.831  1.00  0.00     0.198 A 
ATOM     84  F   UNL A   1      40.769  23.841  28.382  1.00  0.00    -0.203 F 
ATOM     85  F   UNL A   1      44.009  22.453  24.239  1.00  0.00    -0.200 F 
ATOM     86  C   UNL A   1      42.334  21.884  25.795  1.00  0.00     0.200 A 
ATOM     87  F   UNL A   1      40.707  21.356  27.417  1.00  0.00    -0.200 F 
ATOM     88  F   UNL A   1      42.352  20.611  25.376  1.00  0.00    -0.200 F 
ENDBRANCH  54  78
BRANCH  66  89
ATOM     89  C   UNL A   1      45.199  29.846  28.647  1.00  0.00     0.064 A 
ATOM     90  C   UNL A   1      44.169  30.554  28.003  1.00  0.00     0.173 A 
ATOM     91  C   UNL A   1      46.511  30.146  28.266  1.00  0.00     0.173 A 
ATOM     92  F   UNL A   1      42.896  30.414  28.381  1.00  0.00    -0.203 F 
ATOM     93  C   UNL A   1      44.435  31.474  26.991  1.00  0.00     0.198 A 
ATOM     94  C   UNL A   1      46.781  31.092  27.279  1.00  0.00     0.198 A 
ATOM     95  F   UNL A   1      47.543  29.555  28.889  1.00  0.00    -0.203 F 
ATOM     96  F   UNL A   1      43.427  32.125  26.390  1.00  0.00    -0.200 F 
ATOM     97  C   UNL A   1      45.744  31.747  26.634  1.00  0.00     0.200 A 
ATOM     98  F   UNL A   1      48.051  31.392  26.973  1.00  0.00    -0.200 F 
ATOM     99  F   UNL A   1      46.006  32.660  25.687  1.00  0.00    -0.200 F 
ENDBRANCH  66  89
ENDBRANCH  40  41
ENDBRANCH  32  35
ENDBRANCH  30  31
ENDBRANCH  29  30
ENDBRANCH   1  29
TORSDOF 14
ENDMDL
