MODEL 1
REMARK VINA RESULT:     -12.6      0.000      0.000
REMARK SMILES COc1ccc(C(=O)NCCCCNC(=O)c2ccc(-c3c4nc(c(-c5c(F)c(F)c(F)c(F)c5F)c5ccc([nH]5)c(-c5c(F)c(F)c(F)c(F)c5F)c5nc(c(-c6c(F)c(F)c(F)c(F)c6F)c6ccc3[nH]6)C=C5)C=C4)cc2)cc1Oc1nc(C(C)(C)C)ns1
REMARK SMILES IDX 11 1 10 2 9 3 7 4 8 5 6 7 3 8 4 9 81 10 5 11 80 12 2 13 1 14
REMARK SMILES IDX 82 15 83 16 84 17 91 18 85 19 90 20 86 21 87 22 88 23 89 24
REMARK SMILES IDX 12 25 13 26 14 27 15 28 16 30 17 31 18 32 79 33 19 34 78 35
REMARK SMILES IDX 20 36 21 37 22 38 72 39 23 40 77 41 71 42 73 43 24 44 76 45
REMARK SMILES IDX 70 46 69 47 25 49 57 50 37 51 56 52 38 53 41 54 55 55 74 56
REMARK SMILES IDX 39 57 40 58 54 60 75 61 42 62 26 63 27 64 35 65 28 66 29 67
REMARK SMILES IDX 33 68 36 69 30 70 31 71 34 72 32 73 58 74 59 75 67 76 60 77
REMARK SMILES IDX 61 78 65 79 68 80 62 81 63 82 66 83 64 84 43 85 44 86 52 87
REMARK SMILES IDX 45 88 46 89 50 90 53 91 47 92 48 93 51 94 49 95
REMARK H PARENT 9 6 14 29 73 48 41 59
REMARK Flexibility Score: inf
ROOT
ATOM      1  C   UNL A   1      31.995  30.186  26.831  1.00  0.00     0.023 C 
ENDROOT
BRANCH   1   2
ATOM      2  C   UNL A   1      33.435  29.720  26.610  1.00  0.00     0.116 C 
BRANCH   2   3
ATOM      3  N   UNL A   1      33.606  29.272  25.245  1.00  0.00    -0.352 N 
ATOM      4  C   UNL A   1      33.463  28.059  24.627  1.00  0.00     0.251 C 
ATOM      5  O   UNL A   1      33.746  28.020  23.427  1.00  0.00    -0.269 OA
ATOM      6  H   UNL A   1      33.884  29.990  24.631  1.00  0.00     0.163 HD
BRANCH   4   7
ATOM      7  C   UNL A   1      32.941  26.822  25.281  1.00  0.00     0.043 A 
ATOM      8  C   UNL A   1      31.731  24.651  26.604  1.00  0.00     0.161 A 
ATOM      9  C   UNL A   1      30.949  25.703  26.131  1.00  0.00     0.051 A 
ATOM     10  C   UNL A   1      33.108  24.635  26.360  1.00  0.00     0.173 A 
ATOM     11  C   UNL A   1      31.553  26.785  25.492  1.00  0.00     0.018 A 
ATOM     12  C   UNL A   1      33.699  25.714  25.677  1.00  0.00     0.065 A 
BRANCH   8  13
ATOM     13  O   UNL A   1      31.090  23.630  27.251  1.00  0.00    -0.493 OA
ATOM     14  C   UNL A   1      30.274  22.902  26.332  1.00  0.00     0.278 C 
ENDBRANCH   8  13
BRANCH  10  15
ATOM     15  O   UNL A   1      33.997  23.669  26.789  1.00  0.00    -0.426 OA
BRANCH  15  16
ATOM     16  C   UNL A   1      34.312  22.621  26.034  1.00  0.00     0.298 A 
ATOM     17  N   UNL A   1      33.540  21.560  25.917  1.00  0.00    -0.185 NA
ATOM     18  S   UNL A   1      35.810  22.438  25.227  1.00  0.00     0.025 S 
ATOM     19  C   UNL A   1      34.173  20.656  25.057  1.00  0.00     0.151 A 
ATOM     20  N   UNL A   1      35.411  20.930  24.627  1.00  0.00    -0.172 NA
BRANCH  19  21
ATOM     21  C   UNL A   1      33.476  19.366  24.653  1.00  0.00     0.023 C 
ATOM     22  C   UNL A   1      32.552  19.627  23.451  1.00  0.00     0.019 C 
ATOM     23  C   UNL A   1      34.503  18.285  24.257  1.00  0.00     0.019 C 
ATOM     24  C   UNL A   1      32.631  18.792  25.812  1.00  0.00     0.019 C 
ENDBRANCH  19  21
ENDBRANCH  15  16
ENDBRANCH  10  15
ENDBRANCH   4   7
ENDBRANCH   2   3
ENDBRANCH   1   2
BRANCH   1  25
ATOM     25  C   UNL A   1      31.812  31.706  26.714  1.00  0.00     0.023 C 
BRANCH  25  26
ATOM     26  C   UNL A   1      32.934  32.544  27.325  1.00  0.00     0.116 C 
BRANCH  26  27
ATOM     27  N   UNL A   1      32.532  33.910  27.623  1.00  0.00    -0.352 N 
ATOM     28  C   UNL A   1      33.052  34.782  28.549  1.00  0.00     0.251 C 
ATOM     29  H   UNL A   1      31.785  34.258  27.086  1.00  0.00     0.163 HD
ATOM     30  O   UNL A   1      32.525  35.868  28.745  1.00  0.00    -0.269 OA
BRANCH  28  31
ATOM     31  C   UNL A   1      34.231  34.376  29.342  1.00  0.00     0.039 A 
ATOM     32  C   UNL A   1      34.027  33.829  30.610  1.00  0.00     0.014 A 
ATOM     33  C   UNL A   1      35.520  34.503  28.820  1.00  0.00     0.014 A 
ATOM     34  C   UNL A   1      35.115  33.329  31.326  1.00  0.00     0.010 A 
ATOM     35  C   UNL A   1      36.597  33.956  29.511  1.00  0.00     0.010 A 
ATOM     36  C   UNL A   1      36.401  33.348  30.762  1.00  0.00    -0.014 A 
BRANCH  36  37
ATOM     37  C   UNL A   1      37.545  32.688  31.437  1.00  0.00     0.031 A 
ATOM     38  C   UNL A   1      38.228  31.514  30.801  1.00  0.00     0.074 A 
ATOM     39  C   UNL A   1      37.907  33.100  32.667  1.00  0.00     0.049 A 
ATOM     40  N   UNL A   1      39.177  30.751  31.280  1.00  0.00    -0.248 NA
ATOM     41  C   UNL A   1      37.769  31.131  29.456  1.00  0.00     0.031 C 
ATOM     42  C   UNL A   1      37.288  34.203  33.406  1.00  0.00     0.029 A 
ATOM     43  N   UNL A   1      38.872  32.629  33.523  1.00  0.00    -0.354 N 
ATOM     44  C   UNL A   1      39.418  29.792  30.306  1.00  0.00     0.074 A 
ATOM     45  C   UNL A   1      38.491  30.044  29.223  1.00  0.00     0.031 C 
ATOM     46  C   UNL A   1      37.895  34.331  34.596  1.00  0.00     0.029 A 
ATOM     47  C   UNL A   1      38.918  33.299  34.722  1.00  0.00     0.049 A 
ATOM     48  H   UNL A   1      39.474  31.884  33.298  1.00  0.00     0.167 HD
ATOM     49  C   UNL A   1      40.343  28.802  30.311  1.00  0.00     0.037 A 
ATOM     50  C   UNL A   1      39.688  33.090  35.806  1.00  0.00     0.037 A 
ATOM     51  C   UNL A   1      41.281  28.573  31.378  1.00  0.00     0.049 A 
ATOM     52  C   UNL A   1      40.693  31.972  35.787  1.00  0.00     0.074 A 
ATOM     53  C   UNL A   1      42.307  27.646  31.440  1.00  0.00     0.029 A 
ATOM     54  N   UNL A   1      41.302  29.274  32.575  1.00  0.00    -0.354 N 
ATOM     55  N   UNL A   1      40.964  31.119  34.831  1.00  0.00    -0.248 NA
ATOM     56  C   UNL A   1      41.500  31.787  37.002  1.00  0.00     0.031 C 
ATOM     57  C   UNL A   1      42.921  27.755  32.692  1.00  0.00     0.029 A 
ATOM     58  C   UNL A   1      42.306  28.780  33.393  1.00  0.00     0.049 A 
ATOM     59  H   UNL A   1      40.695  30.012  32.808  1.00  0.00     0.167 HD
ATOM     60  C   UNL A   1      41.984  30.312  35.316  1.00  0.00     0.074 A 
ATOM     61  C   UNL A   1      42.297  30.789  36.647  1.00  0.00     0.031 C 
ATOM     62  C   UNL A   1      42.604  29.268  34.715  1.00  0.00     0.037 A 
BRANCH  49  63
ATOM     63  C   UNL A   1      40.394  27.889  29.122  1.00  0.00     0.064 A 
ATOM     64  C   UNL A   1      39.642  26.706  29.072  1.00  0.00     0.173 A 
ATOM     65  C   UNL A   1      41.158  28.232  27.996  1.00  0.00     0.173 A 
ATOM     66  F   UNL A   1      38.905  26.329  30.127  1.00  0.00    -0.203 F 
ATOM     67  C   UNL A   1      39.667  25.890  27.944  1.00  0.00     0.198 A 
ATOM     68  C   UNL A   1      41.160  27.427  26.860  1.00  0.00     0.198 A 
ATOM     69  F   UNL A   1      41.890  29.355  27.992  1.00  0.00    -0.203 F 
ATOM     70  F   UNL A   1      38.969  24.745  27.932  1.00  0.00    -0.200 F 
ATOM     71  C   UNL A   1      40.419  26.254  26.837  1.00  0.00     0.200 A 
ATOM     72  F   UNL A   1      41.877  27.786  25.787  1.00  0.00    -0.200 F 
ATOM     73  F   UNL A   1      40.432  25.474  25.748  1.00  0.00    -0.200 F 
ENDBRANCH  49  63
BRANCH  50  74
ATOM     74  C   UNL A   1      39.547  33.963  37.000  1.00  0.00     0.064 A 
ATOM     75  C   UNL A   1      38.744  33.576  38.082  1.00  0.00     0.173 A 
ATOM     76  C   UNL A   1      40.194  35.204  37.079  1.00  0.00     0.173 A 
ATOM     77  F   UNL A   1      38.088  32.407  38.042  1.00  0.00    -0.203 F 
ATOM     78  C   UNL A   1      38.575  34.408  39.187  1.00  0.00     0.198 A 
ATOM     79  C   UNL A   1      40.047  36.023  38.196  1.00  0.00     0.198 A 
ATOM     80  F   UNL A   1      40.976  35.620  36.071  1.00  0.00    -0.203 F 
ATOM     81  F   UNL A   1      37.762  34.034  40.185  1.00  0.00    -0.200 F 
ATOM     82  C   UNL A   1      39.230  35.628  39.245  1.00  0.00     0.200 A 
ATOM     83  F   UNL A   1      40.691  37.196  38.254  1.00  0.00    -0.200 F 
ATOM     84  F   UNL A   1      39.067  36.428  40.308  1.00  0.00    -0.200 F 
ENDBRANCH  50  74
BRANCH  62  85
ATOM     85  C   UNL A   1      43.695  28.584  35.484  1.00  0.00     0.064 A 
ATOM     86  C   UNL A   1      45.039  28.960  35.339  1.00  0.00     0.173 A 
ATOM     87  C   UNL A   1      43.391  27.567  36.401  1.00  0.00     0.173 A 
ATOM     88  F   UNL A   1      45.382  29.915  34.462  1.00  0.00    -0.203 F 
ATOM     89  C   UNL A   1      46.041  28.325  36.068  1.00  0.00     0.198 A 
ATOM     90  C   UNL A   1      44.392  26.954  37.149  1.00  0.00     0.198 A 
ATOM     91  F   UNL A   1      42.121  27.175  36.579  1.00  0.00    -0.203 F 
ATOM     92  F   UNL A   1      47.323  28.669  35.880  1.00  0.00    -0.200 F 
ATOM     93  C   UNL A   1      45.716  27.329  36.977  1.00  0.00     0.200 A 
ATOM     94  F   UNL A   1      44.076  26.000  38.035  1.00  0.00    -0.200 F 
ATOM     95  F   UNL A   1      46.681  26.724  37.683  1.00  0.00    -0.200 F 
ENDBRANCH  62  85
ENDBRANCH  36  37
ENDBRANCH  28  31
ENDBRANCH  26  27
ENDBRANCH  25  26
ENDBRANCH   1  25
TORSDOF 15
ENDMDL
MODEL 2
REMARK VINA RESULT:     -12.4      2.037      3.299
REMARK SMILES COc1ccc(C(=O)NCCCCNC(=O)c2ccc(-c3c4nc(c(-c5c(F)c(F)c(F)c(F)c5F)c5ccc([nH]5)c(-c5c(F)c(F)c(F)c(F)c5F)c5nc(c(-c6c(F)c(F)c(F)c(F)c6F)c6ccc3[nH]6)C=C5)C=C4)cc2)cc1Oc1nc(C(C)(C)C)ns1
REMARK SMILES IDX 11 1 10 2 9 3 7 4 8 5 6 7 3 8 4 9 81 10 5 11 80 12 2 13 1 14
REMARK SMILES IDX 82 15 83 16 84 17 91 18 85 19 90 20 86 21 87 22 88 23 89 24
REMARK SMILES IDX 12 25 13 26 14 27 15 28 16 30 17 31 18 32 79 33 19 34 78 35
REMARK SMILES IDX 20 36 21 37 22 38 72 39 23 40 77 41 71 42 73 43 24 44 76 45
REMARK SMILES IDX 70 46 69 47 25 49 57 50 37 51 56 52 38 53 41 54 55 55 74 56
REMARK SMILES IDX 39 57 40 58 54 60 75 61 42 62 26 63 27 64 35 65 28 66 29 67
REMARK SMILES IDX 33 68 36 69 30 70 31 71 34 72 32 73 58 74 59 75 67 76 60 77
REMARK SMILES IDX 61 78 65 79 68 80 62 81 63 82 66 83 64 84 43 85 44 86 52 87
REMARK SMILES IDX 45 88 46 89 50 90 53 91 47 92 48 93 51 94 49 95
REMARK H PARENT 9 6 14 29 73 48 41 59
REMARK Flexibility Score: inf
ROOT
ATOM      1  C   UNL A   1      33.949  28.223  23.994  1.00  0.00     0.023 C 
ENDROOT
BRANCH   1   2
ATOM      2  C   UNL A   1      33.686  27.761  22.560  1.00  0.00     0.116 C 
BRANCH   2   3
ATOM      3  N   UNL A   1      32.321  28.060  22.185  1.00  0.00    -0.352 N 
ATOM      4  C   UNL A   1      31.120  27.454  22.436  1.00  0.00     0.251 C 
ATOM      5  O   UNL A   1      30.129  27.962  21.907  1.00  0.00    -0.269 OA
ATOM      6  H   UNL A   1      32.238  28.872  21.634  1.00  0.00     0.163 HD
BRANCH   4   7
ATOM      7  C   UNL A   1      30.928  26.279  23.339  1.00  0.00     0.043 A 
ATOM      8  C   UNL A   1      30.601  24.248  25.262  1.00  0.00     0.161 A 
ATOM      9  C   UNL A   1      30.282  25.567  25.578  1.00  0.00     0.051 A 
ATOM     10  C   UNL A   1      31.015  23.917  23.967  1.00  0.00     0.173 A 
ATOM     11  C   UNL A   1      30.462  26.572  24.631  1.00  0.00     0.018 A 
ATOM     12  C   UNL A   1      31.152  24.937  23.007  1.00  0.00     0.065 A 
BRANCH   8  13
ATOM     13  O   UNL A   1      30.435  23.306  26.240  1.00  0.00    -0.493 OA
ATOM     14  C   UNL A   1      31.588  23.265  27.083  1.00  0.00     0.278 C 
ENDBRANCH   8  13
BRANCH  10  15
ATOM     15  O   UNL A   1      31.380  22.660  23.528  1.00  0.00    -0.426 OA
BRANCH  15  16
ATOM     16  C   UNL A   1      32.510  22.080  23.921  1.00  0.00     0.298 A 
ATOM     17  N   UNL A   1      33.677  22.688  23.897  1.00  0.00    -0.185 NA
ATOM     18  S   UNL A   1      32.633  20.435  24.377  1.00  0.00     0.025 S 
ATOM     19  C   UNL A   1      34.642  21.793  24.371  1.00  0.00     0.151 A 
ATOM     20  N   UNL A   1      34.281  20.530  24.631  1.00  0.00    -0.172 NA
BRANCH  19  21
ATOM     21  C   UNL A   1      36.085  22.243  24.548  1.00  0.00     0.023 C 
ATOM     22  C   UNL A   1      36.598  22.872  23.240  1.00  0.00     0.019 C 
ATOM     23  C   UNL A   1      36.201  23.291  25.674  1.00  0.00     0.019 C 
ATOM     24  C   UNL A   1      37.005  21.061  24.923  1.00  0.00     0.019 C 
ENDBRANCH  19  21
ENDBRANCH  15  16
ENDBRANCH  10  15
ENDBRANCH   4   7
ENDBRANCH   2   3
ENDBRANCH   1   2
BRANCH   1  25
ATOM     25  C   UNL A   1      33.043  29.376  24.448  1.00  0.00     0.023 C 
BRANCH  25  26
ATOM     26  C   UNL A   1      32.881  29.517  25.961  1.00  0.00     0.116 C 
BRANCH  26  27
ATOM     27  N   UNL A   1      32.525  30.865  26.376  1.00  0.00    -0.352 N 
ATOM     28  C   UNL A   1      33.206  31.721  27.209  1.00  0.00     0.251 C 
ATOM     29  H   UNL A   1      31.681  31.212  26.009  1.00  0.00     0.163 HD
ATOM     30  O   UNL A   1      32.711  32.790  27.540  1.00  0.00    -0.269 OA
BRANCH  28  31
ATOM     31  C   UNL A   1      34.525  31.318  27.738  1.00  0.00     0.039 A 
ATOM     32  C   UNL A   1      35.500  32.301  27.920  1.00  0.00     0.014 A 
ATOM     33  C   UNL A   1      34.780  29.989  28.083  1.00  0.00     0.014 A 
ATOM     34  C   UNL A   1      36.709  31.965  28.529  1.00  0.00     0.010 A 
ATOM     35  C   UNL A   1      35.964  29.666  28.739  1.00  0.00     0.010 A 
ATOM     36  C   UNL A   1      36.931  30.655  28.984  1.00  0.00    -0.014 A 
BRANCH  36  37
ATOM     37  C   UNL A   1      38.142  30.309  29.767  1.00  0.00     0.031 A 
ATOM     38  C   UNL A   1      39.159  29.356  29.213  1.00  0.00     0.074 A 
ATOM     39  C   UNL A   1      38.275  30.794  31.017  1.00  0.00     0.049 A 
ATOM     40  N   UNL A   1      40.226  28.861  29.786  1.00  0.00    -0.248 NA
ATOM     41  C   UNL A   1      38.935  28.875  27.841  1.00  0.00     0.031 C 
ATOM     42  C   UNL A   1      37.329  31.694  31.680  1.00  0.00     0.029 A 
ATOM     43  N   UNL A   1      39.249  30.583  31.962  1.00  0.00    -0.354 N 
ATOM     44  C   UNL A   1      40.792  28.003  28.854  1.00  0.00     0.074 A 
ATOM     45  C   UNL A   1      39.931  28.013  27.690  1.00  0.00     0.031 C 
ATOM     46  C   UNL A   1      37.774  31.968  32.917  1.00  0.00     0.029 A 
ATOM     47  C   UNL A   1      39.014  31.234  33.148  1.00  0.00     0.049 A 
ATOM     48  H   UNL A   1      40.041  30.020  31.803  1.00  0.00     0.167 HD
ATOM     49  C   UNL A   1      41.937  27.286  28.956  1.00  0.00     0.037 A 
ATOM     50  C   UNL A   1      39.712  31.225  34.300  1.00  0.00     0.037 A 
ATOM     51  C   UNL A   1      42.804  27.301  30.105  1.00  0.00     0.049 A 
ATOM     52  C   UNL A   1      40.970  30.405  34.388  1.00  0.00     0.074 A 
ATOM     53  C   UNL A   1      44.025  26.671  30.272  1.00  0.00     0.029 A 
ATOM     54  N   UNL A   1      42.537  27.976  31.287  1.00  0.00    -0.354 N 
ATOM     55  N   UNL A   1      41.535  29.657  33.473  1.00  0.00    -0.248 NA
ATOM     56  C   UNL A   1      41.685  30.428  35.671  1.00  0.00     0.031 C 
ATOM     57  C   UNL A   1      44.476  26.927  31.571  1.00  0.00     0.029 A 
ATOM     58  C   UNL A   1      43.557  27.753  32.198  1.00  0.00     0.049 A 
ATOM     59  H   UNL A   1      41.741  28.531  31.454  1.00  0.00     0.167 HD
ATOM     60  C   UNL A   1      42.681  29.138  34.059  1.00  0.00     0.074 A 
ATOM     61  C   UNL A   1      42.741  29.672  35.404  1.00  0.00     0.031 C 
ATOM     62  C   UNL A   1      43.601  28.294  33.532  1.00  0.00     0.037 A 
BRANCH  49  63
ATOM     63  C   UNL A   1      42.327  26.424  27.792  1.00  0.00     0.064 A 
ATOM     64  C   UNL A   1      43.234  26.870  26.820  1.00  0.00     0.173 A 
ATOM     65  C   UNL A   1      41.832  25.116  27.680  1.00  0.00     0.173 A 
ATOM     66  F   UNL A   1      43.726  28.117  26.877  1.00  0.00    -0.203 F 
ATOM     67  C   UNL A   1      43.619  26.044  25.768  1.00  0.00     0.198 A 
ATOM     68  C   UNL A   1      42.240  24.283  26.641  1.00  0.00     0.198 A 
ATOM     69  F   UNL A   1      40.966  24.640  28.587  1.00  0.00    -0.203 F 
ATOM     70  F   UNL A   1      44.460  26.503  24.830  1.00  0.00    -0.200 F 
ATOM     71  C   UNL A   1      43.128  24.749  25.683  1.00  0.00     0.200 A 
ATOM     72  F   UNL A   1      41.774  23.029  26.567  1.00  0.00    -0.200 F 
ATOM     73  F   UNL A   1      43.509  23.951  24.677  1.00  0.00    -0.200 F 
ENDBRANCH  49  63
BRANCH  50  74
ATOM     74  C   UNL A   1      39.245  32.024  35.461  1.00  0.00     0.064 A 
ATOM     75  C   UNL A   1      39.631  33.363  35.613  1.00  0.00     0.173 A 
ATOM     76  C   UNL A   1      38.422  31.467  36.450  1.00  0.00     0.173 A 
ATOM     77  F   UNL A   1      40.437  33.933  34.705  1.00  0.00    -0.203 F 
ATOM     78  C   UNL A   1      39.231  34.107  36.721  1.00  0.00     0.198 A 
ATOM     79  C   UNL A   1      37.999  32.220  37.543  1.00  0.00     0.198 A 
ATOM     80  F   UNL A   1      38.022  30.191  36.350  1.00  0.00    -0.203 F 
ATOM     81  F   UNL A   1      39.656  35.370  36.866  1.00  0.00    -0.200 F 
ATOM     82  C   UNL A   1      38.412  33.536  37.682  1.00  0.00     0.200 A 
ATOM     83  F   UNL A   1      37.197  31.668  38.464  1.00  0.00    -0.200 F 
ATOM     84  F   UNL A   1      38.027  34.252  38.748  1.00  0.00    -0.200 F 
ENDBRANCH  50  74
BRANCH  62  85
ATOM     85  C   UNL A   1      44.759  27.911  34.405  1.00  0.00     0.064 A 
ATOM     86  C   UNL A   1      45.928  28.686  34.454  1.00  0.00     0.173 A 
ATOM     87  C   UNL A   1      44.687  26.778  35.228  1.00  0.00     0.173 A 
ATOM     88  F   UNL A   1      46.051  29.769  33.672  1.00  0.00    -0.203 F 
ATOM     89  C   UNL A   1      46.990  28.326  35.278  1.00  0.00     0.198 A 
ATOM     90  C   UNL A   1      45.740  26.436  36.072  1.00  0.00     0.198 A 
ATOM     91  F   UNL A   1      43.589  26.006  35.222  1.00  0.00    -0.203 F 
ATOM     92  F   UNL A   1      48.115  29.055  35.273  1.00  0.00    -0.200 F 
ATOM     93  C   UNL A   1      46.892  27.206  36.090  1.00  0.00     0.200 A 
ATOM     94  F   UNL A   1      45.640  25.361  36.865  1.00  0.00    -0.200 F 
ATOM     95  F   UNL A   1      47.914  26.866  36.888  1.00  0.00    -0.200 F 
ENDBRANCH  62  85
ENDBRANCH  36  37
ENDBRANCH  28  31
ENDBRANCH  26  27
ENDBRANCH  25  26
ENDBRANCH   1  25
TORSDOF 15
ENDMDL
MODEL 3
REMARK VINA RESULT:     -12.3      3.893      8.752
REMARK SMILES COc1ccc(C(=O)NCCCCNC(=O)c2ccc(-c3c4nc(c(-c5c(F)c(F)c(F)c(F)c5F)c5ccc([nH]5)c(-c5c(F)c(F)c(F)c(F)c5F)c5nc(c(-c6c(F)c(F)c(F)c(F)c6F)c6ccc3[nH]6)C=C5)C=C4)cc2)cc1Oc1nc(C(C)(C)C)ns1
REMARK SMILES IDX 11 1 10 2 9 3 7 4 8 5 6 7 3 8 4 9 81 10 5 11 80 12 2 13 1 14
REMARK SMILES IDX 82 15 83 16 84 17 91 18 85 19 90 20 86 21 87 22 88 23 89 24
REMARK SMILES IDX 12 25 13 26 14 27 15 28 16 30 17 31 18 32 79 33 19 34 78 35
REMARK SMILES IDX 20 36 21 37 22 38 72 39 23 40 77 41 71 42 73 43 24 44 76 45
REMARK SMILES IDX 70 46 69 47 25 49 57 50 37 51 56 52 38 53 41 54 55 55 74 56
REMARK SMILES IDX 39 57 40 58 54 60 75 61 42 62 26 63 27 64 35 65 28 66 29 67
REMARK SMILES IDX 33 68 36 69 30 70 31 71 34 72 32 73 58 74 59 75 67 76 60 77
REMARK SMILES IDX 61 78 65 79 68 80 62 81 63 82 66 83 64 84 43 85 44 86 52 87
REMARK SMILES IDX 45 88 46 89 50 90 53 91 47 92 48 93 51 94 49 95
REMARK H PARENT 9 6 14 29 73 48 41 59
REMARK Flexibility Score: inf
ROOT
ATOM      1  C   UNL A   1      33.778  28.638  24.289  1.00  0.00     0.023 C 
ENDROOT
BRANCH   1   2
ATOM      2  C   UNL A   1      32.875  28.793  23.065  1.00  0.00     0.116 C 
BRANCH   2   3
ATOM      3  N   UNL A   1      33.080  27.688  22.154  1.00  0.00    -0.352 N 
ATOM      4  C   UNL A   1      33.024  26.328  22.294  1.00  0.00     0.251 C 
ATOM      5  O   UNL A   1      33.312  25.663  21.296  1.00  0.00    -0.269 OA
ATOM      6  H   UNL A   1      33.308  27.975  21.240  1.00  0.00     0.163 HD
BRANCH   4   7
ATOM      7  C   UNL A   1      32.587  25.613  23.531  1.00  0.00     0.043 A 
ATOM      8  C   UNL A   1      31.571  24.479  25.900  1.00  0.00     0.161 A 
ATOM      9  C   UNL A   1      30.759  25.291  25.110  1.00  0.00     0.051 A 
ATOM     10  C   UNL A   1      32.868  24.166  25.482  1.00  0.00     0.173 A 
ATOM     11  C   UNL A   1      31.270  25.866  23.948  1.00  0.00     0.018 A 
ATOM     12  C   UNL A   1      33.358  24.720  24.284  1.00  0.00     0.065 A 
BRANCH   8  13
ATOM     13  O   UNL A   1      31.027  23.968  27.045  1.00  0.00    -0.493 OA
ATOM     14  C   UNL A   1      30.272  22.791  26.748  1.00  0.00     0.278 C 
ENDBRANCH   8  13
BRANCH  10  15
ATOM     15  O   UNL A   1      33.780  23.395  26.175  1.00  0.00    -0.426 OA
BRANCH  15  16
ATOM     16  C   UNL A   1      34.191  22.216  25.719  1.00  0.00     0.298 A 
ATOM     17  N   UNL A   1      33.377  21.203  25.505  1.00  0.00    -0.185 NA
ATOM     18  S   UNL A   1      35.835  21.801  25.482  1.00  0.00     0.025 S 
ATOM     19  C   UNL A   1      34.137  20.127  25.036  1.00  0.00     0.151 A 
ATOM     20  N   UNL A   1      35.471  20.243  25.002  1.00  0.00    -0.172 NA
BRANCH  19  21
ATOM     21  C   UNL A   1      33.456  18.835  24.610  1.00  0.00     0.023 C 
ATOM     22  C   UNL A   1      34.518  17.786  24.234  1.00  0.00     0.019 C 
ATOM     23  C   UNL A   1      32.589  18.267  25.752  1.00  0.00     0.019 C 
ATOM     24  C   UNL A   1      32.528  19.057  23.396  1.00  0.00     0.019 C 
ENDBRANCH  19  21
ENDBRANCH  15  16
ENDBRANCH  10  15
ENDBRANCH   4   7
ENDBRANCH   2   3
ENDBRANCH   1   2
BRANCH   1  25
ATOM     25  C   UNL A   1      33.011  28.555  25.617  1.00  0.00     0.023 C 
BRANCH  25  26
ATOM     26  C   UNL A   1      33.870  28.698  26.872  1.00  0.00     0.116 C 
BRANCH  26  27
ATOM     27  N   UNL A   1      33.817  30.031  27.454  1.00  0.00    -0.352 N 
ATOM     28  C   UNL A   1      34.769  30.691  28.193  1.00  0.00     0.251 C 
ATOM     29  H   UNL A   1      32.983  30.529  27.294  1.00  0.00     0.163 HD
ATOM     30  O   UNL A   1      34.521  31.777  28.700  1.00  0.00    -0.269 OA
BRANCH  28  31
ATOM     31  C   UNL A   1      36.084  30.054  28.410  1.00  0.00     0.039 A 
ATOM     32  C   UNL A   1      37.045  30.146  27.401  1.00  0.00     0.014 A 
ATOM     33  C   UNL A   1      36.374  29.405  29.612  1.00  0.00     0.014 A 
ATOM     34  C   UNL A   1      38.332  29.657  27.631  1.00  0.00     0.010 A 
ATOM     35  C   UNL A   1      37.671  28.967  29.860  1.00  0.00     0.010 A 
ATOM     36  C   UNL A   1      38.666  29.106  28.878  1.00  0.00    -0.014 A 
BRANCH  36  37
ATOM     37  C   UNL A   1      40.061  28.719  29.198  1.00  0.00     0.031 A 
ATOM     38  C   UNL A   1      40.966  29.670  29.924  1.00  0.00     0.074 A 
ATOM     39  C   UNL A   1      40.533  27.540  28.751  1.00  0.00     0.049 A 
ATOM     40  N   UNL A   1      42.238  29.550  30.206  1.00  0.00    -0.248 NA
ATOM     41  C   UNL A   1      40.367  30.937  30.376  1.00  0.00     0.031 C 
ATOM     42  C   UNL A   1      39.761  26.551  27.996  1.00  0.00     0.029 A 
ATOM     43  N   UNL A   1      41.782  26.978  28.852  1.00  0.00    -0.354 N 
ATOM     44  C   UNL A   1      42.596  30.725  30.851  1.00  0.00     0.074 A 
ATOM     45  C   UNL A   1      41.417  31.564  30.888  1.00  0.00     0.031 C 
ATOM     46  C   UNL A   1      40.548  25.501  27.712  1.00  0.00     0.029 A 
ATOM     47  C   UNL A   1      41.888  25.757  28.230  1.00  0.00     0.049 A 
ATOM     48  H   UNL A   1      42.530  27.408  29.326  1.00  0.00     0.167 HD
ATOM     49  C   UNL A   1      43.796  31.062  31.380  1.00  0.00     0.037 A 
ATOM     50  C   UNL A   1      42.951  24.945  28.081  1.00  0.00     0.037 A 
ATOM     51  C   UNL A   1      44.958  30.212  31.365  1.00  0.00     0.049 A 
ATOM     52  C   UNL A   1      44.275  25.356  28.665  1.00  0.00     0.074 A 
ATOM     53  C   UNL A   1      46.195  30.433  31.944  1.00  0.00     0.029 A 
ATOM     54  N   UNL A   1      45.026  28.980  30.731  1.00  0.00    -0.354 N 
ATOM     55  N   UNL A   1      44.583  26.436  29.339  1.00  0.00    -0.248 NA
ATOM     56  C   UNL A   1      45.401  24.433  28.464  1.00  0.00     0.031 C 
ATOM     57  C   UNL A   1      47.027  29.356  31.622  1.00  0.00     0.029 A 
ATOM     58  C   UNL A   1      46.295  28.443  30.881  1.00  0.00     0.049 A 
ATOM     59  H   UNL A   1      44.284  28.551  30.247  1.00  0.00     0.167 HD
ATOM     60  C   UNL A   1      45.927  26.316  29.662  1.00  0.00     0.074 A 
ATOM     61  C   UNL A   1      46.373  25.047  29.126  1.00  0.00     0.031 C 
ATOM     62  C   UNL A   1      46.721  27.178  30.341  1.00  0.00     0.037 A 
BRANCH  49  63
ATOM     63  C   UNL A   1      43.919  32.410  32.028  1.00  0.00     0.064 A 
ATOM     64  C   UNL A   1      43.750  32.578  33.410  1.00  0.00     0.173 A 
ATOM     65  C   UNL A   1      44.267  33.535  31.265  1.00  0.00     0.173 A 
ATOM     66  F   UNL A   1      43.406  31.535  34.180  1.00  0.00    -0.203 F 
ATOM     67  C   UNL A   1      43.909  33.827  34.003  1.00  0.00     0.198 A 
ATOM     68  C   UNL A   1      44.450  34.778  31.865  1.00  0.00     0.198 A 
ATOM     69  F   UNL A   1      44.444  33.426  29.940  1.00  0.00    -0.203 F 
ATOM     70  F   UNL A   1      43.708  33.972  35.321  1.00  0.00    -0.200 F 
ATOM     71  C   UNL A   1      44.266  34.924  33.233  1.00  0.00     0.200 A 
ATOM     72  F   UNL A   1      44.807  35.834  31.122  1.00  0.00    -0.200 F 
ATOM     73  F   UNL A   1      44.431  36.123  33.807  1.00  0.00    -0.200 F 
ENDBRANCH  49  63
BRANCH  50  74
ATOM     74  C   UNL A   1      42.810  23.656  27.357  1.00  0.00     0.064 A 
ATOM     75  C   UNL A   1      42.308  22.519  28.004  1.00  0.00     0.173 A 
ATOM     76  C   UNL A   1      43.187  23.528  26.012  1.00  0.00     0.173 A 
ATOM     77  F   UNL A   1      41.955  22.588  29.296  1.00  0.00    -0.203 F 
ATOM     78  C   UNL A   1      42.211  21.297  27.343  1.00  0.00     0.198 A 
ATOM     79  C   UNL A   1      43.063  22.312  25.343  1.00  0.00     0.198 A 
ATOM     80  F   UNL A   1      43.670  24.586  25.345  1.00  0.00    -0.203 F 
ATOM     81  F   UNL A   1      41.774  20.215  28.001  1.00  0.00    -0.200 F 
ATOM     82  C   UNL A   1      42.584  21.196  26.012  1.00  0.00     0.200 A 
ATOM     83  F   UNL A   1      43.414  22.221  24.053  1.00  0.00    -0.200 F 
ATOM     84  F   UNL A   1      42.491  20.020  25.375  1.00  0.00    -0.200 F 
ENDBRANCH  50  74
BRANCH  62  85
ATOM     85  C   UNL A   1      48.148  26.769  30.557  1.00  0.00     0.064 A 
ATOM     86  C   UNL A   1      48.522  25.953  31.634  1.00  0.00     0.173 A 
ATOM     87  C   UNL A   1      49.148  27.170  29.657  1.00  0.00     0.173 A 
ATOM     88  F   UNL A   1      47.605  25.559  32.531  1.00  0.00    -0.203 F 
ATOM     89  C   UNL A   1      49.848  25.571  31.816  1.00  0.00     0.198 A 
ATOM     90  C   UNL A   1      50.468  26.764  29.826  1.00  0.00     0.198 A 
ATOM     91  F   UNL A   1      48.841  27.948  28.608  1.00  0.00    -0.203 F 
ATOM     92  F   UNL A   1      50.189  24.829  32.878  1.00  0.00    -0.200 F 
ATOM     93  C   UNL A   1      50.818  25.971  30.908  1.00  0.00     0.200 A 
ATOM     94  F   UNL A   1      51.402  27.141  28.942  1.00  0.00    -0.200 F 
ATOM     95  F   UNL A   1      52.093  25.596  31.082  1.00  0.00    -0.200 F 
ENDBRANCH  62  85
ENDBRANCH  36  37
ENDBRANCH  28  31
ENDBRANCH  26  27
ENDBRANCH  25  26
ENDBRANCH   1  25
TORSDOF 15
ENDMDL
