MODEL 1
REMARK VINA RESULT:     -12.3      0.000      0.000
REMARK SMILES CC[NH2+][C@@]1(C(=O)NCCCCNC(=O)c2ccc(-c3c4nc(c(-c5c(F)c(F)c(F)c(F)c5F)c5ccc([nH]5)c(-c5c(F)c(F)c(F)c(F)c5F)c5nc(c(-c6c(F)c(F)c(F)c(F)c6F)c6ccc3[nH]6)C=C5)C=C4)cc2)CCC[C@@H](Sc2ncc(C)cn2)C1
REMARK SMILES IDX 9 1 8 2 7 3 5 4 6 5 4 7 78 8 90 9 79 10 81 11 80 12 3 13
REMARK SMILES IDX 2 16 1 17 82 18 83 19 84 20 89 21 85 22 88 23 86 24 87 25
REMARK SMILES IDX 10 26 11 27 12 28 13 29 14 31 15 32 16 33 77 34 17 35 76 36
REMARK SMILES IDX 18 37 19 38 20 39 70 40 21 41 75 42 69 43 71 44 22 45 74 46
REMARK SMILES IDX 68 47 67 48 23 50 55 51 35 52 54 53 36 54 39 55 53 56 72 57
REMARK SMILES IDX 37 58 38 59 52 61 73 62 40 63 24 64 25 65 33 66 26 67 27 68
REMARK SMILES IDX 31 69 34 70 28 71 29 72 32 73 30 74 56 75 57 76 65 77 58 78
REMARK SMILES IDX 59 79 63 80 66 81 60 82 61 83 64 84 62 85 41 86 42 87 50 88
REMARK SMILES IDX 43 89 44 90 48 91 51 92 45 93 46 94 49 95 47 96
REMARK H PARENT 7 6 3 14 3 15 12 30 71 49 39 60
REMARK Flexibility Score: inf
ROOT
ATOM      1  C   UNL A   1      32.134  27.800  27.241  1.00  0.00     0.023 C 
ENDROOT
BRANCH   1   2
ATOM      2  C   UNL A   1      32.215  26.551  26.357  1.00  0.00     0.116 C 
BRANCH   2   3
ATOM      3  N   UNL A   1      31.416  25.473  26.886  1.00  0.00    -0.351 N 
ATOM      4  C   UNL A   1      31.394  24.126  26.741  1.00  0.00     0.281 C 
ATOM      5  O   UNL A   1      30.393  23.621  27.278  1.00  0.00    -0.268 OA
ATOM      6  H   UNL A   1      30.718  25.793  27.502  1.00  0.00     0.163 HD
BRANCH   4   7
ATOM      7  C   UNL A   1      32.454  23.222  25.944  1.00  0.00     0.176 C 
ATOM      8  C   UNL A   1      33.920  23.222  26.454  1.00  0.00     0.079 C 
ATOM      9  C   UNL A   1      32.343  23.534  24.428  1.00  0.00     0.094 C 
ATOM     10  C   UNL A   1      34.971  24.088  25.751  1.00  0.00     0.008 C 
ATOM     11  C   UNL A   1      33.264  24.664  23.984  1.00  0.00     0.061 C 
ATOM     12  C   UNL A   1      34.727  24.341  24.269  1.00  0.00     0.015 C 
BRANCH   7  13
ATOM     13  N   UNL A   1      31.948  21.801  26.056  1.00  0.00    -0.334 N 
ATOM     14  H   UNL A   1      32.438  21.357  26.834  1.00  0.00     0.347 HD
ATOM     15  H   UNL A   1      30.939  21.880  26.186  1.00  0.00     0.347 HD
BRANCH  13  16
ATOM     16  C   UNL A   1      32.126  20.955  24.875  1.00  0.00     0.257 C 
ATOM     17  C   UNL A   1      33.076  19.815  25.217  1.00  0.00     0.071 C 
ENDBRANCH  13  16
ENDBRANCH   7  13
BRANCH  11  18
ATOM     18  S   UNL A   1      32.903  25.246  22.285  1.00  0.00    -0.083 SA
BRANCH  18  19
ATOM     19  C   UNL A   1      31.896  26.651  22.628  1.00  0.00     0.187 A 
ATOM     20  N   UNL A   1      30.604  26.442  22.922  1.00  0.00    -0.231 NA
ATOM     21  N   UNL A   1      32.484  27.853  22.525  1.00  0.00    -0.231 NA
ATOM     22  C   UNL A   1      29.862  27.543  23.139  1.00  0.00     0.119 A 
ATOM     23  C   UNL A   1      31.696  28.919  22.750  1.00  0.00     0.119 A 
ATOM     24  C   UNL A   1      30.356  28.827  23.060  1.00  0.00    -0.014 A 
ATOM     25  C   UNL A   1      29.519  30.034  23.301  1.00  0.00     0.048 C 
ENDBRANCH  18  19
ENDBRANCH  11  18
ENDBRANCH   4   7
ENDBRANCH   2   3
ENDBRANCH   1   2
BRANCH   1  26
ATOM     26  C   UNL A   1      31.732  29.082  26.525  1.00  0.00     0.023 C 
BRANCH  26  27
ATOM     27  C   UNL A   1      32.875  30.049  26.252  1.00  0.00     0.116 C 
BRANCH  27  28
ATOM     28  N   UNL A   1      32.660  31.404  26.742  1.00  0.00    -0.352 N 
ATOM     29  C   UNL A   1      33.524  32.163  27.501  1.00  0.00     0.251 C 
ATOM     30  H   UNL A   1      31.803  31.824  26.505  1.00  0.00     0.163 HD
ATOM     31  O   UNL A   1      33.219  33.285  27.889  1.00  0.00    -0.269 OA
BRANCH  29  32
ATOM     32  C   UNL A   1      34.812  31.559  27.891  1.00  0.00     0.039 A 
ATOM     33  C   UNL A   1      35.929  32.386  28.024  1.00  0.00     0.014 A 
ATOM     34  C   UNL A   1      34.865  30.214  28.264  1.00  0.00     0.014 A 
ATOM     35  C   UNL A   1      37.081  31.882  28.627  1.00  0.00     0.010 A 
ATOM     36  C   UNL A   1      35.982  29.740  28.938  1.00  0.00     0.010 A 
ATOM     37  C   UNL A   1      37.096  30.573  29.135  1.00  0.00    -0.014 A 
BRANCH  37  38
ATOM     38  C   UNL A   1      38.261  30.048  29.886  1.00  0.00     0.031 A 
ATOM     39  C   UNL A   1      38.503  30.505  31.294  1.00  0.00     0.074 A 
ATOM     40  C   UNL A   1      39.148  29.243  29.270  1.00  0.00     0.049 A 
ATOM     41  N   UNL A   1      39.517  30.259  32.083  1.00  0.00    -0.248 NA
ATOM     42  C   UNL A   1      37.485  31.392  31.882  1.00  0.00     0.031 C 
ATOM     43  C   UNL A   1      39.061  28.787  27.881  1.00  0.00     0.029 A 
ATOM     44  N   UNL A   1      40.310  28.676  29.732  1.00  0.00    -0.354 N 
ATOM     45  C   UNL A   1      39.274  30.984  33.242  1.00  0.00     0.074 A 
ATOM     46  C   UNL A   1      38.045  31.716  33.037  1.00  0.00     0.031 C 
ATOM     47  C   UNL A   1      40.110  27.992  27.612  1.00  0.00     0.029 A 
ATOM     48  C   UNL A   1      40.957  27.907  28.797  1.00  0.00     0.049 A 
ATOM     49  H   UNL A   1      40.646  28.809  30.647  1.00  0.00     0.167 HD
ATOM     50  C   UNL A   1      39.999  31.015  34.384  1.00  0.00     0.037 A 
ATOM     51  C   UNL A   1      42.106  27.210  28.890  1.00  0.00     0.037 A 
ATOM     52  C   UNL A   1      41.194  30.245  34.604  1.00  0.00     0.049 A 
ATOM     53  C   UNL A   1      42.863  27.215  30.190  1.00  0.00     0.074 A 
ATOM     54  C   UNL A   1      41.962  30.149  35.750  1.00  0.00     0.029 A 
ATOM     55  N   UNL A   1      41.785  29.426  33.653  1.00  0.00    -0.354 N 
ATOM     56  N   UNL A   1      42.591  27.853  31.302  1.00  0.00    -0.248 NA
ATOM     57  C   UNL A   1      44.082  26.396  30.250  1.00  0.00     0.031 C 
ATOM     58  C   UNL A   1      43.033  29.287  35.486  1.00  0.00     0.029 A 
ATOM     59  C   UNL A   1      42.912  28.823  34.186  1.00  0.00     0.049 A 
ATOM     60  H   UNL A   1      41.453  29.292  32.736  1.00  0.00     0.167 HD
ATOM     61  C   UNL A   1      43.588  27.497  32.199  1.00  0.00     0.074 A 
ATOM     62  C   UNL A   1      44.464  26.576  31.507  1.00  0.00     0.031 C 
ATOM     63  C   UNL A   1      43.762  27.899  33.482  1.00  0.00     0.037 A 
BRANCH  50  64
ATOM     64  C   UNL A   1      39.505  31.901  35.487  1.00  0.00     0.064 A 
ATOM     65  C   UNL A   1      39.957  33.222  35.624  1.00  0.00     0.173 A 
ATOM     66  C   UNL A   1      38.562  31.430  36.412  1.00  0.00     0.173 A 
ATOM     67  F   UNL A   1      40.873  33.713  34.773  1.00  0.00    -0.203 F 
ATOM     68  C   UNL A   1      39.509  34.029  36.665  1.00  0.00     0.198 A 
ATOM     69  C   UNL A   1      38.094  32.249  37.437  1.00  0.00     0.198 A 
ATOM     70  F   UNL A   1      38.096  30.175  36.324  1.00  0.00    -0.203 F 
ATOM     71  F   UNL A   1      39.997  35.269  36.808  1.00  0.00    -0.200 F 
ATOM     72  C   UNL A   1      38.574  33.543  37.567  1.00  0.00     0.200 A 
ATOM     73  F   UNL A   1      37.186  31.782  38.304  1.00  0.00    -0.200 F 
ATOM     74  F   UNL A   1      38.144  34.321  38.570  1.00  0.00    -0.200 F 
ENDBRANCH  50  64
BRANCH  51  75
ATOM     75  C   UNL A   1      42.588  26.417  27.731  1.00  0.00     0.064 A 
ATOM     76  C   UNL A   1      43.522  26.957  26.836  1.00  0.00     0.173 A 
ATOM     77  C   UNL A   1      42.130  25.115  27.493  1.00  0.00     0.173 A 
ATOM     78  F   UNL A   1      43.973  28.208  27.014  1.00  0.00    -0.203 F 
ATOM     79  C   UNL A   1      43.968  26.228  25.735  1.00  0.00     0.198 A 
ATOM     80  C   UNL A   1      42.592  24.378  26.404  1.00  0.00     0.198 A 
ATOM     81  F   UNL A   1      41.239  24.553  28.323  1.00  0.00    -0.203 F 
ATOM     82  F   UNL A   1      44.832  26.782  24.874  1.00  0.00    -0.200 F 
ATOM     83  C   UNL A   1      43.505  24.938  25.523  1.00  0.00     0.200 A 
ATOM     84  F   UNL A   1      42.151  23.129  26.206  1.00  0.00    -0.200 F 
ATOM     85  F   UNL A   1      43.935  24.237  24.464  1.00  0.00    -0.200 F 
ENDBRANCH  51  75
BRANCH  63  86
ATOM     86  C   UNL A   1      44.926  27.321  34.228  1.00  0.00     0.064 A 
ATOM     87  C   UNL A   1      44.818  26.111  34.926  1.00  0.00     0.173 A 
ATOM     88  C   UNL A   1      46.172  27.962  34.202  1.00  0.00     0.173 A 
ATOM     89  F   UNL A   1      43.641  25.471  34.990  1.00  0.00    -0.203 F 
ATOM     90  C   UNL A   1      45.917  25.569  35.587  1.00  0.00     0.198 A 
ATOM     91  C   UNL A   1      47.275  27.406  34.845  1.00  0.00     0.198 A 
ATOM     92  F   UNL A   1      46.324  29.121  33.542  1.00  0.00    -0.203 F 
ATOM     93  F   UNL A   1      45.786  24.428  36.277  1.00  0.00    -0.200 F 
ATOM     94  C   UNL A   1      47.145  26.213  35.540  1.00  0.00     0.200 A 
ATOM     95  F   UNL A   1      48.462  28.025  34.791  1.00  0.00    -0.200 F 
ATOM     96  F   UNL A   1      48.204  25.687  36.171  1.00  0.00    -0.200 F 
ENDBRANCH  63  86
ENDBRANCH  37  38
ENDBRANCH  29  32
ENDBRANCH  27  28
ENDBRANCH  26  27
ENDBRANCH   1  26
TORSDOF 15
ENDMDL
MODEL 2
REMARK VINA RESULT:     -12.3      0.191      1.670
REMARK SMILES CC[NH2+][C@@]1(C(=O)NCCCCNC(=O)c2ccc(-c3c4nc(c(-c5c(F)c(F)c(F)c(F)c5F)c5ccc([nH]5)c(-c5c(F)c(F)c(F)c(F)c5F)c5nc(c(-c6c(F)c(F)c(F)c(F)c6F)c6ccc3[nH]6)C=C5)C=C4)cc2)CCC[C@@H](Sc2ncc(C)cn2)C1
REMARK SMILES IDX 9 1 8 2 7 3 5 4 6 5 4 7 78 8 90 9 79 10 81 11 80 12 3 13
REMARK SMILES IDX 2 16 1 17 82 18 83 19 84 20 89 21 85 22 88 23 86 24 87 25
REMARK SMILES IDX 10 26 11 27 12 28 13 29 14 31 15 32 16 33 77 34 17 35 76 36
REMARK SMILES IDX 18 37 19 38 20 39 70 40 21 41 75 42 69 43 71 44 22 45 74 46
REMARK SMILES IDX 68 47 67 48 23 50 55 51 35 52 54 53 36 54 39 55 53 56 72 57
REMARK SMILES IDX 37 58 38 59 52 61 73 62 40 63 24 64 25 65 33 66 26 67 27 68
REMARK SMILES IDX 31 69 34 70 28 71 29 72 32 73 30 74 56 75 57 76 65 77 58 78
REMARK SMILES IDX 59 79 63 80 66 81 60 82 61 83 64 84 62 85 41 86 42 87 50 88
REMARK SMILES IDX 43 89 44 90 48 91 51 92 45 93 46 94 49 95 47 96
REMARK H PARENT 7 6 3 14 3 15 12 30 71 49 39 60
REMARK Flexibility Score: inf
ROOT
ATOM      1  C   UNL A   1      31.938  27.872  27.226  1.00  0.00     0.023 C 
ENDROOT
BRANCH   1   2
ATOM      2  C   UNL A   1      32.105  26.611  26.372  1.00  0.00     0.116 C 
BRANCH   2   3
ATOM      3  N   UNL A   1      31.310  25.519  26.876  1.00  0.00    -0.351 N 
ATOM      4  C   UNL A   1      31.312  24.172  26.726  1.00  0.00     0.281 C 
ATOM      5  O   UNL A   1      30.305  23.650  27.234  1.00  0.00    -0.268 OA
ATOM      6  H   UNL A   1      30.591  25.825  27.475  1.00  0.00     0.163 HD
BRANCH   4   7
ATOM      7  C   UNL A   1      32.406  23.288  25.953  1.00  0.00     0.176 C 
ATOM      8  C   UNL A   1      33.869  23.349  26.468  1.00  0.00     0.079 C 
ATOM      9  C   UNL A   1      32.292  23.563  24.429  1.00  0.00     0.094 C 
ATOM     10  C   UNL A   1      34.893  24.236  25.751  1.00  0.00     0.008 C 
ATOM     11  C   UNL A   1      33.176  24.713  23.964  1.00  0.00     0.061 C 
ATOM     12  C   UNL A   1      34.647  24.447  24.262  1.00  0.00     0.015 C 
BRANCH   7  13
ATOM     13  N   UNL A   1      31.949  21.853  26.095  1.00  0.00    -0.334 N 
ATOM     14  H   UNL A   1      32.454  21.442  26.880  1.00  0.00     0.347 HD
ATOM     15  H   UNL A   1      30.938  21.900  26.224  1.00  0.00     0.347 HD
BRANCH  13  16
ATOM     16  C   UNL A   1      32.154  20.990  24.930  1.00  0.00     0.257 C 
ATOM     17  C   UNL A   1      33.049  19.823  25.325  1.00  0.00     0.071 C 
ENDBRANCH  13  16
ENDBRANCH   7  13
BRANCH  11  18
ATOM     18  S   UNL A   1      32.803  25.245  22.252  1.00  0.00    -0.083 SA
BRANCH  18  19
ATOM     19  C   UNL A   1      31.838  26.687  22.560  1.00  0.00     0.187 A 
ATOM     20  N   UNL A   1      32.444  27.881  22.469  1.00  0.00    -0.231 NA
ATOM     21  N   UNL A   1      30.558  26.491  22.914  1.00  0.00    -0.231 NA
ATOM     22  C   UNL A   1      31.681  28.953  22.748  1.00  0.00     0.119 A 
ATOM     23  C   UNL A   1      29.843  27.597  23.185  1.00  0.00     0.119 A 
ATOM     24  C   UNL A   1      30.358  28.874  23.124  1.00  0.00    -0.014 A 
ATOM     25  C   UNL A   1      29.529  30.072  23.433  1.00  0.00     0.048 C 
ENDBRANCH  18  19
ENDBRANCH  11  18
ENDBRANCH   4   7
ENDBRANCH   2   3
ENDBRANCH   1   2
BRANCH   1  26
ATOM     26  C   UNL A   1      31.682  29.157  26.450  1.00  0.00     0.023 C 
BRANCH  26  27
ATOM     27  C   UNL A   1      32.887  30.078  26.321  1.00  0.00     0.116 C 
BRANCH  27  28
ATOM     28  N   UNL A   1      32.681  31.429  26.827  1.00  0.00    -0.352 N 
ATOM     29  C   UNL A   1      33.546  32.169  27.602  1.00  0.00     0.251 C 
ATOM     30  H   UNL A   1      31.830  31.860  26.588  1.00  0.00     0.163 HD
ATOM     31  O   UNL A   1      33.249  33.290  28.002  1.00  0.00    -0.269 OA
BRANCH  29  32
ATOM     32  C   UNL A   1      34.825  31.548  27.995  1.00  0.00     0.039 A 
ATOM     33  C   UNL A   1      35.949  32.362  28.146  1.00  0.00     0.014 A 
ATOM     34  C   UNL A   1      34.862  30.199  28.352  1.00  0.00     0.014 A 
ATOM     35  C   UNL A   1      37.091  31.840  28.751  1.00  0.00     0.010 A 
ATOM     36  C   UNL A   1      35.969  29.705  29.028  1.00  0.00     0.010 A 
ATOM     37  C   UNL A   1      37.089  30.524  29.243  1.00  0.00    -0.014 A 
BRANCH  37  38
ATOM     38  C   UNL A   1      38.244  29.979  29.997  1.00  0.00     0.031 A 
ATOM     39  C   UNL A   1      38.486  30.426  31.409  1.00  0.00     0.074 A 
ATOM     40  C   UNL A   1      39.121  29.163  29.381  1.00  0.00     0.049 A 
ATOM     41  N   UNL A   1      39.493  30.161  32.201  1.00  0.00    -0.248 NA
ATOM     42  C   UNL A   1      37.479  31.324  31.996  1.00  0.00     0.031 C 
ATOM     43  C   UNL A   1      39.033  28.715  27.990  1.00  0.00     0.029 A 
ATOM     44  N   UNL A   1      40.272  28.577  29.846  1.00  0.00    -0.354 N 
ATOM     45  C   UNL A   1      39.256  30.883  33.362  1.00  0.00     0.074 A 
ATOM     46  C   UNL A   1      38.038  31.635  33.155  1.00  0.00     0.031 C 
ATOM     47  C   UNL A   1      40.072  27.906  27.722  1.00  0.00     0.029 A 
ATOM     48  C   UNL A   1      40.912  27.803  28.909  1.00  0.00     0.049 A 
ATOM     49  H   UNL A   1      40.607  28.701  30.762  1.00  0.00     0.167 HD
ATOM     50  C   UNL A   1      39.977  30.899  34.507  1.00  0.00     0.037 A 
ATOM     51  C   UNL A   1      42.051  27.089  29.004  1.00  0.00     0.037 A 
ATOM     52  C   UNL A   1      41.158  30.110  34.729  1.00  0.00     0.049 A 
ATOM     53  C   UNL A   1      42.802  27.077  30.307  1.00  0.00     0.074 A 
ATOM     54  C   UNL A   1      41.920  29.998  35.877  1.00  0.00     0.029 A 
ATOM     55  N   UNL A   1      41.742  29.287  33.776  1.00  0.00    -0.354 N 
ATOM     56  N   UNL A   1      42.534  27.713  31.421  1.00  0.00    -0.248 NA
ATOM     57  C   UNL A   1      44.008  26.239  30.368  1.00  0.00     0.031 C 
ATOM     58  C   UNL A   1      42.979  29.121  35.614  1.00  0.00     0.029 A 
ATOM     59  C   UNL A   1      42.857  28.665  34.311  1.00  0.00     0.049 A 
ATOM     60  H   UNL A   1      41.412  29.162  32.857  1.00  0.00     0.167 HD
ATOM     61  C   UNL A   1      43.522  27.339  32.321  1.00  0.00     0.074 A 
ATOM     62  C   UNL A   1      44.388  26.407  31.627  1.00  0.00     0.031 C 
ATOM     63  C   UNL A   1      43.697  27.732  33.606  1.00  0.00     0.037 A 
BRANCH  50  64
ATOM     64  C   UNL A   1      39.490  31.787  35.612  1.00  0.00     0.064 A 
ATOM     65  C   UNL A   1      39.963  33.100  35.758  1.00  0.00     0.173 A 
ATOM     66  C   UNL A   1      38.536  31.326  36.530  1.00  0.00     0.173 A 
ATOM     67  F   UNL A   1      40.890  33.581  34.914  1.00  0.00    -0.203 F 
ATOM     68  C   UNL A   1      39.522  33.909  36.801  1.00  0.00     0.198 A 
ATOM     69  C   UNL A   1      38.076  32.147  37.557  1.00  0.00     0.198 A 
ATOM     70  F   UNL A   1      38.051  30.079  36.434  1.00  0.00    -0.203 F 
ATOM     71  F   UNL A   1      40.028  35.140  36.952  1.00  0.00    -0.200 F 
ATOM     72  C   UNL A   1      38.575  33.433  37.696  1.00  0.00     0.200 A 
ATOM     73  F   UNL A   1      37.156  31.690  38.417  1.00  0.00    -0.200 F 
ATOM     74  F   UNL A   1      38.152  34.213  38.700  1.00  0.00    -0.200 F 
ENDBRANCH  50  64
BRANCH  51  75
ATOM     75  C   UNL A   1      42.526  26.294  27.844  1.00  0.00     0.064 A 
ATOM     76  C   UNL A   1      42.037  25.000  27.617  1.00  0.00     0.173 A 
ATOM     77  C   UNL A   1      43.470  26.804  26.944  1.00  0.00     0.173 A 
ATOM     78  F   UNL A   1      41.146  24.464  28.465  1.00  0.00    -0.203 F 
ATOM     79  C   UNL A   1      42.488  24.238  26.542  1.00  0.00     0.198 A 
ATOM     80  C   UNL A   1      43.906  26.049  25.855  1.00  0.00     0.198 A 
ATOM     81  F   UNL A   1      43.965  28.038  27.115  1.00  0.00    -0.203 F 
ATOM     82  F   UNL A   1      42.033  22.990  26.370  1.00  0.00    -0.200 F 
ATOM     83  C   UNL A   1      43.419  24.765  25.659  1.00  0.00     0.200 A 
ATOM     84  F   UNL A   1      44.798  26.564  24.999  1.00  0.00    -0.200 F 
ATOM     85  F   UNL A   1      43.852  24.033  24.624  1.00  0.00    -0.200 F 
ENDBRANCH  51  75
BRANCH  63  86
ATOM     86  C   UNL A   1      44.848  27.133  34.354  1.00  0.00     0.064 A 
ATOM     87  C   UNL A   1      46.099  27.763  34.396  1.00  0.00     0.173 A 
ATOM     88  C   UNL A   1      44.682  25.942  35.075  1.00  0.00     0.173 A 
ATOM     89  F   UNL A   1      46.308  28.897  33.710  1.00  0.00    -0.203 F 
ATOM     90  C   UNL A   1      47.151  27.212  35.123  1.00  0.00     0.198 A 
ATOM     91  C   UNL A   1      45.729  25.405  35.819  1.00  0.00     0.198 A 
ATOM     92  F   UNL A   1      43.501  25.305  35.067  1.00  0.00    -0.203 F 
ATOM     93  F   UNL A   1      48.349  27.812  35.123  1.00  0.00    -0.200 F 
ATOM     94  C   UNL A   1      46.963  26.039  35.839  1.00  0.00     0.200 A 
ATOM     95  F   UNL A   1      45.544  24.277  36.517  1.00  0.00    -0.200 F 
ATOM     96  F   UNL A   1      47.975  25.513  36.543  1.00  0.00    -0.200 F 
ENDBRANCH  63  86
ENDBRANCH  37  38
ENDBRANCH  29  32
ENDBRANCH  27  28
ENDBRANCH  26  27
ENDBRANCH   1  26
TORSDOF 15
ENDMDL
MODEL 3
REMARK VINA RESULT:     -12.2      2.164      3.390
REMARK SMILES CC[NH2+][C@@]1(C(=O)NCCCCNC(=O)c2ccc(-c3c4nc(c(-c5c(F)c(F)c(F)c(F)c5F)c5ccc([nH]5)c(-c5c(F)c(F)c(F)c(F)c5F)c5nc(c(-c6c(F)c(F)c(F)c(F)c6F)c6ccc3[nH]6)C=C5)C=C4)cc2)CCC[C@@H](Sc2ncc(C)cn2)C1
REMARK SMILES IDX 9 1 8 2 7 3 5 4 6 5 4 7 78 8 90 9 79 10 81 11 80 12 3 13
REMARK SMILES IDX 2 16 1 17 82 18 83 19 84 20 89 21 85 22 88 23 86 24 87 25
REMARK SMILES IDX 10 26 11 27 12 28 13 29 14 31 15 32 16 33 77 34 17 35 76 36
REMARK SMILES IDX 18 37 19 38 20 39 70 40 21 41 75 42 69 43 71 44 22 45 74 46
REMARK SMILES IDX 68 47 67 48 23 50 55 51 35 52 54 53 36 54 39 55 53 56 72 57
REMARK SMILES IDX 37 58 38 59 52 61 73 62 40 63 24 64 25 65 33 66 26 67 27 68
REMARK SMILES IDX 31 69 34 70 28 71 29 72 32 73 30 74 56 75 57 76 65 77 58 78
REMARK SMILES IDX 59 79 63 80 66 81 60 82 61 83 64 84 62 85 41 86 42 87 50 88
REMARK SMILES IDX 43 89 44 90 48 91 51 92 45 93 46 94 49 95 47 96
REMARK H PARENT 7 6 3 14 3 15 12 30 71 49 39 60
REMARK Flexibility Score: inf
ROOT
ATOM      1  C   UNL A   1      32.171  30.110  26.948  1.00  0.00     0.023 C 
ENDROOT
BRANCH   1   2
ATOM      2  C   UNL A   1      33.534  29.593  26.475  1.00  0.00     0.116 C 
BRANCH   2   3
ATOM      3  N   UNL A   1      33.638  29.609  25.037  1.00  0.00    -0.351 N 
ATOM      4  C   UNL A   1      33.574  28.679  24.053  1.00  0.00     0.281 C 
ATOM      5  O   UNL A   1      33.898  29.152  22.950  1.00  0.00    -0.268 OA
ATOM      6  H   UNL A   1      33.792  30.515  24.683  1.00  0.00     0.163 HD
BRANCH   4   7
ATOM      7  C   UNL A   1      33.195  27.128  24.213  1.00  0.00     0.176 C 
ATOM      8  C   UNL A   1      33.681  26.154  23.106  1.00  0.00     0.079 C 
ATOM      9  C   UNL A   1      31.674  27.007  24.496  1.00  0.00     0.094 C 
ATOM     10  C   UNL A   1      32.712  25.704  22.008  1.00  0.00     0.008 C 
ATOM     11  C   UNL A   1      30.841  26.880  23.227  1.00  0.00     0.061 C 
ATOM     12  C   UNL A   1      31.243  25.657  22.411  1.00  0.00     0.015 C 
BRANCH   7  13
ATOM     13  N   UNL A   1      33.838  26.680  25.507  1.00  0.00    -0.334 N 
ATOM     14  H   UNL A   1      34.807  26.433  25.304  1.00  0.00     0.347 HD
ATOM     15  H   UNL A   1      33.731  27.464  26.151  1.00  0.00     0.347 HD
BRANCH  13  16
ATOM     16  C   UNL A   1      33.217  25.536  26.176  1.00  0.00     0.257 C 
ATOM     17  C   UNL A   1      34.146  24.333  26.074  1.00  0.00     0.071 C 
ENDBRANCH  13  16
ENDBRANCH   7  13
BRANCH  11  18
ATOM     18  S   UNL A   1      29.045  27.064  23.538  1.00  0.00    -0.083 SA
BRANCH  18  19
ATOM     19  C   UNL A   1      28.761  28.671  22.873  1.00  0.00     0.187 A 
ATOM     20  N   UNL A   1      27.603  29.280  23.171  1.00  0.00    -0.231 NA
ATOM     21  N   UNL A   1      29.712  29.166  22.065  1.00  0.00    -0.231 NA
ATOM     22  C   UNL A   1      27.410  30.488  22.612  1.00  0.00     0.119 A 
ATOM     23  C   UNL A   1      29.467  30.375  21.532  1.00  0.00     0.119 A 
ATOM     24  C   UNL A   1      28.314  31.094  21.767  1.00  0.00    -0.014 A 
ATOM     25  C   UNL A   1      28.082  32.431  21.156  1.00  0.00     0.048 C 
ENDBRANCH  18  19
ENDBRANCH  11  18
ENDBRANCH   4   7
ENDBRANCH   2   3
ENDBRANCH   1   2
BRANCH   1  26
ATOM     26  C   UNL A   1      31.923  31.596  26.724  1.00  0.00     0.023 C 
BRANCH  26  27
ATOM     27  C   UNL A   1      32.972  32.518  27.329  1.00  0.00     0.116 C 
BRANCH  27  28
ATOM     28  N   UNL A   1      32.511  33.874  27.598  1.00  0.00    -0.352 N 
ATOM     29  C   UNL A   1      33.039  34.769  28.504  1.00  0.00     0.251 C 
ATOM     30  H   UNL A   1      31.738  34.186  27.076  1.00  0.00     0.163 HD
ATOM     31  O   UNL A   1      32.543  35.878  28.672  1.00  0.00    -0.269 OA
BRANCH  29  32
ATOM     32  C   UNL A   1      34.187  34.331  29.318  1.00  0.00     0.039 A 
ATOM     33  C   UNL A   1      33.945  33.604  30.485  1.00  0.00     0.014 A 
ATOM     34  C   UNL A   1      35.487  34.512  28.841  1.00  0.00     0.014 A 
ATOM     35  C   UNL A   1      35.010  32.973  31.128  1.00  0.00     0.010 A 
ATOM     36  C   UNL A   1      36.531  33.816  29.434  1.00  0.00     0.010 A 
ATOM     37  C   UNL A   1      36.301  33.032  30.576  1.00  0.00    -0.014 A 
BRANCH  37  38
ATOM     38  C   UNL A   1      37.429  32.274  31.167  1.00  0.00     0.031 A 
ATOM     39  C   UNL A   1      37.920  32.627  32.541  1.00  0.00     0.074 A 
ATOM     40  C   UNL A   1      38.068  31.342  30.434  1.00  0.00     0.049 A 
ATOM     41  N   UNL A   1      38.959  32.169  33.193  1.00  0.00    -0.248 NA
ATOM     42  C   UNL A   1      37.166  33.663  33.263  1.00  0.00     0.031 C 
ATOM     43  C   UNL A   1      37.730  30.961  29.062  1.00  0.00     0.029 A 
ATOM     44  N   UNL A   1      39.150  30.555  30.740  1.00  0.00    -0.354 N 
ATOM     45  C   UNL A   1      38.998  32.883  34.382  1.00  0.00     0.074 A 
ATOM     46  C   UNL A   1      37.912  33.837  34.344  1.00  0.00     0.031 C 
ATOM     47  C   UNL A   1      38.571  29.997  28.652  1.00  0.00     0.029 A 
ATOM     48  C   UNL A   1      39.524  29.714  29.720  1.00  0.00     0.049 A 
ATOM     49  H   UNL A   1      39.614  30.589  31.606  1.00  0.00     0.167 HD
ATOM     50  C   UNL A   1      39.848  32.738  35.425  1.00  0.00     0.037 A 
ATOM     51  C   UNL A   1      40.525  28.814  29.659  1.00  0.00     0.037 A 
ATOM     52  C   UNL A   1      40.894  31.753  35.483  1.00  0.00     0.049 A 
ATOM     53  C   UNL A   1      41.420  28.632  30.853  1.00  0.00     0.074 A 
ATOM     54  C   UNL A   1      41.764  31.475  36.521  1.00  0.00     0.029 A 
ATOM     55  N   UNL A   1      41.203  30.874  34.453  1.00  0.00    -0.354 N 
ATOM     56  N   UNL A   1      41.409  29.267  31.999  1.00  0.00    -0.248 NA
ATOM     57  C   UNL A   1      42.462  27.600  30.749  1.00  0.00     0.031 C 
ATOM     58  C   UNL A   1      42.614  30.441  36.113  1.00  0.00     0.029 A 
ATOM     59  C   UNL A   1      42.252  30.055  34.833  1.00  0.00     0.049 A 
ATOM     60  H   UNL A   1      40.743  30.838  33.584  1.00  0.00     0.167 HD
ATOM     61  C   UNL A   1      42.422  28.702  32.759  1.00  0.00     0.074 A 
ATOM     62  C   UNL A   1      43.020  27.660  31.949  1.00  0.00     0.031 C 
ATOM     63  C   UNL A   1      42.823  29.017  34.015  1.00  0.00     0.037 A 
BRANCH  50  64
ATOM     64  C   UNL A   1      39.665  33.659  36.593  1.00  0.00     0.064 A 
ATOM     65  C   UNL A   1      38.857  33.306  37.684  1.00  0.00     0.173 A 
ATOM     66  C   UNL A   1      40.311  34.903  36.628  1.00  0.00     0.173 A 
ATOM     67  F   UNL A   1      38.204  32.133  37.689  1.00  0.00    -0.203 F 
ATOM     68  C   UNL A   1      38.675  34.179  38.753  1.00  0.00     0.198 A 
ATOM     69  C   UNL A   1      40.150  35.762  37.711  1.00  0.00     0.198 A 
ATOM     70  F   UNL A   1      41.096  35.287  35.610  1.00  0.00    -0.203 F 
ATOM     71  F   UNL A   1      37.855  33.844  39.758  1.00  0.00    -0.200 F 
ATOM     72  C   UNL A   1      39.326  35.403  38.768  1.00  0.00     0.200 A 
ATOM     73  F   UNL A   1      40.784  36.942  37.729  1.00  0.00    -0.200 F 
ATOM     74  F   UNL A   1      39.150  36.243  39.797  1.00  0.00    -0.200 F 
ENDBRANCH  50  64
BRANCH  51  75
ATOM     75  C   UNL A   1      40.706  27.989  28.438  1.00  0.00     0.064 A 
ATOM     76  C   UNL A   1      41.493  28.451  27.374  1.00  0.00     0.173 A 
ATOM     77  C   UNL A   1      40.100  26.733  28.306  1.00  0.00     0.173 A 
ATOM     78  F   UNL A   1      42.076  29.658  27.448  1.00  0.00    -0.203 F 
ATOM     79  C   UNL A   1      41.656  27.693  26.217  1.00  0.00     0.198 A 
ATOM     80  C   UNL A   1      40.280  25.965  27.157  1.00  0.00     0.198 A 
ATOM     81  F   UNL A   1      39.341  26.245  29.298  1.00  0.00    -0.203 F 
ATOM     82  F   UNL A   1      42.383  28.175  25.200  1.00  0.00    -0.200 F 
ATOM     83  C   UNL A   1      41.052  26.449  26.111  1.00  0.00     0.200 A 
ATOM     84  F   UNL A   1      39.704  24.759  27.060  1.00  0.00    -0.200 F 
ATOM     85  F   UNL A   1      41.209  25.720  24.998  1.00  0.00    -0.200 F 
ENDBRANCH  51  75
BRANCH  63  86
ATOM     86  C   UNL A   1      43.939  28.207  34.601  1.00  0.00     0.064 A 
ATOM     87  C   UNL A   1      45.271  28.631  34.516  1.00  0.00     0.173 A 
ATOM     88  C   UNL A   1      43.663  27.020  35.295  1.00  0.00     0.173 A 
ATOM     89  F   UNL A   1      45.583  29.752  33.849  1.00  0.00    -0.203 F 
ATOM     90  C   UNL A   1      46.295  27.884  35.095  1.00  0.00     0.198 A 
ATOM     91  C   UNL A   1      44.687  26.288  35.892  1.00  0.00     0.198 A 
ATOM     92  F   UNL A   1      42.402  26.577  35.406  1.00  0.00    -0.203 F 
ATOM     93  F   UNL A   1      47.567  28.289  34.974  1.00  0.00    -0.200 F 
ATOM     94  C   UNL A   1      46.001  26.719  35.787  1.00  0.00     0.200 A 
ATOM     95  F   UNL A   1      44.400  25.167  36.568  1.00  0.00    -0.200 F 
ATOM     96  F   UNL A   1      46.987  26.006  36.349  1.00  0.00    -0.200 F 
ENDBRANCH  63  86
ENDBRANCH  37  38
ENDBRANCH  29  32
ENDBRANCH  27  28
ENDBRANCH  26  27
ENDBRANCH   1  26
TORSDOF 15
ENDMDL
