MODEL 1
REMARK VINA RESULT:     -13.6      0.000      0.000
REMARK SMILES Cc1cccc([C@H]2[C@@H](C(=O)NCCCCNC(=O)c3ccc(-c4c5nc(c(-c6c(F)c(F)c(F)c(F)c6F)c6ccc([nH]6)c(-c6c(F)c(F)c(F)c(F)c6F)c6nc(c(-c7c(F)c(F)c(F)c(F)c7F)c7ccc4[nH]7)C=C6)C=C5)cc3)CC(=O)N2C)c1
REMARK SMILES IDX 14 1 13 2 12 3 11 4 9 5 10 6 8 8 7 9 85 10 82 11 83 12 86 13
REMARK SMILES IDX 84 14 6 15 1 16 2 17 3 18 87 19 4 20 5 21 15 22 16 23 17 24
REMARK SMILES IDX 18 26 19 27 20 28 81 29 21 30 80 31 22 32 23 33 24 34 74 35
REMARK SMILES IDX 25 36 79 37 73 38 75 39 26 40 78 41 72 42 71 43 27 45 59 46
REMARK SMILES IDX 39 47 58 48 40 49 43 50 57 51 76 52 41 53 42 54 56 56 77 57
REMARK SMILES IDX 44 58 28 59 29 60 37 61 30 62 31 63 35 64 38 65 32 66 33 67
REMARK SMILES IDX 36 68 34 69 60 70 61 71 69 72 62 73 63 74 67 75 70 76 64 77
REMARK SMILES IDX 65 78 68 79 66 80 45 81 46 82 54 83 47 84 48 85 52 86 55 87
REMARK SMILES IDX 49 88 50 89 53 90 51 91
REMARK H PARENT 11 7 16 25 75 44 43 55
REMARK Flexibility Score: inf
ROOT
ATOM      1  C   UNL A   1      33.504  29.470  27.669  1.00  0.00     0.023 C 
ENDROOT
BRANCH   1   2
ATOM      2  C   UNL A   1      32.117  29.145  27.114  1.00  0.00     0.023 C 
BRANCH   2   3
ATOM      3  C   UNL A   1      31.498  27.833  27.606  1.00  0.00     0.116 C 
BRANCH   3   4
ATOM      4  N   UNL A   1      30.898  27.035  26.547  1.00  0.00    -0.356 N 
ATOM      5  C   UNL A   1      31.163  25.786  26.084  1.00  0.00     0.226 C 
ATOM      6  O   UNL A   1      30.321  25.293  25.323  1.00  0.00    -0.275 OA
ATOM      7  H   UNL A   1      30.161  27.487  26.076  1.00  0.00     0.163 HD
BRANCH   5   8
ATOM      8  C   UNL A   1      32.393  24.968  26.449  1.00  0.00     0.115 C 
ATOM      9  C   UNL A   1      33.742  25.359  25.820  1.00  0.00     0.128 C 
ATOM     10  N   UNL A   1      34.423  24.083  25.659  1.00  0.00    -0.338 N 
ATOM     11  C   UNL A   1      32.243  23.460  26.280  1.00  0.00     0.116 C 
ATOM     12  C   UNL A   1      33.590  22.990  25.803  1.00  0.00     0.223 C 
ATOM     13  C   UNL A   1      35.848  23.977  25.400  1.00  0.00     0.147 C 
ATOM     14  O   UNL A   1      33.882  21.827  25.606  1.00  0.00    -0.275 OA
BRANCH   9  15
ATOM     15  C   UNL A   1      33.663  26.163  24.540  1.00  0.00    -0.024 A 
ATOM     16  C   UNL A   1      32.659  25.732  20.897  1.00  0.00     0.044 C 
ATOM     17  C   UNL A   1      33.100  26.365  22.179  1.00  0.00    -0.051 A 
ATOM     18  C   UNL A   1      33.354  27.732  22.265  1.00  0.00     0.003 A 
ATOM     19  C   UNL A   1      33.233  25.596  23.328  1.00  0.00     0.009 A 
ATOM     20  C   UNL A   1      33.808  28.316  23.441  1.00  0.00     0.001 A 
ATOM     21  C   UNL A   1      33.985  27.529  24.570  1.00  0.00     0.006 A 
ENDBRANCH   9  15
ENDBRANCH   5   8
ENDBRANCH   3   4
ENDBRANCH   2   3
ENDBRANCH   1   2
BRANCH   1  22
ATOM     22  C   UNL A   1      34.184  30.684  27.042  1.00  0.00     0.116 C 
BRANCH  22  23
ATOM     23  N   UNL A   1      34.793  31.598  27.998  1.00  0.00    -0.352 N 
ATOM     24  C   UNL A   1      35.857  31.410  28.860  1.00  0.00     0.251 C 
ATOM     25  H   UNL A   1      34.381  32.492  28.037  1.00  0.00     0.163 HD
ATOM     26  O   UNL A   1      36.146  32.295  29.662  1.00  0.00    -0.269 OA
BRANCH  24  27
ATOM     27  C   UNL A   1      36.741  30.220  28.740  1.00  0.00     0.039 A 
ATOM     28  C   UNL A   1      36.788  29.322  29.820  1.00  0.00     0.014 A 
ATOM     29  C   UNL A   1      37.625  30.059  27.679  1.00  0.00     0.014 A 
ATOM     30  C   UNL A   1      37.864  28.445  29.947  1.00  0.00     0.010 A 
ATOM     31  C   UNL A   1      38.740  29.265  27.846  1.00  0.00     0.010 A 
ATOM     32  C   UNL A   1      38.895  28.517  29.016  1.00  0.00    -0.014 A 
BRANCH  32  33
ATOM     33  C   UNL A   1      40.234  27.989  29.235  1.00  0.00     0.031 A 
ATOM     34  C   UNL A   1      40.635  26.676  28.702  1.00  0.00     0.074 A 
ATOM     35  C   UNL A   1      41.163  28.822  29.744  1.00  0.00     0.049 A 
ATOM     36  N   UNL A   1      41.770  26.113  28.943  1.00  0.00    -0.248 NA
ATOM     37  C   UNL A   1      39.742  25.851  27.906  1.00  0.00     0.031 C 
ATOM     38  C   UNL A   1      42.614  28.714  29.626  1.00  0.00     0.029 A 
ATOM     39  N   UNL A   1      40.958  29.890  30.627  1.00  0.00    -0.354 N 
ATOM     40  C   UNL A   1      41.874  24.999  28.147  1.00  0.00     0.074 A 
ATOM     41  C   UNL A   1      40.542  24.818  27.621  1.00  0.00     0.031 C 
ATOM     42  C   UNL A   1      43.185  29.485  30.563  1.00  0.00     0.029 A 
ATOM     43  C   UNL A   1      42.120  29.962  31.428  1.00  0.00     0.049 A 
ATOM     44  H   UNL A   1      40.166  30.471  30.680  1.00  0.00     0.167 HD
ATOM     45  C   UNL A   1      43.112  24.450  27.961  1.00  0.00     0.037 A 
ATOM     46  C   UNL A   1      42.054  29.723  32.771  1.00  0.00     0.037 A 
ATOM     47  C   UNL A   1      44.095  25.048  28.885  1.00  0.00     0.049 A 
ATOM     48  C   UNL A   1      42.851  28.513  33.203  1.00  0.00     0.074 A 
ATOM     49  C   UNL A   1      45.142  25.948  28.759  1.00  0.00     0.029 A 
ATOM     50  N   UNL A   1      43.891  24.905  30.252  1.00  0.00    -0.354 N 
ATOM     51  N   UNL A   1      43.441  27.696  32.376  1.00  0.00    -0.248 NA
ATOM     52  C   UNL A   1      42.976  28.083  34.592  1.00  0.00     0.031 C 
ATOM     53  C   UNL A   1      45.552  26.345  30.070  1.00  0.00     0.029 A 
ATOM     54  C   UNL A   1      44.766  25.679  30.993  1.00  0.00     0.049 A 
ATOM     55  H   UNL A   1      43.204  24.321  30.648  1.00  0.00     0.167 HD
ATOM     56  C   UNL A   1      44.001  26.666  33.065  1.00  0.00     0.074 A 
ATOM     57  C   UNL A   1      43.669  26.939  34.453  1.00  0.00     0.031 C 
ATOM     58  C   UNL A   1      44.676  25.655  32.446  1.00  0.00     0.037 A 
BRANCH  45  59
ATOM     59  C   UNL A   1      43.508  23.501  26.831  1.00  0.00     0.064 A 
ATOM     60  C   UNL A   1      43.094  22.149  26.858  1.00  0.00     0.173 A 
ATOM     61  C   UNL A   1      44.344  23.812  25.737  1.00  0.00     0.173 A 
ATOM     62  F   UNL A   1      42.251  21.692  27.795  1.00  0.00    -0.203 F 
ATOM     63  C   UNL A   1      43.535  21.197  25.926  1.00  0.00     0.198 A 
ATOM     64  C   UNL A   1      44.789  22.863  24.810  1.00  0.00     0.198 A 
ATOM     65  F   UNL A   1      44.770  25.047  25.483  1.00  0.00    -0.203 F 
ATOM     66  F   UNL A   1      43.126  19.925  26.031  1.00  0.00    -0.200 F 
ATOM     67  C   UNL A   1      44.395  21.551  24.910  1.00  0.00     0.200 A 
ATOM     68  F   UNL A   1      45.611  23.244  23.821  1.00  0.00    -0.200 F 
ATOM     69  F   UNL A   1      44.832  20.643  24.028  1.00  0.00    -0.200 F 
ENDBRANCH  45  59
BRANCH  46  70
ATOM     70  C   UNL A   1      40.765  30.170  33.362  1.00  0.00     0.064 A 
ATOM     71  C   UNL A   1      40.564  31.553  33.535  1.00  0.00     0.173 A 
ATOM     72  C   UNL A   1      39.632  29.351  33.307  1.00  0.00     0.173 A 
ATOM     73  F   UNL A   1      41.619  32.374  33.635  1.00  0.00    -0.203 F 
ATOM     74  C   UNL A   1      39.290  32.110  33.467  1.00  0.00     0.198 A 
ATOM     75  C   UNL A   1      38.354  29.912  33.276  1.00  0.00     0.198 A 
ATOM     76  F   UNL A   1      39.761  28.027  33.143  1.00  0.00    -0.203 F 
ATOM     77  F   UNL A   1      39.143  33.443  33.468  1.00  0.00    -0.200 F 
ATOM     78  C   UNL A   1      38.188  31.290  33.305  1.00  0.00     0.200 A 
ATOM     79  F   UNL A   1      37.286  29.119  33.105  1.00  0.00    -0.200 F 
ATOM     80  F   UNL A   1      36.972  31.824  33.130  1.00  0.00    -0.200 F 
ENDBRANCH  46  70
BRANCH  58  81
ATOM     81  C   UNL A   1      45.288  24.530  33.218  1.00  0.00     0.064 A 
ATOM     82  C   UNL A   1      44.561  23.385  33.577  1.00  0.00     0.173 A 
ATOM     83  C   UNL A   1      46.618  24.600  33.673  1.00  0.00     0.173 A 
ATOM     84  F   UNL A   1      43.263  23.267  33.256  1.00  0.00    -0.203 F 
ATOM     85  C   UNL A   1      45.155  22.335  34.276  1.00  0.00     0.198 A 
ATOM     86  C   UNL A   1      47.193  23.575  34.419  1.00  0.00     0.198 A 
ATOM     87  F   UNL A   1      47.402  25.647  33.379  1.00  0.00    -0.203 F 
ATOM     88  F   UNL A   1      44.451  21.224  34.531  1.00  0.00    -0.200 F 
ATOM     89  C   UNL A   1      46.469  22.433  34.700  1.00  0.00     0.200 A 
ATOM     90  F   UNL A   1      48.457  23.694  34.846  1.00  0.00    -0.200 F 
ATOM     91  F   UNL A   1      47.039  21.424  35.372  1.00  0.00    -0.200 F 
ENDBRANCH  58  81
ENDBRANCH  32  33
ENDBRANCH  24  27
ENDBRANCH  22  23
ENDBRANCH   1  22
TORSDOF 12
ENDMDL
MODEL 2
REMARK VINA RESULT:     -13.4      3.957     10.157
REMARK SMILES Cc1cccc([C@H]2[C@@H](C(=O)NCCCCNC(=O)c3ccc(-c4c5nc(c(-c6c(F)c(F)c(F)c(F)c6F)c6ccc([nH]6)c(-c6c(F)c(F)c(F)c(F)c6F)c6nc(c(-c7c(F)c(F)c(F)c(F)c7F)c7ccc4[nH]7)C=C6)C=C5)cc3)CC(=O)N2C)c1
REMARK SMILES IDX 14 1 13 2 12 3 11 4 9 5 10 6 8 8 7 9 85 10 82 11 83 12 86 13
REMARK SMILES IDX 84 14 6 15 1 16 2 17 3 18 87 19 4 20 5 21 15 22 16 23 17 24
REMARK SMILES IDX 18 26 19 27 20 28 81 29 21 30 80 31 22 32 23 33 24 34 74 35
REMARK SMILES IDX 25 36 79 37 73 38 75 39 26 40 78 41 72 42 71 43 27 45 59 46
REMARK SMILES IDX 39 47 58 48 40 49 43 50 57 51 76 52 41 53 42 54 56 56 77 57
REMARK SMILES IDX 44 58 28 59 29 60 37 61 30 62 31 63 35 64 38 65 32 66 33 67
REMARK SMILES IDX 36 68 34 69 60 70 61 71 69 72 62 73 63 74 67 75 70 76 64 77
REMARK SMILES IDX 65 78 68 79 66 80 45 81 46 82 54 83 47 84 48 85 52 86 55 87
REMARK SMILES IDX 49 88 50 89 53 90 51 91
REMARK H PARENT 11 7 16 25 75 44 43 55
REMARK Flexibility Score: inf
ROOT
ATOM      1  C   UNL A   1      38.171  21.450  25.350  1.00  0.00     0.023 C 
ENDROOT
BRANCH   1   2
ATOM      2  C   UNL A   1      36.745  21.432  24.799  1.00  0.00     0.023 C 
BRANCH   2   3
ATOM      3  C   UNL A   1      36.380  22.592  23.868  1.00  0.00     0.116 C 
BRANCH   3   4
ATOM      4  N   UNL A   1      35.003  22.555  23.398  1.00  0.00    -0.356 N 
ATOM      5  C   UNL A   1      34.104  23.538  23.130  1.00  0.00     0.226 C 
ATOM      6  O   UNL A   1      33.084  23.196  22.520  1.00  0.00    -0.275 OA
ATOM      7  H   UNL A   1      34.658  21.646  23.246  1.00  0.00     0.163 HD
BRANCH   5   8
ATOM      8  C   UNL A   1      34.278  25.001  23.512  1.00  0.00     0.115 C 
ATOM      9  C   UNL A   1      34.311  25.366  25.006  1.00  0.00     0.128 C 
ATOM     10  N   UNL A   1      33.679  26.676  25.048  1.00  0.00    -0.338 N 
ATOM     11  C   UNL A   1      33.310  25.966  22.838  1.00  0.00     0.116 C 
ATOM     12  C   UNL A   1      33.012  27.006  23.883  1.00  0.00     0.223 C 
ATOM     13  C   UNL A   1      33.770  27.559  26.197  1.00  0.00     0.147 C 
ATOM     14  O   UNL A   1      32.313  27.983  23.702  1.00  0.00    -0.275 OA
BRANCH   9  15
ATOM     15  C   UNL A   1      33.674  24.363  25.944  1.00  0.00    -0.024 A 
ATOM     16  C   UNL A   1      30.234  23.026  26.866  1.00  0.00     0.044 C 
ATOM     17  C   UNL A   1      31.720  23.196  26.812  1.00  0.00    -0.051 A 
ATOM     18  C   UNL A   1      32.573  22.372  27.543  1.00  0.00     0.003 A 
ATOM     19  C   UNL A   1      32.283  24.171  25.997  1.00  0.00     0.009 A 
ATOM     20  C   UNL A   1      33.950  22.555  27.532  1.00  0.00     0.001 A 
ATOM     21  C   UNL A   1      34.498  23.564  26.752  1.00  0.00     0.006 A 
ENDBRANCH   9  15
ENDBRANCH   5   8
ENDBRANCH   3   4
ENDBRANCH   2   3
ENDBRANCH   1   2
BRANCH   1  22
ATOM     22  C   UNL A   1      38.552  22.710  26.120  1.00  0.00     0.116 C 
BRANCH  22  23
ATOM     23  N   UNL A   1      39.876  22.673  26.726  1.00  0.00    -0.352 N 
ATOM     24  C   UNL A   1      40.659  23.699  27.222  1.00  0.00     0.251 C 
ATOM     25  H   UNL A   1      40.277  21.776  26.792  1.00  0.00     0.163 HD
ATOM     26  O   UNL A   1      41.801  23.454  27.602  1.00  0.00    -0.269 OA
BRANCH  24  27
ATOM     27  C   UNL A   1      40.098  25.060  27.431  1.00  0.00     0.039 A 
ATOM     28  C   UNL A   1      40.474  26.073  26.533  1.00  0.00     0.014 A 
ATOM     29  C   UNL A   1      39.358  25.390  28.561  1.00  0.00     0.014 A 
ATOM     30  C   UNL A   1      40.328  27.411  26.895  1.00  0.00     0.010 A 
ATOM     31  C   UNL A   1      39.298  26.706  28.968  1.00  0.00     0.010 A 
ATOM     32  C   UNL A   1      39.854  27.709  28.168  1.00  0.00    -0.014 A 
BRANCH  32  33
ATOM     33  C   UNL A   1      40.034  28.993  28.831  1.00  0.00     0.031 A 
ATOM     34  C   UNL A   1      38.979  30.019  28.810  1.00  0.00     0.074 A 
ATOM     35  C   UNL A   1      41.097  29.135  29.648  1.00  0.00     0.049 A 
ATOM     36  N   UNL A   1      39.115  31.207  29.292  1.00  0.00    -0.248 NA
ATOM     37  C   UNL A   1      37.695  29.806  28.163  1.00  0.00     0.031 C 
ATOM     38  C   UNL A   1      41.253  30.084  30.746  1.00  0.00     0.029 A 
ATOM     39  N   UNL A   1      42.348  28.514  29.536  1.00  0.00    -0.354 N 
ATOM     40  C   UNL A   1      37.889  31.825  29.266  1.00  0.00     0.074 A 
ATOM     41  C   UNL A   1      37.078  30.958  28.444  1.00  0.00     0.031 C 
ATOM     42  C   UNL A   1      42.554  30.178  31.058  1.00  0.00     0.029 A 
ATOM     43  C   UNL A   1      43.288  29.437  30.047  1.00  0.00     0.049 A 
ATOM     44  H   UNL A   1      42.534  27.618  29.174  1.00  0.00     0.167 HD
ATOM     45  C   UNL A   1      37.707  32.935  30.042  1.00  0.00     0.037 A 
ATOM     46  C   UNL A   1      44.240  29.981  29.233  1.00  0.00     0.037 A 
ATOM     47  C   UNL A   1      38.992  33.407  30.591  1.00  0.00     0.049 A 
ATOM     48  C   UNL A   1      44.112  31.480  29.081  1.00  0.00     0.074 A 
ATOM     49  C   UNL A   1      39.598  33.380  31.838  1.00  0.00     0.029 A 
ATOM     50  N   UNL A   1      39.986  33.804  29.705  1.00  0.00    -0.354 N 
ATOM     51  N   UNL A   1      43.123  32.179  29.566  1.00  0.00    -0.248 NA
ATOM     52  C   UNL A   1      45.039  32.295  28.303  1.00  0.00     0.031 C 
ATOM     53  C   UNL A   1      40.968  33.756  31.680  1.00  0.00     0.029 A 
ATOM     54  C   UNL A   1      41.194  34.026  30.342  1.00  0.00     0.049 A 
ATOM     55  H   UNL A   1      39.847  33.915  28.736  1.00  0.00     0.167 HD
ATOM     56  C   UNL A   1      43.251  33.480  29.190  1.00  0.00     0.074 A 
ATOM     57  C   UNL A   1      44.458  33.505  28.382  1.00  0.00     0.031 C 
ATOM     58  C   UNL A   1      42.346  34.436  29.551  1.00  0.00     0.037 A 
BRANCH  45  59
ATOM     59  C   UNL A   1      36.359  33.513  30.471  1.00  0.00     0.064 A 
ATOM     60  C   UNL A   1      35.479  34.059  29.508  1.00  0.00     0.173 A 
ATOM     61  C   UNL A   1      35.893  33.641  31.797  1.00  0.00     0.173 A 
ATOM     62  F   UNL A   1      35.736  33.976  28.196  1.00  0.00    -0.203 F 
ATOM     63  C   UNL A   1      34.293  34.726  29.850  1.00  0.00     0.198 A 
ATOM     64  C   UNL A   1      34.713  34.310  32.140  1.00  0.00     0.198 A 
ATOM     65  F   UNL A   1      36.531  33.117  32.840  1.00  0.00    -0.203 F 
ATOM     66  F   UNL A   1      33.520  35.245  28.885  1.00  0.00    -0.200 F 
ATOM     67  C   UNL A   1      33.917  34.865  31.168  1.00  0.00     0.200 A 
ATOM     68  F   UNL A   1      34.365  34.412  33.432  1.00  0.00    -0.200 F 
ATOM     69  F   UNL A   1      32.794  35.515  31.500  1.00  0.00    -0.200 F 
ENDBRANCH  45  59
BRANCH  46  70
ATOM     70  C   UNL A   1      44.686  29.037  28.174  1.00  0.00     0.064 A 
ATOM     71  C   UNL A   1      45.508  27.960  28.557  1.00  0.00     0.173 A 
ATOM     72  C   UNL A   1      43.972  28.914  26.978  1.00  0.00     0.173 A 
ATOM     73  F   UNL A   1      46.245  28.045  29.675  1.00  0.00    -0.203 F 
ATOM     74  C   UNL A   1      45.472  26.747  27.875  1.00  0.00     0.198 A 
ATOM     75  C   UNL A   1      43.966  27.708  26.276  1.00  0.00     0.198 A 
ATOM     76  F   UNL A   1      43.173  29.907  26.562  1.00  0.00    -0.203 F 
ATOM     77  F   UNL A   1      46.137  25.687  28.359  1.00  0.00    -0.200 F 
ATOM     78  C   UNL A   1      44.674  26.613  26.752  1.00  0.00     0.200 A 
ATOM     79  F   UNL A   1      43.184  27.573  25.196  1.00  0.00    -0.200 F 
ATOM     80  F   UNL A   1      44.549  25.420  26.154  1.00  0.00    -0.200 F 
ENDBRANCH  46  70
BRANCH  58  81
ATOM     81  C   UNL A   1      42.500  35.862  29.132  1.00  0.00     0.064 A 
ATOM     82  C   UNL A   1      41.900  36.372  27.970  1.00  0.00     0.173 A 
ATOM     83  C   UNL A   1      43.313  36.750  29.862  1.00  0.00     0.173 A 
ATOM     84  F   UNL A   1      41.174  35.578  27.168  1.00  0.00    -0.203 F 
ATOM     85  C   UNL A   1      42.036  37.711  27.608  1.00  0.00     0.198 A 
ATOM     86  C   UNL A   1      43.492  38.074  29.468  1.00  0.00     0.198 A 
ATOM     87  F   UNL A   1      43.926  36.367  30.991  1.00  0.00    -0.203 F 
ATOM     88  F   UNL A   1      41.382  38.179  26.536  1.00  0.00    -0.200 F 
ATOM     89  C   UNL A   1      42.835  38.560  28.355  1.00  0.00     0.200 A 
ATOM     90  F   UNL A   1      44.289  38.877  30.184  1.00  0.00    -0.200 F 
ATOM     91  F   UNL A   1      42.965  39.846  28.006  1.00  0.00    -0.200 F 
ENDBRANCH  58  81
ENDBRANCH  32  33
ENDBRANCH  24  27
ENDBRANCH  22  23
ENDBRANCH   1  22
TORSDOF 12
ENDMDL
MODEL 3
REMARK VINA RESULT:     -13.4      1.382      1.798
REMARK SMILES Cc1cccc([C@H]2[C@@H](C(=O)NCCCCNC(=O)c3ccc(-c4c5nc(c(-c6c(F)c(F)c(F)c(F)c6F)c6ccc([nH]6)c(-c6c(F)c(F)c(F)c(F)c6F)c6nc(c(-c7c(F)c(F)c(F)c(F)c7F)c7ccc4[nH]7)C=C6)C=C5)cc3)CC(=O)N2C)c1
REMARK SMILES IDX 14 1 13 2 12 3 11 4 9 5 10 6 8 8 7 9 85 10 82 11 83 12 86 13
REMARK SMILES IDX 84 14 6 15 1 16 2 17 3 18 87 19 4 20 5 21 15 22 16 23 17 24
REMARK SMILES IDX 18 26 19 27 20 28 81 29 21 30 80 31 22 32 23 33 24 34 74 35
REMARK SMILES IDX 25 36 79 37 73 38 75 39 26 40 78 41 72 42 71 43 27 45 59 46
REMARK SMILES IDX 39 47 58 48 40 49 43 50 57 51 76 52 41 53 42 54 56 56 77 57
REMARK SMILES IDX 44 58 28 59 29 60 37 61 30 62 31 63 35 64 38 65 32 66 33 67
REMARK SMILES IDX 36 68 34 69 60 70 61 71 69 72 62 73 63 74 67 75 70 76 64 77
REMARK SMILES IDX 65 78 68 79 66 80 45 81 46 82 54 83 47 84 48 85 52 86 55 87
REMARK SMILES IDX 49 88 50 89 53 90 51 91
REMARK H PARENT 11 7 16 25 75 44 43 55
REMARK Flexibility Score: inf
ROOT
ATOM      1  C   UNL A   1      32.867  30.725  26.792  1.00  0.00     0.023 C 
ENDROOT
BRANCH   1   2
ATOM      2  C   UNL A   1      31.741  29.772  27.192  1.00  0.00     0.023 C 
BRANCH   2   3
ATOM      3  C   UNL A   1      32.186  28.445  27.814  1.00  0.00     0.116 C 
BRANCH   3   4
ATOM      4  N   UNL A   1      31.442  27.292  27.328  1.00  0.00    -0.356 N 
ATOM      5  C   UNL A   1      31.707  26.377  26.359  1.00  0.00     0.226 C 
ATOM      6  O   UNL A   1      30.984  25.373  26.339  1.00  0.00    -0.275 OA
ATOM      7  H   UNL A   1      30.585  27.148  27.789  1.00  0.00     0.163 HD
BRANCH   5   8
ATOM      8  C   UNL A   1      32.822  26.502  25.331  1.00  0.00     0.115 C 
ATOM      9  C   UNL A   1      32.658  27.528  24.197  1.00  0.00     0.128 C 
ATOM     10  N   UNL A   1      33.322  26.895  23.067  1.00  0.00    -0.338 N 
ATOM     11  C   UNL A   1      33.258  25.191  24.686  1.00  0.00     0.116 C 
ATOM     12  C   UNL A   1      33.580  25.550  23.261  1.00  0.00     0.223 C 
ATOM     13  C   UNL A   1      33.700  27.618  21.867  1.00  0.00     0.147 C 
ATOM     14  O   UNL A   1      34.018  24.772  22.438  1.00  0.00    -0.275 OA
BRANCH   9  15
ATOM     15  C   UNL A   1      31.237  27.955  23.895  1.00  0.00    -0.024 A 
ATOM     16  C   UNL A   1      29.165  31.127  23.569  1.00  0.00     0.044 C 
ATOM     17  C   UNL A   1      29.558  29.684  23.544  1.00  0.00    -0.051 A 
ATOM     18  C   UNL A   1      28.663  28.693  23.144  1.00  0.00     0.003 A 
ATOM     19  C   UNL A   1      30.849  29.305  23.892  1.00  0.00     0.009 A 
ATOM     20  C   UNL A   1      29.010  27.348  23.163  1.00  0.00     0.001 A 
ATOM     21  C   UNL A   1      30.286  26.977  23.560  1.00  0.00     0.006 A 
ENDBRANCH   9  15
ENDBRANCH   5   8
ENDBRANCH   3   4
ENDBRANCH   2   3
ENDBRANCH   1   2
BRANCH   1  22
ATOM     22  C   UNL A   1      34.261  30.311  27.254  1.00  0.00     0.116 C 
BRANCH  22  23
ATOM     23  N   UNL A   1      35.069  31.398  27.790  1.00  0.00    -0.352 N 
ATOM     24  C   UNL A   1      36.301  31.368  28.417  1.00  0.00     0.251 C 
ATOM     25  H   UNL A   1      34.676  32.295  27.689  1.00  0.00     0.163 HD
ATOM     26  O   UNL A   1      36.763  32.406  28.884  1.00  0.00    -0.269 OA
BRANCH  24  27
ATOM     27  C   UNL A   1      37.135  30.137  28.412  1.00  0.00     0.039 A 
ATOM     28  C   UNL A   1      37.141  29.340  29.569  1.00  0.00     0.014 A 
ATOM     29  C   UNL A   1      38.017  29.844  27.378  1.00  0.00     0.014 A 
ATOM     30  C   UNL A   1      38.179  28.435  29.784  1.00  0.00     0.010 A 
ATOM     31  C   UNL A   1      39.097  29.023  27.624  1.00  0.00     0.010 A 
ATOM     32  C   UNL A   1      39.216  28.380  28.859  1.00  0.00    -0.014 A 
BRANCH  32  33
ATOM     33  C   UNL A   1      40.531  27.819  29.135  1.00  0.00     0.031 A 
ATOM     34  C   UNL A   1      40.924  26.498  28.618  1.00  0.00     0.074 A 
ATOM     35  C   UNL A   1      41.457  28.629  29.687  1.00  0.00     0.049 A 
ATOM     36  N   UNL A   1      42.033  25.907  28.908  1.00  0.00    -0.248 NA
ATOM     37  C   UNL A   1      40.047  25.695  27.782  1.00  0.00     0.031 C 
ATOM     38  C   UNL A   1      42.909  28.487  29.632  1.00  0.00     0.029 A 
ATOM     39  N   UNL A   1      41.239  29.701  30.562  1.00  0.00    -0.354 N 
ATOM     40  C   UNL A   1      42.145  24.792  28.115  1.00  0.00     0.074 A 
ATOM     41  C   UNL A   1      40.834  24.644  27.530  1.00  0.00     0.031 C 
ATOM     42  C   UNL A   1      43.456  29.244  30.595  1.00  0.00     0.029 A 
ATOM     43  C   UNL A   1      42.365  29.745  31.413  1.00  0.00     0.049 A 
ATOM     44  H   UNL A   1      40.459  30.302  30.581  1.00  0.00     0.167 HD
ATOM     45  C   UNL A   1      43.377  24.214  27.982  1.00  0.00     0.037 A 
ATOM     46  C   UNL A   1      42.235  29.506  32.752  1.00  0.00     0.037 A 
ATOM     47  C   UNL A   1      44.332  24.787  28.949  1.00  0.00     0.049 A 
ATOM     48  C   UNL A   1      42.982  28.277  33.216  1.00  0.00     0.074 A 
ATOM     49  C   UNL A   1      45.405  25.662  28.872  1.00  0.00     0.029 A 
ATOM     50  N   UNL A   1      44.066  24.648  30.306  1.00  0.00    -0.354 N 
ATOM     51  N   UNL A   1      43.589  27.447  32.414  1.00  0.00    -0.248 NA
ATOM     52  C   UNL A   1      43.036  27.843  34.608  1.00  0.00     0.031 C 
ATOM     53  C   UNL A   1      45.767  26.048  30.200  1.00  0.00     0.029 A 
ATOM     54  C   UNL A   1      44.925  25.400  31.087  1.00  0.00     0.049 A 
ATOM     55  H   UNL A   1      43.348  24.080  30.670  1.00  0.00     0.167 HD
ATOM     56  C   UNL A   1      44.093  26.403  33.125  1.00  0.00     0.074 A 
ATOM     57  C   UNL A   1      43.707  26.683  34.497  1.00  0.00     0.031 C 
ATOM     58  C   UNL A   1      44.770  25.377  32.535  1.00  0.00     0.037 A 
BRANCH  45  59
ATOM     59  C   UNL A   1      43.800  23.257  26.868  1.00  0.00     0.064 A 
ATOM     60  C   UNL A   1      43.187  21.988  26.749  1.00  0.00     0.173 A 
ATOM     61  C   UNL A   1      44.837  23.471  25.936  1.00  0.00     0.173 A 
ATOM     62  F   UNL A   1      42.146  21.637  27.516  1.00  0.00    -0.203 F 
ATOM     63  C   UNL A   1      43.621  21.014  25.837  1.00  0.00     0.198 A 
ATOM     64  C   UNL A   1      45.275  22.499  25.030  1.00  0.00     0.198 A 
ATOM     65  F   UNL A   1      45.481  24.631  25.826  1.00  0.00    -0.203 F 
ATOM     66  F   UNL A   1      43.012  19.820  25.800  1.00  0.00    -0.200 F 
ATOM     67  C   UNL A   1      44.676  21.264  24.988  1.00  0.00     0.200 A 
ATOM     68  F   UNL A   1      46.293  22.780  24.203  1.00  0.00    -0.200 F 
ATOM     69  F   UNL A   1      45.105  20.331  24.128  1.00  0.00    -0.200 F 
ENDBRANCH  45  59
BRANCH  46  70
ATOM     70  C   UNL A   1      40.932  29.983  33.286  1.00  0.00     0.064 A 
ATOM     71  C   UNL A   1      40.747  31.371  33.430  1.00  0.00     0.173 A 
ATOM     72  C   UNL A   1      39.788  29.182  33.201  1.00  0.00     0.173 A 
ATOM     73  F   UNL A   1      41.811  32.178  33.557  1.00  0.00    -0.203 F 
ATOM     74  C   UNL A   1      39.486  31.948  33.305  1.00  0.00     0.198 A 
ATOM     75  C   UNL A   1      38.521  29.762  33.113  1.00  0.00     0.198 A 
ATOM     76  F   UNL A   1      39.901  27.854  33.063  1.00  0.00    -0.203 F 
ATOM     77  F   UNL A   1      39.362  33.283  33.279  1.00  0.00    -0.200 F 
ATOM     78  C   UNL A   1      38.377  31.143  33.114  1.00  0.00     0.200 A 
ATOM     79  F   UNL A   1      37.448  28.984  32.914  1.00  0.00    -0.200 F 
ATOM     80  F   UNL A   1      37.178  31.694  32.884  1.00  0.00    -0.200 F 
ENDBRANCH  46  70
BRANCH  58  81
ATOM     81  C   UNL A   1      45.321  24.237  33.330  1.00  0.00     0.064 A 
ATOM     82  C   UNL A   1      44.548  23.113  33.664  1.00  0.00     0.173 A 
ATOM     83  C   UNL A   1      46.634  24.270  33.834  1.00  0.00     0.173 A 
ATOM     84  F   UNL A   1      43.260  23.032  33.294  1.00  0.00    -0.203 F 
ATOM     85  C   UNL A   1      45.086  22.049  34.386  1.00  0.00     0.198 A 
ATOM     86  C   UNL A   1      47.151  23.230  34.602  1.00  0.00     0.198 A 
ATOM     87  F   UNL A   1      47.458  25.294  33.568  1.00  0.00    -0.203 F 
ATOM     88  F   UNL A   1      44.341  20.959  34.616  1.00  0.00    -0.200 F 
ATOM     89  C   UNL A   1      46.385  22.111  34.858  1.00  0.00     0.200 A 
ATOM     90  F   UNL A   1      48.401  23.315  35.076  1.00  0.00    -0.200 F 
ATOM     91  F   UNL A   1      46.901  21.088  35.552  1.00  0.00    -0.200 F 
ENDBRANCH  58  81
ENDBRANCH  32  33
ENDBRANCH  24  27
ENDBRANCH  22  23
ENDBRANCH   1  22
TORSDOF 12
ENDMDL
