MODEL 1
REMARK VINA RESULT:     -11.6      0.000      0.000
REMARK SMILES CCc1ccc(C(=O)NC[C@@H](CC(C)C)C(=O)NCCCCNC(=O)c2ccc(-c3c4nc(c(-c5c(F)c(F)c(F)c(F)c5F)c5ccc([nH]5)c(-c5c(F)c(F)c(F)c(F)c5F)c5nc(c(-c6c(F)c(F)c(F)c(F)c6F)c6ccc3[nH]6)C=C5)C=C4)cc2)s1
REMARK SMILES IDX 19 1 18 2 16 3 17 4 11 6 10 7 9 8 7 9 8 10 6 12 3 13 4 14
REMARK SMILES IDX 89 15 5 16 2 17 1 18 12 19 13 20 14 21 15 22 20 23 21 24
REMARK SMILES IDX 22 25 23 26 24 27 25 29 26 30 27 31 88 32 28 33 87 34 29 35
REMARK SMILES IDX 30 36 31 37 81 38 32 39 86 40 80 41 82 42 33 43 85 44 79 45
REMARK SMILES IDX 78 46 34 48 66 49 46 50 65 51 47 52 50 53 64 54 83 55 48 56
REMARK SMILES IDX 49 57 63 59 84 60 51 61 35 62 36 63 44 64 37 65 38 66 42 67
REMARK SMILES IDX 45 68 39 69 40 70 43 71 41 72 67 73 68 74 76 75 69 76 70 77
REMARK SMILES IDX 74 78 77 79 71 80 72 81 75 82 73 83 52 84 53 85 61 86 54 87
REMARK SMILES IDX 55 88 59 89 62 90 56 91 57 92 60 93 58 94
REMARK H PARENT 18 5 9 11 23 28 82 47 50 58
REMARK Flexibility Score: inf
ROOT
ATOM      1  C   UNL A   1      32.800  30.093  26.770  1.00  0.00     0.116 C 
ENDROOT
BRANCH   1   2
ATOM      2  N   UNL A   1      33.590  29.651  25.638  1.00  0.00    -0.356 N 
ATOM      3  C   UNL A   1      33.632  28.459  24.986  1.00  0.00     0.224 C 
ATOM      4  O   UNL A   1      34.272  28.431  23.930  1.00  0.00    -0.275 OA
ATOM      5  H   UNL A   1      34.205  30.331  25.280  1.00  0.00     0.163 HD
BRANCH   3   6
ATOM      6  C   UNL A   1      32.926  27.201  25.480  1.00  0.00     0.098 C 
BRANCH   6   7
ATOM      7  C   UNL A   1      31.473  27.071  25.000  1.00  0.00     0.129 C 
BRANCH   7   8
ATOM      8  N   UNL A   1      31.356  26.804  23.579  1.00  0.00    -0.351 N 
ATOM      9  C   UNL A   1      30.571  27.374  22.602  1.00  0.00     0.261 C 
ATOM     10  O   UNL A   1      30.913  27.090  21.450  1.00  0.00    -0.268 OA
ATOM     11  H   UNL A   1      31.945  26.085  23.255  1.00  0.00     0.163 HD
BRANCH   9  12
ATOM     12  C   UNL A   1      29.427  28.229  22.912  1.00  0.00     0.092 A 
ATOM     13  C   UNL A   1      28.054  30.305  23.209  1.00  0.00     0.005 A 
ATOM     14  C   UNL A   1      27.306  29.154  23.325  1.00  0.00     0.016 A 
ATOM     15  S   UNL A   1      29.708  29.932  22.967  1.00  0.00    -0.135 S 
ATOM     16  C   UNL A   1      28.085  27.971  23.126  1.00  0.00     0.026 A 
BRANCH  13  17
ATOM     17  C   UNL A   1      27.638  31.752  23.230  1.00  0.00     0.043 C 
ATOM     18  C   UNL A   1      28.780  32.735  23.022  1.00  0.00     0.010 C 
ENDBRANCH  13  17
ENDBRANCH   9  12
ENDBRANCH   7   8
ENDBRANCH   6   7
BRANCH   6  19
ATOM     19  C   UNL A   1      33.769  25.908  25.338  1.00  0.00     0.018 C 
BRANCH  19  20
ATOM     20  C   UNL A   1      33.287  24.649  26.091  1.00  0.00    -0.017 C 
ATOM     21  C   UNL A   1      32.305  23.819  25.254  1.00  0.00     0.007 C 
ATOM     22  C   UNL A   1      34.464  23.750  26.480  1.00  0.00     0.007 C 
ENDBRANCH  19  20
ENDBRANCH   6  19
ENDBRANCH   3   6
ENDBRANCH   1   2
BRANCH   1  23
ATOM     23  C   UNL A   1      31.474  30.715  26.362  1.00  0.00     0.023 C 
BRANCH  23  24
ATOM     24  C   UNL A   1      31.398  32.225  26.560  1.00  0.00     0.023 C 
BRANCH  24  25
ATOM     25  C   UNL A   1      32.635  32.864  27.179  1.00  0.00     0.116 C 
BRANCH  25  26
ATOM     26  N   UNL A   1      32.398  34.210  27.684  1.00  0.00    -0.352 N 
ATOM     27  C   UNL A   1      33.032  34.884  28.698  1.00  0.00     0.251 C 
ATOM     28  H   UNL A   1      31.678  34.708  27.233  1.00  0.00     0.163 HD
ATOM     29  O   UNL A   1      32.617  35.976  29.072  1.00  0.00    -0.269 OA
BRANCH  27  30
ATOM     30  C   UNL A   1      34.201  34.271  29.356  1.00  0.00     0.039 A 
ATOM     31  C   UNL A   1      33.995  33.393  30.422  1.00  0.00     0.014 A 
ATOM     32  C   UNL A   1      35.495  34.541  28.902  1.00  0.00     0.014 A 
ATOM     33  C   UNL A   1      35.087  32.743  30.998  1.00  0.00     0.010 A 
ATOM     34  C   UNL A   1      36.567  33.817  29.407  1.00  0.00     0.010 A 
ATOM     35  C   UNL A   1      36.378  32.930  30.477  1.00  0.00    -0.014 A 
BRANCH  35  36
ATOM     36  C   UNL A   1      37.550  32.242  31.072  1.00  0.00     0.031 A 
ATOM     37  C   UNL A   1      38.029  32.633  32.443  1.00  0.00     0.074 A 
ATOM     38  C   UNL A   1      38.215  31.309  30.365  1.00  0.00     0.049 A 
ATOM     39  N   UNL A   1      39.047  32.176  33.128  1.00  0.00    -0.248 NA
ATOM     40  C   UNL A   1      37.289  33.710  33.118  1.00  0.00     0.031 C 
ATOM     41  C   UNL A   1      37.894  30.895  28.998  1.00  0.00     0.029 A 
ATOM     42  N   UNL A   1      39.305  30.546  30.697  1.00  0.00    -0.354 N 
ATOM     43  C   UNL A   1      39.073  32.919  34.302  1.00  0.00     0.074 A 
ATOM     44  C   UNL A   1      38.024  33.909  34.199  1.00  0.00     0.031 C 
ATOM     45  C   UNL A   1      38.752  29.935  28.618  1.00  0.00     0.029 A 
ATOM     46  C   UNL A   1      39.697  29.685  29.703  1.00  0.00     0.049 A 
ATOM     47  H   UNL A   1      39.763  30.611  31.567  1.00  0.00     0.167 HD
ATOM     48  C   UNL A   1      39.873  32.768  35.384  1.00  0.00     0.037 A 
ATOM     49  C   UNL A   1      40.703  28.790  29.674  1.00  0.00     0.037 A 
ATOM     50  C   UNL A   1      40.902  31.769  35.489  1.00  0.00     0.049 A 
ATOM     51  C   UNL A   1      41.562  28.614  30.897  1.00  0.00     0.074 A 
ATOM     52  C   UNL A   1      41.736  31.493  36.557  1.00  0.00     0.029 A 
ATOM     53  N   UNL A   1      41.240  30.878  34.478  1.00  0.00    -0.354 N 
ATOM     54  N   UNL A   1      41.529  29.266  32.034  1.00  0.00    -0.248 NA
ATOM     55  C   UNL A   1      42.586  27.562  30.839  1.00  0.00     0.031 C 
ATOM     56  C   UNL A   1      42.610  30.467  36.177  1.00  0.00     0.029 A 
ATOM     57  C   UNL A   1      42.279  30.062  34.893  1.00  0.00     0.049 A 
ATOM     58  H   UNL A   1      40.805  30.834  33.597  1.00  0.00     0.167 HD
ATOM     59  C   UNL A   1      42.499  28.685  32.838  1.00  0.00     0.074 A 
ATOM     60  C   UNL A   1      43.098  27.618  32.060  1.00  0.00     0.031 C 
ATOM     61  C   UNL A   1      42.861  29.002  34.107  1.00  0.00     0.037 A 
BRANCH  48  62
ATOM     62  C   UNL A   1      39.653  33.713  36.533  1.00  0.00     0.064 A 
ATOM     63  C   UNL A   1      40.289  34.963  36.593  1.00  0.00     0.173 A 
ATOM     64  C   UNL A   1      38.813  33.357  37.599  1.00  0.00     0.173 A 
ATOM     65  F   UNL A   1      41.115  35.350  35.608  1.00  0.00    -0.203 F 
ATOM     66  C   UNL A   1      40.137  35.795  37.699  1.00  0.00     0.198 A 
ATOM     67  C   UNL A   1      38.632  34.209  38.685  1.00  0.00     0.198 A 
ATOM     68  F   UNL A   1      38.174  32.176  37.593  1.00  0.00    -0.203 F 
ATOM     69  F   UNL A   1      40.820  36.947  37.768  1.00  0.00    -0.200 F 
ATOM     70  C   UNL A   1      39.306  35.420  38.742  1.00  0.00     0.200 A 
ATOM     71  F   UNL A   1      37.817  33.850  39.688  1.00  0.00    -0.200 F 
ATOM     72  F   UNL A   1      39.164  36.218  39.809  1.00  0.00    -0.200 F 
ENDBRANCH  48  62
BRANCH  49  73
ATOM     73  C   UNL A   1      40.910  27.960  28.460  1.00  0.00     0.064 A 
ATOM     74  C   UNL A   1      40.268  26.723  28.312  1.00  0.00     0.173 A 
ATOM     75  C   UNL A   1      41.728  28.401  27.409  1.00  0.00     0.173 A 
ATOM     76  F   UNL A   1      39.488  26.253  29.297  1.00  0.00    -0.203 F 
ATOM     77  C   UNL A   1      40.447  25.951  27.167  1.00  0.00     0.198 A 
ATOM     78  C   UNL A   1      41.886  27.640  26.253  1.00  0.00     0.198 A 
ATOM     79  F   UNL A   1      42.357  29.582  27.497  1.00  0.00    -0.203 F 
ATOM     80  F   UNL A   1      39.849  24.756  27.068  1.00  0.00    -0.200 F 
ATOM     81  C   UNL A   1      41.250  26.413  26.135  1.00  0.00     0.200 A 
ATOM     82  F   UNL A   1      42.647  28.098  25.250  1.00  0.00    -0.200 F 
ATOM     83  F   UNL A   1      41.411  25.675  25.028  1.00  0.00    -0.200 F 
ENDBRANCH  49  73
BRANCH  61  84
ATOM     84  C   UNL A   1      43.921  28.155  34.751  1.00  0.00     0.064 A 
ATOM     85  C   UNL A   1      45.277  28.518  34.729  1.00  0.00     0.173 A 
ATOM     86  C   UNL A   1      43.570  26.975  35.424  1.00  0.00     0.173 A 
ATOM     87  F   UNL A   1      45.667  29.631  34.089  1.00  0.00    -0.203 F 
ATOM     88  C   UNL A   1      46.243  27.712  35.326  1.00  0.00     0.198 A 
ATOM     89  C   UNL A   1      44.534  26.190  36.049  1.00  0.00     0.198 A 
ATOM     90  F   UNL A   1      42.287  26.586  35.484  1.00  0.00    -0.203 F 
ATOM     91  F   UNL A   1      47.538  28.048  35.241  1.00  0.00    -0.200 F 
ATOM     92  C   UNL A   1      45.872  26.553  35.989  1.00  0.00     0.200 A 
ATOM     93  F   UNL A   1      44.171  25.079  36.704  1.00  0.00    -0.200 F 
ATOM     94  F   UNL A   1      46.803  25.780  36.565  1.00  0.00    -0.200 F 
ENDBRANCH  61  84
ENDBRANCH  35  36
ENDBRANCH  27  30
ENDBRANCH  25  26
ENDBRANCH  24  25
ENDBRANCH  23  24
ENDBRANCH   1  23
TORSDOF 17
ENDMDL
MODEL 2
REMARK VINA RESULT:     -11.5      0.700      7.518
REMARK SMILES CCc1ccc(C(=O)NC[C@@H](CC(C)C)C(=O)NCCCCNC(=O)c2ccc(-c3c4nc(c(-c5c(F)c(F)c(F)c(F)c5F)c5ccc([nH]5)c(-c5c(F)c(F)c(F)c(F)c5F)c5nc(c(-c6c(F)c(F)c(F)c(F)c6F)c6ccc3[nH]6)C=C5)C=C4)cc2)s1
REMARK SMILES IDX 19 1 18 2 16 3 17 4 11 6 10 7 9 8 7 9 8 10 6 12 3 13 4 14
REMARK SMILES IDX 89 15 5 16 2 17 1 18 12 19 13 20 14 21 15 22 20 23 21 24
REMARK SMILES IDX 22 25 23 26 24 27 25 29 26 30 27 31 88 32 28 33 87 34 29 35
REMARK SMILES IDX 30 36 31 37 81 38 32 39 86 40 80 41 82 42 33 43 85 44 79 45
REMARK SMILES IDX 78 46 34 48 66 49 46 50 65 51 47 52 50 53 64 54 83 55 48 56
REMARK SMILES IDX 49 57 63 59 84 60 51 61 35 62 36 63 44 64 37 65 38 66 42 67
REMARK SMILES IDX 45 68 39 69 40 70 43 71 41 72 67 73 68 74 76 75 69 76 70 77
REMARK SMILES IDX 74 78 77 79 71 80 72 81 75 82 73 83 52 84 53 85 61 86 54 87
REMARK SMILES IDX 55 88 59 89 62 90 56 91 57 92 60 93 58 94
REMARK H PARENT 18 5 9 11 23 28 82 47 50 58
REMARK Flexibility Score: inf
ROOT
ATOM      1  C   UNL A   1      33.062  30.191  26.422  1.00  0.00     0.116 C 
ENDROOT
BRANCH   1   2
ATOM      2  N   UNL A   1      33.644  29.593  25.236  1.00  0.00    -0.356 N 
ATOM      3  C   UNL A   1      33.591  28.323  24.756  1.00  0.00     0.224 C 
ATOM      4  O   UNL A   1      34.030  28.147  23.615  1.00  0.00    -0.275 OA
ATOM      5  H   UNL A   1      34.170  30.215  24.684  1.00  0.00     0.163 HD
BRANCH   3   6
ATOM      6  C   UNL A   1      33.010  27.148  25.537  1.00  0.00     0.098 C 
BRANCH   6   7
ATOM      7  C   UNL A   1      31.608  26.725  25.077  1.00  0.00     0.129 C 
BRANCH   7   8
ATOM      8  N   UNL A   1      31.530  26.427  23.659  1.00  0.00    -0.351 N 
ATOM      9  C   UNL A   1      30.899  27.073  22.621  1.00  0.00     0.261 C 
ATOM     10  O   UNL A   1      31.256  26.698  21.500  1.00  0.00    -0.268 OA
ATOM     11  H   UNL A   1      32.018  25.615  23.392  1.00  0.00     0.163 HD
BRANCH   9  12
ATOM     12  C   UNL A   1      29.885  28.104  22.836  1.00  0.00     0.092 A 
ATOM     13  C   UNL A   1      28.819  30.371  22.937  1.00  0.00     0.005 A 
ATOM     14  C   UNL A   1      27.914  29.351  23.129  1.00  0.00     0.016 A 
ATOM     15  S   UNL A   1      30.406  29.749  22.760  1.00  0.00    -0.135 S 
ATOM     16  C   UNL A   1      28.519  28.058  23.043  1.00  0.00     0.026 A 
BRANCH  13  17
ATOM     17  C   UNL A   1      28.613  31.859  22.832  1.00  0.00     0.043 C 
ATOM     18  C   UNL A   1      28.114  32.327  21.474  1.00  0.00     0.010 C 
ENDBRANCH  13  17
ENDBRANCH   9  12
ENDBRANCH   7   8
ENDBRANCH   6   7
BRANCH   6  19
ATOM     19  C   UNL A   1      34.003  25.974  25.740  1.00  0.00     0.018 C 
BRANCH  19  20
ATOM     20  C   UNL A   1      33.585  24.582  25.219  1.00  0.00    -0.017 C 
ATOM     21  C   UNL A   1      34.339  24.197  23.939  1.00  0.00     0.007 C 
ATOM     22  C   UNL A   1      33.840  23.498  26.269  1.00  0.00     0.007 C 
ENDBRANCH  19  20
ENDBRANCH   6  19
ENDBRANCH   3   6
ENDBRANCH   1   2
BRANCH   1  23
ATOM     23  C   UNL A   1      31.651  30.710  26.194  1.00  0.00     0.023 C 
BRANCH  23  24
ATOM     24  C   UNL A   1      31.413  32.130  26.696  1.00  0.00     0.023 C 
BRANCH  24  25
ATOM     25  C   UNL A   1      32.656  32.867  27.179  1.00  0.00     0.116 C 
BRANCH  25  26
ATOM     26  N   UNL A   1      32.387  34.234  27.604  1.00  0.00    -0.352 N 
ATOM     27  C   UNL A   1      32.976  34.968  28.604  1.00  0.00     0.251 C 
ATOM     28  H   UNL A   1      31.680  34.700  27.102  1.00  0.00     0.163 HD
ATOM     29  O   UNL A   1      32.537  36.073  28.905  1.00  0.00    -0.269 OA
BRANCH  27  30
ATOM     30  C   UNL A   1      34.126  34.403  29.335  1.00  0.00     0.039 A 
ATOM     31  C   UNL A   1      33.892  33.662  30.496  1.00  0.00     0.014 A 
ATOM     32  C   UNL A   1      35.428  34.583  28.861  1.00  0.00     0.014 A 
ATOM     33  C   UNL A   1      34.965  33.054  31.149  1.00  0.00     0.010 A 
ATOM     34  C   UNL A   1      36.478  33.894  29.453  1.00  0.00     0.010 A 
ATOM     35  C   UNL A   1      36.262  33.143  30.617  1.00  0.00    -0.014 A 
BRANCH  35  36
ATOM     36  C   UNL A   1      37.412  32.497  31.295  1.00  0.00     0.031 A 
ATOM     37  C   UNL A   1      38.136  31.363  30.622  1.00  0.00     0.074 A 
ATOM     38  C   UNL A   1      37.773  32.888  32.532  1.00  0.00     0.049 A 
ATOM     39  N   UNL A   1      39.144  30.648  31.054  1.00  0.00    -0.248 NA
ATOM     40  C   UNL A   1      37.633  30.951  29.302  1.00  0.00     0.031 C 
ATOM     41  C   UNL A   1      37.105  33.925  33.319  1.00  0.00     0.029 A 
ATOM     42  N   UNL A   1      38.787  32.452  33.346  1.00  0.00    -0.354 N 
ATOM     43  C   UNL A   1      39.382  29.700  30.068  1.00  0.00     0.074 A 
ATOM     44  C   UNL A   1      38.364  29.876  29.056  1.00  0.00     0.031 C 
ATOM     45  C   UNL A   1      37.743  34.063  34.493  1.00  0.00     0.029 A 
ATOM     46  C   UNL A   1      38.847  33.109  34.549  1.00  0.00     0.049 A 
ATOM     47  H   UNL A   1      39.414  31.737  33.090  1.00  0.00     0.167 HD
ATOM     48  C   UNL A   1      40.380  28.788  29.991  1.00  0.00     0.037 A 
ATOM     49  C   UNL A   1      39.701  32.960  35.580  1.00  0.00     0.037 A 
ATOM     50  C   UNL A   1      41.403  28.629  30.990  1.00  0.00     0.049 A 
ATOM     51  C   UNL A   1      40.822  31.964  35.464  1.00  0.00     0.074 A 
ATOM     52  C   UNL A   1      42.489  27.774  30.990  1.00  0.00     0.029 A 
ATOM     53  N   UNL A   1      41.460  29.347  32.178  1.00  0.00    -0.354 N 
ATOM     54  N   UNL A   1      41.089  31.126  34.492  1.00  0.00    -0.248 NA
ATOM     55  C   UNL A   1      41.775  31.909  36.581  1.00  0.00     0.031 C 
ATOM     56  C   UNL A   1      43.178  27.940  32.198  1.00  0.00     0.029 A 
ATOM     57  C   UNL A   1      42.555  28.944  32.923  1.00  0.00     0.049 A 
ATOM     58  H   UNL A   1      40.816  30.041  32.449  1.00  0.00     0.167 HD
ATOM     59  C   UNL A   1      42.254  30.468  34.861  1.00  0.00     0.074 A 
ATOM     60  C   UNL A   1      42.649  31.014  36.144  1.00  0.00     0.031 C 
ATOM     61  C   UNL A   1      42.937  29.502  34.197  1.00  0.00     0.037 A 
BRANCH  48  62
ATOM     62  C   UNL A   1      40.401  27.898  28.778  1.00  0.00     0.064 A 
ATOM     63  C   UNL A   1      39.730  26.665  28.756  1.00  0.00     0.173 A 
ATOM     64  C   UNL A   1      41.117  28.272  27.632  1.00  0.00     0.173 A 
ATOM     65  F   UNL A   1      39.041  26.250  29.830  1.00  0.00    -0.203 F 
ATOM     66  C   UNL A   1      39.821  25.817  27.655  1.00  0.00     0.198 A 
ATOM     67  C   UNL A   1      41.173  27.439  26.517  1.00  0.00     0.198 A 
ATOM     68  F   UNL A   1      41.773  29.442  27.593  1.00  0.00    -0.203 F 
ATOM     69  F   UNL A   1      39.239  24.610  27.692  1.00  0.00    -0.200 F 
ATOM     70  C   UNL A   1      40.538  26.206  26.536  1.00  0.00     0.200 A 
ATOM     71  F   UNL A   1      41.857  27.822  25.430  1.00  0.00    -0.200 F 
ATOM     72  F   UNL A   1      40.631  25.387  25.478  1.00  0.00    -0.200 F 
ENDBRANCH  48  62
BRANCH  49  73
ATOM     73  C   UNL A   1      39.552  33.818  36.784  1.00  0.00     0.064 A 
ATOM     74  C   UNL A   1      40.129  35.094  36.838  1.00  0.00     0.173 A 
ATOM     75  C   UNL A   1      38.803  33.392  37.890  1.00  0.00     0.173 A 
ATOM     76  F   UNL A   1      40.867  35.538  35.810  1.00  0.00    -0.203 F 
ATOM     77  C   UNL A   1      39.977  35.906  37.959  1.00  0.00     0.198 A 
ATOM     78  C   UNL A   1      38.629  34.216  39.001  1.00  0.00     0.198 A 
ATOM     79  F   UNL A   1      38.221  32.184  37.884  1.00  0.00    -0.203 F 
ATOM     80  F   UNL A   1      40.569  37.107  37.999  1.00  0.00    -0.200 F 
ATOM     81  C   UNL A   1      39.220  35.470  39.037  1.00  0.00     0.200 A 
ATOM     82  F   UNL A   1      37.881  33.799  40.032  1.00  0.00    -0.200 F 
ATOM     83  F   UNL A   1      39.063  36.257  40.109  1.00  0.00    -0.200 F 
ENDBRANCH  49  73
BRANCH  61  84
ATOM     84  C   UNL A   1      44.209  29.006  34.824  1.00  0.00     0.064 A 
ATOM     85  C   UNL A   1      44.230  27.904  35.692  1.00  0.00     0.173 A 
ATOM     86  C   UNL A   1      45.431  29.630  34.529  1.00  0.00     0.173 A 
ATOM     87  F   UNL A   1      43.087  27.279  36.016  1.00  0.00    -0.203 F 
ATOM     88  C   UNL A   1      45.420  27.468  36.268  1.00  0.00     0.198 A 
ATOM     89  C   UNL A   1      46.624  29.171  35.079  1.00  0.00     0.198 A 
ATOM     90  F   UNL A   1      45.470  30.682  33.697  1.00  0.00    -0.203 F 
ATOM     91  F   UNL A   1      45.407  26.450  37.140  1.00  0.00    -0.200 F 
ATOM     92  C   UNL A   1      46.616  28.097  35.957  1.00  0.00     0.200 A 
ATOM     93  F   UNL A   1      47.780  29.770  34.764  1.00  0.00    -0.200 F 
ATOM     94  F   UNL A   1      47.761  27.675  36.511  1.00  0.00    -0.200 F 
ENDBRANCH  61  84
ENDBRANCH  35  36
ENDBRANCH  27  30
ENDBRANCH  25  26
ENDBRANCH  24  25
ENDBRANCH  23  24
ENDBRANCH   1  23
TORSDOF 17
ENDMDL
MODEL 3
REMARK VINA RESULT:     -11.5      1.406      3.391
REMARK SMILES CCc1ccc(C(=O)NC[C@@H](CC(C)C)C(=O)NCCCCNC(=O)c2ccc(-c3c4nc(c(-c5c(F)c(F)c(F)c(F)c5F)c5ccc([nH]5)c(-c5c(F)c(F)c(F)c(F)c5F)c5nc(c(-c6c(F)c(F)c(F)c(F)c6F)c6ccc3[nH]6)C=C5)C=C4)cc2)s1
REMARK SMILES IDX 19 1 18 2 16 3 17 4 11 6 10 7 9 8 7 9 8 10 6 12 3 13 4 14
REMARK SMILES IDX 89 15 5 16 2 17 1 18 12 19 13 20 14 21 15 22 20 23 21 24
REMARK SMILES IDX 22 25 23 26 24 27 25 29 26 30 27 31 88 32 28 33 87 34 29 35
REMARK SMILES IDX 30 36 31 37 81 38 32 39 86 40 80 41 82 42 33 43 85 44 79 45
REMARK SMILES IDX 78 46 34 48 66 49 46 50 65 51 47 52 50 53 64 54 83 55 48 56
REMARK SMILES IDX 49 57 63 59 84 60 51 61 35 62 36 63 44 64 37 65 38 66 42 67
REMARK SMILES IDX 45 68 39 69 40 70 43 71 41 72 67 73 68 74 76 75 69 76 70 77
REMARK SMILES IDX 74 78 77 79 71 80 72 81 75 82 73 83 52 84 53 85 61 86 54 87
REMARK SMILES IDX 55 88 59 89 62 90 56 91 57 92 60 93 58 94
REMARK H PARENT 18 5 9 11 23 28 82 47 50 58
REMARK Flexibility Score: inf
ROOT
ATOM      1  C   UNL A   1      32.290  30.176  27.025  1.00  0.00     0.116 C 
ENDROOT
BRANCH   1   2
ATOM      2  N   UNL A   1      31.701  28.891  27.343  1.00  0.00    -0.356 N 
ATOM      3  C   UNL A   1      31.597  27.749  26.614  1.00  0.00     0.224 C 
ATOM      4  O   UNL A   1      31.207  26.744  27.217  1.00  0.00    -0.275 OA
ATOM      5  H   UNL A   1      31.307  28.836  28.244  1.00  0.00     0.163 HD
BRANCH   3   6
ATOM      6  C   UNL A   1      31.948  27.658  25.133  1.00  0.00     0.098 C 
BRANCH   6   7
ATOM      7  C   UNL A   1      33.177  26.787  24.836  1.00  0.00     0.129 C 
BRANCH   7   8
ATOM      8  N   UNL A   1      33.467  26.661  23.420  1.00  0.00    -0.351 N 
ATOM      9  C   UNL A   1      33.598  25.558  22.606  1.00  0.00     0.261 C 
ATOM     10  O   UNL A   1      33.584  25.816  21.399  1.00  0.00    -0.268 OA
ATOM     11  H   UNL A   1      33.594  27.520  22.957  1.00  0.00     0.163 HD
BRANCH   9  12
ATOM     12  C   UNL A   1      33.751  24.204  23.136  1.00  0.00     0.092 A 
ATOM     13  C   UNL A   1      33.195  21.832  23.726  1.00  0.00     0.005 A 
ATOM     14  C   UNL A   1      34.522  22.135  23.942  1.00  0.00     0.016 A 
ATOM     15  S   UNL A   1      32.338  23.213  23.185  1.00  0.00    -0.135 S 
ATOM     16  C   UNL A   1      34.843  23.480  23.578  1.00  0.00     0.026 A 
BRANCH  13  17
ATOM     17  C   UNL A   1      32.453  20.529  23.858  1.00  0.00     0.043 C 
ATOM     18  C   UNL A   1      32.753  19.765  25.138  1.00  0.00     0.010 C 
ENDBRANCH  13  17
ENDBRANCH   9  12
ENDBRANCH   7   8
ENDBRANCH   6   7
BRANCH   6  19
ATOM     19  C   UNL A   1      30.730  27.389  24.211  1.00  0.00     0.018 C 
BRANCH  19  20
ATOM     20  C   UNL A   1      30.038  28.607  23.562  1.00  0.00    -0.017 C 
ATOM     21  C   UNL A   1      30.828  29.146  22.362  1.00  0.00     0.007 C 
ATOM     22  C   UNL A   1      28.626  28.255  23.087  1.00  0.00     0.007 C 
ENDBRANCH  19  20
ENDBRANCH   6  19
ENDBRANCH   3   6
ENDBRANCH   1   2
BRANCH   1  23
ATOM     23  C   UNL A   1      31.412  31.024  26.117  1.00  0.00     0.023 C 
BRANCH  23  24
ATOM     24  C   UNL A   1      31.337  32.496  26.508  1.00  0.00     0.023 C 
BRANCH  24  25
ATOM     25  C   UNL A   1      32.532  33.024  27.292  1.00  0.00     0.116 C 
BRANCH  25  26
ATOM     26  N   UNL A   1      32.353  34.390  27.766  1.00  0.00    -0.352 N 
ATOM     27  C   UNL A   1      33.038  35.071  28.742  1.00  0.00     0.251 C 
ATOM     28  H   UNL A   1      31.636  34.899  27.323  1.00  0.00     0.163 HD
ATOM     29  O   UNL A   1      32.669  36.185  29.098  1.00  0.00    -0.269 OA
BRANCH  27  30
ATOM     30  C   UNL A   1      34.207  34.438  29.382  1.00  0.00     0.039 A 
ATOM     31  C   UNL A   1      34.005  33.595  30.477  1.00  0.00     0.014 A 
ATOM     32  C   UNL A   1      35.494  34.655  28.884  1.00  0.00     0.014 A 
ATOM     33  C   UNL A   1      35.093  32.926  31.038  1.00  0.00     0.010 A 
ATOM     34  C   UNL A   1      36.558  33.910  29.378  1.00  0.00     0.010 A 
ATOM     35  C   UNL A   1      36.373  33.058  30.475  1.00  0.00    -0.014 A 
BRANCH  35  36
ATOM     36  C   UNL A   1      37.540  32.349  31.055  1.00  0.00     0.031 A 
ATOM     37  C   UNL A   1      38.047  32.733  32.418  1.00  0.00     0.074 A 
ATOM     38  C   UNL A   1      38.177  31.402  30.341  1.00  0.00     0.049 A 
ATOM     39  N   UNL A   1      39.066  32.257  33.090  1.00  0.00    -0.248 NA
ATOM     40  C   UNL A   1      37.337  33.825  33.102  1.00  0.00     0.031 C 
ATOM     41  C   UNL A   1      37.828  30.992  28.979  1.00  0.00     0.029 A 
ATOM     42  N   UNL A   1      39.257  30.619  30.658  1.00  0.00    -0.354 N 
ATOM     43  C   UNL A   1      39.122  33.001  34.261  1.00  0.00     0.074 A 
ATOM     44  C   UNL A   1      38.091  34.011  34.172  1.00  0.00     0.031 C 
ATOM     45  C   UNL A   1      38.663  30.015  28.589  1.00  0.00     0.029 A 
ATOM     46  C   UNL A   1      39.618  29.749  29.661  1.00  0.00     0.049 A 
ATOM     47  H   UNL A   1      39.729  30.676  31.521  1.00  0.00     0.167 HD
ATOM     48  C   UNL A   1      39.935  32.837  35.332  1.00  0.00     0.037 A 
ATOM     49  C   UNL A   1      40.606  28.835  29.619  1.00  0.00     0.037 A 
ATOM     50  C   UNL A   1      40.947  31.818  35.424  1.00  0.00     0.049 A 
ATOM     51  C   UNL A   1      41.480  28.644  30.829  1.00  0.00     0.074 A 
ATOM     52  C   UNL A   1      41.791  31.529  36.480  1.00  0.00     0.029 A 
ATOM     53  N   UNL A   1      41.253  30.920  34.410  1.00  0.00    -0.354 N 
ATOM     54  N   UNL A   1      41.475  29.298  31.965  1.00  0.00    -0.248 NA
ATOM     55  C   UNL A   1      42.482  27.573  30.758  1.00  0.00     0.031 C 
ATOM     56  C   UNL A   1      42.639  30.486  36.089  1.00  0.00     0.029 A 
ATOM     57  C   UNL A   1      42.282  30.085  34.811  1.00  0.00     0.049 A 
ATOM     58  H   UNL A   1      40.804  30.883  33.535  1.00  0.00     0.167 HD
ATOM     59  C   UNL A   1      42.446  28.700  32.756  1.00  0.00     0.074 A 
ATOM     60  C   UNL A   1      43.012  27.621  31.972  1.00  0.00     0.031 C 
ATOM     61  C   UNL A   1      42.832  29.012  34.019  1.00  0.00     0.037 A 
BRANCH  48  62
ATOM     62  C   UNL A   1      39.750  33.788  36.482  1.00  0.00     0.064 A 
ATOM     63  C   UNL A   1      40.419  35.022  36.535  1.00  0.00     0.173 A 
ATOM     64  C   UNL A   1      38.912  33.454  37.556  1.00  0.00     0.173 A 
ATOM     65  F   UNL A   1      41.244  35.387  35.541  1.00  0.00    -0.203 F 
ATOM     66  C   UNL A   1      40.298  35.858  37.641  1.00  0.00     0.198 A 
ATOM     67  C   UNL A   1      38.763  34.311  38.643  1.00  0.00     0.198 A 
ATOM     68  F   UNL A   1      38.243  32.290  37.558  1.00  0.00    -0.203 F 
ATOM     69  F   UNL A   1      41.010  36.992  37.703  1.00  0.00    -0.200 F 
ATOM     70  C   UNL A   1      39.467  35.505  38.692  1.00  0.00     0.200 A 
ATOM     71  F   UNL A   1      37.949  33.974  39.654  1.00  0.00    -0.200 F 
ATOM     72  F   UNL A   1      39.356  36.307  39.761  1.00  0.00    -0.200 F 
ENDBRANCH  48  62
BRANCH  49  73
ATOM     73  C   UNL A   1      40.780  27.999  28.403  1.00  0.00     0.064 A 
ATOM     74  C   UNL A   1      41.578  28.432  27.336  1.00  0.00     0.173 A 
ATOM     75  C   UNL A   1      40.176  26.737  28.297  1.00  0.00     0.173 A 
ATOM     76  F   UNL A   1      42.163  29.638  27.385  1.00  0.00    -0.203 F 
ATOM     77  C   UNL A   1      41.755  27.643  26.202  1.00  0.00     0.198 A 
ATOM     78  C   UNL A   1      40.376  25.937  27.174  1.00  0.00     0.198 A 
ATOM     79  F   UNL A   1      39.411  26.272  29.295  1.00  0.00    -0.203 F 
ATOM     80  F   UNL A   1      42.496  28.097  25.182  1.00  0.00    -0.200 F 
ATOM     81  C   UNL A   1      41.160  26.392  26.125  1.00  0.00     0.200 A 
ATOM     82  F   UNL A   1      39.815  24.721  27.111  1.00  0.00    -0.200 F 
ATOM     83  F   UNL A   1      41.342  25.628  25.040  1.00  0.00    -0.200 F 
ENDBRANCH  49  73
BRANCH  61  84
ATOM     84  C   UNL A   1      43.885  28.147  34.650  1.00  0.00     0.064 A 
ATOM     85  C   UNL A   1      45.249  28.469  34.584  1.00  0.00     0.173 A 
ATOM     86  C   UNL A   1      43.519  26.989  35.353  1.00  0.00     0.173 A 
ATOM     87  F   UNL A   1      45.654  29.559  33.913  1.00  0.00    -0.203 F 
ATOM     88  C   UNL A   1      46.208  27.647  35.169  1.00  0.00     0.198 A 
ATOM     89  C   UNL A   1      44.478  26.187  35.966  1.00  0.00     0.198 A 
ATOM     90  F   UNL A   1      42.228  26.639  35.455  1.00  0.00    -0.203 F 
ATOM     91  F   UNL A   1      47.509  27.943  35.042  1.00  0.00    -0.200 F 
ATOM     92  C   UNL A   1      45.822  26.510  35.863  1.00  0.00     0.200 A 
ATOM     93  F   UNL A   1      44.101  25.099  36.651  1.00  0.00    -0.200 F 
ATOM     94  F   UNL A   1      46.747  25.721  36.427  1.00  0.00    -0.200 F 
ENDBRANCH  61  84
ENDBRANCH  35  36
ENDBRANCH  27  30
ENDBRANCH  25  26
ENDBRANCH  24  25
ENDBRANCH  23  24
ENDBRANCH   1  23
TORSDOF 17
ENDMDL
