MODEL 1
REMARK VINA RESULT:     -12.8      0.000      0.000
REMARK SMILES O=C(NCc1ccc(C(=O)NCCCCNC(=O)c2ccc(-c3c4nc(c(-c5c(F)c(F)c(F)c(F)c5F)c5ccc([nH]5)c(-c5c(F)c(F)c(F)c(F)c5F)c5nc(c(-c6c(F)c(F)c(F)c(F)c6F)c6ccc3[nH]6)C=C5)C=C4)cc2)cc1)Nc1ccccc1Br
REMARK SMILES IDX 13 1 12 2 11 3 9 4 10 5 8 7 5 8 6 9 83 10 7 11 82 12 4 13
REMARK SMILES IDX 3 14 1 15 2 16 84 17 85 20 86 21 90 22 87 23 89 24 91 25
REMARK SMILES IDX 88 26 14 27 15 28 16 29 17 30 18 32 19 33 20 34 81 35 21 36
REMARK SMILES IDX 80 37 22 38 23 39 24 40 74 41 25 42 79 43 73 44 75 45 26 46
REMARK SMILES IDX 78 47 72 48 71 49 27 51 59 52 39 53 58 54 40 55 43 56 57 57
REMARK SMILES IDX 76 58 41 59 42 60 56 62 77 63 44 64 28 65 29 66 37 67 30 68
REMARK SMILES IDX 31 69 35 70 38 71 32 72 33 73 36 74 34 75 60 76 61 77 69 78
REMARK SMILES IDX 62 79 63 80 67 81 70 82 64 83 65 84 68 85 66 86 45 87 46 88
REMARK SMILES IDX 54 89 47 90 48 91 52 92 55 93 49 94 50 95 53 96 51 97
REMARK H PARENT 11 6 3 18 84 19 16 31 75 50 43 61
REMARK Flexibility Score: inf
ROOT
ATOM      1  C   UNL A   1      31.727  30.617  26.808  1.00  0.00     0.023 C 
ENDROOT
BRANCH   1   2
ATOM      2  C   UNL A   1      32.038  30.071  25.413  1.00  0.00     0.116 C 
BRANCH   2   3
ATOM      3  N   UNL A   1      30.953  30.365  24.500  1.00  0.00    -0.352 N 
ATOM      4  C   UNL A   1      30.181  29.551  23.709  1.00  0.00     0.251 C 
ATOM      5  O   UNL A   1      29.295  30.085  23.040  1.00  0.00    -0.269 OA
ATOM      6  H   UNL A   1      30.728  31.321  24.435  1.00  0.00     0.163 HD
BRANCH   4   7
ATOM      7  C   UNL A   1      30.331  28.069  23.667  1.00  0.00     0.039 A 
ATOM      8  C   UNL A   1      30.668  25.276  23.401  1.00  0.00    -0.029 A 
ATOM      9  C   UNL A   1      31.199  26.147  22.444  1.00  0.00     0.006 A 
ATOM     10  C   UNL A   1      29.999  25.814  24.506  1.00  0.00     0.006 A 
ATOM     11  C   UNL A   1      31.028  27.529  22.577  1.00  0.00     0.014 A 
ATOM     12  C   UNL A   1      29.860  27.196  24.651  1.00  0.00     0.014 A 
BRANCH   8  13
ATOM     13  C   UNL A   1      30.825  23.785  23.271  1.00  0.00     0.153 C 
BRANCH  13  14
ATOM     14  N   UNL A   1      31.947  23.465  22.416  1.00  0.00    -0.334 N 
ATOM     15  O   UNL A   1      34.034  23.051  21.789  1.00  0.00    -0.248 OA
ATOM     16  C   UNL A   1      33.239  23.166  22.716  1.00  0.00     0.319 C 
ATOM     17  N   UNL A   1      33.521  22.958  24.037  1.00  0.00    -0.307 N 
ATOM     18  H   UNL A   1      31.740  23.463  21.453  1.00  0.00     0.165 HD
ATOM     19  H   UNL A   1      32.769  22.969  24.672  1.00  0.00     0.171 HD
BRANCH  17  20
ATOM     20  C   UNL A   1      34.817  22.727  24.559  1.00  0.00     0.057 A 
ATOM     21  C   UNL A   1      35.671  23.841  24.573  1.00  0.00     0.027 A 
ATOM     22  C   UNL A   1      35.299  21.502  25.052  1.00  0.00     0.041 A 
ATOM     23  C   UNL A   1      36.937  23.768  25.157  1.00  0.00     0.002 A 
ATOM     24  C   UNL A   1      36.570  21.437  25.642  1.00  0.00     0.018 A 
ATOM     25  Br  UNL A   1      34.426  19.833  24.771  1.00  0.00    -0.049 Br
ATOM     26  C   UNL A   1      37.378  22.572  25.712  1.00  0.00     0.001 A 
ENDBRANCH  17  20
ENDBRANCH  13  14
ENDBRANCH   8  13
ENDBRANCH   4   7
ENDBRANCH   2   3
ENDBRANCH   1   2
BRANCH   1  27
ATOM     27  C   UNL A   1      31.494  32.129  26.850  1.00  0.00     0.023 C 
BRANCH  27  28
ATOM     28  C   UNL A   1      32.728  32.954  27.187  1.00  0.00     0.116 C 
BRANCH  28  29
ATOM     29  N   UNL A   1      32.416  34.303  27.627  1.00  0.00    -0.352 N 
ATOM     30  C   UNL A   1      32.990  35.031  28.642  1.00  0.00     0.251 C 
ATOM     31  H   UNL A   1      31.695  34.757  27.131  1.00  0.00     0.163 HD
ATOM     32  O   UNL A   1      32.535  36.117  28.962  1.00  0.00    -0.269 OA
BRANCH  30  33
ATOM     33  C   UNL A   1      34.143  34.461  29.370  1.00  0.00     0.039 A 
ATOM     34  C   UNL A   1      33.906  33.769  30.560  1.00  0.00     0.014 A 
ATOM     35  C   UNL A   1      35.443  34.594  28.876  1.00  0.00     0.014 A 
ATOM     36  C   UNL A   1      34.971  33.167  31.229  1.00  0.00     0.010 A 
ATOM     37  C   UNL A   1      36.491  33.927  29.501  1.00  0.00     0.010 A 
ATOM     38  C   UNL A   1      36.268  33.218  30.690  1.00  0.00    -0.014 A 
BRANCH  38  39
ATOM     39  C   UNL A   1      37.402  32.547  31.372  1.00  0.00     0.031 A 
ATOM     40  C   UNL A   1      38.106  31.396  30.709  1.00  0.00     0.074 A 
ATOM     41  C   UNL A   1      37.769  32.948  32.604  1.00  0.00     0.049 A 
ATOM     42  N   UNL A   1      39.103  30.670  31.150  1.00  0.00    -0.248 NA
ATOM     43  C   UNL A   1      37.605  30.986  29.388  1.00  0.00     0.031 C 
ATOM     44  C   UNL A   1      37.124  34.014  33.373  1.00  0.00     0.029 A 
ATOM     45  N   UNL A   1      38.771  32.503  33.429  1.00  0.00    -0.354 N 
ATOM     46  C   UNL A   1      39.338  29.717  30.168  1.00  0.00     0.074 A 
ATOM     47  C   UNL A   1      38.342  29.914  29.138  1.00  0.00     0.031 C 
ATOM     48  C   UNL A   1      37.767  34.161  34.542  1.00  0.00     0.029 A 
ATOM     49  C   UNL A   1      38.846  33.181  34.620  1.00  0.00     0.049 A 
ATOM     50  H   UNL A   1      39.379  31.767  33.188  1.00  0.00     0.167 HD
ATOM     51  C   UNL A   1      40.316  28.781  30.115  1.00  0.00     0.037 A 
ATOM     52  C   UNL A   1      39.692  33.029  35.656  1.00  0.00     0.037 A 
ATOM     53  C   UNL A   1      41.319  28.604  31.133  1.00  0.00     0.049 A 
ATOM     54  C   UNL A   1      40.775  31.988  35.567  1.00  0.00     0.074 A 
ATOM     55  C   UNL A   1      42.383  27.720  31.152  1.00  0.00     0.029 A 
ATOM     56  N   UNL A   1      41.378  29.326  32.315  1.00  0.00    -0.354 N 
ATOM     57  N   UNL A   1      41.036  31.142  34.600  1.00  0.00    -0.248 NA
ATOM     58  C   UNL A   1      41.693  31.893  36.710  1.00  0.00     0.031 C 
ATOM     59  C   UNL A   1      43.058  27.875  32.367  1.00  0.00     0.029 A 
ATOM     60  C   UNL A   1      42.451  28.897  33.080  1.00  0.00     0.049 A 
ATOM     61  H   UNL A   1      40.750  30.039  32.574  1.00  0.00     0.167 HD
ATOM     62  C   UNL A   1      42.164  30.440  35.001  1.00  0.00     0.074 A 
ATOM     63  C   UNL A   1      42.549  30.972  36.292  1.00  0.00     0.031 C 
ATOM     64  C   UNL A   1      42.825  29.445  34.358  1.00  0.00     0.037 A 
BRANCH  51  65
ATOM     65  C   UNL A   1      40.350  27.881  28.912  1.00  0.00     0.064 A 
ATOM     66  C   UNL A   1      41.101  28.202  27.771  1.00  0.00     0.173 A 
ATOM     67  C   UNL A   1      39.645  26.667  28.910  1.00  0.00     0.173 A 
ATOM     68  F   UNL A   1      41.781  29.357  27.715  1.00  0.00    -0.203 F 
ATOM     69  C   UNL A   1      41.120  27.361  26.662  1.00  0.00     0.198 A 
ATOM     70  C   UNL A   1      39.694  25.811  27.813  1.00  0.00     0.198 A 
ATOM     71  F   UNL A   1      38.915  26.307  29.976  1.00  0.00    -0.203 F 
ATOM     72  F   UNL A   1      41.799  27.718  25.564  1.00  0.00    -0.200 F 
ATOM     73  C   UNL A   1      40.423  26.162  26.687  1.00  0.00     0.200 A 
ATOM     74  F   UNL A   1      39.030  24.647  27.844  1.00  0.00    -0.200 F 
ATOM     75  F   UNL A   1      40.447  25.350  25.622  1.00  0.00    -0.200 F 
ENDBRANCH  51  65
BRANCH  52  76
ATOM     76  C   UNL A   1      39.575  33.908  36.849  1.00  0.00     0.064 A 
ATOM     77  C   UNL A   1      38.830  33.509  37.968  1.00  0.00     0.173 A 
ATOM     78  C   UNL A   1      40.192  35.166  36.893  1.00  0.00     0.173 A 
ATOM     79  F   UNL A   1      38.206  32.321  37.967  1.00  0.00    -0.203 F 
ATOM     80  C   UNL A   1      38.683  34.345  39.072  1.00  0.00     0.198 A 
ATOM     81  C   UNL A   1      40.070  35.989  38.010  1.00  0.00     0.198 A 
ATOM     82  F   UNL A   1      40.922  35.593  35.852  1.00  0.00    -0.203 F 
ATOM     83  F   UNL A   1      37.921  33.960  40.104  1.00  0.00    -0.200 F 
ATOM     84  C   UNL A   1      39.307  35.583  39.094  1.00  0.00     0.200 A 
ATOM     85  F   UNL A   1      40.688  37.179  38.035  1.00  0.00    -0.200 F 
ATOM     86  F   UNL A   1      39.167  36.387  40.158  1.00  0.00    -0.200 F 
ENDBRANCH  52  76
BRANCH  64  87
ATOM     87  C   UNL A   1      44.060  28.902  35.021  1.00  0.00     0.064 A 
ATOM     88  C   UNL A   1      44.007  27.824  35.916  1.00  0.00     0.173 A 
ATOM     89  C   UNL A   1      45.316  29.463  34.741  1.00  0.00     0.173 A 
ATOM     90  F   UNL A   1      42.831  27.260  36.227  1.00  0.00    -0.203 F 
ATOM     91  C   UNL A   1      45.162  27.352  36.536  1.00  0.00     0.198 A 
ATOM     92  C   UNL A   1      46.472  28.965  35.336  1.00  0.00     0.198 A 
ATOM     93  F   UNL A   1      45.424  30.490  33.885  1.00  0.00    -0.203 F 
ATOM     94  F   UNL A   1      45.079  26.362  37.436  1.00  0.00    -0.200 F 
ATOM     95  C   UNL A   1      46.393  27.919  36.241  1.00  0.00     0.200 A 
ATOM     96  F   UNL A   1      47.662  29.504  35.036  1.00  0.00    -0.200 F 
ATOM     97  F   UNL A   1      47.502  27.463  36.838  1.00  0.00    -0.200 F 
ENDBRANCH  64  87
ENDBRANCH  38  39
ENDBRANCH  30  33
ENDBRANCH  28  29
ENDBRANCH  27  28
ENDBRANCH   1  27
TORSDOF 14
ENDMDL
MODEL 2
REMARK VINA RESULT:     -12.8      0.610      7.356
REMARK SMILES O=C(NCc1ccc(C(=O)NCCCCNC(=O)c2ccc(-c3c4nc(c(-c5c(F)c(F)c(F)c(F)c5F)c5ccc([nH]5)c(-c5c(F)c(F)c(F)c(F)c5F)c5nc(c(-c6c(F)c(F)c(F)c(F)c6F)c6ccc3[nH]6)C=C5)C=C4)cc2)cc1)Nc1ccccc1Br
REMARK SMILES IDX 13 1 12 2 11 3 9 4 10 5 8 7 5 8 6 9 83 10 7 11 82 12 4 13
REMARK SMILES IDX 3 14 1 15 2 16 84 17 85 20 86 21 90 22 87 23 89 24 91 25
REMARK SMILES IDX 88 26 14 27 15 28 16 29 17 30 18 32 19 33 20 34 81 35 21 36
REMARK SMILES IDX 80 37 22 38 23 39 24 40 74 41 25 42 79 43 73 44 75 45 26 46
REMARK SMILES IDX 78 47 72 48 71 49 27 51 59 52 39 53 58 54 40 55 43 56 57 57
REMARK SMILES IDX 76 58 41 59 42 60 56 62 77 63 44 64 28 65 29 66 37 67 30 68
REMARK SMILES IDX 31 69 35 70 38 71 32 72 33 73 36 74 34 75 60 76 61 77 69 78
REMARK SMILES IDX 62 79 63 80 67 81 70 82 64 83 65 84 68 85 66 86 45 87 46 88
REMARK SMILES IDX 54 89 47 90 48 91 52 92 55 93 49 94 50 95 53 96 51 97
REMARK H PARENT 11 6 3 18 84 19 16 31 75 50 43 61
REMARK Flexibility Score: inf
ROOT
ATOM      1  C   UNL A   1      31.440  30.785  26.652  1.00  0.00     0.023 C 
ENDROOT
BRANCH   1   2
ATOM      2  C   UNL A   1      31.743  30.165  25.286  1.00  0.00     0.116 C 
BRANCH   2   3
ATOM      3  N   UNL A   1      30.671  30.444  24.353  1.00  0.00    -0.352 N 
ATOM      4  C   UNL A   1      29.974  29.632  23.495  1.00  0.00     0.251 C 
ATOM      5  O   UNL A   1      29.078  30.148  22.826  1.00  0.00    -0.269 OA
ATOM      6  H   UNL A   1      30.391  31.388  24.330  1.00  0.00     0.163 HD
BRANCH   4   7
ATOM      7  C   UNL A   1      30.212  28.164  23.382  1.00  0.00     0.039 A 
ATOM      8  C   UNL A   1      30.540  25.359  23.319  1.00  0.00    -0.029 A 
ATOM      9  C   UNL A   1      29.481  25.931  24.031  1.00  0.00     0.006 A 
ATOM     10  C   UNL A   1      31.410  26.197  22.613  1.00  0.00     0.006 A 
ATOM     11  C   UNL A   1      29.323  27.321  24.064  1.00  0.00     0.014 A 
ATOM     12  C   UNL A   1      31.228  27.581  22.621  1.00  0.00     0.014 A 
BRANCH   8  13
ATOM     13  C   UNL A   1      30.741  23.867  23.284  1.00  0.00     0.153 C 
BRANCH  13  14
ATOM     14  N   UNL A   1      31.810  23.520  22.374  1.00  0.00    -0.334 N 
ATOM     15  O   UNL A   1      33.849  23.030  21.648  1.00  0.00    -0.248 OA
ATOM     16  C   UNL A   1      33.098  23.157  22.611  1.00  0.00     0.319 C 
ATOM     17  N   UNL A   1      33.426  22.902  23.913  1.00  0.00    -0.307 N 
ATOM     18  H   UNL A   1      31.564  23.553  21.421  1.00  0.00     0.165 HD
ATOM     19  H   UNL A   1      32.702  22.930  24.580  1.00  0.00     0.171 HD
BRANCH  17  20
ATOM     20  C   UNL A   1      34.730  22.601  24.373  1.00  0.00     0.057 A 
ATOM     21  C   UNL A   1      35.657  23.653  24.298  1.00  0.00     0.027 A 
ATOM     22  C   UNL A   1      35.156  21.365  24.888  1.00  0.00     0.041 A 
ATOM     23  C   UNL A   1      36.946  23.514  24.815  1.00  0.00     0.002 A 
ATOM     24  C   UNL A   1      36.451  21.233  25.411  1.00  0.00     0.018 A 
ATOM     25  Br  UNL A   1      34.159  19.751  24.720  1.00  0.00    -0.049 Br
ATOM     26  C   UNL A   1      37.337  22.311  25.392  1.00  0.00     0.001 A 
ENDBRANCH  17  20
ENDBRANCH  13  14
ENDBRANCH   8  13
ENDBRANCH   4   7
ENDBRANCH   2   3
ENDBRANCH   1   2
BRANCH   1  27
ATOM     27  C   UNL A   1      31.403  32.315  26.650  1.00  0.00     0.023 C 
BRANCH  27  28
ATOM     28  C   UNL A   1      32.635  32.982  27.247  1.00  0.00     0.116 C 
BRANCH  28  29
ATOM     29  N   UNL A   1      32.381  34.326  27.734  1.00  0.00    -0.352 N 
ATOM     30  C   UNL A   1      33.030  35.015  28.732  1.00  0.00     0.251 C 
ATOM     31  H   UNL A   1      31.646  34.809  27.292  1.00  0.00     0.163 HD
ATOM     32  O   UNL A   1      32.622  36.104  29.102  1.00  0.00    -0.269 OA
BRANCH  30  33
ATOM     33  C   UNL A   1      34.208  34.401  29.379  1.00  0.00     0.039 A 
ATOM     34  C   UNL A   1      34.006  33.571  30.484  1.00  0.00     0.014 A 
ATOM     35  C   UNL A   1      35.497  34.628  28.891  1.00  0.00     0.014 A 
ATOM     36  C   UNL A   1      35.097  32.929  31.070  1.00  0.00     0.010 A 
ATOM     37  C   UNL A   1      36.572  33.926  29.426  1.00  0.00     0.010 A 
ATOM     38  C   UNL A   1      36.385  33.079  30.528  1.00  0.00    -0.014 A 
BRANCH  38  39
ATOM     39  C   UNL A   1      37.546  32.369  31.118  1.00  0.00     0.031 A 
ATOM     40  C   UNL A   1      38.040  32.742  32.489  1.00  0.00     0.074 A 
ATOM     41  C   UNL A   1      38.179  31.420  30.403  1.00  0.00     0.049 A 
ATOM     42  N   UNL A   1      39.048  32.254  33.167  1.00  0.00    -0.248 NA
ATOM     43  C   UNL A   1      37.325  33.828  33.177  1.00  0.00     0.031 C 
ATOM     44  C   UNL A   1      37.830  31.013  29.041  1.00  0.00     0.029 A 
ATOM     45  N   UNL A   1      39.254  30.629  30.721  1.00  0.00    -0.354 N 
ATOM     46  C   UNL A   1      39.091  32.978  34.351  1.00  0.00     0.074 A 
ATOM     47  C   UNL A   1      38.052  33.981  34.274  1.00  0.00     0.031 C 
ATOM     48  C   UNL A   1      38.653  30.026  28.654  1.00  0.00     0.029 A 
ATOM     49  C   UNL A   1      39.607  29.754  29.724  1.00  0.00     0.049 A 
ATOM     50  H   UNL A   1      39.726  30.683  31.583  1.00  0.00     0.167 HD
ATOM     51  C   UNL A   1      39.905  32.802  35.420  1.00  0.00     0.037 A 
ATOM     52  C   UNL A   1      40.590  28.834  29.682  1.00  0.00     0.037 A 
ATOM     53  C   UNL A   1      40.924  31.788  35.500  1.00  0.00     0.049 A 
ATOM     54  C   UNL A   1      41.474  28.654  30.886  1.00  0.00     0.074 A 
ATOM     55  C   UNL A   1      41.768  31.494  36.556  1.00  0.00     0.029 A 
ATOM     56  N   UNL A   1      41.237  30.903  34.479  1.00  0.00    -0.354 N 
ATOM     57  N   UNL A   1      41.457  29.293  32.030  1.00  0.00    -0.248 NA
ATOM     58  C   UNL A   1      42.503  27.610  30.798  1.00  0.00     0.031 C 
ATOM     59  C   UNL A   1      42.624  30.462  36.157  1.00  0.00     0.029 A 
ATOM     60  C   UNL A   1      42.274  30.072  34.874  1.00  0.00     0.049 A 
ATOM     61  H   UNL A   1      40.790  30.870  33.603  1.00  0.00     0.167 HD
ATOM     62  C   UNL A   1      42.448  28.708  32.809  1.00  0.00     0.074 A 
ATOM     63  C   UNL A   1      43.033  27.650  32.012  1.00  0.00     0.031 C 
ATOM     64  C   UNL A   1      42.837  29.017  34.071  1.00  0.00     0.037 A 
BRANCH  51  65
ATOM     65  C   UNL A   1      39.721  33.727  36.590  1.00  0.00     0.064 A 
ATOM     66  C   UNL A   1      40.356  34.977  36.648  1.00  0.00     0.173 A 
ATOM     67  C   UNL A   1      38.878  33.372  37.653  1.00  0.00     0.173 A 
ATOM     68  F   UNL A   1      41.185  35.360  35.665  1.00  0.00    -0.203 F 
ATOM     69  C   UNL A   1      40.180  35.822  37.740  1.00  0.00     0.198 A 
ATOM     70  C   UNL A   1      38.676  34.235  38.728  1.00  0.00     0.198 A 
ATOM     71  F   UNL A   1      38.242  32.191  37.648  1.00  0.00    -0.203 F 
ATOM     72  F   UNL A   1      40.841  36.986  37.799  1.00  0.00    -0.200 F 
ATOM     73  C   UNL A   1      39.334  35.454  38.776  1.00  0.00     0.200 A 
ATOM     74  F   UNL A   1      37.848  33.882  39.721  1.00  0.00    -0.200 F 
ATOM     75  F   UNL A   1      39.160  36.271  39.823  1.00  0.00    -0.200 F 
ENDBRANCH  51  65
BRANCH  52  76
ATOM     76  C   UNL A   1      40.765  27.987  28.473  1.00  0.00     0.064 A 
ATOM     77  C   UNL A   1      41.561  28.417  27.401  1.00  0.00     0.173 A 
ATOM     78  C   UNL A   1      40.136  26.740  28.357  1.00  0.00     0.173 A 
ATOM     79  F   UNL A   1      42.169  29.611  27.457  1.00  0.00    -0.203 F 
ATOM     80  C   UNL A   1      41.696  27.646  26.249  1.00  0.00     0.198 A 
ATOM     81  C   UNL A   1      40.297  25.955  27.217  1.00  0.00     0.198 A 
ATOM     82  F   UNL A   1      39.370  26.279  29.356  1.00  0.00    -0.203 F 
ATOM     83  F   UNL A   1      42.418  28.106  25.219  1.00  0.00    -0.200 F 
ATOM     84  C   UNL A   1      41.068  26.414  26.160  1.00  0.00     0.200 A 
ATOM     85  F   UNL A   1      39.701  24.757  27.141  1.00  0.00    -0.200 F 
ATOM     86  F   UNL A   1      41.200  25.671  25.052  1.00  0.00    -0.200 F 
ENDBRANCH  52  76
BRANCH  64  87
ATOM     87  C   UNL A   1      43.915  28.168  34.682  1.00  0.00     0.064 A 
ATOM     88  C   UNL A   1      45.269  28.528  34.618  1.00  0.00     0.173 A 
ATOM     89  C   UNL A   1      43.583  26.983  35.358  1.00  0.00     0.173 A 
ATOM     90  F   UNL A   1      45.641  29.644  33.974  1.00  0.00    -0.203 F 
ATOM     91  C   UNL A   1      46.253  27.714  35.173  1.00  0.00     0.198 A 
ATOM     92  C   UNL A   1      44.566  26.190  35.942  1.00  0.00     0.198 A 
ATOM     93  F   UNL A   1      42.302  26.597  35.457  1.00  0.00    -0.203 F 
ATOM     94  F   UNL A   1      47.545  28.047  35.043  1.00  0.00    -0.200 F 
ATOM     95  C   UNL A   1      45.901  26.549  35.838  1.00  0.00     0.200 A 
ATOM     96  F   UNL A   1      44.222  25.074  36.599  1.00  0.00    -0.200 F 
ATOM     97  F   UNL A   1      46.849  25.768  36.372  1.00  0.00    -0.200 F 
ENDBRANCH  64  87
ENDBRANCH  38  39
ENDBRANCH  30  33
ENDBRANCH  28  29
ENDBRANCH  27  28
ENDBRANCH   1  27
TORSDOF 14
ENDMDL
MODEL 3
REMARK VINA RESULT:     -12.8      3.516      8.478
REMARK SMILES O=C(NCc1ccc(C(=O)NCCCCNC(=O)c2ccc(-c3c4nc(c(-c5c(F)c(F)c(F)c(F)c5F)c5ccc([nH]5)c(-c5c(F)c(F)c(F)c(F)c5F)c5nc(c(-c6c(F)c(F)c(F)c(F)c6F)c6ccc3[nH]6)C=C5)C=C4)cc2)cc1)Nc1ccccc1Br
REMARK SMILES IDX 13 1 12 2 11 3 9 4 10 5 8 7 5 8 6 9 83 10 7 11 82 12 4 13
REMARK SMILES IDX 3 14 1 15 2 16 84 17 85 20 86 21 90 22 87 23 89 24 91 25
REMARK SMILES IDX 88 26 14 27 15 28 16 29 17 30 18 32 19 33 20 34 81 35 21 36
REMARK SMILES IDX 80 37 22 38 23 39 24 40 74 41 25 42 79 43 73 44 75 45 26 46
REMARK SMILES IDX 78 47 72 48 71 49 27 51 59 52 39 53 58 54 40 55 43 56 57 57
REMARK SMILES IDX 76 58 41 59 42 60 56 62 77 63 44 64 28 65 29 66 37 67 30 68
REMARK SMILES IDX 31 69 35 70 38 71 32 72 33 73 36 74 34 75 60 76 61 77 69 78
REMARK SMILES IDX 62 79 63 80 67 81 70 82 64 83 65 84 68 85 66 86 45 87 46 88
REMARK SMILES IDX 54 89 47 90 48 91 52 92 55 93 49 94 50 95 53 96 51 97
REMARK H PARENT 11 6 3 18 84 19 16 31 75 50 43 61
REMARK Flexibility Score: inf
ROOT
ATOM      1  C   UNL A   1      33.337  29.233  24.614  1.00  0.00     0.023 C 
ENDROOT
BRANCH   1   2
ATOM      2  C   UNL A   1      33.378  29.003  23.101  1.00  0.00     0.116 C 
BRANCH   2   3
ATOM      3  N   UNL A   1      32.062  29.192  22.525  1.00  0.00    -0.352 N 
ATOM      4  C   UNL A   1      30.958  28.378  22.487  1.00  0.00     0.251 C 
ATOM      5  O   UNL A   1      29.947  28.818  21.940  1.00  0.00    -0.269 OA
ATOM      6  H   UNL A   1      31.937  30.061  22.079  1.00  0.00     0.163 HD
BRANCH   4   7
ATOM      7  C   UNL A   1      30.914  27.028  23.120  1.00  0.00     0.039 A 
ATOM      8  C   UNL A   1      30.789  24.561  24.490  1.00  0.00    -0.029 A 
ATOM      9  C   UNL A   1      30.276  25.722  25.076  1.00  0.00     0.006 A 
ATOM     10  C   UNL A   1      31.332  24.638  23.203  1.00  0.00     0.006 A 
ATOM     11  C   UNL A   1      30.342  26.943  24.398  1.00  0.00     0.014 A 
ATOM     12  C   UNL A   1      31.365  25.853  22.516  1.00  0.00     0.014 A 
BRANCH   8  13
ATOM     13  C   UNL A   1      30.744  23.239  25.208  1.00  0.00     0.153 C 
BRANCH  13  14
ATOM     14  N   UNL A   1      31.693  23.221  26.299  1.00  0.00    -0.334 N 
ATOM     15  O   UNL A   1      33.546  22.787  27.441  1.00  0.00    -0.248 OA
ATOM     16  C   UNL A   1      32.989  22.812  26.348  1.00  0.00     0.319 C 
ATOM     17  N   UNL A   1      33.577  22.521  25.148  1.00  0.00    -0.307 N 
ATOM     18  H   UNL A   1      31.341  23.565  27.153  1.00  0.00     0.165 HD
ATOM     19  H   UNL A   1      33.055  22.690  24.331  1.00  0.00     0.171 HD
BRANCH  17  20
ATOM     20  C   UNL A   1      34.881  21.994  24.996  1.00  0.00     0.057 A 
ATOM     21  C   UNL A   1      35.911  22.944  24.897  1.00  0.00     0.027 A 
ATOM     22  C   UNL A   1      35.217  20.630  24.939  1.00  0.00     0.041 A 
ATOM     23  C   UNL A   1      37.249  22.551  24.847  1.00  0.00     0.002 A 
ATOM     24  C   UNL A   1      36.564  20.242  24.894  1.00  0.00     0.018 A 
ATOM     25  Br  UNL A   1      33.941  19.239  24.686  1.00  0.00    -0.049 Br
ATOM     26  C   UNL A   1      37.578  21.200  24.868  1.00  0.00     0.001 A 
ENDBRANCH  17  20
ENDBRANCH  13  14
ENDBRANCH   8  13
ENDBRANCH   4   7
ENDBRANCH   2   3
ENDBRANCH   1   2
BRANCH   1  27
ATOM     27  C   UNL A   1      33.682  27.995  25.444  1.00  0.00     0.023 C 
BRANCH  27  28
ATOM     28  C   UNL A   1      33.821  28.249  26.939  1.00  0.00     0.116 C 
BRANCH  28  29
ATOM     29  N   UNL A   1      33.616  29.640  27.306  1.00  0.00    -0.352 N 
ATOM     30  C   UNL A   1      34.481  30.497  27.945  1.00  0.00     0.251 C 
ATOM     31  H   UNL A   1      32.739  30.019  27.067  1.00  0.00     0.163 HD
ATOM     32  O   UNL A   1      34.115  31.610  28.285  1.00  0.00    -0.269 OA
BRANCH  30  33
ATOM     33  C   UNL A   1      35.852  30.037  28.250  1.00  0.00     0.039 A 
ATOM     34  C   UNL A   1      36.838  30.183  27.271  1.00  0.00     0.014 A 
ATOM     35  C   UNL A   1      36.165  29.482  29.493  1.00  0.00     0.014 A 
ATOM     36  C   UNL A   1      38.152  29.816  27.561  1.00  0.00     0.010 A 
ATOM     37  C   UNL A   1      37.489  29.192  29.806  1.00  0.00     0.010 A 
ATOM     38  C   UNL A   1      38.493  29.344  28.840  1.00  0.00    -0.014 A 
BRANCH  38  39
ATOM     39  C   UNL A   1      39.895  28.989  29.171  1.00  0.00     0.031 A 
ATOM     40  C   UNL A   1      40.734  29.924  29.997  1.00  0.00     0.074 A 
ATOM     41  C   UNL A   1      40.423  27.847  28.693  1.00  0.00     0.049 A 
ATOM     42  N   UNL A   1      41.981  29.802  30.376  1.00  0.00    -0.248 NA
ATOM     43  C   UNL A   1      40.096  31.177  30.432  1.00  0.00     0.031 C 
ATOM     44  C   UNL A   1      39.727  26.888  27.833  1.00  0.00     0.029 A 
ATOM     45  N   UNL A   1      41.670  27.299  28.859  1.00  0.00    -0.354 N 
ATOM     46  C   UNL A   1      42.277  30.962  31.080  1.00  0.00     0.074 A 
ATOM     47  C   UNL A   1      41.102  31.804  31.023  1.00  0.00     0.031 C 
ATOM     48  C   UNL A   1      40.545  25.856  27.573  1.00  0.00     0.029 A 
ATOM     49  C   UNL A   1      41.832  26.095  28.220  1.00  0.00     0.049 A 
ATOM     50  H   UNL A   1      42.381  27.729  29.387  1.00  0.00     0.167 HD
ATOM     51  C   UNL A   1      43.415  31.283  31.741  1.00  0.00     0.037 A 
ATOM     52  C   UNL A   1      42.899  25.276  28.166  1.00  0.00     0.037 A 
ATOM     53  C   UNL A   1      44.574  30.431  31.813  1.00  0.00     0.049 A 
ATOM     54  C   UNL A   1      44.147  25.652  28.917  1.00  0.00     0.074 A 
ATOM     55  C   UNL A   1      45.758  30.640  32.497  1.00  0.00     0.029 A 
ATOM     56  N   UNL A   1      44.693  29.206  31.173  1.00  0.00    -0.354 N 
ATOM     57  N   UNL A   1      44.390  26.716  29.642  1.00  0.00    -0.248 NA
ATOM     58  C   UNL A   1      45.266  24.702  28.853  1.00  0.00     0.031 C 
ATOM     59  C   UNL A   1      46.611  29.563  32.233  1.00  0.00     0.029 A 
ATOM     60  C   UNL A   1      45.937  28.655  31.433  1.00  0.00     0.049 A 
ATOM     61  H   UNL A   1      43.996  28.790  30.616  1.00  0.00     0.167 HD
ATOM     62  C   UNL A   1      45.672  26.548  30.149  1.00  0.00     0.074 A 
ATOM     63  C   UNL A   1      46.148  25.271  29.661  1.00  0.00     0.031 C 
ATOM     64  C   UNL A   1      46.391  27.376  30.948  1.00  0.00     0.037 A 
BRANCH  51  65
ATOM     65  C   UNL A   1      43.458  32.611  32.443  1.00  0.00     0.064 A 
ATOM     66  C   UNL A   1      43.070  32.748  33.785  1.00  0.00     0.173 A 
ATOM     67  C   UNL A   1      43.919  33.755  31.775  1.00  0.00     0.173 A 
ATOM     68  F   UNL A   1      42.608  31.689  34.465  1.00  0.00    -0.203 F 
ATOM     69  C   UNL A   1      43.111  33.986  34.421  1.00  0.00     0.198 A 
ATOM     70  C   UNL A   1      43.992  34.985  32.425  1.00  0.00     0.198 A 
ATOM     71  F   UNL A   1      44.308  33.681  30.494  1.00  0.00    -0.203 F 
ATOM     72  F   UNL A   1      42.682  34.101  35.685  1.00  0.00    -0.200 F 
ATOM     73  C   UNL A   1      43.580  35.101  33.744  1.00  0.00     0.200 A 
ATOM     74  F   UNL A   1      44.457  36.059  31.773  1.00  0.00    -0.200 F 
ATOM     75  F   UNL A   1      43.624  36.290  34.359  1.00  0.00    -0.200 F 
ENDBRANCH  51  65
BRANCH  52  76
ATOM     76  C   UNL A   1      42.821  24.001  27.405  1.00  0.00     0.064 A 
ATOM     77  C   UNL A   1      42.436  22.808  28.034  1.00  0.00     0.173 A 
ATOM     78  C   UNL A   1      43.139  23.943  26.041  1.00  0.00     0.173 A 
ATOM     79  F   UNL A   1      42.140  22.808  29.343  1.00  0.00    -0.203 F 
ATOM     80  C   UNL A   1      42.400  21.603  27.337  1.00  0.00     0.198 A 
ATOM     81  C   UNL A   1      43.073  22.743  25.336  1.00  0.00     0.198 A 
ATOM     82  F   UNL A   1      43.506  25.056  25.389  1.00  0.00    -0.203 F 
ATOM     83  F   UNL A   1      42.082  20.470  27.977  1.00  0.00    -0.200 F 
ATOM     84  C   UNL A   1      42.715  21.572  25.987  1.00  0.00     0.200 A 
ATOM     85  F   UNL A   1      43.362  22.720  24.027  1.00  0.00    -0.200 F 
ATOM     86  F   UNL A   1      42.679  20.413  25.315  1.00  0.00    -0.200 F 
ENDBRANCH  52  76
BRANCH  64  87
ATOM     87  C   UNL A   1      47.749  26.902  31.381  1.00  0.00     0.064 A 
ATOM     88  C   UNL A   1      47.927  26.109  32.524  1.00  0.00     0.173 A 
ATOM     89  C   UNL A   1      48.887  27.233  30.628  1.00  0.00     0.173 A 
ATOM     90  F   UNL A   1      46.875  25.774  33.285  1.00  0.00    -0.203 F 
ATOM     91  C   UNL A   1      49.198  25.699  32.919  1.00  0.00     0.198 A 
ATOM     92  C   UNL A   1      50.151  26.792  31.007  1.00  0.00     0.198 A 
ATOM     93  F   UNL A   1      48.771  27.981  29.521  1.00  0.00    -0.203 F 
ATOM     94  F   UNL A   1      49.350  24.995  34.050  1.00  0.00    -0.200 F 
ATOM     95  C   UNL A   1      50.307  26.036  32.158  1.00  0.00     0.200 A 
ATOM     96  F   UNL A   1      51.219  27.105  30.261  1.00  0.00    -0.200 F 
ATOM     97  F   UNL A   1      51.529  25.639  32.540  1.00  0.00    -0.200 F 
ENDBRANCH  64  87
ENDBRANCH  38  39
ENDBRANCH  30  33
ENDBRANCH  28  29
ENDBRANCH  27  28
ENDBRANCH   1  27
TORSDOF 14
ENDMDL
