MODEL 1
REMARK VINA RESULT:     -13.3      0.000      0.000
REMARK SMILES Nc1cc(C(=O)NCCCCNC(=O)c2ccc(-c3c4nc(c(-c5c(F)c(F)c(F)c(F)c5F)c5ccc([nH]5)c(-c5c(F)c(F)c(F)c(F)c5F)c5nc(c(-c6c(F)c(F)c(F)c(F)c6F)c6ccc3[nH]6)C=C5)C=C4)cc2)ccc1N1CC2(CCOCC2)C1
REMARK SMILES IDX 10 1 9 2 8 3 7 4 5 5 6 6 4 8 2 9 3 10 80 11 79 12 78 13 1 14
REMARK SMILES IDX 81 17 82 18 89 19 83 20 84 21 88 22 85 23 87 24 86 25 11 26
REMARK SMILES IDX 12 27 13 28 14 30 15 31 16 32 77 33 17 34 76 35 18 36 19 37
REMARK SMILES IDX 20 38 70 39 21 40 75 41 69 42 71 43 22 44 74 45 68 46 67 47
REMARK SMILES IDX 23 49 55 50 35 51 54 52 36 53 39 54 53 55 72 56 37 57 38 58
REMARK SMILES IDX 52 60 73 61 40 62 24 63 25 64 33 65 26 66 27 67 31 68 34 69
REMARK SMILES IDX 28 70 29 71 32 72 30 73 56 74 57 75 65 76 58 77 59 78 63 79
REMARK SMILES IDX 66 80 60 81 61 82 64 83 62 84 41 85 42 86 50 87 43 88 44 89
REMARK SMILES IDX 48 90 51 91 45 92 46 93 49 94 47 95
REMARK H PARENT 7 7 1 15 1 16 12 29 71 48 39 59
REMARK Flexibility Score: inf
ROOT
ATOM      1  C   UNL A   1      31.768  28.955  26.215  1.00  0.00     0.023 C 
ENDROOT
BRANCH   1   2
ATOM      2  C   UNL A   1      31.819  27.634  25.438  1.00  0.00     0.023 C 
BRANCH   2   3
ATOM      3  C   UNL A   1      33.237  27.167  25.101  1.00  0.00     0.116 C 
BRANCH   3   4
ATOM      4  N   UNL A   1      33.412  27.092  23.669  1.00  0.00    -0.352 N 
ATOM      5  C   UNL A   1      33.652  26.052  22.810  1.00  0.00     0.251 C 
ATOM      6  O   UNL A   1      33.807  26.356  21.626  1.00  0.00    -0.269 OA
ATOM      7  H   UNL A   1      33.345  27.965  23.219  1.00  0.00     0.163 HD
BRANCH   5   8
ATOM      8  C   UNL A   1      33.690  24.608  23.201  1.00  0.00     0.041 A 
ATOM      9  C   UNL A   1      32.774  22.385  22.716  1.00  0.00     0.056 A 
ATOM     10  C   UNL A   1      32.871  23.756  22.445  1.00  0.00     0.041 A 
ATOM     11  C   UNL A   1      33.466  21.848  23.821  1.00  0.00     0.060 A 
ATOM     12  C   UNL A   1      34.303  22.685  24.562  1.00  0.00     0.029 A 
ATOM     13  C   UNL A   1      34.445  24.041  24.230  1.00  0.00     0.016 A 
BRANCH   9  14
ATOM     14  N   UNL A   1      31.849  21.628  21.998  1.00  0.00    -0.397 N 
ATOM     15  H   UNL A   1      30.893  21.675  22.225  1.00  0.00     0.156 HD
ATOM     16  H   UNL A   1      32.153  21.046  21.265  1.00  0.00     0.156 HD
ENDBRANCH   9  14
BRANCH  11  17
ATOM     17  N   UNL A   1      33.286  20.508  24.185  1.00  0.00    -0.369 N 
ATOM     18  C   UNL A   1      34.224  19.532  24.630  1.00  0.00     0.125 C 
ATOM     19  C   UNL A   1      32.153  19.790  24.670  1.00  0.00     0.125 C 
ATOM     20  C   UNL A   1      33.044  18.523  24.557  1.00  0.00     0.010 C 
ATOM     21  C   UNL A   1      32.931  17.510  25.690  1.00  0.00     0.039 C 
ATOM     22  C   UNL A   1      32.921  17.804  23.200  1.00  0.00     0.039 C 
ATOM     23  C   UNL A   1      33.981  16.421  25.482  1.00  0.00     0.161 C 
ATOM     24  C   UNL A   1      33.980  16.711  23.128  1.00  0.00     0.161 C 
ATOM     25  O   UNL A   1      33.810  15.792  24.208  1.00  0.00    -0.381 OA
ENDBRANCH  11  17
ENDBRANCH   5   8
ENDBRANCH   3   4
ENDBRANCH   2   3
ENDBRANCH   1   2
BRANCH   1  26
ATOM     26  C   UNL A   1      32.953  29.886  25.979  1.00  0.00     0.116 C 
BRANCH  26  27
ATOM     27  N   UNL A   1      32.705  31.254  26.407  1.00  0.00    -0.352 N 
ATOM     28  C   UNL A   1      33.427  32.018  27.293  1.00  0.00     0.251 C 
ATOM     29  H   UNL A   1      31.918  31.691  26.009  1.00  0.00     0.163 HD
ATOM     30  O   UNL A   1      33.034  33.126  27.626  1.00  0.00    -0.269 OA
BRANCH  28  31
ATOM     31  C   UNL A   1      34.662  31.458  27.878  1.00  0.00     0.039 A 
ATOM     32  C   UNL A   1      35.763  32.300  28.046  1.00  0.00     0.014 A 
ATOM     33  C   UNL A   1      34.715  30.126  28.293  1.00  0.00     0.014 A 
ATOM     34  C   UNL A   1      36.901  31.822  28.694  1.00  0.00     0.010 A 
ATOM     35  C   UNL A   1      35.824  29.670  28.996  1.00  0.00     0.010 A 
ATOM     36  C   UNL A   1      36.925  30.514  29.206  1.00  0.00    -0.014 A 
BRANCH  36  37
ATOM     37  C   UNL A   1      38.090  30.015  29.975  1.00  0.00     0.031 A 
ATOM     38  C   UNL A   1      38.318  30.482  31.384  1.00  0.00     0.074 A 
ATOM     39  C   UNL A   1      38.979  29.199  29.378  1.00  0.00     0.049 A 
ATOM     40  N   UNL A   1      39.312  30.216  32.194  1.00  0.00    -0.248 NA
ATOM     41  C   UNL A   1      37.310  31.394  31.948  1.00  0.00     0.031 C 
ATOM     42  C   UNL A   1      38.892  28.721  27.997  1.00  0.00     0.029 A 
ATOM     43  N   UNL A   1      40.136  28.636  29.852  1.00  0.00    -0.354 N 
ATOM     44  C   UNL A   1      39.056  30.937  33.351  1.00  0.00     0.074 A 
ATOM     45  C   UNL A   1      37.843  31.692  33.122  1.00  0.00     0.031 C 
ATOM     46  C   UNL A   1      39.940  27.921  27.742  1.00  0.00     0.029 A 
ATOM     47  C   UNL A   1      40.788  27.857  28.928  1.00  0.00     0.049 A 
ATOM     48  H   UNL A   1      40.468  28.776  30.768  1.00  0.00     0.167 HD
ATOM     49  C   UNL A   1      39.758  30.949  34.510  1.00  0.00     0.037 A 
ATOM     50  C   UNL A   1      41.943  27.171  29.028  1.00  0.00     0.037 A 
ATOM     51  C   UNL A   1      40.948  30.174  34.741  1.00  0.00     0.049 A 
ATOM     52  C   UNL A   1      42.699  27.195  30.328  1.00  0.00     0.074 A 
ATOM     53  C   UNL A   1      41.695  30.064  35.901  1.00  0.00     0.029 A 
ATOM     54  N   UNL A   1      41.566  29.376  33.790  1.00  0.00    -0.354 N 
ATOM     55  N   UNL A   1      42.410  27.822  31.442  1.00  0.00    -0.248 NA
ATOM     56  C   UNL A   1      43.940  26.411  30.386  1.00  0.00     0.031 C 
ATOM     57  C   UNL A   1      42.787  29.231  35.640  1.00  0.00     0.029 A 
ATOM     58  C   UNL A   1      42.697  28.785  34.331  1.00  0.00     0.049 A 
ATOM     59  H   UNL A   1      41.249  29.248  32.866  1.00  0.00     0.167 HD
ATOM     60  C   UNL A   1      43.414  27.489  32.340  1.00  0.00     0.074 A 
ATOM     61  C   UNL A   1      44.314  26.591  31.645  1.00  0.00     0.031 C 
ATOM     62  C   UNL A   1      43.577  27.890  33.624  1.00  0.00     0.037 A 
BRANCH  49  63
ATOM     63  C   UNL A   1      39.250  31.826  35.617  1.00  0.00     0.064 A 
ATOM     64  C   UNL A   1      38.361  31.342  36.588  1.00  0.00     0.173 A 
ATOM     65  C   UNL A   1      39.677  33.158  35.724  1.00  0.00     0.173 A 
ATOM     66  F   UNL A   1      37.913  30.079  36.523  1.00  0.00    -0.203 F 
ATOM     67  C   UNL A   1      37.895  32.167  37.607  1.00  0.00     0.198 A 
ATOM     68  C   UNL A   1      39.231  33.972  36.762  1.00  0.00     0.198 A 
ATOM     69  F   UNL A   1      40.530  33.670  34.825  1.00  0.00    -0.203 F 
ATOM     70  F   UNL A   1      37.006  31.696  38.494  1.00  0.00    -0.200 F 
ATOM     71  C   UNL A   1      38.334  33.478  37.698  1.00  0.00     0.200 A 
ATOM     72  F   UNL A   1      39.666  35.236  36.855  1.00  0.00    -0.200 F 
ATOM     73  F   UNL A   1      37.887  34.270  38.682  1.00  0.00    -0.200 F 
ENDBRANCH  49  63
BRANCH  50  74
ATOM     74  C   UNL A   1      42.437  26.379  27.873  1.00  0.00     0.064 A 
ATOM     75  C   UNL A   1      43.342  26.934  26.958  1.00  0.00     0.173 A 
ATOM     76  C   UNL A   1      42.018  25.058  27.659  1.00  0.00     0.173 A 
ATOM     77  F   UNL A   1      43.756  28.201  27.111  1.00  0.00    -0.203 F 
ATOM     78  C   UNL A   1      43.797  26.204  25.862  1.00  0.00     0.198 A 
ATOM     79  C   UNL A   1      42.494  24.320  26.577  1.00  0.00     0.198 A 
ATOM     80  F   UNL A   1      41.157  24.480  28.509  1.00  0.00    -0.203 F 
ATOM     81  F   UNL A   1      44.630  26.772  24.980  1.00  0.00    -0.200 F 
ATOM     82  C   UNL A   1      43.377  24.896  25.675  1.00  0.00     0.200 A 
ATOM     83  F   UNL A   1      42.096  23.052  26.407  1.00  0.00    -0.200 F 
ATOM     84  F   UNL A   1      43.817  24.192  24.624  1.00  0.00    -0.200 F 
ENDBRANCH  50  74
BRANCH  62  85
ATOM     85  C   UNL A   1      44.757  27.339  34.370  1.00  0.00     0.064 A 
ATOM     86  C   UNL A   1      44.680  26.128  35.073  1.00  0.00     0.173 A 
ATOM     87  C   UNL A   1      45.988  28.010  34.346  1.00  0.00     0.173 A 
ATOM     88  F   UNL A   1      43.520  25.458  35.139  1.00  0.00    -0.203 F 
ATOM     89  C   UNL A   1      45.789  25.622  35.745  1.00  0.00     0.198 A 
ATOM     90  C   UNL A   1      47.102  27.486  34.995  1.00  0.00     0.198 A 
ATOM     91  F   UNL A   1      46.115  29.169  33.683  1.00  0.00    -0.203 F 
ATOM     92  F   UNL A   1      45.682  24.485  36.449  1.00  0.00    -0.200 F 
ATOM     93  C   UNL A   1      47.000  26.296  35.699  1.00  0.00     0.200 A 
ATOM     94  F   UNL A   1      48.275  28.132  34.940  1.00  0.00    -0.200 F 
ATOM     95  F   UNL A   1      48.068  25.802  36.340  1.00  0.00    -0.200 F 
ENDBRANCH  62  85
ENDBRANCH  36  37
ENDBRANCH  28  31
ENDBRANCH  26  27
ENDBRANCH   1  26
TORSDOF 13
ENDMDL
MODEL 2
REMARK VINA RESULT:     -13.3      4.093      9.568
REMARK SMILES Nc1cc(C(=O)NCCCCNC(=O)c2ccc(-c3c4nc(c(-c5c(F)c(F)c(F)c(F)c5F)c5ccc([nH]5)c(-c5c(F)c(F)c(F)c(F)c5F)c5nc(c(-c6c(F)c(F)c(F)c(F)c6F)c6ccc3[nH]6)C=C5)C=C4)cc2)ccc1N1CC2(CCOCC2)C1
REMARK SMILES IDX 10 1 9 2 8 3 7 4 5 5 6 6 4 8 2 9 3 10 80 11 79 12 78 13 1 14
REMARK SMILES IDX 81 17 82 18 89 19 83 20 84 21 88 22 85 23 87 24 86 25 11 26
REMARK SMILES IDX 12 27 13 28 14 30 15 31 16 32 77 33 17 34 76 35 18 36 19 37
REMARK SMILES IDX 20 38 70 39 21 40 75 41 69 42 71 43 22 44 74 45 68 46 67 47
REMARK SMILES IDX 23 49 55 50 35 51 54 52 36 53 39 54 53 55 72 56 37 57 38 58
REMARK SMILES IDX 52 60 73 61 40 62 24 63 25 64 33 65 26 66 27 67 31 68 34 69
REMARK SMILES IDX 28 70 29 71 32 72 30 73 56 74 57 75 65 76 58 77 59 78 63 79
REMARK SMILES IDX 66 80 60 81 61 82 64 83 62 84 41 85 42 86 50 87 43 88 44 89
REMARK SMILES IDX 48 90 51 91 45 92 46 93 49 94 47 95
REMARK H PARENT 7 7 1 15 1 16 12 29 71 48 39 59
REMARK Flexibility Score: inf
ROOT
ATOM      1  C   UNL A   1      36.192  23.370  24.160  1.00  0.00     0.023 C 
ENDROOT
BRANCH   1   2
ATOM      2  C   UNL A   1      34.767  23.935  24.208  1.00  0.00     0.023 C 
BRANCH   2   3
ATOM      3  C   UNL A   1      34.543  24.960  25.321  1.00  0.00     0.116 C 
BRANCH   3   4
ATOM      4  N   UNL A   1      33.469  24.531  26.188  1.00  0.00    -0.352 N 
ATOM      5  C   UNL A   1      32.154  24.899  26.297  1.00  0.00     0.251 C 
ATOM      6  O   UNL A   1      31.518  24.359  27.204  1.00  0.00    -0.269 OA
ATOM      7  H   UNL A   1      33.736  23.834  26.829  1.00  0.00     0.163 HD
BRANCH   5   8
ATOM      8  C   UNL A   1      31.451  25.853  25.383  1.00  0.00     0.041 A 
ATOM      9  C   UNL A   1      31.110  28.223  24.852  1.00  0.00     0.056 A 
ATOM     10  C   UNL A   1      31.721  27.212  25.604  1.00  0.00     0.041 A 
ATOM     11  C   UNL A   1      30.143  27.878  23.885  1.00  0.00     0.060 A 
ATOM     12  C   UNL A   1      29.889  26.526  23.641  1.00  0.00     0.029 A 
ATOM     13  C   UNL A   1      30.566  25.525  24.354  1.00  0.00     0.016 A 
BRANCH   9  14
ATOM     14  N   UNL A   1      31.338  29.551  25.211  1.00  0.00    -0.397 N 
ATOM     15  H   UNL A   1      30.577  30.159  25.354  1.00  0.00     0.156 HD
ATOM     16  H   UNL A   1      32.259  29.880  25.320  1.00  0.00     0.156 HD
ENDBRANCH   9  14
BRANCH  11  17
ATOM     17  N   UNL A   1      29.430  28.875  23.210  1.00  0.00    -0.369 N 
ATOM     18  C   UNL A   1      29.877  29.905  22.331  1.00  0.00     0.125 C 
ATOM     19  C   UNL A   1      28.071  28.963  22.786  1.00  0.00     0.125 C 
ATOM     20  C   UNL A   1      28.411  30.418  22.362  1.00  0.00     0.010 C 
ATOM     21  C   UNL A   1      27.820  30.896  21.040  1.00  0.00     0.039 C 
ATOM     22  C   UNL A   1      28.137  31.460  23.464  1.00  0.00     0.039 C 
ATOM     23  C   UNL A   1      28.382  32.279  20.723  1.00  0.00     0.161 C 
ATOM     24  C   UNL A   1      28.695  32.804  23.015  1.00  0.00     0.161 C 
ATOM     25  O   UNL A   1      28.091  33.197  21.781  1.00  0.00    -0.381 OA
ENDBRANCH  11  17
ENDBRANCH   5   8
ENDBRANCH   3   4
ENDBRANCH   2   3
ENDBRANCH   1   2
BRANCH   1  26
ATOM     26  C   UNL A   1      37.062  23.716  25.365  1.00  0.00     0.116 C 
BRANCH  26  27
ATOM     27  N   UNL A   1      38.177  22.801  25.552  1.00  0.00    -0.352 N 
ATOM     28  C   UNL A   1      39.380  23.034  26.175  1.00  0.00     0.251 C 
ATOM     29  H   UNL A   1      38.054  21.896  25.184  1.00  0.00     0.163 HD
ATOM     30  O   UNL A   1      40.261  22.188  26.168  1.00  0.00    -0.269 OA
BRANCH  28  31
ATOM     31  C   UNL A   1      39.611  24.345  26.815  1.00  0.00     0.039 A 
ATOM     32  C   UNL A   1      39.199  24.526  28.137  1.00  0.00     0.014 A 
ATOM     33  C   UNL A   1      40.266  25.369  26.127  1.00  0.00     0.014 A 
ATOM     34  C   UNL A   1      39.505  25.717  28.794  1.00  0.00     0.010 A 
ATOM     35  C   UNL A   1      40.627  26.529  26.803  1.00  0.00     0.010 A 
ATOM     36  C   UNL A   1      40.253  26.712  28.143  1.00  0.00    -0.014 A 
BRANCH  36  37
ATOM     37  C   UNL A   1      40.663  27.947  28.852  1.00  0.00     0.031 A 
ATOM     38  C   UNL A   1      42.063  28.083  29.379  1.00  0.00     0.074 A 
ATOM     39  C   UNL A   1      39.754  28.914  29.082  1.00  0.00     0.049 A 
ATOM     40  N   UNL A   1      42.592  29.051  30.083  1.00  0.00    -0.248 NA
ATOM     41  C   UNL A   1      42.982  26.967  29.105  1.00  0.00     0.031 C 
ATOM     42  C   UNL A   1      38.351  28.871  28.666  1.00  0.00     0.029 A 
ATOM     43  N   UNL A   1      39.871  30.116  29.732  1.00  0.00    -0.354 N 
ATOM     44  C   UNL A   1      43.896  28.655  30.347  1.00  0.00     0.074 A 
ATOM     45  C   UNL A   1      44.063  27.337  29.773  1.00  0.00     0.031 C 
ATOM     46  C   UNL A   1      37.743  30.003  29.053  1.00  0.00     0.029 A 
ATOM     47  C   UNL A   1      38.703  30.836  29.772  1.00  0.00     0.049 A 
ATOM     48  H   UNL A   1      40.713  30.433  30.132  1.00  0.00     0.167 HD
ATOM     49  C   UNL A   1      44.872  29.340  30.989  1.00  0.00     0.037 A 
ATOM     50  C   UNL A   1      38.437  32.031  30.332  1.00  0.00     0.037 A 
ATOM     51  C   UNL A   1      44.708  30.662  31.532  1.00  0.00     0.049 A 
ATOM     52  C   UNL A   1      39.541  32.775  31.032  1.00  0.00     0.074 A 
ATOM     53  C   UNL A   1      45.653  31.469  32.141  1.00  0.00     0.029 A 
ATOM     54  N   UNL A   1      43.516  31.371  31.532  1.00  0.00    -0.354 N 
ATOM     55  N   UNL A   1      40.790  32.424  31.212  1.00  0.00    -0.248 NA
ATOM     56  C   UNL A   1      39.197  34.085  31.603  1.00  0.00     0.031 C 
ATOM     57  C   UNL A   1      45.023  32.650  32.546  1.00  0.00     0.029 A 
ATOM     58  C   UNL A   1      43.696  32.599  32.149  1.00  0.00     0.049 A 
ATOM     59  H   UNL A   1      42.666  31.050  31.151  1.00  0.00     0.167 HD
ATOM     60  C   UNL A   1      41.389  33.475  31.891  1.00  0.00     0.074 A 
ATOM     61  C   UNL A   1      40.368  34.486  32.079  1.00  0.00     0.031 C 
ATOM     62  C   UNL A   1      42.669  33.594  32.321  1.00  0.00     0.037 A 
BRANCH  49  63
ATOM     63  C   UNL A   1      46.207  28.669  31.132  1.00  0.00     0.064 A 
ATOM     64  C   UNL A   1      46.513  27.873  32.246  1.00  0.00     0.173 A 
ATOM     65  C   UNL A   1      47.182  28.801  30.132  1.00  0.00     0.173 A 
ATOM     66  F   UNL A   1      45.620  27.726  33.236  1.00  0.00    -0.203 F 
ATOM     67  C   UNL A   1      47.757  27.260  32.369  1.00  0.00     0.198 A 
ATOM     68  C   UNL A   1      48.414  28.162  30.244  1.00  0.00     0.198 A 
ATOM     69  F   UNL A   1      46.939  29.546  29.044  1.00  0.00    -0.203 F 
ATOM     70  F   UNL A   1      48.045  26.547  33.467  1.00  0.00    -0.200 F 
ATOM     71  C   UNL A   1      48.703  27.399  31.366  1.00  0.00     0.200 A 
ATOM     72  F   UNL A   1      49.323  28.287  29.268  1.00  0.00    -0.200 F 
ATOM     73  F   UNL A   1      49.899  26.804  31.482  1.00  0.00    -0.200 F 
ENDBRANCH  49  63
BRANCH  50  74
ATOM     74  C   UNL A   1      37.074  32.614  30.223  1.00  0.00     0.064 A 
ATOM     75  C   UNL A   1      36.128  32.417  31.237  1.00  0.00     0.173 A 
ATOM     76  C   UNL A   1      36.691  33.376  29.110  1.00  0.00     0.173 A 
ATOM     77  F   UNL A   1      36.442  31.678  32.312  1.00  0.00    -0.203 F 
ATOM     78  C   UNL A   1      34.842  32.945  31.135  1.00  0.00     0.198 A 
ATOM     79  C   UNL A   1      35.414  33.925  29.021  1.00  0.00     0.198 A 
ATOM     80  F   UNL A   1      37.562  33.598  28.115  1.00  0.00    -0.203 F 
ATOM     81  F   UNL A   1      33.944  32.706  32.100  1.00  0.00    -0.200 F 
ATOM     82  C   UNL A   1      34.488  33.703  30.030  1.00  0.00     0.200 A 
ATOM     83  F   UNL A   1      35.079  34.668  27.957  1.00  0.00    -0.200 F 
ATOM     84  F   UNL A   1      33.253  34.214  29.933  1.00  0.00    -0.200 F 
ENDBRANCH  50  74
BRANCH  62  85
ATOM     85  C   UNL A   1      43.045  34.872  33.011  1.00  0.00     0.064 A 
ATOM     86  C   UNL A   1      43.462  36.000  32.289  1.00  0.00     0.173 A 
ATOM     87  C   UNL A   1      42.946  34.982  34.405  1.00  0.00     0.173 A 
ATOM     88  F   UNL A   1      43.588  35.940  30.955  1.00  0.00    -0.203 F 
ATOM     89  C   UNL A   1      43.790  37.185  32.944  1.00  0.00     0.198 A 
ATOM     90  C   UNL A   1      43.246  36.177  35.053  1.00  0.00     0.198 A 
ATOM     91  F   UNL A   1      42.545  33.933  35.140  1.00  0.00    -0.203 F 
ATOM     92  F   UNL A   1      44.230  38.237  32.239  1.00  0.00    -0.200 F 
ATOM     93  C   UNL A   1      43.674  37.274  34.323  1.00  0.00     0.200 A 
ATOM     94  F   UNL A   1      43.122  36.266  36.384  1.00  0.00    -0.200 F 
ATOM     95  F   UNL A   1      43.983  38.418  34.949  1.00  0.00    -0.200 F 
ENDBRANCH  62  85
ENDBRANCH  36  37
ENDBRANCH  28  31
ENDBRANCH  26  27
ENDBRANCH   1  26
TORSDOF 13
ENDMDL
MODEL 3
REMARK VINA RESULT:     -13.1      2.768      3.761
REMARK SMILES Nc1cc(C(=O)NCCCCNC(=O)c2ccc(-c3c4nc(c(-c5c(F)c(F)c(F)c(F)c5F)c5ccc([nH]5)c(-c5c(F)c(F)c(F)c(F)c5F)c5nc(c(-c6c(F)c(F)c(F)c(F)c6F)c6ccc3[nH]6)C=C5)C=C4)cc2)ccc1N1CC2(CCOCC2)C1
REMARK SMILES IDX 10 1 9 2 8 3 7 4 5 5 6 6 4 8 2 9 3 10 80 11 79 12 78 13 1 14
REMARK SMILES IDX 81 17 82 18 89 19 83 20 84 21 88 22 85 23 87 24 86 25 11 26
REMARK SMILES IDX 12 27 13 28 14 30 15 31 16 32 77 33 17 34 76 35 18 36 19 37
REMARK SMILES IDX 20 38 70 39 21 40 75 41 69 42 71 43 22 44 74 45 68 46 67 47
REMARK SMILES IDX 23 49 55 50 35 51 54 52 36 53 39 54 53 55 72 56 37 57 38 58
REMARK SMILES IDX 52 60 73 61 40 62 24 63 25 64 33 65 26 66 27 67 31 68 34 69
REMARK SMILES IDX 28 70 29 71 32 72 30 73 56 74 57 75 65 76 58 77 59 78 63 79
REMARK SMILES IDX 66 80 60 81 61 82 64 83 62 84 41 85 42 86 50 87 43 88 44 89
REMARK SMILES IDX 48 90 51 91 45 92 46 93 49 94 47 95
REMARK H PARENT 7 7 1 15 1 16 12 29 71 48 39 59
REMARK Flexibility Score: inf
ROOT
ATOM      1  C   UNL A   1      32.300  28.008  26.922  1.00  0.00     0.023 C 
ENDROOT
BRANCH   1   2
ATOM      2  C   UNL A   1      32.309  27.353  25.536  1.00  0.00     0.023 C 
BRANCH   2   3
ATOM      3  C   UNL A   1      33.711  27.102  24.978  1.00  0.00     0.116 C 
BRANCH   3   4
ATOM      4  N   UNL A   1      33.666  27.003  23.536  1.00  0.00    -0.352 N 
ATOM      5  C   UNL A   1      33.723  25.944  22.671  1.00  0.00     0.251 C 
ATOM      6  O   UNL A   1      33.713  26.228  21.471  1.00  0.00    -0.269 OA
ATOM      7  H   UNL A   1      33.575  27.874  23.086  1.00  0.00     0.163 HD
BRANCH   5   8
ATOM      8  C   UNL A   1      33.749  24.504  23.077  1.00  0.00     0.041 A 
ATOM      9  C   UNL A   1      32.780  22.292  22.646  1.00  0.00     0.056 A 
ATOM     10  C   UNL A   1      32.892  23.657  22.356  1.00  0.00     0.041 A 
ATOM     11  C   UNL A   1      33.497  21.755  23.735  1.00  0.00     0.060 A 
ATOM     12  C   UNL A   1      34.370  22.585  24.441  1.00  0.00     0.029 A 
ATOM     13  C   UNL A   1      34.524  23.935  24.088  1.00  0.00     0.016 A 
BRANCH   9  14
ATOM     14  N   UNL A   1      31.821  21.542  21.965  1.00  0.00    -0.397 N 
ATOM     15  H   UNL A   1      32.101  20.812  21.368  1.00  0.00     0.156 HD
ATOM     16  H   UNL A   1      30.865  21.744  22.082  1.00  0.00     0.156 HD
ENDBRANCH   9  14
BRANCH  11  17
ATOM     17  N   UNL A   1      33.305  20.422  24.120  1.00  0.00    -0.369 N 
ATOM     18  C   UNL A   1      34.230  19.454  24.608  1.00  0.00     0.125 C 
ATOM     19  C   UNL A   1      32.159  19.716  24.590  1.00  0.00     0.125 C 
ATOM     20  C   UNL A   1      33.050  18.445  24.524  1.00  0.00     0.010 C 
ATOM     21  C   UNL A   1      32.907  17.454  25.674  1.00  0.00     0.039 C 
ATOM     22  C   UNL A   1      32.961  17.700  23.178  1.00  0.00     0.039 C 
ATOM     23  C   UNL A   1      33.960  16.361  25.513  1.00  0.00     0.161 C 
ATOM     24  C   UNL A   1      34.019  16.605  23.154  1.00  0.00     0.161 C 
ATOM     25  O   UNL A   1      33.820  15.707  24.247  1.00  0.00    -0.381 OA
ENDBRANCH  11  17
ENDBRANCH   5   8
ENDBRANCH   3   4
ENDBRANCH   2   3
ENDBRANCH   1   2
BRANCH   1  26
ATOM     26  C   UNL A   1      33.640  28.583  27.371  1.00  0.00     0.116 C 
BRANCH  26  27
ATOM     27  N   UNL A   1      33.588  30.008  27.660  1.00  0.00    -0.352 N 
ATOM     28  C   UNL A   1      34.570  30.809  28.191  1.00  0.00     0.251 C 
ATOM     29  H   UNL A   1      32.738  30.457  27.447  1.00  0.00     0.163 HD
ATOM     30  O   UNL A   1      34.341  31.978  28.467  1.00  0.00    -0.269 OA
BRANCH  28  31
ATOM     31  C   UNL A   1      35.897  30.224  28.471  1.00  0.00     0.039 A 
ATOM     32  C   UNL A   1      36.861  30.239  27.460  1.00  0.00     0.014 A 
ATOM     33  C   UNL A   1      36.196  29.704  29.732  1.00  0.00     0.014 A 
ATOM     34  C   UNL A   1      38.152  29.792  27.736  1.00  0.00     0.010 A 
ATOM     35  C   UNL A   1      37.500  29.319  30.024  1.00  0.00     0.010 A 
ATOM     36  C   UNL A   1      38.490  29.363  29.030  1.00  0.00    -0.014 A 
BRANCH  36  37
ATOM     37  C   UNL A   1      39.878  28.966  29.367  1.00  0.00     0.031 A 
ATOM     38  C   UNL A   1      40.749  29.887  30.171  1.00  0.00     0.074 A 
ATOM     39  C   UNL A   1      40.373  27.810  28.886  1.00  0.00     0.049 A 
ATOM     40  N   UNL A   1      42.007  29.752  30.508  1.00  0.00    -0.248 NA
ATOM     41  C   UNL A   1      40.135  31.141  30.633  1.00  0.00     0.031 C 
ATOM     42  C   UNL A   1      39.639  26.859  28.049  1.00  0.00     0.029 A 
ATOM     43  N   UNL A   1      41.614  27.242  29.023  1.00  0.00    -0.354 N 
ATOM     44  C   UNL A   1      42.336  30.906  31.205  1.00  0.00     0.074 A 
ATOM     45  C   UNL A   1      41.163  31.753  31.200  1.00  0.00     0.031 C 
ATOM     46  C   UNL A   1      40.436  25.818  27.763  1.00  0.00     0.029 A 
ATOM     47  C   UNL A   1      41.745  26.042  28.369  1.00  0.00     0.049 A 
ATOM     48  H   UNL A   1      42.342  27.655  29.541  1.00  0.00     0.167 HD
ATOM     49  C   UNL A   1      43.503  31.219  31.816  1.00  0.00     0.037 A 
ATOM     50  C   UNL A   1      42.806  25.219  28.266  1.00  0.00     0.037 A 
ATOM     51  C   UNL A   1      44.657  30.359  31.842  1.00  0.00     0.049 A 
ATOM     52  C   UNL A   1      44.089  25.587  28.960  1.00  0.00     0.074 A 
ATOM     53  C   UNL A   1      45.865  30.555  32.489  1.00  0.00     0.029 A 
ATOM     54  N   UNL A   1      44.745  29.139  31.189  1.00  0.00    -0.354 N 
ATOM     55  N   UNL A   1      44.366  26.647  29.679  1.00  0.00    -0.248 NA
ATOM     56  C   UNL A   1      45.205  24.640  28.832  1.00  0.00     0.031 C 
ATOM     57  C   UNL A   1      46.698  29.471  32.195  1.00  0.00     0.029 A 
ATOM     58  C   UNL A   1      45.995  28.579  31.401  1.00  0.00     0.049 A 
ATOM     59  H   UNL A   1      44.027  28.731  30.653  1.00  0.00     0.167 HD
ATOM     60  C   UNL A   1      45.675  26.484  30.110  1.00  0.00     0.074 A 
ATOM     61  C   UNL A   1      46.133  25.214  29.584  1.00  0.00     0.031 C 
ATOM     62  C   UNL A   1      46.430  27.311  30.873  1.00  0.00     0.037 A 
BRANCH  49  63
ATOM     63  C   UNL A   1      43.586  32.547  32.509  1.00  0.00     0.064 A 
ATOM     64  C   UNL A   1      43.233  32.694  33.859  1.00  0.00     0.173 A 
ATOM     65  C   UNL A   1      44.048  33.682  31.826  1.00  0.00     0.173 A 
ATOM     66  F   UNL A   1      42.773  31.643  34.555  1.00  0.00    -0.203 F 
ATOM     67  C   UNL A   1      43.310  33.932  34.490  1.00  0.00     0.198 A 
ATOM     68  C   UNL A   1      44.153  34.912  32.468  1.00  0.00     0.198 A 
ATOM     69  F   UNL A   1      44.403  33.596  30.536  1.00  0.00    -0.203 F 
ATOM     70  F   UNL A   1      42.918  34.057  35.766  1.00  0.00    -0.200 F 
ATOM     71  C   UNL A   1      43.776  35.038  33.797  1.00  0.00     0.200 A 
ATOM     72  F   UNL A   1      44.614  35.978  31.800  1.00  0.00    -0.200 F 
ATOM     73  F   UNL A   1      43.854  36.230  34.407  1.00  0.00    -0.200 F 
ENDBRANCH  49  63
BRANCH  50  74
ATOM     74  C   UNL A   1      42.689  23.951  27.502  1.00  0.00     0.064 A 
ATOM     75  C   UNL A   1      43.048  23.894  26.148  1.00  0.00     0.173 A 
ATOM     76  C   UNL A   1      42.219  22.774  28.103  1.00  0.00     0.173 A 
ATOM     77  F   UNL A   1      43.484  24.998  25.524  1.00  0.00    -0.203 F 
ATOM     78  C   UNL A   1      42.924  22.712  25.419  1.00  0.00     0.198 A 
ATOM     79  C   UNL A   1      42.120  21.587  27.381  1.00  0.00     0.198 A 
ATOM     80  F   UNL A   1      41.868  22.776  29.398  1.00  0.00    -0.203 F 
ATOM     81  F   UNL A   1      43.235  22.696  24.116  1.00  0.00    -0.200 F 
ATOM     82  C   UNL A   1      42.465  21.559  26.037  1.00  0.00     0.200 A 
ATOM     83  F   UNL A   1      41.689  20.472  27.984  1.00  0.00    -0.200 F 
ATOM     84  F   UNL A   1      42.350  20.422  25.338  1.00  0.00    -0.200 F 
ENDBRANCH  50  74
BRANCH  62  85
ATOM     85  C   UNL A   1      47.820  26.856  31.209  1.00  0.00     0.064 A 
ATOM     86  C   UNL A   1      48.924  27.233  30.431  1.00  0.00     0.173 A 
ATOM     87  C   UNL A   1      48.053  26.068  32.346  1.00  0.00     0.173 A 
ATOM     88  F   UNL A   1      48.750  27.972  29.326  1.00  0.00    -0.203 F 
ATOM     89  C   UNL A   1      50.209  26.816  30.767  1.00  0.00     0.198 A 
ATOM     90  C   UNL A   1      49.343  25.678  32.695  1.00  0.00     0.198 A 
ATOM     91  F   UNL A   1      47.030  25.686  33.126  1.00  0.00    -0.203 F 
ATOM     92  F   UNL A   1      51.246  27.150  29.985  1.00  0.00    -0.200 F 
ATOM     93  C   UNL A   1      50.418  26.047  31.902  1.00  0.00     0.200 A 
ATOM     94  F   UNL A   1      49.544  24.945  33.799  1.00  0.00    -0.200 F 
ATOM     95  F   UNL A   1      51.657  25.654  32.228  1.00  0.00    -0.200 F 
ENDBRANCH  62  85
ENDBRANCH  36  37
ENDBRANCH  28  31
ENDBRANCH  26  27
ENDBRANCH   1  26
TORSDOF 13
ENDMDL
