MODEL 1
REMARK VINA RESULT:     -14.2      0.000      0.000
REMARK SMILES Cc1c(CC(=O)NCCCCNC(=O)c2ccc(-c3c4nc(c(-c5c(F)c(F)c(F)c(F)c5F)c5ccc([nH]5)c(-c5c(F)c(F)c(F)c(F)c5F)c5nc(c(-c6c(F)c(F)c(F)c(F)c6F)c6ccc3[nH]6)C=C5)C=C4)cc2)c2ccccc2n1C(=O)c1ccc(Cl)cc1
REMARK SMILES IDX 9 1 8 2 7 3 5 4 6 5 4 7 3 8 1 9 2 10 84 11 78 12 83 13 79 14
REMARK SMILES IDX 82 15 80 16 81 17 85 18 86 19 87 20 88 21 93 22 89 23 92 24
REMARK SMILES IDX 90 25 91 26 10 27 11 28 12 29 13 30 14 32 15 33 16 34 77 35
REMARK SMILES IDX 17 36 76 37 18 38 19 39 20 40 70 41 21 42 75 43 69 44 71 45
REMARK SMILES IDX 22 46 74 47 68 48 67 49 23 51 55 52 35 53 54 54 36 55 39 56
REMARK SMILES IDX 53 57 72 58 37 59 38 60 52 62 73 63 40 64 24 65 25 66 33 67
REMARK SMILES IDX 26 68 27 69 31 70 34 71 28 72 29 73 32 74 30 75 56 76 57 77
REMARK SMILES IDX 65 78 58 79 59 80 63 81 66 82 60 83 61 84 64 85 62 86 41 87
REMARK SMILES IDX 42 88 50 89 43 90 44 91 48 92 51 93 45 94 46 95 49 96 47 97
REMARK H PARENT 7 6 12 31 71 50 39 61
REMARK Flexibility Score: inf
ROOT
ATOM      1  C   UNL A   1      36.376  20.859  25.300  1.00  0.00     0.023 C 
ENDROOT
BRANCH   1   2
ATOM      2  C   UNL A   1      35.395  21.857  24.691  1.00  0.00     0.116 C 
BRANCH   2   3
ATOM      3  N   UNL A   1      34.261  22.093  25.560  1.00  0.00    -0.356 N 
ATOM      4  C   UNL A   1      33.460  23.197  25.626  1.00  0.00     0.224 C 
ATOM      5  O   UNL A   1      32.546  23.206  26.453  1.00  0.00    -0.275 OA
ATOM      6  H   UNL A   1      34.038  21.365  26.183  1.00  0.00     0.163 HD
BRANCH   4   7
ATOM      7  C   UNL A   1      33.669  24.349  24.654  1.00  0.00     0.138 C 
BRANCH   7   8
ATOM      8  C   UNL A   1      32.600  25.403  24.742  1.00  0.00    -0.010 A 
ATOM      9  C   UNL A   1      30.652  24.230  23.476  1.00  0.00     0.065 C 
ATOM     10  C   UNL A   1      31.312  25.348  24.223  1.00  0.00     0.028 A 
ATOM     11  N   UNL A   1      30.676  26.575  24.461  1.00  0.00    -0.280 N 
ATOM     12  C   UNL A   1      32.723  26.644  25.427  1.00  0.00     0.004 A 
ATOM     13  C   UNL A   1      31.504  27.320  25.317  1.00  0.00     0.056 A 
ATOM     14  C   UNL A   1      33.777  27.232  26.164  1.00  0.00     0.010 A 
ATOM     15  C   UNL A   1      31.309  28.535  26.010  1.00  0.00     0.027 A 
ATOM     16  C   UNL A   1      33.597  28.465  26.788  1.00  0.00     0.001 A 
ATOM     17  C   UNL A   1      32.369  29.102  26.723  1.00  0.00     0.002 A 
BRANCH  11  18
ATOM     18  C   UNL A   1      29.416  26.969  23.919  1.00  0.00     0.262 C 
ATOM     19  O   UNL A   1      28.433  26.269  24.126  1.00  0.00    -0.268 OA
BRANCH  18  20
ATOM     20  C   UNL A   1      29.175  28.182  23.118  1.00  0.00     0.040 A 
ATOM     21  C   UNL A   1      30.209  28.797  22.405  1.00  0.00     0.015 A 
ATOM     22  C   UNL A   1      27.878  28.704  23.094  1.00  0.00     0.015 A 
ATOM     23  C   UNL A   1      29.956  29.995  21.732  1.00  0.00     0.021 A 
ATOM     24  C   UNL A   1      27.629  29.897  22.416  1.00  0.00     0.021 A 
ATOM     25  C   UNL A   1      28.672  30.546  21.754  1.00  0.00     0.041 A 
ATOM     26  Cl  UNL A   1      28.375  32.048  20.970  1.00  0.00    -0.084 Cl
ENDBRANCH  18  20
ENDBRANCH  11  18
ENDBRANCH   7   8
ENDBRANCH   4   7
ENDBRANCH   2   3
ENDBRANCH   1   2
BRANCH   1  27
ATOM     27  C   UNL A   1      37.850  21.157  24.992  1.00  0.00     0.023 C 
BRANCH  27  28
ATOM     28  C   UNL A   1      38.513  22.148  25.954  1.00  0.00     0.116 C 
BRANCH  28  29
ATOM     29  N   UNL A   1      39.959  22.040  25.984  1.00  0.00    -0.352 N 
ATOM     30  C   UNL A   1      40.971  22.821  26.466  1.00  0.00     0.251 C 
ATOM     31  H   UNL A   1      40.287  21.214  25.560  1.00  0.00     0.163 HD
ATOM     32  O   UNL A   1      42.108  22.348  26.389  1.00  0.00    -0.269 OA
BRANCH  30  33
ATOM     33  C   UNL A   1      40.805  24.190  27.028  1.00  0.00     0.039 A 
ATOM     34  C   UNL A   1      39.964  25.174  26.514  1.00  0.00     0.014 A 
ATOM     35  C   UNL A   1      41.613  24.515  28.135  1.00  0.00     0.014 A 
ATOM     36  C   UNL A   1      39.983  26.463  27.031  1.00  0.00     0.010 A 
ATOM     37  C   UNL A   1      41.623  25.801  28.672  1.00  0.00     0.010 A 
ATOM     38  C   UNL A   1      40.835  26.786  28.088  1.00  0.00    -0.014 A 
BRANCH  38  39
ATOM     39  C   UNL A   1      40.821  28.176  28.533  1.00  0.00     0.031 A 
ATOM     40  C   UNL A   1      41.956  29.025  28.072  1.00  0.00     0.074 A 
ATOM     41  C   UNL A   1      39.844  28.699  29.297  1.00  0.00     0.049 A 
ATOM     42  N   UNL A   1      42.827  29.660  28.789  1.00  0.00    -0.248 NA
ATOM     43  C   UNL A   1      42.178  29.131  26.623  1.00  0.00     0.031 C 
ATOM     44  C   UNL A   1      38.542  28.110  29.613  1.00  0.00     0.029 A 
ATOM     45  N   UNL A   1      39.790  29.929  29.893  1.00  0.00    -0.354 N 
ATOM     46  C   UNL A   1      43.629  30.361  27.890  1.00  0.00     0.074 A 
ATOM     47  C   UNL A   1      43.241  29.934  26.570  1.00  0.00     0.031 C 
ATOM     48  C   UNL A   1      37.749  29.057  30.162  1.00  0.00     0.029 A 
ATOM     49  C   UNL A   1      38.535  30.262  30.368  1.00  0.00     0.049 A 
ATOM     50  H   UNL A   1      40.572  30.520  29.976  1.00  0.00     0.167 HD
ATOM     51  C   UNL A   1      44.440  31.380  28.285  1.00  0.00     0.037 A 
ATOM     52  C   UNL A   1      38.147  31.465  30.849  1.00  0.00     0.037 A 
ATOM     53  C   UNL A   1      44.666  31.379  29.701  1.00  0.00     0.049 A 
ATOM     54  C   UNL A   1      39.347  32.193  31.322  1.00  0.00     0.074 A 
ATOM     55  C   UNL A   1      45.458  30.679  30.583  1.00  0.00     0.029 A 
ATOM     56  N   UNL A   1      43.747  32.070  30.441  1.00  0.00    -0.354 N 
ATOM     57  N   UNL A   1      40.063  31.834  32.350  1.00  0.00    -0.248 NA
ATOM     58  C   UNL A   1      39.934  33.238  30.489  1.00  0.00     0.031 C 
ATOM     59  C   UNL A   1      44.821  30.781  31.855  1.00  0.00     0.029 A 
ATOM     60  C   UNL A   1      43.659  31.534  31.699  1.00  0.00     0.049 A 
ATOM     61  H   UNL A   1      43.226  32.840  30.117  1.00  0.00     0.167 HD
ATOM     62  C   UNL A   1      41.331  32.297  32.065  1.00  0.00     0.074 A 
ATOM     63  C   UNL A   1      41.152  33.301  31.029  1.00  0.00     0.031 C 
ATOM     64  C   UNL A   1      42.432  31.600  32.459  1.00  0.00     0.037 A 
BRANCH  51  65
ATOM     65  C   UNL A   1      44.744  32.600  27.451  1.00  0.00     0.064 A 
ATOM     66  C   UNL A   1      45.983  32.709  26.787  1.00  0.00     0.173 A 
ATOM     67  C   UNL A   1      43.991  33.791  27.537  1.00  0.00     0.173 A 
ATOM     68  F   UNL A   1      46.798  31.648  26.684  1.00  0.00    -0.203 F 
ATOM     69  C   UNL A   1      46.446  33.927  26.281  1.00  0.00     0.198 A 
ATOM     70  C   UNL A   1      44.434  34.993  26.987  1.00  0.00     0.198 A 
ATOM     71  F   UNL A   1      42.859  33.855  28.249  1.00  0.00    -0.203 F 
ATOM     72  F   UNL A   1      47.673  34.007  25.749  1.00  0.00    -0.200 F 
ATOM     73  C   UNL A   1      45.671  35.069  26.382  1.00  0.00     0.200 A 
ATOM     74  F   UNL A   1      43.681  36.094  27.118  1.00  0.00    -0.200 F 
ATOM     75  F   UNL A   1      46.132  36.246  25.940  1.00  0.00    -0.200 F 
ENDBRANCH  51  65
BRANCH  52  76
ATOM     76  C   UNL A   1      36.830  32.122  30.705  1.00  0.00     0.064 A 
ATOM     77  C   UNL A   1      35.945  32.202  31.792  1.00  0.00     0.173 A 
ATOM     78  C   UNL A   1      36.538  32.935  29.593  1.00  0.00     0.173 A 
ATOM     79  F   UNL A   1      36.171  31.485  32.902  1.00  0.00    -0.203 F 
ATOM     80  C   UNL A   1      34.860  33.082  31.786  1.00  0.00     0.198 A 
ATOM     81  C   UNL A   1      35.447  33.802  29.583  1.00  0.00     0.198 A 
ATOM     82  F   UNL A   1      37.361  32.978  28.535  1.00  0.00    -0.203 F 
ATOM     83  F   UNL A   1      34.084  33.191  32.873  1.00  0.00    -0.200 F 
ATOM     84  C   UNL A   1      34.620  33.891  30.687  1.00  0.00     0.200 A 
ATOM     85  F   UNL A   1      35.245  34.601  28.527  1.00  0.00    -0.200 F 
ATOM     86  F   UNL A   1      33.623  34.785  30.709  1.00  0.00    -0.200 F 
ENDBRANCH  52  76
BRANCH  64  87
ATOM     87  C   UNL A   1      42.266  30.665  33.616  1.00  0.00     0.064 A 
ATOM     88  C   UNL A   1      42.403  31.050  34.959  1.00  0.00     0.173 A 
ATOM     89  C   UNL A   1      41.885  29.343  33.351  1.00  0.00     0.173 A 
ATOM     90  F   UNL A   1      42.677  32.319  35.287  1.00  0.00    -0.203 F 
ATOM     91  C   UNL A   1      42.216  30.131  35.990  1.00  0.00     0.198 A 
ATOM     92  C   UNL A   1      41.664  28.438  34.384  1.00  0.00     0.198 A 
ATOM     93  F   UNL A   1      41.691  28.940  32.085  1.00  0.00    -0.203 F 
ATOM     94  F   UNL A   1      42.374  30.511  37.266  1.00  0.00    -0.200 F 
ATOM     95  C   UNL A   1      41.843  28.828  35.702  1.00  0.00     0.200 A 
ATOM     96  F   UNL A   1      41.258  27.192  34.102  1.00  0.00    -0.200 F 
ATOM     97  F   UNL A   1      41.632  27.953  36.694  1.00  0.00    -0.200 F 
ENDBRANCH  64  87
ENDBRANCH  38  39
ENDBRANCH  30  33
ENDBRANCH  28  29
ENDBRANCH  27  28
ENDBRANCH   1  27
TORSDOF 14
ENDMDL
MODEL 2
REMARK VINA RESULT:     -14.0      3.965      9.342
REMARK SMILES Cc1c(CC(=O)NCCCCNC(=O)c2ccc(-c3c4nc(c(-c5c(F)c(F)c(F)c(F)c5F)c5ccc([nH]5)c(-c5c(F)c(F)c(F)c(F)c5F)c5nc(c(-c6c(F)c(F)c(F)c(F)c6F)c6ccc3[nH]6)C=C5)C=C4)cc2)c2ccccc2n1C(=O)c1ccc(Cl)cc1
REMARK SMILES IDX 9 1 8 2 7 3 5 4 6 5 4 7 3 8 1 9 2 10 84 11 78 12 83 13 79 14
REMARK SMILES IDX 82 15 80 16 81 17 85 18 86 19 87 20 88 21 93 22 89 23 92 24
REMARK SMILES IDX 90 25 91 26 10 27 11 28 12 29 13 30 14 32 15 33 16 34 77 35
REMARK SMILES IDX 17 36 76 37 18 38 19 39 20 40 70 41 21 42 75 43 69 44 71 45
REMARK SMILES IDX 22 46 74 47 68 48 67 49 23 51 55 52 35 53 54 54 36 55 39 56
REMARK SMILES IDX 53 57 72 58 37 59 38 60 52 62 73 63 40 64 24 65 25 66 33 67
REMARK SMILES IDX 26 68 27 69 31 70 34 71 28 72 29 73 32 74 30 75 56 76 57 77
REMARK SMILES IDX 65 78 58 79 59 80 63 81 66 82 60 83 61 84 64 85 62 86 41 87
REMARK SMILES IDX 42 88 50 89 43 90 44 91 48 92 51 93 45 94 46 95 49 96 47 97
REMARK H PARENT 7 6 12 31 71 50 39 61
REMARK Flexibility Score: inf
ROOT
ATOM      1  C   UNL A   1      34.516  29.812  27.267  1.00  0.00     0.023 C 
ENDROOT
BRANCH   1   2
ATOM      2  C   UNL A   1      33.726  28.536  26.988  1.00  0.00     0.116 C 
BRANCH   2   3
ATOM      3  N   UNL A   1      33.633  28.262  25.569  1.00  0.00    -0.356 N 
ATOM      4  C   UNL A   1      33.362  27.075  24.952  1.00  0.00     0.224 C 
ATOM      5  O   UNL A   1      33.341  27.049  23.720  1.00  0.00    -0.275 OA
ATOM      6  H   UNL A   1      33.784  29.030  24.972  1.00  0.00     0.163 HD
BRANCH   4   7
ATOM      7  C   UNL A   1      33.036  25.842  25.782  1.00  0.00     0.138 C 
BRANCH   7   8
ATOM      8  C   UNL A   1      33.356  24.550  25.081  1.00  0.00    -0.010 A 
ATOM      9  C   UNL A   1      31.034  23.958  24.067  1.00  0.00     0.065 C 
ATOM     10  C   UNL A   1      32.488  23.742  24.357  1.00  0.00     0.028 A 
ATOM     11  N   UNL A   1      33.179  22.595  23.942  1.00  0.00    -0.280 N 
ATOM     12  C   UNL A   1      34.645  23.953  25.006  1.00  0.00     0.004 A 
ATOM     13  C   UNL A   1      34.538  22.793  24.232  1.00  0.00     0.056 A 
ATOM     14  C   UNL A   1      35.909  24.331  25.515  1.00  0.00     0.010 A 
ATOM     15  C   UNL A   1      35.699  22.062  23.896  1.00  0.00     0.027 A 
ATOM     16  C   UNL A   1      37.039  23.565  25.236  1.00  0.00     0.001 A 
ATOM     17  C   UNL A   1      36.935  22.450  24.421  1.00  0.00     0.002 A 
BRANCH  11  18
ATOM     18  C   UNL A   1      32.582  21.449  23.336  1.00  0.00     0.262 C 
ATOM     19  O   UNL A   1      32.026  21.568  22.252  1.00  0.00    -0.268 OA
BRANCH  18  20
ATOM     20  C   UNL A   1      32.581  20.089  23.904  1.00  0.00     0.040 A 
ATOM     21  C   UNL A   1      32.712  19.878  25.281  1.00  0.00     0.015 A 
ATOM     22  C   UNL A   1      32.449  19.011  23.023  1.00  0.00     0.015 A 
ATOM     23  C   UNL A   1      32.796  18.571  25.766  1.00  0.00     0.021 A 
ATOM     24  C   UNL A   1      32.527  17.708  23.513  1.00  0.00     0.021 A 
ATOM     25  C   UNL A   1      32.719  17.494  24.879  1.00  0.00     0.041 A 
ATOM     26  Cl  UNL A   1      32.877  15.887  25.472  1.00  0.00    -0.084 Cl
ENDBRANCH  18  20
ENDBRANCH  11  18
ENDBRANCH   7   8
ENDBRANCH   4   7
ENDBRANCH   2   3
ENDBRANCH   1   2
BRANCH   1  27
ATOM     27  C   UNL A   1      33.646  31.044  27.550  1.00  0.00     0.023 C 
BRANCH  27  28
ATOM     28  C   UNL A   1      34.415  32.260  28.074  1.00  0.00     0.116 C 
BRANCH  28  29
ATOM     29  N   UNL A   1      34.417  32.359  29.521  1.00  0.00    -0.352 N 
ATOM     30  C   UNL A   1      35.265  31.950  30.511  1.00  0.00     0.251 C 
ATOM     31  H   UNL A   1      33.626  32.830  29.869  1.00  0.00     0.163 HD
ATOM     32  O   UNL A   1      34.973  32.302  31.657  1.00  0.00    -0.269 OA
BRANCH  30  33
ATOM     33  C   UNL A   1      36.466  31.093  30.312  1.00  0.00     0.039 A 
ATOM     34  C   UNL A   1      36.484  29.702  30.393  1.00  0.00     0.014 A 
ATOM     35  C   UNL A   1      37.683  31.764  30.080  1.00  0.00     0.014 A 
ATOM     36  C   UNL A   1      37.683  29.004  30.324  1.00  0.00     0.010 A 
ATOM     37  C   UNL A   1      38.887  31.068  29.991  1.00  0.00     0.010 A 
ATOM     38  C   UNL A   1      38.888  29.687  30.156  1.00  0.00    -0.014 A 
BRANCH  38  39
ATOM     39  C   UNL A   1      40.101  28.876  30.145  1.00  0.00     0.031 A 
ATOM     40  C   UNL A   1      40.802  28.723  31.451  1.00  0.00     0.074 A 
ATOM     41  C   UNL A   1      40.574  28.268  29.041  1.00  0.00     0.049 A 
ATOM     42  N   UNL A   1      42.013  29.061  31.757  1.00  0.00    -0.248 NA
ATOM     43  C   UNL A   1      40.030  28.170  32.573  1.00  0.00     0.031 C 
ATOM     44  C   UNL A   1      39.891  28.081  27.759  1.00  0.00     0.029 A 
ATOM     45  N   UNL A   1      41.760  27.609  28.869  1.00  0.00    -0.354 N 
ATOM     46  C   UNL A   1      42.210  28.642  33.072  1.00  0.00     0.074 A 
ATOM     47  C   UNL A   1      40.934  28.179  33.553  1.00  0.00     0.031 C 
ATOM     48  C   UNL A   1      40.581  27.186  27.017  1.00  0.00     0.029 A 
ATOM     49  C   UNL A   1      41.817  26.858  27.709  1.00  0.00     0.049 A 
ATOM     50  H   UNL A   1      42.503  27.665  29.511  1.00  0.00     0.167 HD
ATOM     51  C   UNL A   1      43.450  28.540  33.621  1.00  0.00     0.037 A 
ATOM     52  C   UNL A   1      42.787  25.982  27.361  1.00  0.00     0.037 A 
ATOM     53  C   UNL A   1      44.439  29.258  32.871  1.00  0.00     0.049 A 
ATOM     54  C   UNL A   1      44.027  26.340  28.085  1.00  0.00     0.074 A 
ATOM     55  C   UNL A   1      44.830  30.571  32.737  1.00  0.00     0.029 A 
ATOM     56  N   UNL A   1      45.032  28.553  31.860  1.00  0.00    -0.354 N 
ATOM     57  N   UNL A   1      44.712  27.429  27.871  1.00  0.00    -0.248 NA
ATOM     58  C   UNL A   1      44.417  25.583  29.270  1.00  0.00     0.031 C 
ATOM     59  C   UNL A   1      45.474  30.666  31.467  1.00  0.00     0.029 A 
ATOM     60  C   UNL A   1      45.443  29.407  30.871  1.00  0.00     0.049 A 
ATOM     61  H   UNL A   1      45.146  27.575  31.845  1.00  0.00     0.167 HD
ATOM     62  C   UNL A   1      45.316  27.698  29.082  1.00  0.00     0.074 A 
ATOM     63  C   UNL A   1      45.261  26.452  29.828  1.00  0.00     0.031 C 
ATOM     64  C   UNL A   1      45.513  28.981  29.492  1.00  0.00     0.037 A 
BRANCH  51  65
ATOM     65  C   UNL A   1      43.851  27.498  34.636  1.00  0.00     0.064 A 
ATOM     66  C   UNL A   1      43.891  26.137  34.269  1.00  0.00     0.173 A 
ATOM     67  C   UNL A   1      43.895  27.758  36.022  1.00  0.00     0.173 A 
ATOM     68  F   UNL A   1      43.815  25.774  32.979  1.00  0.00    -0.203 F 
ATOM     69  C   UNL A   1      43.934  25.116  35.223  1.00  0.00     0.198 A 
ATOM     70  C   UNL A   1      43.989  26.739  36.968  1.00  0.00     0.198 A 
ATOM     71  F   UNL A   1      43.738  28.996  36.509  1.00  0.00    -0.203 F 
ATOM     72  F   UNL A   1      43.867  23.835  34.834  1.00  0.00    -0.200 F 
ATOM     73  C   UNL A   1      43.983  25.417  36.572  1.00  0.00     0.200 A 
ATOM     74  F   UNL A   1      44.008  27.050  38.272  1.00  0.00    -0.200 F 
ATOM     75  F   UNL A   1      43.977  24.441  37.489  1.00  0.00    -0.200 F 
ENDBRANCH  51  65
BRANCH  52  76
ATOM     76  C   UNL A   1      42.641  24.709  26.622  1.00  0.00     0.064 A 
ATOM     77  C   UNL A   1      43.369  24.475  25.445  1.00  0.00     0.173 A 
ATOM     78  C   UNL A   1      42.017  23.592  27.211  1.00  0.00     0.173 A 
ATOM     79  F   UNL A   1      44.020  25.480  24.842  1.00  0.00    -0.203 F 
ATOM     80  C   UNL A   1      43.505  23.190  24.915  1.00  0.00     0.198 A 
ATOM     81  C   UNL A   1      42.142  22.313  26.673  1.00  0.00     0.198 A 
ATOM     82  F   UNL A   1      41.357  23.704  28.373  1.00  0.00    -0.203 F 
ATOM     83  F   UNL A   1      44.273  22.991  23.835  1.00  0.00    -0.200 F 
ATOM     84  C   UNL A   1      42.903  22.108  25.537  1.00  0.00     0.200 A 
ATOM     85  F   UNL A   1      41.581  21.271  27.302  1.00  0.00    -0.200 F 
ATOM     86  F   UNL A   1      43.092  20.867  25.070  1.00  0.00    -0.200 F 
ENDBRANCH  52  76
BRANCH  64  87
ATOM     87  C   UNL A   1      45.562  30.033  28.428  1.00  0.00     0.064 A 
ATOM     88  C   UNL A   1      44.425  30.651  27.885  1.00  0.00     0.173 A 
ATOM     89  C   UNL A   1      46.817  30.479  27.993  1.00  0.00     0.173 A 
ATOM     90  F   UNL A   1      43.198  30.338  28.320  1.00  0.00    -0.203 F 
ATOM     91  C   UNL A   1      44.543  31.638  26.908  1.00  0.00     0.198 A 
ATOM     92  C   UNL A   1      46.933  31.489  27.044  1.00  0.00     0.198 A 
ATOM     93  F   UNL A   1      47.936  29.955  28.519  1.00  0.00    -0.203 F 
ATOM     94  F   UNL A   1      43.445  32.201  26.385  1.00  0.00    -0.200 F 
ATOM     95  C   UNL A   1      45.796  32.059  26.492  1.00  0.00     0.200 A 
ATOM     96  F   UNL A   1      48.147  31.925  26.679  1.00  0.00    -0.200 F 
ATOM     97  F   UNL A   1      45.910  33.030  25.577  1.00  0.00    -0.200 F 
ENDBRANCH  64  87
ENDBRANCH  38  39
ENDBRANCH  30  33
ENDBRANCH  28  29
ENDBRANCH  27  28
ENDBRANCH   1  27
TORSDOF 14
ENDMDL
MODEL 3
REMARK VINA RESULT:     -13.9      3.813      9.336
REMARK SMILES Cc1c(CC(=O)NCCCCNC(=O)c2ccc(-c3c4nc(c(-c5c(F)c(F)c(F)c(F)c5F)c5ccc([nH]5)c(-c5c(F)c(F)c(F)c(F)c5F)c5nc(c(-c6c(F)c(F)c(F)c(F)c6F)c6ccc3[nH]6)C=C5)C=C4)cc2)c2ccccc2n1C(=O)c1ccc(Cl)cc1
REMARK SMILES IDX 9 1 8 2 7 3 5 4 6 5 4 7 3 8 1 9 2 10 84 11 78 12 83 13 79 14
REMARK SMILES IDX 82 15 80 16 81 17 85 18 86 19 87 20 88 21 93 22 89 23 92 24
REMARK SMILES IDX 90 25 91 26 10 27 11 28 12 29 13 30 14 32 15 33 16 34 77 35
REMARK SMILES IDX 17 36 76 37 18 38 19 39 20 40 70 41 21 42 75 43 69 44 71 45
REMARK SMILES IDX 22 46 74 47 68 48 67 49 23 51 55 52 35 53 54 54 36 55 39 56
REMARK SMILES IDX 53 57 72 58 37 59 38 60 52 62 73 63 40 64 24 65 25 66 33 67
REMARK SMILES IDX 26 68 27 69 31 70 34 71 28 72 29 73 32 74 30 75 56 76 57 77
REMARK SMILES IDX 65 78 58 79 59 80 63 81 66 82 60 83 61 84 64 85 62 86 41 87
REMARK SMILES IDX 42 88 50 89 43 90 44 91 48 92 51 93 45 94 46 95 49 96 47 97
REMARK H PARENT 7 6 12 31 71 50 39 61
REMARK Flexibility Score: inf
ROOT
ATOM      1  C   UNL A   1      31.676  28.774  27.260  1.00  0.00     0.023 C 
ENDROOT
BRANCH   1   2
ATOM      2  C   UNL A   1      31.160  27.753  26.251  1.00  0.00     0.116 C 
BRANCH   2   3
ATOM      3  N   UNL A   1      30.985  26.446  26.850  1.00  0.00    -0.356 N 
ATOM      4  C   UNL A   1      31.757  25.332  26.692  1.00  0.00     0.224 C 
ATOM      5  O   UNL A   1      31.425  24.303  27.286  1.00  0.00    -0.275 OA
ATOM      6  H   UNL A   1      30.209  26.349  27.448  1.00  0.00     0.163 HD
BRANCH   4   7
ATOM      7  C   UNL A   1      33.023  25.395  25.851  1.00  0.00     0.138 C 
BRANCH   7   8
ATOM      8  C   UNL A   1      33.370  24.086  25.197  1.00  0.00    -0.010 A 
ATOM      9  C   UNL A   1      31.121  23.521  24.014  1.00  0.00     0.065 C 
ATOM     10  C   UNL A   1      32.544  23.283  24.420  1.00  0.00     0.028 A 
ATOM     11  N   UNL A   1      33.240  22.115  24.078  1.00  0.00    -0.280 N 
ATOM     12  C   UNL A   1      34.648  23.462  25.231  1.00  0.00     0.004 A 
ATOM     13  C   UNL A   1      34.577  22.291  24.470  1.00  0.00     0.056 A 
ATOM     14  C   UNL A   1      35.876  23.825  25.831  1.00  0.00     0.010 A 
ATOM     15  C   UNL A   1      35.745  21.533  24.237  1.00  0.00     0.027 A 
ATOM     16  C   UNL A   1      37.008  23.032  25.653  1.00  0.00     0.001 A 
ATOM     17  C   UNL A   1      36.945  21.906  24.850  1.00  0.00     0.002 A 
BRANCH  11  18
ATOM     18  C   UNL A   1      32.669  20.970  23.445  1.00  0.00     0.262 C 
ATOM     19  O   UNL A   1      32.057  21.112  22.395  1.00  0.00    -0.268 OA
BRANCH  18  20
ATOM     20  C   UNL A   1      32.758  19.587  23.946  1.00  0.00     0.040 A 
ATOM     21  C   UNL A   1      32.923  18.508  23.072  1.00  0.00     0.015 A 
ATOM     22  C   UNL A   1      32.668  19.384  25.327  1.00  0.00     0.015 A 
ATOM     23  C   UNL A   1      32.912  17.208  23.583  1.00  0.00     0.021 A 
ATOM     24  C   UNL A   1      32.664  18.084  25.833  1.00  0.00     0.021 A 
ATOM     25  C   UNL A   1      32.767  17.003  24.957  1.00  0.00     0.041 A 
ATOM     26  Cl  UNL A   1      32.699  15.400  25.578  1.00  0.00    -0.084 Cl
ENDBRANCH  18  20
ENDBRANCH  11  18
ENDBRANCH   7   8
ENDBRANCH   4   7
ENDBRANCH   2   3
ENDBRANCH   1   2
BRANCH   1  27
ATOM     27  C   UNL A   1      33.190  29.018  27.192  1.00  0.00     0.023 C 
BRANCH  27  28
ATOM     28  C   UNL A   1      33.588  30.406  26.681  1.00  0.00     0.116 C 
BRANCH  28  29
ATOM     29  N   UNL A   1      33.825  31.364  27.744  1.00  0.00    -0.352 N 
ATOM     30  C   UNL A   1      34.898  31.685  28.527  1.00  0.00     0.251 C 
ATOM     31  H   UNL A   1      33.030  31.907  27.949  1.00  0.00     0.163 HD
ATOM     32  O   UNL A   1      34.749  32.646  29.287  1.00  0.00    -0.269 OA
BRANCH  30  33
ATOM     33  C   UNL A   1      36.191  30.948  28.554  1.00  0.00     0.039 A 
ATOM     34  C   UNL A   1      36.354  29.597  28.255  1.00  0.00     0.014 A 
ATOM     35  C   UNL A   1      37.320  31.680  28.972  1.00  0.00     0.014 A 
ATOM     36  C   UNL A   1      37.580  28.973  28.442  1.00  0.00     0.010 A 
ATOM     37  C   UNL A   1      38.559  31.064  29.143  1.00  0.00     0.010 A 
ATOM     38  C   UNL A   1      38.675  29.697  28.917  1.00  0.00    -0.014 A 
BRANCH  38  39
ATOM     39  C   UNL A   1      39.910  28.947  29.128  1.00  0.00     0.031 A 
ATOM     40  C   UNL A   1      40.337  28.771  30.544  1.00  0.00     0.074 A 
ATOM     41  C   UNL A   1      40.632  28.414  28.125  1.00  0.00     0.049 A 
ATOM     42  N   UNL A   1      41.438  29.155  31.105  1.00  0.00    -0.248 NA
ATOM     43  C   UNL A   1      39.385  28.131  31.464  1.00  0.00     0.031 C 
ATOM     44  C   UNL A   1      40.238  28.252  26.725  1.00  0.00     0.029 A 
ATOM     45  N   UNL A   1      41.864  27.824  28.180  1.00  0.00    -0.354 N 
ATOM     46  C   UNL A   1      41.386  28.687  32.417  1.00  0.00     0.074 A 
ATOM     47  C   UNL A   1      40.068  28.140  32.609  1.00  0.00     0.031 C 
ATOM     48  C   UNL A   1      41.114  27.427  26.111  1.00  0.00     0.029 A 
ATOM     49  C   UNL A   1      42.200  27.129  27.031  1.00  0.00     0.049 A 
ATOM     50  H   UNL A   1      42.456  27.887  28.963  1.00  0.00     0.167 HD
ATOM     51  C   UNL A   1      42.492  28.622  33.207  1.00  0.00     0.037 A 
ATOM     52  C   UNL A   1      43.269  26.319  26.861  1.00  0.00     0.037 A 
ATOM     53  C   UNL A   1      43.570  29.421  32.702  1.00  0.00     0.049 A 
ATOM     54  C   UNL A   1      44.313  26.705  27.838  1.00  0.00     0.074 A 
ATOM     55  C   UNL A   1      43.904  30.756  32.696  1.00  0.00     0.029 A 
ATOM     56  N   UNL A   1      44.396  28.793  31.811  1.00  0.00    -0.354 N 
ATOM     57  N   UNL A   1      44.963  27.834  27.807  1.00  0.00    -0.248 NA
ATOM     58  C   UNL A   1      44.495  25.915  29.051  1.00  0.00     0.031 C 
ATOM     59  C   UNL A   1      44.786  30.940  31.590  1.00  0.00     0.029 A 
ATOM     60  C   UNL A   1      44.951  29.709  30.958  1.00  0.00     0.049 A 
ATOM     61  H   UNL A   1      44.568  27.823  31.788  1.00  0.00     0.167 HD
ATOM     62  C   UNL A   1      45.290  28.079  29.125  1.00  0.00     0.074 A 
ATOM     63  C   UNL A   1      45.157  26.799  29.800  1.00  0.00     0.031 C 
ATOM     64  C   UNL A   1      45.326  29.350  29.610  1.00  0.00     0.037 A 
BRANCH  51  65
ATOM     65  C   UNL A   1      42.737  27.556  34.246  1.00  0.00     0.064 A 
ATOM     66  C   UNL A   1      43.298  26.319  33.868  1.00  0.00     0.173 A 
ATOM     67  C   UNL A   1      42.158  27.596  35.533  1.00  0.00     0.173 A 
ATOM     68  F   UNL A   1      43.839  26.158  32.650  1.00  0.00    -0.203 F 
ATOM     69  C   UNL A   1      43.247  25.198  34.702  1.00  0.00     0.198 A 
ATOM     70  C   UNL A   1      42.154  26.490  36.382  1.00  0.00     0.198 A 
ATOM     71  F   UNL A   1      41.482  28.668  35.965  1.00  0.00    -0.203 F 
ATOM     72  F   UNL A   1      43.700  24.016  34.263  1.00  0.00    -0.200 F 
ATOM     73  C   UNL A   1      42.675  25.285  35.959  1.00  0.00     0.200 A 
ATOM     74  F   UNL A   1      41.571  26.586  37.585  1.00  0.00    -0.200 F 
ATOM     75  F   UNL A   1      42.583  24.202  36.742  1.00  0.00    -0.200 F 
ENDBRANCH  51  65
BRANCH  52  76
ATOM     76  C   UNL A   1      43.351  25.075  26.066  1.00  0.00     0.064 A 
ATOM     77  C   UNL A   1      44.400  24.873  25.155  1.00  0.00     0.173 A 
ATOM     78  C   UNL A   1      42.576  23.946  26.395  1.00  0.00     0.173 A 
ATOM     79  F   UNL A   1      45.206  25.889  24.816  1.00  0.00    -0.203 F 
ATOM     80  C   UNL A   1      44.688  23.605  24.643  1.00  0.00     0.198 A 
ATOM     81  C   UNL A   1      42.855  22.685  25.873  1.00  0.00     0.198 A 
ATOM     82  F   UNL A   1      41.596  24.025  27.307  1.00  0.00    -0.203 F 
ATOM     83  F   UNL A   1      45.747  23.435  23.840  1.00  0.00    -0.200 F 
ATOM     84  C   UNL A   1      43.924  22.511  25.013  1.00  0.00     0.200 A 
ATOM     85  F   UNL A   1      42.128  21.630  26.263  1.00  0.00    -0.200 F 
ATOM     86  F   UNL A   1      44.242  21.284  24.579  1.00  0.00    -0.200 F 
ENDBRANCH  52  76
BRANCH  64  87
ATOM     87  C   UNL A   1      45.530  30.450  28.615  1.00  0.00     0.064 A 
ATOM     88  C   UNL A   1      44.487  31.078  27.917  1.00  0.00     0.173 A 
ATOM     89  C   UNL A   1      46.831  30.931  28.415  1.00  0.00     0.173 A 
ATOM     90  F   UNL A   1      43.211  30.730  28.126  1.00  0.00    -0.203 F 
ATOM     91  C   UNL A   1      44.746  32.110  27.017  1.00  0.00     0.198 A 
ATOM     92  C   UNL A   1      47.083  31.985  27.544  1.00  0.00     0.198 A 
ATOM     93  F   UNL A   1      47.857  30.398  29.098  1.00  0.00    -0.203 F 
ATOM     94  F   UNL A   1      43.739  32.682  26.342  1.00  0.00    -0.200 F 
ATOM     95  C   UNL A   1      46.042  32.565  26.834  1.00  0.00     0.200 A 
ATOM     96  F   UNL A   1      48.331  32.452  27.405  1.00  0.00    -0.200 F 
ATOM     97  F   UNL A   1      46.288  33.579  25.993  1.00  0.00    -0.200 F 
ENDBRANCH  64  87
ENDBRANCH  38  39
ENDBRANCH  30  33
ENDBRANCH  28  29
ENDBRANCH  27  28
ENDBRANCH   1  27
TORSDOF 14
ENDMDL
