MODEL 1
REMARK VINA RESULT:     -12.8      0.000      0.000
REMARK SMILES Cn1ccc(NC(=O)[C@@H]2CCCC[C@@H]2C(=O)NCCCCNC(=O)c2ccc(-c3c4nc(c(-c5c(F)c(F)c(F)c(F)c5F)c5ccc([nH]5)c(-c5c(F)c(F)c(F)c(F)c5F)c5nc(c(-c6c(F)c(F)c(F)c(F)c6F)c6ccc3[nH]6)C=C5)C=C4)cc2)n1
REMARK SMILES IDX 19 1 18 2 17 3 15 4 16 5 14 7 9 8 10 9 11 10 13 11 12 12
REMARK SMILES IDX 7 13 6 14 8 16 5 17 1 18 2 19 3 20 88 21 4 22 20 23 21 24
REMARK SMILES IDX 22 25 23 26 24 28 25 29 26 30 87 31 27 32 86 33 28 34 29 35
REMARK SMILES IDX 30 36 80 37 31 38 85 39 79 40 81 41 32 42 84 43 78 44 77 45
REMARK SMILES IDX 33 47 65 48 45 49 64 50 46 51 49 52 63 53 82 54 47 55 48 56
REMARK SMILES IDX 62 58 83 59 50 60 34 61 35 62 43 63 36 64 37 65 41 66 44 67
REMARK SMILES IDX 38 68 39 69 42 70 40 71 66 72 67 73 75 74 68 75 69 76 73 77
REMARK SMILES IDX 76 78 70 79 71 80 74 81 72 82 51 83 52 84 60 85 53 86 54 87
REMARK SMILES IDX 58 88 61 89 55 90 56 91 59 92 57 93
REMARK H PARENT 17 6 6 15 22 27 81 46 49 57
REMARK Flexibility Score: inf
ROOT
ATOM      1  C   UNL A   1      31.778  30.542  27.004  1.00  0.00     0.023 C 
ENDROOT
BRANCH   1   2
ATOM      2  C   UNL A   1      32.900  29.724  26.368  1.00  0.00     0.116 C 
BRANCH   2   3
ATOM      3  N   UNL A   1      32.486  28.354  26.200  1.00  0.00    -0.356 N 
ATOM      4  C   UNL A   1      31.808  27.748  25.191  1.00  0.00     0.223 C 
ATOM      5  O   UNL A   1      31.587  26.546  25.353  1.00  0.00    -0.275 OA
ATOM      6  H   UNL A   1      32.739  27.756  26.941  1.00  0.00     0.163 HD
BRANCH   4   7
ATOM      7  C   UNL A   1      31.432  28.500  23.900  1.00  0.00     0.091 C 
ATOM      8  C   UNL A   1      30.450  27.815  22.916  1.00  0.00     0.091 C 
ATOM      9  C   UNL A   1      31.017  26.438  22.529  1.00  0.00     0.014 C 
ATOM     10  C   UNL A   1      32.326  26.607  21.759  1.00  0.00     0.001 C 
ATOM     11  C   UNL A   1      32.719  28.784  23.082  1.00  0.00     0.014 C 
ATOM     12  C   UNL A   1      33.335  27.528  22.444  1.00  0.00     0.001 C 
BRANCH   8  13
ATOM     13  C   UNL A   1      28.959  27.749  23.252  1.00  0.00     0.229 C 
ATOM     14  N   UNL A   1      28.124  28.819  23.124  1.00  0.00    -0.309 N 
ATOM     15  H   UNL A   1      27.194  28.658  23.407  1.00  0.00     0.171 HD
ATOM     16  O   UNL A   1      28.443  26.698  23.653  1.00  0.00    -0.274 OA
BRANCH  14  17
ATOM     17  C   UNL A   1      28.380  30.086  22.662  1.00  0.00     0.154 A 
ATOM     18  C   UNL A   1      29.141  33.453  23.126  1.00  0.00     0.173 C 
ATOM     19  N   UNL A   1      28.800  32.158  22.591  1.00  0.00    -0.274 N 
ATOM     20  C   UNL A   1      28.323  31.873  21.349  1.00  0.00     0.110 A 
ATOM     21  N   UNL A   1      28.874  31.083  23.391  1.00  0.00    -0.155 NA
ATOM     22  C   UNL A   1      28.089  30.516  21.344  1.00  0.00     0.068 A 
ENDBRANCH  14  17
ENDBRANCH   8  13
ENDBRANCH   4   7
ENDBRANCH   2   3
ENDBRANCH   1   2
BRANCH   1  23
ATOM     23  C   UNL A   1      31.782  32.019  26.627  1.00  0.00     0.023 C 
BRANCH  23  24
ATOM     24  C   UNL A   1      32.862  32.836  27.319  1.00  0.00     0.116 C 
BRANCH  24  25
ATOM     25  N   UNL A   1      32.459  34.201  27.630  1.00  0.00    -0.352 N 
ATOM     26  C   UNL A   1      33.001  35.032  28.583  1.00  0.00     0.251 C 
ATOM     27  H   UNL A   1      31.717  34.569  27.099  1.00  0.00     0.163 HD
ATOM     28  O   UNL A   1      32.536  36.145  28.798  1.00  0.00    -0.269 OA
BRANCH  26  29
ATOM     29  C   UNL A   1      34.130  34.520  29.382  1.00  0.00     0.039 A 
ATOM     30  C   UNL A   1      33.862  33.850  30.577  1.00  0.00     0.014 A 
ATOM     31  C   UNL A   1      35.429  34.586  28.872  1.00  0.00     0.014 A 
ATOM     32  C   UNL A   1      34.893  33.170  31.225  1.00  0.00     0.010 A 
ATOM     33  C   UNL A   1      36.434  33.844  29.476  1.00  0.00     0.010 A 
ATOM     34  C   UNL A   1      36.175  33.123  30.653  1.00  0.00    -0.014 A 
BRANCH  34  35
ATOM     35  C   UNL A   1      37.270  32.328  31.259  1.00  0.00     0.031 A 
ATOM     36  C   UNL A   1      37.765  32.676  32.633  1.00  0.00     0.074 A 
ATOM     37  C   UNL A   1      37.880  31.364  30.540  1.00  0.00     0.049 A 
ATOM     38  N   UNL A   1      38.795  32.207  33.288  1.00  0.00    -0.248 NA
ATOM     39  C   UNL A   1      37.022  33.724  33.352  1.00  0.00     0.031 C 
ATOM     40  C   UNL A   1      37.526  30.970  29.176  1.00  0.00     0.029 A 
ATOM     41  N   UNL A   1      38.943  30.555  30.855  1.00  0.00    -0.354 N 
ATOM     42  C   UNL A   1      38.842  32.922  34.476  1.00  0.00     0.074 A 
ATOM     43  C   UNL A   1      37.767  33.888  34.434  1.00  0.00     0.031 C 
ATOM     44  C   UNL A   1      38.344  29.981  28.779  1.00  0.00     0.029 A 
ATOM     45  C   UNL A   1      39.302  29.699  29.843  1.00  0.00     0.049 A 
ATOM     46  H   UNL A   1      39.404  30.584  31.725  1.00  0.00     0.167 HD
ATOM     47  C   UNL A   1      39.691  32.769  35.518  1.00  0.00     0.037 A 
ATOM     48  C   UNL A   1      40.298  28.795  29.780  1.00  0.00     0.037 A 
ATOM     49  C   UNL A   1      40.729  31.776  35.576  1.00  0.00     0.049 A 
ATOM     50  C   UNL A   1      41.209  28.623  30.966  1.00  0.00     0.074 A 
ATOM     51  C   UNL A   1      41.600  31.498  36.614  1.00  0.00     0.029 A 
ATOM     52  N   UNL A   1      41.027  30.890  34.551  1.00  0.00    -0.354 N 
ATOM     53  N   UNL A   1      41.209  29.267  32.108  1.00  0.00    -0.248 NA
ATOM     54  C   UNL A   1      42.254  27.596  30.856  1.00  0.00     0.031 C 
ATOM     55  C   UNL A   1      42.447  30.460  36.206  1.00  0.00     0.029 A 
ATOM     56  C   UNL A   1      42.076  30.068  34.929  1.00  0.00     0.049 A 
ATOM     57  H   UNL A   1      40.564  30.851  33.684  1.00  0.00     0.167 HD
ATOM     58  C   UNL A   1      42.229  28.703  32.863  1.00  0.00     0.074 A 
ATOM     59  C   UNL A   1      42.823  27.661  32.052  1.00  0.00     0.031 C 
ATOM     60  C   UNL A   1      42.637  29.021  34.115  1.00  0.00     0.037 A 
BRANCH  47  61
ATOM     61  C   UNL A   1      39.525  33.697  36.685  1.00  0.00     0.064 A 
ATOM     62  C   UNL A   1      40.142  34.956  36.716  1.00  0.00     0.173 A 
ATOM     63  C   UNL A   1      38.724  33.331  37.777  1.00  0.00     0.173 A 
ATOM     64  F   UNL A   1      40.931  35.346  35.704  1.00  0.00    -0.203 F 
ATOM     65  C   UNL A   1      39.988  35.803  37.810  1.00  0.00     0.198 A 
ATOM     66  C   UNL A   1      38.548  34.193  38.857  1.00  0.00     0.198 A 
ATOM     67  F   UNL A   1      38.110  32.139  37.797  1.00  0.00    -0.203 F 
ATOM     68  F   UNL A   1      40.629  36.979  37.840  1.00  0.00    -0.200 F 
ATOM     69  C   UNL A   1      39.186  35.423  38.876  1.00  0.00     0.200 A 
ATOM     70  F   UNL A   1      37.765  33.828  39.882  1.00  0.00    -0.200 F 
ATOM     71  F   UNL A   1      39.037  36.241  39.927  1.00  0.00    -0.200 F 
ENDBRANCH  47  61
BRANCH  48  72
ATOM     72  C   UNL A   1      40.467  27.958  28.565  1.00  0.00     0.064 A 
ATOM     73  C   UNL A   1      39.863  26.697  28.475  1.00  0.00     0.173 A 
ATOM     74  C   UNL A   1      41.235  28.394  27.476  1.00  0.00     0.173 A 
ATOM     75  F   UNL A   1      39.137  26.228  29.501  1.00  0.00    -0.203 F 
ATOM     76  C   UNL A   1      40.034  25.894  27.350  1.00  0.00     0.198 A 
ATOM     77  C   UNL A   1      41.385  27.600  26.340  1.00  0.00     0.198 A 
ATOM     78  F   UNL A   1      41.830  29.594  27.511  1.00  0.00    -0.203 F 
ATOM     79  F   UNL A   1      39.480  24.675  27.307  1.00  0.00    -0.200 F 
ATOM     80  C   UNL A   1      40.792  26.348  26.281  1.00  0.00     0.200 A 
ATOM     81  F   UNL A   1      42.109  28.048  25.304  1.00  0.00    -0.200 F 
ATOM     82  F   UNL A   1      40.956  25.577  25.197  1.00  0.00    -0.200 F 
ENDBRANCH  48  72
BRANCH  60  83
ATOM     83  C   UNL A   1      43.746  28.205  34.706  1.00  0.00     0.064 A 
ATOM     84  C   UNL A   1      45.086  28.607  34.614  1.00  0.00     0.173 A 
ATOM     85  C   UNL A   1      43.457  27.032  35.421  1.00  0.00     0.173 A 
ATOM     86  F   UNL A   1      45.413  29.713  33.929  1.00  0.00    -0.203 F 
ATOM     87  C   UNL A   1      46.099  27.855  35.202  1.00  0.00     0.198 A 
ATOM     88  C   UNL A   1      44.469  26.296  36.027  1.00  0.00     0.198 A 
ATOM     89  F   UNL A   1      42.188  26.610  35.541  1.00  0.00    -0.203 F 
ATOM     90  F   UNL A   1      47.377  28.237  35.072  1.00  0.00    -0.200 F 
ATOM     91  C   UNL A   1      45.789  26.705  35.914  1.00  0.00     0.200 A 
ATOM     92  F   UNL A   1      44.167  25.192  36.725  1.00  0.00    -0.200 F 
ATOM     93  F   UNL A   1      46.765  25.988  36.488  1.00  0.00    -0.200 F 
ENDBRANCH  60  83
ENDBRANCH  34  35
ENDBRANCH  26  29
ENDBRANCH  24  25
ENDBRANCH  23  24
ENDBRANCH   1  23
TORSDOF 13
ENDMDL
MODEL 2
REMARK VINA RESULT:     -12.7      0.191      1.613
REMARK SMILES Cn1ccc(NC(=O)[C@@H]2CCCC[C@@H]2C(=O)NCCCCNC(=O)c2ccc(-c3c4nc(c(-c5c(F)c(F)c(F)c(F)c5F)c5ccc([nH]5)c(-c5c(F)c(F)c(F)c(F)c5F)c5nc(c(-c6c(F)c(F)c(F)c(F)c6F)c6ccc3[nH]6)C=C5)C=C4)cc2)n1
REMARK SMILES IDX 19 1 18 2 17 3 15 4 16 5 14 7 9 8 10 9 11 10 13 11 12 12
REMARK SMILES IDX 7 13 6 14 8 16 5 17 1 18 2 19 3 20 88 21 4 22 20 23 21 24
REMARK SMILES IDX 22 25 23 26 24 28 25 29 26 30 87 31 27 32 86 33 28 34 29 35
REMARK SMILES IDX 30 36 80 37 31 38 85 39 79 40 81 41 32 42 84 43 78 44 77 45
REMARK SMILES IDX 33 47 65 48 45 49 64 50 46 51 49 52 63 53 82 54 47 55 48 56
REMARK SMILES IDX 62 58 83 59 50 60 34 61 35 62 43 63 36 64 37 65 41 66 44 67
REMARK SMILES IDX 38 68 39 69 42 70 40 71 66 72 67 73 75 74 68 75 69 76 73 77
REMARK SMILES IDX 76 78 70 79 71 80 74 81 72 82 51 83 52 84 60 85 53 86 54 87
REMARK SMILES IDX 58 88 61 89 55 90 56 91 59 92 57 93
REMARK H PARENT 17 6 6 15 22 27 81 46 49 57
REMARK Flexibility Score: inf
ROOT
ATOM      1  C   UNL A   1      31.761  30.540  26.890  1.00  0.00     0.023 C 
ENDROOT
BRANCH   1   2
ATOM      2  C   UNL A   1      33.036  29.831  26.439  1.00  0.00     0.116 C 
BRANCH   2   3
ATOM      3  N   UNL A   1      32.779  28.430  26.222  1.00  0.00    -0.356 N 
ATOM      4  C   UNL A   1      32.177  27.787  25.187  1.00  0.00     0.223 C 
ATOM      5  O   UNL A   1      32.091  26.563  25.307  1.00  0.00    -0.275 OA
ATOM      6  H   UNL A   1      33.093  27.839  26.944  1.00  0.00     0.163 HD
BRANCH   4   7
ATOM      7  C   UNL A   1      31.726  28.537  23.919  1.00  0.00     0.091 C 
ATOM      8  C   UNL A   1      30.776  27.804  22.937  1.00  0.00     0.091 C 
ATOM      9  C   UNL A   1      31.430  26.479  22.512  1.00  0.00     0.014 C 
ATOM     10  C   UNL A   1      32.709  26.753  21.723  1.00  0.00     0.001 C 
ATOM     11  C   UNL A   1      32.975  28.926  23.085  1.00  0.00     0.014 C 
ATOM     12  C   UNL A   1      33.665  27.729  22.410  1.00  0.00     0.001 C 
BRANCH   8  13
ATOM     13  C   UNL A   1      29.299  27.628  23.298  1.00  0.00     0.229 C 
ATOM     14  N   UNL A   1      28.379  28.625  23.157  1.00  0.00    -0.309 N 
ATOM     15  H   UNL A   1      27.470  28.397  23.457  1.00  0.00     0.171 HD
ATOM     16  O   UNL A   1      28.875  26.550  23.732  1.00  0.00    -0.274 OA
BRANCH  14  17
ATOM     17  C   UNL A   1      28.527  29.895  22.660  1.00  0.00     0.154 A 
ATOM     18  C   UNL A   1      29.006  33.326  23.030  1.00  0.00     0.173 C 
ATOM     19  N   UNL A   1      28.772  31.993  22.532  1.00  0.00    -0.274 N 
ATOM     20  C   UNL A   1      28.315  31.635  21.300  1.00  0.00     0.110 A 
ATOM     21  N   UNL A   1      28.939  30.950  23.359  1.00  0.00    -0.155 NA
ATOM     22  C   UNL A   1      28.195  30.265  21.333  1.00  0.00     0.068 A 
ENDBRANCH  14  17
ENDBRANCH   8  13
ENDBRANCH   4   7
ENDBRANCH   2   3
ENDBRANCH   1   2
BRANCH   1  23
ATOM     23  C   UNL A   1      31.741  32.039  26.613  1.00  0.00     0.023 C 
BRANCH  23  24
ATOM     24  C   UNL A   1      32.795  32.827  27.373  1.00  0.00     0.116 C 
BRANCH  24  25
ATOM     25  N   UNL A   1      32.403  34.199  27.670  1.00  0.00    -0.352 N 
ATOM     26  C   UNL A   1      32.968  35.043  28.598  1.00  0.00     0.251 C 
ATOM     27  H   UNL A   1      31.652  34.562  27.149  1.00  0.00     0.163 HD
ATOM     28  O   UNL A   1      32.512  36.162  28.804  1.00  0.00    -0.269 OA
BRANCH  26  29
ATOM     29  C   UNL A   1      34.112  34.540  29.381  1.00  0.00     0.039 A 
ATOM     30  C   UNL A   1      33.866  33.896  30.595  1.00  0.00     0.014 A 
ATOM     31  C   UNL A   1      35.399  34.588  28.841  1.00  0.00     0.014 A 
ATOM     32  C   UNL A   1      34.907  33.222  31.233  1.00  0.00     0.010 A 
ATOM     33  C   UNL A   1      36.413  33.852  29.437  1.00  0.00     0.010 A 
ATOM     34  C   UNL A   1      36.176  33.155  30.634  1.00  0.00    -0.014 A 
BRANCH  34  35
ATOM     35  C   UNL A   1      37.280  32.365  31.231  1.00  0.00     0.031 A 
ATOM     36  C   UNL A   1      37.776  32.709  32.605  1.00  0.00     0.074 A 
ATOM     37  C   UNL A   1      37.895  31.411  30.505  1.00  0.00     0.049 A 
ATOM     38  N   UNL A   1      38.813  32.244  33.254  1.00  0.00    -0.248 NA
ATOM     39  C   UNL A   1      37.028  33.747  33.334  1.00  0.00     0.031 C 
ATOM     40  C   UNL A   1      37.539  31.023  29.139  1.00  0.00     0.029 A 
ATOM     41  N   UNL A   1      38.965  30.609  30.811  1.00  0.00    -0.354 N 
ATOM     42  C   UNL A   1      38.858  32.952  34.446  1.00  0.00     0.074 A 
ATOM     43  C   UNL A   1      37.775  33.910  34.414  1.00  0.00     0.031 C 
ATOM     44  C   UNL A   1      38.364  30.043  28.732  1.00  0.00     0.029 A 
ATOM     45  C   UNL A   1      39.328  29.762  29.791  1.00  0.00     0.049 A 
ATOM     46  H   UNL A   1      39.429  30.636  31.679  1.00  0.00     0.167 HD
ATOM     47  C   UNL A   1      39.712  32.800  35.485  1.00  0.00     0.037 A 
ATOM     48  C   UNL A   1      40.331  28.867  29.719  1.00  0.00     0.037 A 
ATOM     49  C   UNL A   1      40.759  31.814  35.533  1.00  0.00     0.049 A 
ATOM     50  C   UNL A   1      41.247  28.695  30.901  1.00  0.00     0.074 A 
ATOM     51  C   UNL A   1      41.636  31.537  36.566  1.00  0.00     0.029 A 
ATOM     52  N   UNL A   1      41.060  30.937  34.501  1.00  0.00    -0.354 N 
ATOM     53  N   UNL A   1      41.247  29.331  32.048  1.00  0.00    -0.248 NA
ATOM     54  C   UNL A   1      42.301  27.677  30.781  1.00  0.00     0.031 C 
ATOM     55  C   UNL A   1      42.490  30.509  36.148  1.00  0.00     0.029 A 
ATOM     56  C   UNL A   1      42.117  30.121  34.870  1.00  0.00     0.049 A 
ATOM     57  H   UNL A   1      40.594  30.900  33.635  1.00  0.00     0.167 HD
ATOM     58  C   UNL A   1      42.273  28.771  32.795  1.00  0.00     0.074 A 
ATOM     59  C   UNL A   1      42.874  27.739  31.975  1.00  0.00     0.031 C 
ATOM     60  C   UNL A   1      42.684  29.085  34.047  1.00  0.00     0.037 A 
BRANCH  47  61
ATOM     61  C   UNL A   1      39.542  33.718  36.658  1.00  0.00     0.064 A 
ATOM     62  C   UNL A   1      38.771  33.352  37.771  1.00  0.00     0.173 A 
ATOM     63  C   UNL A   1      40.173  34.971  36.680  1.00  0.00     0.173 A 
ATOM     64  F   UNL A   1      38.133  32.172  37.792  1.00  0.00    -0.203 F 
ATOM     65  C   UNL A   1      38.612  34.219  38.850  1.00  0.00     0.198 A 
ATOM     66  C   UNL A   1      40.037  35.823  37.773  1.00  0.00     0.198 A 
ATOM     67  F   UNL A   1      40.924  35.369  35.642  1.00  0.00    -0.203 F 
ATOM     68  F   UNL A   1      37.828  33.868  39.878  1.00  0.00    -0.200 F 
ATOM     69  C   UNL A   1      39.250  35.450  38.852  1.00  0.00     0.200 A 
ATOM     70  F   UNL A   1      40.661  37.009  37.778  1.00  0.00    -0.200 F 
ATOM     71  F   UNL A   1      39.099  36.281  39.892  1.00  0.00    -0.200 F 
ENDBRANCH  47  61
BRANCH  48  72
ATOM     72  C   UNL A   1      40.503  28.039  28.499  1.00  0.00     0.064 A 
ATOM     73  C   UNL A   1      39.901  26.777  28.399  1.00  0.00     0.173 A 
ATOM     74  C   UNL A   1      41.271  28.484  27.413  1.00  0.00     0.173 A 
ATOM     75  F   UNL A   1      39.175  26.300  29.421  1.00  0.00    -0.203 F 
ATOM     76  C   UNL A   1      40.074  25.983  27.268  1.00  0.00     0.198 A 
ATOM     77  C   UNL A   1      41.423  27.699  26.272  1.00  0.00     0.198 A 
ATOM     78  F   UNL A   1      41.864  29.685  27.458  1.00  0.00    -0.203 F 
ATOM     79  F   UNL A   1      39.522  24.763  27.216  1.00  0.00    -0.200 F 
ATOM     80  C   UNL A   1      40.832  26.446  26.203  1.00  0.00     0.200 A 
ATOM     81  F   UNL A   1      42.148  28.155  25.240  1.00  0.00    -0.200 F 
ATOM     82  F   UNL A   1      40.999  25.683  25.114  1.00  0.00    -0.200 F 
ENDBRANCH  48  72
BRANCH  60  83
ATOM     83  C   UNL A   1      43.802  28.274  34.629  1.00  0.00     0.064 A 
ATOM     84  C   UNL A   1      43.562  27.074  35.313  1.00  0.00     0.173 A 
ATOM     85  C   UNL A   1      45.134  28.679  34.452  1.00  0.00     0.173 A 
ATOM     86  F   UNL A   1      42.305  26.654  35.519  1.00  0.00    -0.203 F 
ATOM     87  C   UNL A   1      44.617  26.316  35.815  1.00  0.00     0.198 A 
ATOM     88  C   UNL A   1      46.186  27.906  34.934  1.00  0.00     0.198 A 
ATOM     89  F   UNL A   1      45.413  29.818  33.800  1.00  0.00    -0.203 F 
ATOM     90  F   UNL A   1      44.365  25.190  36.497  1.00  0.00    -0.200 F 
ATOM     91  C   UNL A   1      45.927  26.729  35.618  1.00  0.00     0.200 A 
ATOM     92  F   UNL A   1      47.452  28.300  34.732  1.00  0.00    -0.200 F 
ATOM     93  F   UNL A   1      46.940  25.992  36.092  1.00  0.00    -0.200 F 
ENDBRANCH  60  83
ENDBRANCH  34  35
ENDBRANCH  26  29
ENDBRANCH  24  25
ENDBRANCH  23  24
ENDBRANCH   1  23
TORSDOF 13
ENDMDL
MODEL 3
REMARK VINA RESULT:     -12.6      3.586      8.884
REMARK SMILES Cn1ccc(NC(=O)[C@@H]2CCCC[C@@H]2C(=O)NCCCCNC(=O)c2ccc(-c3c4nc(c(-c5c(F)c(F)c(F)c(F)c5F)c5ccc([nH]5)c(-c5c(F)c(F)c(F)c(F)c5F)c5nc(c(-c6c(F)c(F)c(F)c(F)c6F)c6ccc3[nH]6)C=C5)C=C4)cc2)n1
REMARK SMILES IDX 19 1 18 2 17 3 15 4 16 5 14 7 9 8 10 9 11 10 13 11 12 12
REMARK SMILES IDX 7 13 6 14 8 16 5 17 1 18 2 19 3 20 88 21 4 22 20 23 21 24
REMARK SMILES IDX 22 25 23 26 24 28 25 29 26 30 87 31 27 32 86 33 28 34 29 35
REMARK SMILES IDX 30 36 80 37 31 38 85 39 79 40 81 41 32 42 84 43 78 44 77 45
REMARK SMILES IDX 33 47 65 48 45 49 64 50 46 51 49 52 63 53 82 54 47 55 48 56
REMARK SMILES IDX 62 58 83 59 50 60 34 61 35 62 43 63 36 64 37 65 41 66 44 67
REMARK SMILES IDX 38 68 39 69 42 70 40 71 66 72 67 73 75 74 68 75 69 76 73 77
REMARK SMILES IDX 76 78 70 79 71 80 74 81 72 82 51 83 52 84 60 85 53 86 54 87
REMARK SMILES IDX 58 88 61 89 55 90 56 91 59 92 57 93
REMARK H PARENT 17 6 6 15 22 27 81 46 49 57
REMARK Flexibility Score: inf
ROOT
ATOM      1  C   UNL A   1      32.531  26.827  25.726  1.00  0.00     0.023 C 
ENDROOT
BRANCH   1   2
ATOM      2  C   UNL A   1      33.327  25.950  24.762  1.00  0.00     0.116 C 
BRANCH   2   3
ATOM      3  N   UNL A   1      34.535  25.483  25.392  1.00  0.00    -0.356 N 
ATOM      4  C   UNL A   1      35.200  24.305  25.273  1.00  0.00     0.223 C 
ATOM      5  O   UNL A   1      36.212  24.199  25.970  1.00  0.00    -0.275 OA
ATOM      6  H   UNL A   1      34.949  26.127  26.012  1.00  0.00     0.163 HD
BRANCH   4   7
ATOM      7  C   UNL A   1      34.763  23.224  24.264  1.00  0.00     0.091 C 
ATOM      8  C   UNL A   1      34.214  21.887  24.821  1.00  0.00     0.091 C 
ATOM      9  C   UNL A   1      35.262  21.274  25.764  1.00  0.00     0.014 C 
ATOM     10  C   UNL A   1      36.524  20.911  24.983  1.00  0.00     0.001 C 
ATOM     11  C   UNL A   1      35.972  22.844  23.369  1.00  0.00     0.014 C 
ATOM     12  C   UNL A   1      37.058  22.044  24.105  1.00  0.00     0.001 C 
BRANCH   8  13
ATOM     13  C   UNL A   1      32.804  21.832  25.413  1.00  0.00     0.229 C 
ATOM     14  N   UNL A   1      32.033  20.707  25.386  1.00  0.00    -0.309 N 
ATOM     15  H   UNL A   1      31.132  20.811  25.768  1.00  0.00     0.171 HD
ATOM     16  O   UNL A   1      32.304  22.824  25.958  1.00  0.00    -0.274 OA
BRANCH  14  17
ATOM     17  C   UNL A   1      32.321  19.454  24.908  1.00  0.00     0.154 A 
ATOM     18  C   UNL A   1      33.373  16.157  25.306  1.00  0.00     0.173 C 
ATOM     19  N   UNL A   1      32.934  17.433  24.795  1.00  0.00    -0.274 N 
ATOM     20  C   UNL A   1      32.945  17.856  23.502  1.00  0.00     0.110 A 
ATOM     21  N   UNL A   1      32.527  18.375  25.659  1.00  0.00    -0.155 NA
ATOM     22  C   UNL A   1      32.498  19.157  23.534  1.00  0.00     0.068 A 
ENDBRANCH  14  17
ENDBRANCH   8  13
ENDBRANCH   4   7
ENDBRANCH   2   3
ENDBRANCH   1   2
BRANCH   1  23
ATOM     23  C   UNL A   1      32.198  28.215  25.189  1.00  0.00     0.023 C 
BRANCH  23  24
ATOM     24  C   UNL A   1      33.224  29.280  25.540  1.00  0.00     0.116 C 
BRANCH  24  25
ATOM     25  N   UNL A   1      32.647  30.485  26.122  1.00  0.00    -0.352 N 
ATOM     26  C   UNL A   1      33.209  31.298  27.078  1.00  0.00     0.251 C 
ATOM     27  H   UNL A   1      31.756  30.745  25.794  1.00  0.00     0.163 HD
ATOM     28  O   UNL A   1      32.599  32.256  27.541  1.00  0.00    -0.269 OA
BRANCH  26  29
ATOM     29  C   UNL A   1      34.553  30.951  27.576  1.00  0.00     0.039 A 
ATOM     30  C   UNL A   1      35.495  31.967  27.741  1.00  0.00     0.014 A 
ATOM     31  C   UNL A   1      34.820  29.648  28.004  1.00  0.00     0.014 A 
ATOM     32  C   UNL A   1      36.684  31.694  28.417  1.00  0.00     0.010 A 
ATOM     33  C   UNL A   1      35.967  29.398  28.743  1.00  0.00     0.010 A 
ATOM     34  C   UNL A   1      36.907  30.418  28.964  1.00  0.00    -0.014 A 
BRANCH  34  35
ATOM     35  C   UNL A   1      38.112  30.117  29.773  1.00  0.00     0.031 A 
ATOM     36  C   UNL A   1      39.151  29.178  29.233  1.00  0.00     0.074 A 
ATOM     37  C   UNL A   1      38.223  30.609  31.023  1.00  0.00     0.049 A 
ATOM     38  N   UNL A   1      40.201  28.672  29.826  1.00  0.00    -0.248 NA
ATOM     39  C   UNL A   1      38.958  28.711  27.850  1.00  0.00     0.031 C 
ATOM     40  C   UNL A   1      37.255  31.489  31.679  1.00  0.00     0.029 A 
ATOM     41  N   UNL A   1      39.196  30.418  31.973  1.00  0.00    -0.354 N 
ATOM     42  C   UNL A   1      40.773  27.808  28.903  1.00  0.00     0.074 A 
ATOM     43  C   UNL A   1      39.930  27.821  27.728  1.00  0.00     0.031 C 
ATOM     44  C   UNL A   1      37.691  31.777  32.917  1.00  0.00     0.029 A 
ATOM     45  C   UNL A   1      38.947  31.073  33.154  1.00  0.00     0.049 A 
ATOM     46  H   UNL A   1      39.996  29.864  31.822  1.00  0.00     0.167 HD
ATOM     47  C   UNL A   1      41.913  27.088  29.018  1.00  0.00     0.037 A 
ATOM     48  C   UNL A   1      39.652  31.095  34.302  1.00  0.00     0.037 A 
ATOM     49  C   UNL A   1      42.774  27.114  30.170  1.00  0.00     0.049 A 
ATOM     50  C   UNL A   1      40.933  30.311  34.391  1.00  0.00     0.074 A 
ATOM     51  C   UNL A   1      43.984  26.471  30.358  1.00  0.00     0.029 A 
ATOM     52  N   UNL A   1      42.516  27.834  31.327  1.00  0.00    -0.354 N 
ATOM     53  N   UNL A   1      41.496  29.540  33.491  1.00  0.00    -0.248 NA
ATOM     54  C   UNL A   1      41.680  30.401  35.653  1.00  0.00     0.031 C 
ATOM     55  C   UNL A   1      44.445  26.778  31.643  1.00  0.00     0.029 A 
ATOM     56  C   UNL A   1      43.541  27.644  32.239  1.00  0.00     0.049 A 
ATOM     57  H   UNL A   1      41.722  28.395  31.479  1.00  0.00     0.167 HD
ATOM     58  C   UNL A   1      42.674  29.082  34.065  1.00  0.00     0.074 A 
ATOM     59  C   UNL A   1      42.750  29.664  35.388  1.00  0.00     0.031 C 
ATOM     60  C   UNL A   1      43.608  28.252  33.542  1.00  0.00     0.037 A 
BRANCH  47  61
ATOM     61  C   UNL A   1      42.297  26.215  27.860  1.00  0.00     0.064 A 
ATOM     62  C   UNL A   1      41.721  24.950  27.672  1.00  0.00     0.173 A 
ATOM     63  C   UNL A   1      43.237  26.656  26.916  1.00  0.00     0.173 A 
ATOM     64  F   UNL A   1      40.831  24.475  28.555  1.00  0.00    -0.203 F 
ATOM     65  C   UNL A   1      42.095  24.145  26.598  1.00  0.00     0.198 A 
ATOM     66  C   UNL A   1      43.585  25.862  25.827  1.00  0.00     0.198 A 
ATOM     67  F   UNL A   1      43.815  27.860  27.048  1.00  0.00    -0.203 F 
ATOM     68  F   UNL A   1      41.570  22.919  26.469  1.00  0.00    -0.200 F 
ATOM     69  C   UNL A   1      43.021  24.605  25.674  1.00  0.00     0.200 A 
ATOM     70  F   UNL A   1      44.474  26.310  24.930  1.00  0.00    -0.200 F 
ATOM     71  F   UNL A   1      43.377  23.830  24.640  1.00  0.00    -0.200 F 
ENDBRANCH  47  61
BRANCH  48  72
ATOM     72  C   UNL A   1      39.182  31.914  35.448  1.00  0.00     0.064 A 
ATOM     73  C   UNL A   1      38.349  31.360  36.429  1.00  0.00     0.173 A 
ATOM     74  C   UNL A   1      39.547  33.261  35.585  1.00  0.00     0.173 A 
ATOM     75  F   UNL A   1      37.956  30.082  36.329  1.00  0.00    -0.203 F 
ATOM     76  C   UNL A   1      37.884  32.126  37.496  1.00  0.00     0.198 A 
ATOM     77  C   UNL A   1      39.101  34.019  36.666  1.00  0.00     0.198 A 
ATOM     78  F   UNL A   1      40.345  33.836  34.675  1.00  0.00    -0.203 F 
ATOM     79  F   UNL A   1      37.055  31.582  38.397  1.00  0.00    -0.200 F 
ATOM     80  C   UNL A   1      38.264  33.454  37.616  1.00  0.00     0.200 A 
ATOM     81  F   UNL A   1      39.480  35.300  36.784  1.00  0.00    -0.200 F 
ATOM     82  F   UNL A   1      37.817  34.191  38.642  1.00  0.00    -0.200 F 
ENDBRANCH  48  72
BRANCH  60  83
ATOM     83  C   UNL A   1      44.817  27.961  34.379  1.00  0.00     0.064 A 
ATOM     84  C   UNL A   1      45.951  28.783  34.345  1.00  0.00     0.173 A 
ATOM     85  C   UNL A   1      44.816  26.873  35.267  1.00  0.00     0.173 A 
ATOM     86  F   UNL A   1      46.004  29.826  33.503  1.00  0.00    -0.203 F 
ATOM     87  C   UNL A   1      47.050  28.518  35.158  1.00  0.00     0.198 A 
ATOM     88  C   UNL A   1      45.906  26.625  36.095  1.00  0.00     0.198 A 
ATOM     89  F   UNL A   1      43.750  26.061  35.338  1.00  0.00    -0.203 F 
ATOM     90  F   UNL A   1      48.139  29.295  35.084  1.00  0.00    -0.200 F 
ATOM     91  C   UNL A   1      47.023  27.444  36.036  1.00  0.00     0.200 A 
ATOM     92  F   UNL A   1      45.874  25.595  36.952  1.00  0.00    -0.200 F 
ATOM     93  F   UNL A   1      48.078  27.197  36.825  1.00  0.00    -0.200 F 
ENDBRANCH  60  83
ENDBRANCH  34  35
ENDBRANCH  26  29
ENDBRANCH  24  25
ENDBRANCH  23  24
ENDBRANCH   1  23
TORSDOF 13
ENDMDL
