MODEL 1
REMARK VINA RESULT:     -12.3      0.000      0.000
REMARK SMILES O=C(CCCCCN1C(=O)/C(=C2\C(=O)Nc3ccccc32)SC1=S)NCCCCNC(=O)c1ccc(-c2c3nc(c(-c4c(F)c(F)c(F)c(F)c4F)c4ccc([nH]4)c(-c4c(F)c(F)c(F)c(F)c4F)c4nc(c(-c5c(F)c(F)c(F)c(F)c5F)c5ccc2[nH]5)C=C4)C=C3)cc1
REMARK SMILES IDX 26 1 25 2 1 3 2 4 3 6 4 7 5 8 6 9 7 10 8 11 9 12 23 13 10 14
REMARK SMILES IDX 11 15 22 16 24 17 12 18 13 19 21 20 14 21 15 22 16 23 20 24
REMARK SMILES IDX 17 26 19 27 18 28 27 29 28 30 29 31 30 32 31 33 32 35 33 36
REMARK SMILES IDX 34 37 95 38 35 39 94 40 36 41 37 42 38 43 88 44 39 45 93 46
REMARK SMILES IDX 87 47 89 48 40 49 92 50 86 51 85 52 41 54 73 55 53 56 72 57
REMARK SMILES IDX 54 58 57 59 71 60 90 61 55 62 56 63 70 65 91 66 58 67 42 68
REMARK SMILES IDX 43 69 51 70 44 71 45 72 49 73 52 74 46 75 47 76 50 77 48 78
REMARK SMILES IDX 74 79 75 80 83 81 76 82 77 83 81 84 84 85 78 86 79 87 82 88
REMARK SMILES IDX 80 89 59 90 60 91 68 92 61 93 62 94 66 95 69 96 63 97 64 98
REMARK SMILES IDX 67 99 65 100
REMARK H PARENT 25 5 15 25 30 34 89 53 57 64
REMARK Flexibility Score: inf
ROOT
ATOM      1  C   UNL A   1      35.117  32.378  28.006  1.00  0.00     0.116 C 
ENDROOT
BRANCH   1   2
ATOM      2  N   UNL A   1      34.838  30.956  27.989  1.00  0.00    -0.356 N 
ATOM      3  O   UNL A   1      32.837  31.126  26.877  1.00  0.00    -0.275 OA
ATOM      4  C   UNL A   1      33.720  30.437  27.374  1.00  0.00     0.219 C 
ATOM      5  H   UNL A   1      35.467  30.343  28.433  1.00  0.00     0.163 HD
BRANCH   4   6
ATOM      6  C   UNL A   1      33.672  28.921  27.341  1.00  0.00     0.100 C 
BRANCH   6   7
ATOM      7  C   UNL A   1      32.305  28.375  26.919  1.00  0.00     0.010 C 
BRANCH   7   8
ATOM      8  C   UNL A   1      32.325  27.065  26.129  1.00  0.00     0.002 C 
BRANCH   8   9
ATOM      9  C   UNL A   1      33.684  26.716  25.512  1.00  0.00     0.022 C 
BRANCH   9  10
ATOM     10  C   UNL A   1      33.637  25.608  24.460  1.00  0.00     0.127 C 
BRANCH  10  11
ATOM     11  N   UNL A   1      33.123  24.302  24.879  1.00  0.00    -0.293 N 
ATOM     12  C   UNL A   1      33.988  23.473  25.609  1.00  0.00     0.267 C 
ATOM     13  C   UNL A   1      31.925  23.723  24.514  1.00  0.00     0.148 C 
ATOM     14  O   UNL A   1      35.008  23.828  26.172  1.00  0.00    -0.268 OA
ATOM     15  C   UNL A   1      33.452  22.081  25.547  1.00  0.00     0.093 C 
ATOM     16  S   UNL A   1      31.737  22.234  25.411  1.00  0.00    -0.053 SA
ATOM     17  S   UNL A   1      30.774  24.176  23.398  1.00  0.00    -0.052 S 
ATOM     18  C   UNL A   1      34.156  20.966  25.295  1.00  0.00     0.069 C 
ATOM     19  C   UNL A   1      35.649  20.799  25.440  1.00  0.00     0.257 C 
ATOM     20  C   UNL A   1      33.654  19.695  24.720  1.00  0.00     0.012 A 
ATOM     21  O   UNL A   1      36.482  21.600  25.815  1.00  0.00    -0.269 OA
ATOM     22  N   UNL A   1      35.908  19.493  25.058  1.00  0.00    -0.321 N 
ATOM     23  C   UNL A   1      34.759  18.850  24.615  1.00  0.00     0.049 A 
ATOM     24  C   UNL A   1      32.446  19.296  24.166  1.00  0.00     0.011 A 
ATOM     25  H   UNL A   1      36.798  19.071  25.096  1.00  0.00     0.170 HD
ATOM     26  C   UNL A   1      34.691  17.590  24.051  1.00  0.00     0.027 A 
ATOM     27  C   UNL A   1      32.354  18.037  23.566  1.00  0.00     0.001 A 
ATOM     28  C   UNL A   1      33.465  17.184  23.523  1.00  0.00     0.002 A 
ENDBRANCH  10  11
ENDBRANCH   9  10
ENDBRANCH   8   9
ENDBRANCH   7   8
ENDBRANCH   6   7
ENDBRANCH   4   6
ENDBRANCH   1   2
BRANCH   1  29
ATOM     29  C   UNL A   1      34.486  33.081  29.206  1.00  0.00     0.023 C 
BRANCH  29  30
ATOM     30  C   UNL A   1      33.387  34.090  28.870  1.00  0.00     0.023 C 
BRANCH  30  31
ATOM     31  C   UNL A   1      33.576  35.484  29.457  1.00  0.00     0.116 C 
BRANCH  31  32
ATOM     32  N   UNL A   1      32.607  35.806  30.496  1.00  0.00    -0.352 N 
ATOM     33  C   UNL A   1      32.647  35.557  31.850  1.00  0.00     0.251 C 
ATOM     34  H   UNL A   1      31.800  36.274  30.182  1.00  0.00     0.163 HD
ATOM     35  O   UNL A   1      31.666  35.790  32.550  1.00  0.00    -0.269 OA
BRANCH  33  36
ATOM     36  C   UNL A   1      33.856  34.960  32.458  1.00  0.00     0.039 A 
ATOM     37  C   UNL A   1      35.053  35.673  32.519  1.00  0.00     0.014 A 
ATOM     38  C   UNL A   1      33.802  33.647  32.937  1.00  0.00     0.014 A 
ATOM     39  C   UNL A   1      36.231  35.013  32.848  1.00  0.00     0.010 A 
ATOM     40  C   UNL A   1      34.972  33.016  33.370  1.00  0.00     0.010 A 
ATOM     41  C   UNL A   1      36.209  33.671  33.265  1.00  0.00    -0.014 A 
BRANCH  41  42
ATOM     42  C   UNL A   1      37.489  32.971  33.556  1.00  0.00     0.031 A 
ATOM     43  C   UNL A   1      38.227  33.218  34.845  1.00  0.00     0.074 A 
ATOM     44  C   UNL A   1      37.959  32.062  32.682  1.00  0.00     0.049 A 
ATOM     45  N   UNL A   1      39.342  32.679  35.278  1.00  0.00    -0.248 NA
ATOM     46  C   UNL A   1      37.646  34.203  35.770  1.00  0.00     0.031 C 
ATOM     47  C   UNL A   1      37.328  31.720  31.406  1.00  0.00     0.029 A 
ATOM     48  N   UNL A   1      39.060  31.243  32.740  1.00  0.00    -0.354 N 
ATOM     49  C   UNL A   1      39.599  33.267  36.510  1.00  0.00     0.074 A 
ATOM     50  C   UNL A   1      38.550  34.236  36.740  1.00  0.00     0.031 C 
ATOM     51  C   UNL A   1      38.020  30.728  30.828  1.00  0.00     0.029 A 
ATOM     52  C   UNL A   1      39.180  30.411  31.654  1.00  0.00     0.049 A 
ATOM     53  H   UNL A   1      39.699  31.251  33.487  1.00  0.00     0.167 HD
ATOM     54  C   UNL A   1      40.607  33.009  37.378  1.00  0.00     0.037 A 
ATOM     55  C   UNL A   1      40.126  29.504  31.346  1.00  0.00     0.037 A 
ATOM     56  C   UNL A   1      41.642  32.032  37.152  1.00  0.00     0.049 A 
ATOM     57  C   UNL A   1      41.269  29.282  32.294  1.00  0.00     0.074 A 
ATOM     58  C   UNL A   1      42.690  31.679  37.986  1.00  0.00     0.029 A 
ATOM     59  N   UNL A   1      41.766  31.257  36.008  1.00  0.00    -0.354 N 
ATOM     60  N   UNL A   1      41.486  29.823  33.467  1.00  0.00    -0.248 NA
ATOM     61  C   UNL A   1      42.301  28.326  31.873  1.00  0.00     0.031 C 
ATOM     62  C   UNL A   1      43.481  30.738  37.321  1.00  0.00     0.029 A 
ATOM     63  C   UNL A   1      42.891  30.453  36.100  1.00  0.00     0.049 A 
ATOM     64  H   UNL A   1      41.146  31.275  35.243  1.00  0.00     0.167 HD
ATOM     65  C   UNL A   1      42.670  29.268  33.932  1.00  0.00     0.074 A 
ATOM     66  C   UNL A   1      43.112  28.327  32.923  1.00  0.00     0.031 C 
ATOM     67  C   UNL A   1      43.329  29.521  35.090  1.00  0.00     0.037 A 
BRANCH  54  68
ATOM     68  C   UNL A   1      40.654  33.804  38.654  1.00  0.00     0.064 A 
ATOM     69  C   UNL A   1      41.440  34.960  38.776  1.00  0.00     0.173 A 
ATOM     70  C   UNL A   1      39.860  33.435  39.753  1.00  0.00     0.173 A 
ATOM     71  F   UNL A   1      42.223  35.355  37.761  1.00  0.00    -0.203 F 
ATOM     72  C   UNL A   1      41.451  35.699  39.958  1.00  0.00     0.198 A 
ATOM     73  C   UNL A   1      39.847  34.196  40.919  1.00  0.00     0.198 A 
ATOM     74  F   UNL A   1      39.081  32.345  39.689  1.00  0.00    -0.203 F 
ATOM     75  F   UNL A   1      42.248  36.772  40.065  1.00  0.00    -0.200 F 
ATOM     76  C   UNL A   1      40.649  35.323  41.023  1.00  0.00     0.200 A 
ATOM     77  F   UNL A   1      39.058  33.840  41.941  1.00  0.00    -0.200 F 
ATOM     78  F   UNL A   1      40.652  36.043  42.154  1.00  0.00    -0.200 F 
ENDBRANCH  54  68
BRANCH  55  79
ATOM     79  C   UNL A   1      40.007  28.737  30.079  1.00  0.00     0.064 A 
ATOM     80  C   UNL A   1      40.537  29.239  28.883  1.00  0.00     0.173 A 
ATOM     81  C   UNL A   1      39.419  27.463  30.051  1.00  0.00     0.173 A 
ATOM     82  F   UNL A   1      41.092  30.459  28.856  1.00  0.00    -0.203 F 
ATOM     83  C   UNL A   1      40.487  28.493  27.708  1.00  0.00     0.198 A 
ATOM     84  C   UNL A   1      39.399  26.705  28.882  1.00  0.00     0.198 A 
ATOM     85  F   UNL A   1      38.902  26.938  31.171  1.00  0.00    -0.203 F 
ATOM     86  F   UNL A   1      40.983  29.003  26.572  1.00  0.00    -0.200 F 
ATOM     87  C   UNL A   1      39.931  27.222  27.711  1.00  0.00     0.200 A 
ATOM     88  F   UNL A   1      38.880  25.470  28.896  1.00  0.00    -0.200 F 
ATOM     89  F   UNL A   1      39.909  26.494  26.586  1.00  0.00    -0.200 F 
ENDBRANCH  55  79
BRANCH  67  90
ATOM     90  C   UNL A   1      44.601  28.764  35.346  1.00  0.00     0.064 A 
ATOM     91  C   UNL A   1      44.598  27.517  35.988  1.00  0.00     0.173 A 
ATOM     92  C   UNL A   1      45.830  29.256  34.877  1.00  0.00     0.173 A 
ATOM     93  F   UNL A   1      43.453  27.009  36.469  1.00  0.00    -0.203 F 
ATOM     94  C   UNL A   1      45.777  26.799  36.165  1.00  0.00     0.198 A 
ATOM     95  C   UNL A   1      47.001  28.519  35.025  1.00  0.00     0.198 A 
ATOM     96  F   UNL A   1      45.890  30.441  34.250  1.00  0.00    -0.203 F 
ATOM     97  F   UNL A   1      45.754  25.628  36.815  1.00  0.00    -0.200 F 
ATOM     98  C   UNL A   1      46.976  27.294  35.672  1.00  0.00     0.200 A 
ATOM     99  F   UNL A   1      48.155  28.992  34.532  1.00  0.00    -0.200 F 
ATOM    100  F   UNL A   1      48.106  26.591  35.825  1.00  0.00    -0.200 F 
ENDBRANCH  67  90
ENDBRANCH  41  42
ENDBRANCH  33  36
ENDBRANCH  31  32
ENDBRANCH  30  31
ENDBRANCH  29  30
ENDBRANCH   1  29
TORSDOF 16
ENDMDL
MODEL 2
REMARK VINA RESULT:     -12.3      1.493      2.300
REMARK SMILES O=C(CCCCCN1C(=O)/C(=C2\C(=O)Nc3ccccc32)SC1=S)NCCCCNC(=O)c1ccc(-c2c3nc(c(-c4c(F)c(F)c(F)c(F)c4F)c4ccc([nH]4)c(-c4c(F)c(F)c(F)c(F)c4F)c4nc(c(-c5c(F)c(F)c(F)c(F)c5F)c5ccc2[nH]5)C=C4)C=C3)cc1
REMARK SMILES IDX 26 1 25 2 1 3 2 4 3 6 4 7 5 8 6 9 7 10 8 11 9 12 23 13 10 14
REMARK SMILES IDX 11 15 22 16 24 17 12 18 13 19 21 20 14 21 15 22 16 23 20 24
REMARK SMILES IDX 17 26 19 27 18 28 27 29 28 30 29 31 30 32 31 33 32 35 33 36
REMARK SMILES IDX 34 37 95 38 35 39 94 40 36 41 37 42 38 43 88 44 39 45 93 46
REMARK SMILES IDX 87 47 89 48 40 49 92 50 86 51 85 52 41 54 73 55 53 56 72 57
REMARK SMILES IDX 54 58 57 59 71 60 90 61 55 62 56 63 70 65 91 66 58 67 42 68
REMARK SMILES IDX 43 69 51 70 44 71 45 72 49 73 52 74 46 75 47 76 50 77 48 78
REMARK SMILES IDX 74 79 75 80 83 81 76 82 77 83 81 84 84 85 78 86 79 87 82 88
REMARK SMILES IDX 80 89 59 90 60 91 68 92 61 93 62 94 66 95 69 96 63 97 64 98
REMARK SMILES IDX 67 99 65 100
REMARK H PARENT 25 5 15 25 30 34 89 53 57 64
REMARK Flexibility Score: inf
ROOT
ATOM      1  C   UNL A   1      34.749  32.166  29.523  1.00  0.00     0.116 C 
ENDROOT
BRANCH   1   2
ATOM      2  N   UNL A   1      34.162  31.319  28.505  1.00  0.00    -0.356 N 
ATOM      3  O   UNL A   1      36.151  30.467  27.736  1.00  0.00    -0.275 OA
ATOM      4  C   UNL A   1      34.926  30.490  27.711  1.00  0.00     0.219 C 
ATOM      5  H   UNL A   1      33.187  31.336  28.375  1.00  0.00     0.163 HD
BRANCH   4   6
ATOM      6  C   UNL A   1      34.122  29.580  26.802  1.00  0.00     0.100 C 
BRANCH   6   7
ATOM      7  C   UNL A   1      32.624  29.591  27.117  1.00  0.00     0.010 C 
BRANCH   7   8
ATOM      8  C   UNL A   1      31.753  28.678  26.252  1.00  0.00     0.002 C 
BRANCH   8   9
ATOM      9  C   UNL A   1      31.400  27.336  26.900  1.00  0.00     0.022 C 
BRANCH   9  10
ATOM     10  C   UNL A   1      30.502  26.437  26.050  1.00  0.00     0.127 C 
BRANCH  10  11
ATOM     11  N   UNL A   1      31.145  25.343  25.318  1.00  0.00    -0.293 N 
ATOM     12  C   UNL A   1      31.396  24.156  26.024  1.00  0.00     0.267 C 
ATOM     13  C   UNL A   1      31.672  25.390  24.043  1.00  0.00     0.148 C 
ATOM     14  O   UNL A   1      30.887  23.837  27.083  1.00  0.00    -0.268 OA
ATOM     15  C   UNL A   1      32.415  23.375  25.262  1.00  0.00     0.093 C 
ATOM     16  S   UNL A   1      32.181  23.777  23.598  1.00  0.00    -0.053 SA
ATOM     17  S   UNL A   1      31.919  26.663  22.997  1.00  0.00    -0.052 S 
ATOM     18  C   UNL A   1      33.500  22.770  25.771  1.00  0.00     0.069 C 
ATOM     19  C   UNL A   1      33.712  22.377  27.212  1.00  0.00     0.257 C 
ATOM     20  C   UNL A   1      34.765  22.451  25.067  1.00  0.00     0.012 A 
ATOM     21  O   UNL A   1      32.969  22.507  28.164  1.00  0.00    -0.269 OA
ATOM     22  N   UNL A   1      34.971  21.800  27.251  1.00  0.00    -0.321 N 
ATOM     23  C   UNL A   1      35.601  21.859  26.015  1.00  0.00     0.049 A 
ATOM     24  C   UNL A   1      35.279  22.758  23.815  1.00  0.00     0.011 A 
ATOM     25  H   UNL A   1      35.369  21.397  28.057  1.00  0.00     0.170 HD
ATOM     26  C   UNL A   1      36.904  21.489  25.741  1.00  0.00     0.027 A 
ATOM     27  C   UNL A   1      36.602  22.418  23.518  1.00  0.00     0.001 A 
ATOM     28  C   UNL A   1      37.403  21.774  24.470  1.00  0.00     0.002 A 
ENDBRANCH  10  11
ENDBRANCH   9  10
ENDBRANCH   8   9
ENDBRANCH   7   8
ENDBRANCH   6   7
ENDBRANCH   4   6
ENDBRANCH   1   2
BRANCH   1  29
ATOM     29  C   UNL A   1      34.963  33.598  29.035  1.00  0.00     0.023 C 
BRANCH  29  30
ATOM     30  C   UNL A   1      33.687  34.415  28.827  1.00  0.00     0.023 C 
BRANCH  30  31
ATOM     31  C   UNL A   1      33.654  35.768  29.529  1.00  0.00     0.116 C 
BRANCH  31  32
ATOM     32  N   UNL A   1      32.603  35.870  30.533  1.00  0.00    -0.352 N 
ATOM     33  C   UNL A   1      32.590  35.449  31.844  1.00  0.00     0.251 C 
ATOM     34  H   UNL A   1      31.776  36.306  30.227  1.00  0.00     0.163 HD
ATOM     35  O   UNL A   1      31.553  35.507  32.500  1.00  0.00    -0.269 OA
BRANCH  33  36
ATOM     36  C   UNL A   1      33.812  34.880  32.453  1.00  0.00     0.039 A 
ATOM     37  C   UNL A   1      35.007  35.599  32.463  1.00  0.00     0.014 A 
ATOM     38  C   UNL A   1      33.771  33.587  32.984  1.00  0.00     0.014 A 
ATOM     39  C   UNL A   1      36.194  34.955  32.796  1.00  0.00     0.010 A 
ATOM     40  C   UNL A   1      34.951  32.977  33.420  1.00  0.00     0.010 A 
ATOM     41  C   UNL A   1      36.184  33.631  33.266  1.00  0.00    -0.014 A 
BRANCH  41  42
ATOM     42  C   UNL A   1      37.471  32.946  33.561  1.00  0.00     0.031 A 
ATOM     43  C   UNL A   1      38.197  33.192  34.857  1.00  0.00     0.074 A 
ATOM     44  C   UNL A   1      37.961  32.052  32.682  1.00  0.00     0.049 A 
ATOM     45  N   UNL A   1      39.316  32.665  35.294  1.00  0.00    -0.248 NA
ATOM     46  C   UNL A   1      37.594  34.160  35.787  1.00  0.00     0.031 C 
ATOM     47  C   UNL A   1      37.345  31.712  31.399  1.00  0.00     0.029 A 
ATOM     48  N   UNL A   1      39.073  31.248  32.741  1.00  0.00    -0.354 N 
ATOM     49  C   UNL A   1      39.555  33.246  36.532  1.00  0.00     0.074 A 
ATOM     50  C   UNL A   1      38.491  34.198  36.763  1.00  0.00     0.031 C 
ATOM     51  C   UNL A   1      38.054  30.736  30.817  1.00  0.00     0.029 A 
ATOM     52  C   UNL A   1      39.213  30.428  31.649  1.00  0.00     0.049 A 
ATOM     53  H   UNL A   1      39.706  31.259  33.493  1.00  0.00     0.167 HD
ATOM     54  C   UNL A   1      40.560  32.995  37.406  1.00  0.00     0.037 A 
ATOM     55  C   UNL A   1      40.174  29.537  31.340  1.00  0.00     0.037 A 
ATOM     56  C   UNL A   1      41.611  32.034  37.179  1.00  0.00     0.049 A 
ATOM     57  C   UNL A   1      41.313  29.322  32.295  1.00  0.00     0.074 A 
ATOM     58  C   UNL A   1      42.657  31.689  38.018  1.00  0.00     0.029 A 
ATOM     59  N   UNL A   1      41.754  31.272  36.029  1.00  0.00    -0.354 N 
ATOM     60  N   UNL A   1      41.514  29.857  33.474  1.00  0.00    -0.248 NA
ATOM     61  C   UNL A   1      42.362  28.385  31.873  1.00  0.00     0.031 C 
ATOM     62  C   UNL A   1      43.466  30.765  37.351  1.00  0.00     0.029 A 
ATOM     63  C   UNL A   1      42.890  30.482  36.123  1.00  0.00     0.049 A 
ATOM     64  H   UNL A   1      41.139  31.288  35.260  1.00  0.00     0.167 HD
ATOM     65  C   UNL A   1      42.702  29.314  33.943  1.00  0.00     0.074 A 
ATOM     66  C   UNL A   1      43.165  28.389  32.929  1.00  0.00     0.031 C 
ATOM     67  C   UNL A   1      43.349  29.566  35.108  1.00  0.00     0.037 A 
BRANCH  54  68
ATOM     68  C   UNL A   1      40.586  33.778  38.689  1.00  0.00     0.064 A 
ATOM     69  C   UNL A   1      39.832  33.391  39.808  1.00  0.00     0.173 A 
ATOM     70  C   UNL A   1      41.420  34.901  38.821  1.00  0.00     0.173 A 
ATOM     71  F   UNL A   1      39.013  32.331  39.736  1.00  0.00    -0.203 F 
ATOM     72  C   UNL A   1      39.889  34.114  40.998  1.00  0.00     0.198 A 
ATOM     73  C   UNL A   1      41.501  35.600  40.023  1.00  0.00     0.198 A 
ATOM     74  F   UNL A   1      42.171  35.311  37.789  1.00  0.00    -0.203 F 
ATOM     75  F   UNL A   1      39.122  33.752  42.035  1.00  0.00    -0.200 F 
ATOM     76  C   UNL A   1      40.729  35.211  41.108  1.00  0.00     0.200 A 
ATOM     77  F   UNL A   1      42.327  36.649  40.132  1.00  0.00    -0.200 F 
ATOM     78  F   UNL A   1      40.792  35.896  42.258  1.00  0.00    -0.200 F 
ENDBRANCH  54  68
BRANCH  55  79
ATOM     79  C   UNL A   1      40.075  28.780  30.066  1.00  0.00     0.064 A 
ATOM     80  C   UNL A   1      40.654  29.274  28.889  1.00  0.00     0.173 A 
ATOM     81  C   UNL A   1      39.458  27.520  30.011  1.00  0.00     0.173 A 
ATOM     82  F   UNL A   1      41.239  30.481  28.886  1.00  0.00    -0.203 F 
ATOM     83  C   UNL A   1      40.622  28.536  27.709  1.00  0.00     0.198 A 
ATOM     84  C   UNL A   1      39.455  26.770  28.839  1.00  0.00     0.198 A 
ATOM     85  F   UNL A   1      38.894  27.002  31.112  1.00  0.00    -0.203 F 
ATOM     86  F   UNL A   1      41.165  29.040  26.592  1.00  0.00    -0.200 F 
ATOM     87  C   UNL A   1      40.035  27.279  27.688  1.00  0.00     0.200 A 
ATOM     88  F   UNL A   1      38.906  25.547  28.829  1.00  0.00    -0.200 F 
ATOM     89  F   UNL A   1      40.030  26.558  26.558  1.00  0.00    -0.200 F 
ENDBRANCH  55  79
BRANCH  67  90
ATOM     90  C   UNL A   1      44.629  28.825  35.367  1.00  0.00     0.064 A 
ATOM     91  C   UNL A   1      45.875  29.369  35.023  1.00  0.00     0.173 A 
ATOM     92  C   UNL A   1      44.616  27.591  36.037  1.00  0.00     0.173 A 
ATOM     93  F   UNL A   1      45.944  30.537  34.368  1.00  0.00    -0.203 F 
ATOM     94  C   UNL A   1      47.058  28.699  35.325  1.00  0.00     0.198 A 
ATOM     95  C   UNL A   1      45.802  26.941  36.368  1.00  0.00     0.198 A 
ATOM     96  F   UNL A   1      43.452  27.029  36.396  1.00  0.00    -0.203 F 
ATOM     97  F   UNL A   1      48.235  29.220  34.951  1.00  0.00    -0.200 F 
ATOM     98  C   UNL A   1      47.021  27.492  36.008  1.00  0.00     0.200 A 
ATOM     99  F   UNL A   1      45.763  25.784  37.045  1.00  0.00    -0.200 F 
ATOM    100  F   UNL A   1      48.162  26.860  36.315  1.00  0.00    -0.200 F 
ENDBRANCH  67  90
ENDBRANCH  41  42
ENDBRANCH  33  36
ENDBRANCH  31  32
ENDBRANCH  30  31
ENDBRANCH  29  30
ENDBRANCH   1  29
TORSDOF 16
ENDMDL
MODEL 3
REMARK VINA RESULT:     -12.3      6.345     12.209
REMARK SMILES O=C(CCCCCN1C(=O)/C(=C2\C(=O)Nc3ccccc32)SC1=S)NCCCCNC(=O)c1ccc(-c2c3nc(c(-c4c(F)c(F)c(F)c(F)c4F)c4ccc([nH]4)c(-c4c(F)c(F)c(F)c(F)c4F)c4nc(c(-c5c(F)c(F)c(F)c(F)c5F)c5ccc2[nH]5)C=C4)C=C3)cc1
REMARK SMILES IDX 26 1 25 2 1 3 2 4 3 6 4 7 5 8 6 9 7 10 8 11 9 12 23 13 10 14
REMARK SMILES IDX 11 15 22 16 24 17 12 18 13 19 21 20 14 21 15 22 16 23 20 24
REMARK SMILES IDX 17 26 19 27 18 28 27 29 28 30 29 31 30 32 31 33 32 35 33 36
REMARK SMILES IDX 34 37 95 38 35 39 94 40 36 41 37 42 38 43 88 44 39 45 93 46
REMARK SMILES IDX 87 47 89 48 40 49 92 50 86 51 85 52 41 54 73 55 53 56 72 57
REMARK SMILES IDX 54 58 57 59 71 60 90 61 55 62 56 63 70 65 91 66 58 67 42 68
REMARK SMILES IDX 43 69 51 70 44 71 45 72 49 73 52 74 46 75 47 76 50 77 48 78
REMARK SMILES IDX 74 79 75 80 83 81 76 82 77 83 81 84 84 85 78 86 79 87 82 88
REMARK SMILES IDX 80 89 59 90 60 91 68 92 61 93 62 94 66 95 69 96 63 97 64 98
REMARK SMILES IDX 67 99 65 100
REMARK H PARENT 25 5 15 25 30 34 89 53 57 64
REMARK Flexibility Score: inf
ROOT
ATOM      1  C   UNL A   1      40.126  22.103  27.066  1.00  0.00     0.116 C 
ENDROOT
BRANCH   1   2
ATOM      2  N   UNL A   1      38.902  22.388  26.344  1.00  0.00    -0.356 N 
ATOM      3  O   UNL A   1      38.777  24.596  26.960  1.00  0.00    -0.275 OA
ATOM      4  C   UNL A   1      38.344  23.648  26.315  1.00  0.00     0.219 C 
ATOM      5  H   UNL A   1      38.454  21.657  25.860  1.00  0.00     0.163 HD
BRANCH   4   6
ATOM      6  C   UNL A   1      37.145  23.779  25.397  1.00  0.00     0.100 C 
BRANCH   6   7
ATOM      7  C   UNL A   1      36.151  22.623  25.541  1.00  0.00     0.010 C 
BRANCH   7   8
ATOM      8  C   UNL A   1      35.604  22.047  24.234  1.00  0.00     0.002 C 
BRANCH   8   9
ATOM      9  C   UNL A   1      35.336  23.089  23.143  1.00  0.00     0.022 C 
BRANCH   9  10
ATOM     10  C   UNL A   1      33.926  23.045  22.555  1.00  0.00     0.127 C 
BRANCH  10  11
ATOM     11  N   UNL A   1      32.949  24.003  23.076  1.00  0.00    -0.293 N 
ATOM     12  C   UNL A   1      32.928  25.281  22.496  1.00  0.00     0.267 C 
ATOM     13  C   UNL A   1      32.135  23.847  24.180  1.00  0.00     0.148 C 
ATOM     14  O   UNL A   1      33.429  25.587  21.430  1.00  0.00    -0.268 OA
ATOM     15  C   UNL A   1      32.211  26.198  23.431  1.00  0.00     0.093 C 
ATOM     16  S   UNL A   1      31.060  25.222  24.270  1.00  0.00    -0.053 SA
ATOM     17  S   UNL A   1      32.087  22.669  25.357  1.00  0.00    -0.052 S 
ATOM     18  C   UNL A   1      32.604  27.428  23.799  1.00  0.00     0.069 C 
ATOM     19  C   UNL A   1      33.580  28.313  23.064  1.00  0.00     0.257 C 
ATOM     20  C   UNL A   1      32.259  28.146  25.050  1.00  0.00     0.012 A 
ATOM     21  O   UNL A   1      34.173  28.109  22.023  1.00  0.00    -0.269 OA
ATOM     22  N   UNL A   1      33.673  29.466  23.827  1.00  0.00    -0.321 N 
ATOM     23  C   UNL A   1      32.928  29.370  24.995  1.00  0.00     0.049 A 
ATOM     24  C   UNL A   1      31.602  27.790  26.219  1.00  0.00     0.011 A 
ATOM     25  H   UNL A   1      34.203  30.256  23.572  1.00  0.00     0.170 HD
ATOM     26  C   UNL A   1      32.902  30.287  26.028  1.00  0.00     0.027 A 
ATOM     27  C   UNL A   1      31.581  28.687  27.290  1.00  0.00     0.001 A 
ATOM     28  C   UNL A   1      32.214  29.933  27.189  1.00  0.00     0.002 A 
ENDBRANCH  10  11
ENDBRANCH   9  10
ENDBRANCH   8   9
ENDBRANCH   7   8
ENDBRANCH   6   7
ENDBRANCH   4   6
ENDBRANCH   1   2
BRANCH   1  29
ATOM     29  C   UNL A   1      41.226  21.563  26.155  1.00  0.00     0.023 C 
BRANCH  29  30
ATOM     30  C   UNL A   1      41.312  20.038  26.066  1.00  0.00     0.023 C 
BRANCH  30  31
ATOM     31  C   UNL A   1      42.686  19.442  26.348  1.00  0.00     0.116 C 
BRANCH  31  32
ATOM     32  N   UNL A   1      43.372  18.984  25.148  1.00  0.00    -0.352 N 
ATOM     33  C   UNL A   1      44.250  19.651  24.323  1.00  0.00     0.251 C 
ATOM     34  H   UNL A   1      43.178  18.056  24.886  1.00  0.00     0.163 HD
ATOM     35  O   UNL A   1      44.626  19.135  23.274  1.00  0.00    -0.269 OA
BRANCH  33  36
ATOM     36  C   UNL A   1      44.706  21.014  24.673  1.00  0.00     0.039 A 
ATOM     37  C   UNL A   1      45.567  21.225  25.750  1.00  0.00     0.014 A 
ATOM     38  C   UNL A   1      44.230  22.104  23.937  1.00  0.00     0.014 A 
ATOM     39  C   UNL A   1      45.773  22.517  26.222  1.00  0.00     0.010 A 
ATOM     40  C   UNL A   1      44.527  23.406  24.351  1.00  0.00     0.010 A 
ATOM     41  C   UNL A   1      45.244  23.623  25.538  1.00  0.00    -0.014 A 
BRANCH  41  42
ATOM     42  C   UNL A   1      45.430  24.990  26.096  1.00  0.00     0.031 A 
ATOM     43  C   UNL A   1      46.764  25.683  26.010  1.00  0.00     0.074 A 
ATOM     44  C   UNL A   1      44.376  25.635  26.630  1.00  0.00     0.049 A 
ATOM     45  N   UNL A   1      47.103  26.883  26.420  1.00  0.00    -0.248 NA
ATOM     46  C   UNL A   1      47.868  24.934  25.390  1.00  0.00     0.031 C 
ATOM     47  C   UNL A   1      43.029  25.080  26.757  1.00  0.00     0.029 A 
ATOM     48  N   UNL A   1      44.264  26.904  27.144  1.00  0.00    -0.354 N 
ATOM     49  C   UNL A   1      48.452  27.023  26.122  1.00  0.00     0.074 A 
ATOM     50  C   UNL A   1      48.885  25.773  25.536  1.00  0.00     0.031 C 
ATOM     51  C   UNL A   1      42.215  26.017  27.262  1.00  0.00     0.029 A 
ATOM     52  C   UNL A   1      42.994  27.214  27.561  1.00  0.00     0.049 A 
ATOM     53  H   UNL A   1      45.021  27.529  27.207  1.00  0.00     0.167 HD
ATOM     54  C   UNL A   1      49.252  28.101  26.302  1.00  0.00     0.037 A 
ATOM     55  C   UNL A   1      42.507  28.331  28.134  1.00  0.00     0.037 A 
ATOM     56  C   UNL A   1      48.814  29.350  26.872  1.00  0.00     0.049 A 
ATOM     57  C   UNL A   1      43.429  29.491  28.383  1.00  0.00     0.074 A 
ATOM     58  C   UNL A   1      49.544  30.510  27.069  1.00  0.00     0.029 A 
ATOM     59  N   UNL A   1      47.534  29.601  27.343  1.00  0.00    -0.354 N 
ATOM     60  N   UNL A   1      44.695  29.621  28.072  1.00  0.00    -0.248 NA
ATOM     61  C   UNL A   1      42.855  30.656  29.069  1.00  0.00     0.031 C 
ATOM     62  C   UNL A   1      48.724  31.439  27.716  1.00  0.00     0.029 A 
ATOM     63  C   UNL A   1      47.463  30.885  27.862  1.00  0.00     0.049 A 
ATOM     64  H   UNL A   1      46.785  28.962  27.314  1.00  0.00     0.167 HD
ATOM     65  C   UNL A   1      45.069  30.884  28.509  1.00  0.00     0.074 A 
ATOM     66  C   UNL A   1      43.887  31.491  29.087  1.00  0.00     0.031 C 
ATOM     67  C   UNL A   1      46.284  31.482  28.440  1.00  0.00     0.037 A 
BRANCH  54  68
ATOM     68  C   UNL A   1      50.694  27.981  25.891  1.00  0.00     0.064 A 
ATOM     69  C   UNL A   1      51.099  28.139  24.557  1.00  0.00     0.173 A 
ATOM     70  C   UNL A   1      51.693  27.760  26.854  1.00  0.00     0.173 A 
ATOM     71  F   UNL A   1      50.187  28.344  23.594  1.00  0.00    -0.203 F 
ATOM     72  C   UNL A   1      52.442  28.051  24.198  1.00  0.00     0.198 A 
ATOM     73  C   UNL A   1      53.039  27.709  26.497  1.00  0.00     0.198 A 
ATOM     74  F   UNL A   1      51.366  27.613  28.146  1.00  0.00    -0.203 F 
ATOM     75  F   UNL A   1      52.797  28.156  22.910  1.00  0.00    -0.200 F 
ATOM     76  C   UNL A   1      53.411  27.846  25.168  1.00  0.00     0.200 A 
ATOM     77  F   UNL A   1      53.974  27.528  27.439  1.00  0.00    -0.200 F 
ATOM     78  F   UNL A   1      54.704  27.776  24.822  1.00  0.00    -0.200 F 
ENDBRANCH  54  68
BRANCH  55  79
ATOM     79  C   UNL A   1      41.068  28.392  28.495  1.00  0.00     0.064 A 
ATOM     80  C   UNL A   1      40.623  27.956  29.750  1.00  0.00     0.173 A 
ATOM     81  C   UNL A   1      40.119  28.943  27.619  1.00  0.00     0.173 A 
ATOM     82  F   UNL A   1      41.488  27.405  30.614  1.00  0.00    -0.203 F 
ATOM     83  C   UNL A   1      39.284  28.074  30.117  1.00  0.00     0.198 A 
ATOM     84  C   UNL A   1      38.788  29.090  28.000  1.00  0.00     0.198 A 
ATOM     85  F   UNL A   1      40.497  29.378  26.409  1.00  0.00    -0.203 F 
ATOM     86  F   UNL A   1      38.880  27.631  31.315  1.00  0.00    -0.200 F 
ATOM     87  C   UNL A   1      38.371  28.653  29.248  1.00  0.00     0.200 A 
ATOM     88  F   UNL A   1      37.914  29.669  27.165  1.00  0.00    -0.200 F 
ATOM     89  F   UNL A   1      37.089  28.790  29.613  1.00  0.00    -0.200 F 
ENDBRANCH  55  79
BRANCH  67  90
ATOM     90  C   UNL A   1      46.408  32.873  28.993  1.00  0.00     0.064 A 
ATOM     91  C   UNL A   1      46.149  34.003  28.203  1.00  0.00     0.173 A 
ATOM     92  C   UNL A   1      46.716  33.077  30.348  1.00  0.00     0.173 A 
ATOM     93  F   UNL A   1      45.865  33.864  26.900  1.00  0.00    -0.203 F 
ATOM     94  C   UNL A   1      46.208  35.284  28.744  1.00  0.00     0.198 A 
ATOM     95  C   UNL A   1      46.741  34.358  30.893  1.00  0.00     0.198 A 
ATOM     96  F   UNL A   1      46.966  32.031  31.150  1.00  0.00    -0.203 F 
ATOM     97  F   UNL A   1      45.995  36.351  27.961  1.00  0.00    -0.200 F 
ATOM     98  C   UNL A   1      46.492  35.460  30.091  1.00  0.00     0.200 A 
ATOM     99  F   UNL A   1      46.997  34.523  32.198  1.00  0.00    -0.200 F 
ATOM    100  F   UNL A   1      46.528  36.693  30.614  1.00  0.00    -0.200 F 
ENDBRANCH  67  90
ENDBRANCH  41  42
ENDBRANCH  33  36
ENDBRANCH  31  32
ENDBRANCH  30  31
ENDBRANCH  29  30
ENDBRANCH   1  29
TORSDOF 16
ENDMDL
