MODEL 1
REMARK VINA RESULT:     -13.2      0.000      0.000
REMARK SMILES N#Cc1ccc2c(c1)C=C(C(=O)NCCCCNC(=O)c1ccc(-c3c4nc(c(-c5c(F)c(F)c(F)c(F)c5F)c5ccc([nH]5)c(-c5c(F)c(F)c(F)c(F)c5F)c5nc(c(-c6c(F)c(F)c(F)c(F)c6F)c6ccc3[nH]6)C=C5)C=C4)cc1)[C@@H](C(F)(F)F)O2
REMARK SMILES IDX 16 1 15 2 14 3 13 4 11 5 12 6 10 8 3 9 4 10 8 11 5 12 7 13
REMARK SMILES IDX 6 14 9 15 89 16 84 17 2 18 1 19 85 20 86 21 87 22 88 23
REMARK SMILES IDX 17 24 18 25 19 26 20 28 21 29 22 30 83 31 23 32 82 33 24 34
REMARK SMILES IDX 25 35 26 36 76 37 27 38 81 39 75 40 77 41 28 42 80 43 74 44
REMARK SMILES IDX 73 45 29 47 61 48 41 49 60 50 42 51 45 52 59 53 78 54 43 55
REMARK SMILES IDX 44 56 58 58 79 59 46 60 30 61 31 62 39 63 32 64 33 65 37 66
REMARK SMILES IDX 40 67 34 68 35 69 38 70 36 71 62 72 63 73 71 74 64 75 65 76
REMARK SMILES IDX 69 77 72 78 66 79 67 80 70 81 68 82 47 83 48 84 56 85 49 86
REMARK SMILES IDX 50 87 54 88 57 89 51 90 52 91 55 92 53 93
REMARK H PARENT 13 7 18 27 77 46 45 57
REMARK Flexibility Score: inf
ROOT
ATOM      1  C   UNL A   1      32.914  29.316  24.873  1.00  0.00     0.023 C 
ENDROOT
BRANCH   1   2
ATOM      2  C   UNL A   1      34.059  28.385  24.499  1.00  0.00     0.023 C 
BRANCH   2   3
ATOM      3  C   UNL A   1      33.781  26.928  24.841  1.00  0.00     0.116 C 
BRANCH   3   4
ATOM      4  N   UNL A   1      33.426  26.144  23.670  1.00  0.00    -0.352 N 
ATOM      5  C   UNL A   1      32.343  26.008  22.865  1.00  0.00     0.251 C 
ATOM      6  O   UNL A   1      32.481  25.238  21.909  1.00  0.00    -0.270 OA
ATOM      7  H   UNL A   1      34.165  25.559  23.387  1.00  0.00     0.163 HD
BRANCH   5   8
ATOM      8  C   UNL A   1      31.039  26.708  23.070  1.00  0.00     0.067 C 
ATOM      9  C   UNL A   1      28.298  30.654  22.499  1.00  0.00     0.053 A 
ATOM     10  C   UNL A   1      27.185  29.943  22.963  1.00  0.00     0.023 A 
ATOM     11  C   UNL A   1      29.543  30.019  22.388  1.00  0.00     0.031 A 
ATOM     12  C   UNL A   1      27.318  28.607  23.321  1.00  0.00     0.048 A 
ATOM     13  C   UNL A   1      29.678  28.673  22.747  1.00  0.00     0.018 A 
ATOM     14  C   UNL A   1      28.560  27.986  23.220  1.00  0.00     0.128 A 
ATOM     15  C   UNL A   1      30.943  27.961  22.589  1.00  0.00     0.025 C 
ATOM     16  O   UNL A   1      28.584  26.672  23.567  1.00  0.00    -0.475 OA
ATOM     17  C   UNL A   1      29.884  26.081  23.793  1.00  0.00     0.314 C 
BRANCH   9  18
ATOM     18  C   UNL A   1      28.149  32.028  22.126  1.00  0.00     0.099 C 
ATOM     19  N   UNL A   1      28.014  33.141  21.818  1.00  0.00    -0.192 NA
ENDBRANCH   9  18
BRANCH  17  20
ATOM     20  C   UNL A   1      30.131  25.977  25.312  1.00  0.00     0.429 C 
ATOM     21  F   UNL A   1      28.965  25.733  25.963  1.00  0.00    -0.167 F 
ATOM     22  F   UNL A   1      30.968  24.964  25.642  1.00  0.00    -0.167 F 
ATOM     23  F   UNL A   1      30.661  27.106  25.831  1.00  0.00    -0.167 F 
ENDBRANCH  17  20
ENDBRANCH   5   8
ENDBRANCH   3   4
ENDBRANCH   2   3
ENDBRANCH   1   2
BRANCH   1  24
ATOM     24  C   UNL A   1      32.787  29.586  26.365  1.00  0.00     0.116 C 
BRANCH  24  25
ATOM     25  N   UNL A   1      32.489  30.976  26.697  1.00  0.00    -0.352 N 
ATOM     26  C   UNL A   1      33.298  31.878  27.355  1.00  0.00     0.251 C 
ATOM     27  H   UNL A   1      31.606  31.309  26.417  1.00  0.00     0.163 HD
ATOM     28  O   UNL A   1      32.894  32.989  27.670  1.00  0.00    -0.269 OA
BRANCH  26  29
ATOM     29  C   UNL A   1      34.658  31.434  27.717  1.00  0.00     0.039 A 
ATOM     30  C   UNL A   1      34.872  30.090  28.019  1.00  0.00     0.014 A 
ATOM     31  C   UNL A   1      35.653  32.387  27.931  1.00  0.00     0.014 A 
ATOM     32  C   UNL A   1      35.990  29.740  28.760  1.00  0.00     0.010 A 
ATOM     33  C   UNL A   1      36.841  32.000  28.556  1.00  0.00     0.010 A 
ATOM     34  C   UNL A   1      36.991  30.688  29.036  1.00  0.00    -0.014 A 
BRANCH  34  35
ATOM     35  C   UNL A   1      38.180  30.274  29.827  1.00  0.00     0.031 A 
ATOM     36  C   UNL A   1      38.378  30.740  31.246  1.00  0.00     0.074 A 
ATOM     37  C   UNL A   1      39.057  29.417  29.271  1.00  0.00     0.049 A 
ATOM     38  N   UNL A   1      39.358  30.467  32.073  1.00  0.00    -0.248 NA
ATOM     39  C   UNL A   1      37.352  31.630  31.815  1.00  0.00     0.031 C 
ATOM     40  C   UNL A   1      38.959  28.879  27.912  1.00  0.00     0.029 A 
ATOM     41  N   UNL A   1      40.184  28.824  29.779  1.00  0.00    -0.354 N 
ATOM     42  C   UNL A   1      39.076  31.160  33.244  1.00  0.00     0.074 A 
ATOM     43  C   UNL A   1      37.855  31.899  33.012  1.00  0.00     0.031 C 
ATOM     44  C   UNL A   1      39.942  27.992  27.716  1.00  0.00     0.029 A 
ATOM     45  C   UNL A   1      40.795  27.966  28.898  1.00  0.00     0.049 A 
ATOM     46  H   UNL A   1      40.523  28.998  30.687  1.00  0.00     0.167 HD
ATOM     47  C   UNL A   1      39.767  31.162  34.410  1.00  0.00     0.037 A 
ATOM     48  C   UNL A   1      41.931  27.254  29.012  1.00  0.00     0.037 A 
ATOM     49  C   UNL A   1      40.975  30.409  34.636  1.00  0.00     0.049 A 
ATOM     50  C   UNL A   1      42.715  27.337  30.290  1.00  0.00     0.074 A 
ATOM     51  C   UNL A   1      41.738  30.335  35.789  1.00  0.00     0.029 A 
ATOM     52  N   UNL A   1      41.597  29.602  33.694  1.00  0.00    -0.354 N 
ATOM     53  N   UNL A   1      42.430  27.983  31.393  1.00  0.00    -0.248 NA
ATOM     54  C   UNL A   1      43.982  26.597  30.336  1.00  0.00     0.031 C 
ATOM     55  C   UNL A   1      42.855  29.539  35.524  1.00  0.00     0.029 A 
ATOM     56  C   UNL A   1      42.752  29.053  34.231  1.00  0.00     0.049 A 
ATOM     57  H   UNL A   1      41.267  29.442  32.780  1.00  0.00     0.167 HD
ATOM     58  C   UNL A   1      43.467  27.710  32.273  1.00  0.00     0.074 A 
ATOM     59  C   UNL A   1      44.378  26.821  31.582  1.00  0.00     0.031 C 
ATOM     60  C   UNL A   1      43.646  28.160  33.538  1.00  0.00     0.037 A 
BRANCH  47  61
ATOM     61  C   UNL A   1      39.249  32.006  35.542  1.00  0.00     0.064 A 
ATOM     62  C   UNL A   1      38.421  31.471  36.540  1.00  0.00     0.173 A 
ATOM     63  C   UNL A   1      39.664  33.340  35.683  1.00  0.00     0.173 A 
ATOM     64  F   UNL A   1      37.989  30.205  36.453  1.00  0.00    -0.203 F 
ATOM     65  C   UNL A   1      38.018  32.243  37.628  1.00  0.00     0.198 A 
ATOM     66  C   UNL A   1      39.286  34.099  36.788  1.00  0.00     0.198 A 
ATOM     67  F   UNL A   1      40.465  33.901  34.763  1.00  0.00    -0.203 F 
ATOM     68  F   UNL A   1      37.199  31.720  38.550  1.00  0.00    -0.200 F 
ATOM     69  C   UNL A   1      38.460  33.551  37.757  1.00  0.00     0.200 A 
ATOM     70  F   UNL A   1      39.732  35.355  36.922  1.00  0.00    -0.200 F 
ATOM     71  F   UNL A   1      38.090  34.285  38.816  1.00  0.00    -0.200 F 
ENDBRANCH  47  61
BRANCH  48  72
ATOM     72  C   UNL A   1      42.382  26.408  27.876  1.00  0.00     0.064 A 
ATOM     73  C   UNL A   1      41.888  25.108  27.708  1.00  0.00     0.173 A 
ATOM     74  C   UNL A   1      43.287  26.891  26.918  1.00  0.00     0.173 A 
ATOM     75  F   UNL A   1      41.032  24.596  28.605  1.00  0.00    -0.203 F 
ATOM     76  C   UNL A   1      42.289  24.321  26.631  1.00  0.00     0.198 A 
ATOM     77  C   UNL A   1      43.657  26.117  25.822  1.00  0.00     0.198 A 
ATOM     78  F   UNL A   1      43.785  28.132  27.028  1.00  0.00    -0.203 F 
ATOM     79  F   UNL A   1      41.831  23.067  26.515  1.00  0.00    -0.200 F 
ATOM     80  C   UNL A   1      43.164  24.829  25.684  1.00  0.00     0.200 A 
ATOM     81  F   UNL A   1      44.484  26.623  24.896  1.00  0.00    -0.200 F 
ATOM     82  F   UNL A   1      43.534  24.077  24.638  1.00  0.00    -0.200 F 
ENDBRANCH  48  72
BRANCH  60  83
ATOM     83  C   UNL A   1      44.860  27.682  34.283  1.00  0.00     0.064 A 
ATOM     84  C   UNL A   1      46.055  28.416  34.291  1.00  0.00     0.173 A 
ATOM     85  C   UNL A   1      44.801  26.516  35.064  1.00  0.00     0.173 A 
ATOM     86  F   UNL A   1      46.169  29.529  33.551  1.00  0.00    -0.203 F 
ATOM     87  C   UNL A   1      47.149  27.993  35.042  1.00  0.00     0.198 A 
ATOM     88  C   UNL A   1      45.883  26.118  35.842  1.00  0.00     0.198 A 
ATOM     89  F   UNL A   1      43.679  25.781  35.097  1.00  0.00    -0.203 F 
ATOM     90  F   UNL A   1      48.293  28.689  35.004  1.00  0.00    -0.200 F 
ATOM     91  C   UNL A   1      47.059  26.853  35.827  1.00  0.00     0.200 A 
ATOM     92  F   UNL A   1      45.785  25.028  36.615  1.00  0.00    -0.200 F 
ATOM     93  F   UNL A   1      48.104  26.463  36.568  1.00  0.00    -0.200 F 
ENDBRANCH  60  83
ENDBRANCH  34  35
ENDBRANCH  26  29
ENDBRANCH  24  25
ENDBRANCH   1  24
TORSDOF 13
ENDMDL
MODEL 2
REMARK VINA RESULT:     -13.2      0.241      7.318
REMARK SMILES N#Cc1ccc2c(c1)C=C(C(=O)NCCCCNC(=O)c1ccc(-c3c4nc(c(-c5c(F)c(F)c(F)c(F)c5F)c5ccc([nH]5)c(-c5c(F)c(F)c(F)c(F)c5F)c5nc(c(-c6c(F)c(F)c(F)c(F)c6F)c6ccc3[nH]6)C=C5)C=C4)cc1)[C@@H](C(F)(F)F)O2
REMARK SMILES IDX 16 1 15 2 14 3 13 4 11 5 12 6 10 8 3 9 4 10 8 11 5 12 7 13
REMARK SMILES IDX 6 14 9 15 89 16 84 17 2 18 1 19 85 20 86 21 87 22 88 23
REMARK SMILES IDX 17 24 18 25 19 26 20 28 21 29 22 30 83 31 23 32 82 33 24 34
REMARK SMILES IDX 25 35 26 36 76 37 27 38 81 39 75 40 77 41 28 42 80 43 74 44
REMARK SMILES IDX 73 45 29 47 61 48 41 49 60 50 42 51 45 52 59 53 78 54 43 55
REMARK SMILES IDX 44 56 58 58 79 59 46 60 30 61 31 62 39 63 32 64 33 65 37 66
REMARK SMILES IDX 40 67 34 68 35 69 38 70 36 71 62 72 63 73 71 74 64 75 65 76
REMARK SMILES IDX 69 77 72 78 66 79 67 80 70 81 68 82 47 83 48 84 56 85 49 86
REMARK SMILES IDX 50 87 54 88 57 89 51 90 52 91 55 92 53 93
REMARK H PARENT 13 7 18 27 77 46 45 57
REMARK Flexibility Score: inf
ROOT
ATOM      1  C   UNL A   1      33.044  29.260  24.681  1.00  0.00     0.023 C 
ENDROOT
BRANCH   1   2
ATOM      2  C   UNL A   1      34.111  28.270  24.235  1.00  0.00     0.023 C 
BRANCH   2   3
ATOM      3  C   UNL A   1      33.783  26.830  24.607  1.00  0.00     0.116 C 
BRANCH   3   4
ATOM      4  N   UNL A   1      33.356  26.047  23.460  1.00  0.00    -0.352 N 
ATOM      5  C   UNL A   1      32.234  25.933  22.707  1.00  0.00     0.251 C 
ATOM      6  O   UNL A   1      32.308  25.153  21.753  1.00  0.00    -0.270 OA
ATOM      7  H   UNL A   1      34.066  25.441  23.149  1.00  0.00     0.163 HD
BRANCH   5   8
ATOM      8  C   UNL A   1      30.959  26.668  22.966  1.00  0.00     0.067 C 
ATOM      9  C   UNL A   1      28.269  30.654  22.429  1.00  0.00     0.053 A 
ATOM     10  C   UNL A   1      27.172  29.983  22.981  1.00  0.00     0.023 A 
ATOM     11  C   UNL A   1      29.493  29.988  22.266  1.00  0.00     0.031 A 
ATOM     12  C   UNL A   1      27.299  28.655  23.373  1.00  0.00     0.048 A 
ATOM     13  C   UNL A   1      29.621  28.652  22.660  1.00  0.00     0.018 A 
ATOM     14  C   UNL A   1      28.519  28.004  23.219  1.00  0.00     0.128 A 
ATOM     15  C   UNL A   1      30.859  27.907  22.451  1.00  0.00     0.025 C 
ATOM     16  O   UNL A   1      28.537  26.701  23.607  1.00  0.00    -0.475 OA
ATOM     17  C   UNL A   1      29.836  26.089  23.775  1.00  0.00     0.314 C 
BRANCH   9  18
ATOM     18  C   UNL A   1      28.126  32.019  22.022  1.00  0.00     0.099 C 
ATOM     19  N   UNL A   1      28.024  33.130  21.696  1.00  0.00    -0.192 NA
ENDBRANCH   9  18
BRANCH  17  20
ATOM     20  C   UNL A   1      30.170  26.027  25.280  1.00  0.00     0.429 C 
ATOM     21  F   UNL A   1      29.057  25.734  25.998  1.00  0.00    -0.167 F 
ATOM     22  F   UNL A   1      31.077  25.066  25.579  1.00  0.00    -0.167 F 
ATOM     23  F   UNL A   1      30.667  27.192  25.750  1.00  0.00    -0.167 F 
ENDBRANCH  17  20
ENDBRANCH   5   8
ENDBRANCH   3   4
ENDBRANCH   2   3
ENDBRANCH   1   2
BRANCH   1  24
ATOM     24  C   UNL A   1      32.967  29.462  26.188  1.00  0.00     0.116 C 
BRANCH  24  25
ATOM     25  N   UNL A   1      32.652  30.829  26.591  1.00  0.00    -0.352 N 
ATOM     26  C   UNL A   1      33.428  31.687  27.341  1.00  0.00     0.251 C 
ATOM     27  H   UNL A   1      31.782  31.180  26.292  1.00  0.00     0.163 HD
ATOM     28  O   UNL A   1      33.009  32.777  27.705  1.00  0.00    -0.269 OA
BRANCH  26  29
ATOM     29  C   UNL A   1      34.770  31.218  27.737  1.00  0.00     0.039 A 
ATOM     30  C   UNL A   1      34.947  29.877  28.072  1.00  0.00     0.014 A 
ATOM     31  C   UNL A   1      35.785  32.152  27.948  1.00  0.00     0.014 A 
ATOM     32  C   UNL A   1      36.043  29.517  28.840  1.00  0.00     0.010 A 
ATOM     33  C   UNL A   1      36.952  31.751  28.603  1.00  0.00     0.010 A 
ATOM     34  C   UNL A   1      37.062  30.447  29.114  1.00  0.00    -0.014 A 
BRANCH  34  35
ATOM     35  C   UNL A   1      38.226  30.022  29.935  1.00  0.00     0.031 A 
ATOM     36  C   UNL A   1      39.288  29.111  29.377  1.00  0.00     0.074 A 
ATOM     37  C   UNL A   1      38.350  30.518  31.182  1.00  0.00     0.049 A 
ATOM     38  N   UNL A   1      40.367  28.651  29.960  1.00  0.00    -0.248 NA
ATOM     39  C   UNL A   1      39.122  28.651  27.988  1.00  0.00     0.031 C 
ATOM     40  C   UNL A   1      37.397  31.425  31.823  1.00  0.00     0.029 A 
ATOM     41  N   UNL A   1      39.336  30.357  32.121  1.00  0.00    -0.354 N 
ATOM     42  C   UNL A   1      40.995  27.841  29.022  1.00  0.00     0.074 A 
ATOM     43  C   UNL A   1      40.159  27.837  27.842  1.00  0.00     0.031 C 
ATOM     44  C   UNL A   1      37.871  31.789  33.021  1.00  0.00     0.029 A 
ATOM     45  C   UNL A   1      39.114  31.071  33.273  1.00  0.00     0.049 A 
ATOM     46  H   UNL A   1      40.125  29.783  31.984  1.00  0.00     0.167 HD
ATOM     47  C   UNL A   1      42.170  27.175  29.133  1.00  0.00     0.037 A 
ATOM     48  C   UNL A   1      39.815  31.125  34.419  1.00  0.00     0.037 A 
ATOM     49  C   UNL A   1      43.005  27.198  30.308  1.00  0.00     0.049 A 
ATOM     50  C   UNL A   1      41.075  30.317  34.540  1.00  0.00     0.074 A 
ATOM     51  C   UNL A   1      44.222  26.569  30.511  1.00  0.00     0.029 A 
ATOM     52  N   UNL A   1      42.712  27.883  31.480  1.00  0.00    -0.354 N 
ATOM     53  N   UNL A   1      41.663  29.567  33.641  1.00  0.00    -0.248 NA
ATOM     54  C   UNL A   1      41.764  30.356  35.836  1.00  0.00     0.031 C 
ATOM     55  C   UNL A   1      44.631  26.817  31.823  1.00  0.00     0.029 A 
ATOM     56  C   UNL A   1      43.708  27.664  32.418  1.00  0.00     0.049 A 
ATOM     57  H   UNL A   1      41.914  28.442  31.622  1.00  0.00     0.167 HD
ATOM     58  C   UNL A   1      42.804  29.065  34.252  1.00  0.00     0.074 A 
ATOM     59  C   UNL A   1      42.835  29.614  35.593  1.00  0.00     0.031 C 
ATOM     60  C   UNL A   1      43.736  28.223  33.746  1.00  0.00     0.037 A 
BRANCH  47  61
ATOM     61  C   UNL A   1      42.638  26.355  27.963  1.00  0.00     0.064 A 
ATOM     62  C   UNL A   1      42.176  25.048  27.747  1.00  0.00     0.173 A 
ATOM     63  C   UNL A   1      43.484  26.917  26.993  1.00  0.00     0.173 A 
ATOM     64  F   UNL A   1      41.372  24.459  28.644  1.00  0.00    -0.203 F 
ATOM     65  C   UNL A   1      42.554  24.331  26.614  1.00  0.00     0.198 A 
ATOM     66  C   UNL A   1      43.833  26.209  25.845  1.00  0.00     0.198 A 
ATOM     67  F   UNL A   1      43.948  28.168  27.142  1.00  0.00    -0.203 F 
ATOM     68  F   UNL A   1      42.127  23.072  26.448  1.00  0.00    -0.200 F 
ATOM     69  C   UNL A   1      43.371  24.916  25.658  1.00  0.00     0.200 A 
ATOM     70  F   UNL A   1      44.605  26.785  24.913  1.00  0.00    -0.200 F 
ATOM     71  F   UNL A   1      43.714  24.233  24.557  1.00  0.00    -0.200 F 
ENDBRANCH  47  61
BRANCH  48  72
ATOM     72  C   UNL A   1      39.330  31.978  35.536  1.00  0.00     0.064 A 
ATOM     73  C   UNL A   1      38.483  31.456  36.522  1.00  0.00     0.173 A 
ATOM     74  C   UNL A   1      39.727  33.318  35.659  1.00  0.00     0.173 A 
ATOM     75  F   UNL A   1      38.063  30.185  36.440  1.00  0.00    -0.203 F 
ATOM     76  C   UNL A   1      38.045  32.245  37.585  1.00  0.00     0.198 A 
ATOM     77  C   UNL A   1      39.320  34.094  36.742  1.00  0.00     0.198 A 
ATOM     78  F   UNL A   1      40.544  33.865  34.745  1.00  0.00    -0.203 F 
ATOM     79  F   UNL A   1      37.205  31.733  38.494  1.00  0.00    -0.200 F 
ATOM     80  C   UNL A   1      38.473  33.559  37.699  1.00  0.00     0.200 A 
ATOM     81  F   UNL A   1      39.757  35.356  36.860  1.00  0.00    -0.200 F 
ATOM     82  F   UNL A   1      38.067  34.311  38.731  1.00  0.00    -0.200 F 
ENDBRANCH  48  72
BRANCH  60  83
ATOM     83  C   UNL A   1      44.896  27.855  34.628  1.00  0.00     0.064 A 
ATOM     84  C   UNL A   1      44.863  26.720  35.451  1.00  0.00     0.173 A 
ATOM     85  C   UNL A   1      46.084  28.601  34.586  1.00  0.00     0.173 A 
ATOM     86  F   UNL A   1      43.747  25.981  35.538  1.00  0.00    -0.203 F 
ATOM     87  C   UNL A   1      45.972  26.355  36.210  1.00  0.00     0.198 A 
ATOM     88  C   UNL A   1      47.202  28.212  35.317  1.00  0.00     0.198 A 
ATOM     89  F   UNL A   1      46.172  29.692  33.809  1.00  0.00    -0.203 F 
ATOM     90  F   UNL A   1      45.905  25.289  37.019  1.00  0.00    -0.200 F 
ATOM     91  C   UNL A   1      47.144  27.092  36.133  1.00  0.00     0.200 A 
ATOM     92  F   UNL A   1      48.339  28.914  35.224  1.00  0.00    -0.200 F 
ATOM     93  F   UNL A   1      48.217  26.724  36.845  1.00  0.00    -0.200 F 
ENDBRANCH  60  83
ENDBRANCH  34  35
ENDBRANCH  26  29
ENDBRANCH  24  25
ENDBRANCH   1  24
TORSDOF 13
ENDMDL
MODEL 3
REMARK VINA RESULT:     -13.1      0.204      7.500
REMARK SMILES N#Cc1ccc2c(c1)C=C(C(=O)NCCCCNC(=O)c1ccc(-c3c4nc(c(-c5c(F)c(F)c(F)c(F)c5F)c5ccc([nH]5)c(-c5c(F)c(F)c(F)c(F)c5F)c5nc(c(-c6c(F)c(F)c(F)c(F)c6F)c6ccc3[nH]6)C=C5)C=C4)cc1)[C@@H](C(F)(F)F)O2
REMARK SMILES IDX 16 1 15 2 14 3 13 4 11 5 12 6 10 8 3 9 4 10 8 11 5 12 7 13
REMARK SMILES IDX 6 14 9 15 89 16 84 17 2 18 1 19 85 20 86 21 87 22 88 23
REMARK SMILES IDX 17 24 18 25 19 26 20 28 21 29 22 30 83 31 23 32 82 33 24 34
REMARK SMILES IDX 25 35 26 36 76 37 27 38 81 39 75 40 77 41 28 42 80 43 74 44
REMARK SMILES IDX 73 45 29 47 61 48 41 49 60 50 42 51 45 52 59 53 78 54 43 55
REMARK SMILES IDX 44 56 58 58 79 59 46 60 30 61 31 62 39 63 32 64 33 65 37 66
REMARK SMILES IDX 40 67 34 68 35 69 38 70 36 71 62 72 63 73 71 74 64 75 65 76
REMARK SMILES IDX 69 77 72 78 66 79 67 80 70 81 68 82 47 83 48 84 56 85 49 86
REMARK SMILES IDX 50 87 54 88 57 89 51 90 52 91 55 92 53 93
REMARK H PARENT 13 7 18 27 77 46 45 57
REMARK Flexibility Score: inf
ROOT
ATOM      1  C   UNL A   1      32.879  29.392  25.176  1.00  0.00     0.023 C 
ENDROOT
BRANCH   1   2
ATOM      2  C   UNL A   1      34.083  28.501  24.906  1.00  0.00     0.023 C 
BRANCH   2   3
ATOM      3  C   UNL A   1      33.803  27.026  25.159  1.00  0.00     0.116 C 
BRANCH   3   4
ATOM      4  N   UNL A   1      33.557  26.292  23.928  1.00  0.00    -0.352 N 
ATOM      5  C   UNL A   1      32.538  26.163  23.044  1.00  0.00     0.251 C 
ATOM      6  O   UNL A   1      32.768  25.449  22.063  1.00  0.00    -0.270 OA
ATOM      7  H   UNL A   1      34.334  25.747  23.669  1.00  0.00     0.163 HD
BRANCH   5   8
ATOM      8  C   UNL A   1      31.198  26.809  23.192  1.00  0.00     0.067 C 
ATOM      9  C   UNL A   1      28.333  30.651  22.524  1.00  0.00     0.053 A 
ATOM     10  C   UNL A   1      27.228  29.891  22.926  1.00  0.00     0.023 A 
ATOM     11  C   UNL A   1      29.607  30.066  22.468  1.00  0.00     0.031 A 
ATOM     12  C   UNL A   1      27.397  28.557  23.277  1.00  0.00     0.048 A 
ATOM     13  C   UNL A   1      29.777  28.723  22.820  1.00  0.00     0.018 A 
ATOM     14  C   UNL A   1      28.666  27.986  23.231  1.00  0.00     0.128 A 
ATOM     15  C   UNL A   1      31.075  28.063  22.718  1.00  0.00     0.025 C 
ATOM     16  O   UNL A   1      28.725  26.671  23.567  1.00  0.00    -0.475 OA
ATOM     17  C   UNL A   1      30.035  26.129  23.851  1.00  0.00     0.314 C 
BRANCH   9  18
ATOM     18  C   UNL A   1      28.147  32.022  22.157  1.00  0.00     0.099 C 
ATOM     19  N   UNL A   1      28.012  33.138  21.861  1.00  0.00    -0.192 NA
ENDBRANCH   9  18
BRANCH  17  20
ATOM     20  C   UNL A   1      30.212  26.017  25.379  1.00  0.00     0.429 C 
ATOM     21  F   UNL A   1      30.622  27.204  25.894  1.00  0.00    -0.167 F 
ATOM     22  F   UNL A   1      29.060  25.704  26.022  1.00  0.00    -0.167 F 
ATOM     23  F   UNL A   1      31.121  25.082  25.730  1.00  0.00    -0.167 F 
ENDBRANCH  17  20
ENDBRANCH   5   8
ENDBRANCH   3   4
ENDBRANCH   2   3
ENDBRANCH   1   2
BRANCH   1  24
ATOM     24  C   UNL A   1      32.682  29.756  26.641  1.00  0.00     0.116 C 
BRANCH  24  25
ATOM     25  N   UNL A   1      32.528  31.186  26.886  1.00  0.00    -0.352 N 
ATOM     26  C   UNL A   1      33.437  32.046  27.464  1.00  0.00     0.251 C 
ATOM     27  H   UNL A   1      31.673  31.585  26.603  1.00  0.00     0.163 HD
ATOM     28  O   UNL A   1      33.150  33.209  27.713  1.00  0.00    -0.269 OA
BRANCH  26  29
ATOM     29  C   UNL A   1      34.757  31.496  27.826  1.00  0.00     0.039 A 
ATOM     30  C   UNL A   1      34.851  30.158  28.208  1.00  0.00     0.014 A 
ATOM     31  C   UNL A   1      35.844  32.360  27.959  1.00  0.00     0.014 A 
ATOM     32  C   UNL A   1      35.950  29.749  28.946  1.00  0.00     0.010 A 
ATOM     33  C   UNL A   1      37.006  31.899  28.582  1.00  0.00     0.010 A 
ATOM     34  C   UNL A   1      37.044  30.611  29.142  1.00  0.00    -0.014 A 
BRANCH  34  35
ATOM     35  C   UNL A   1      38.208  30.133  29.933  1.00  0.00     0.031 A 
ATOM     36  C   UNL A   1      39.230  29.200  29.337  1.00  0.00     0.074 A 
ATOM     37  C   UNL A   1      38.371  30.600  31.186  1.00  0.00     0.049 A 
ATOM     38  N   UNL A   1      40.305  28.694  29.892  1.00  0.00    -0.248 NA
ATOM     39  C   UNL A   1      39.024  28.773  27.943  1.00  0.00     0.031 C 
ATOM     40  C   UNL A   1      37.460  31.525  31.862  1.00  0.00     0.029 A 
ATOM     41  N   UNL A   1      39.368  30.389  32.103  1.00  0.00    -0.354 N 
ATOM     42  C   UNL A   1      40.889  27.883  28.927  1.00  0.00     0.074 A 
ATOM     43  C   UNL A   1      40.032  27.929  27.763  1.00  0.00     0.031 C 
ATOM     44  C   UNL A   1      37.967  31.850  33.057  1.00  0.00     0.029 A 
ATOM     45  C   UNL A   1      39.190  31.088  33.272  1.00  0.00     0.049 A 
ATOM     46  H   UNL A   1      40.135  29.794  31.940  1.00  0.00     0.167 HD
ATOM     47  C   UNL A   1      42.044  27.178  29.004  1.00  0.00     0.037 A 
ATOM     48  C   UNL A   1      39.913  31.097  34.407  1.00  0.00     0.037 A 
ATOM     49  C   UNL A   1      42.900  27.151  30.163  1.00  0.00     0.049 A 
ATOM     50  C   UNL A   1      41.148  30.247  34.488  1.00  0.00     0.074 A 
ATOM     51  C   UNL A   1      44.100  26.480  30.331  1.00  0.00     0.029 A 
ATOM     52  N   UNL A   1      42.650  27.822  31.352  1.00  0.00    -0.354 N 
ATOM     53  N   UNL A   1      41.696  29.496  33.565  1.00  0.00    -0.248 NA
ATOM     54  C   UNL A   1      41.861  30.239  35.771  1.00  0.00     0.031 C 
ATOM     55  C   UNL A   1      44.540  26.689  31.640  1.00  0.00     0.029 A 
ATOM     56  C   UNL A   1      43.656  27.553  32.267  1.00  0.00     0.049 A 
ATOM     57  H   UNL A   1      41.873  28.403  31.520  1.00  0.00     0.167 HD
ATOM     58  C   UNL A   1      42.830  28.947  34.144  1.00  0.00     0.074 A 
ATOM     59  C   UNL A   1      42.903  29.467  35.494  1.00  0.00     0.031 C 
ATOM     60  C   UNL A   1      43.726  28.085  33.605  1.00  0.00     0.037 A 
BRANCH  47  61
ATOM     61  C   UNL A   1      42.463  26.367  27.809  1.00  0.00     0.064 A 
ATOM     62  C   UNL A   1      43.351  26.874  26.848  1.00  0.00     0.173 A 
ATOM     63  C   UNL A   1      42.048  25.032  27.673  1.00  0.00     0.173 A 
ATOM     64  F   UNL A   1      43.775  28.144  26.924  1.00  0.00    -0.203 F 
ATOM     65  C   UNL A   1      43.796  26.082  25.792  1.00  0.00     0.198 A 
ATOM     66  C   UNL A   1      42.521  24.233  26.636  1.00  0.00     0.198 A 
ATOM     67  F   UNL A   1      41.207  24.491  28.569  1.00  0.00    -0.203 F 
ATOM     68  F   UNL A   1      44.616  26.600  24.868  1.00  0.00    -0.200 F 
ATOM     69  C   UNL A   1      43.391  24.759  25.694  1.00  0.00     0.200 A 
ATOM     70  F   UNL A   1      42.145  22.949  26.555  1.00  0.00    -0.200 F 
ATOM     71  F   UNL A   1      43.838  23.992  24.690  1.00  0.00    -0.200 F 
ENDBRANCH  47  61
BRANCH  48  72
ATOM     72  C   UNL A   1      39.476  31.943  35.548  1.00  0.00     0.064 A 
ATOM     73  C   UNL A   1      39.932  33.261  35.682  1.00  0.00     0.173 A 
ATOM     74  C   UNL A   1      38.568  31.467  36.506  1.00  0.00     0.173 A 
ATOM     75  F   UNL A   1      40.813  33.757  34.800  1.00  0.00    -0.203 F 
ATOM     76  C   UNL A   1      39.505  34.066  36.736  1.00  0.00     0.198 A 
ATOM     77  C   UNL A   1      38.112  32.285  37.537  1.00  0.00     0.198 A 
ATOM     78  F   UNL A   1      38.093  30.214  36.419  1.00  0.00    -0.203 F 
ATOM     79  F   UNL A   1      39.987  35.309  36.863  1.00  0.00    -0.200 F 
ATOM     80  C   UNL A   1      38.587  33.581  37.655  1.00  0.00     0.200 A 
ATOM     81  F   UNL A   1      37.206  31.819  38.408  1.00  0.00    -0.200 F 
ATOM     82  F   UNL A   1      38.162  34.362  38.657  1.00  0.00    -0.200 F 
ENDBRANCH  48  72
BRANCH  60  83
ATOM     83  C   UNL A   1      44.889  27.663  34.458  1.00  0.00     0.064 A 
ATOM     84  C   UNL A   1      44.843  26.501  35.241  1.00  0.00     0.173 A 
ATOM     85  C   UNL A   1      46.091  28.387  34.427  1.00  0.00     0.173 A 
ATOM     86  F   UNL A   1      43.714  25.781  35.317  1.00  0.00    -0.203 F 
ATOM     87  C   UNL A   1      45.954  26.087  35.972  1.00  0.00     0.198 A 
ATOM     88  C   UNL A   1      47.211  27.949  35.129  1.00  0.00     0.198 A 
ATOM     89  F   UNL A   1      46.191  29.502  33.687  1.00  0.00    -0.203 F 
ATOM     90  F   UNL A   1      45.875  24.995  36.744  1.00  0.00    -0.200 F 
ATOM     91  C   UNL A   1      47.139  26.803  35.906  1.00  0.00     0.200 A 
ATOM     92  F   UNL A   1      48.360  28.632  35.045  1.00  0.00    -0.200 F 
ATOM     93  F   UNL A   1      48.214  26.389  36.590  1.00  0.00    -0.200 F 
ENDBRANCH  60  83
ENDBRANCH  34  35
ENDBRANCH  26  29
ENDBRANCH  24  25
ENDBRANCH   1  24
TORSDOF 13
ENDMDL
