MODEL 1
REMARK VINA RESULT:     -11.1      0.000      0.000
REMARK SMILES Cc1ccsc1[C@@H]1[NH2+][C@@H](C(=O)NCCCCNC(=O)c2ccc(-c3c4nc(c(-c5c(F)c(F)c(F)c(F)c5F)c5ccc([nH]5)c(-c5c(F)c(F)c(F)c(F)c5F)c5nc(c(-c6c(F)c(F)c(F)c(F)c6F)c6ccc3[nH]6)C=C5)C=C4)cc2)CS1
REMARK SMILES IDX 15 1 14 2 13 3 12 4 10 5 11 6 9 8 7 9 8 10 84 11 83 14 6 15
REMARK SMILES IDX 1 16 2 17 3 18 4 19 5 20 16 21 17 22 18 23 19 25 20 26 21 27
REMARK SMILES IDX 82 28 22 29 81 30 23 31 24 32 25 33 75 34 26 35 80 36 74 37
REMARK SMILES IDX 76 38 27 39 79 40 73 41 72 42 28 44 60 45 40 46 59 47 41 48
REMARK SMILES IDX 44 49 58 50 77 51 42 52 43 53 57 55 78 56 45 57 29 58 30 59
REMARK SMILES IDX 38 60 31 61 32 62 36 63 39 64 33 65 34 66 37 67 35 68 61 69
REMARK SMILES IDX 62 70 70 71 63 72 64 73 68 74 71 75 65 76 66 77 69 78 67 79
REMARK SMILES IDX 46 80 47 81 55 82 48 83 49 84 53 85 56 86 50 87 51 88 54 89
REMARK SMILES IDX 52 90
REMARK H PARENT 12 7 8 12 8 13 17 24 76 43 44 54
REMARK Flexibility Score: inf
ROOT
ATOM      1  C   UNL A   1      40.830  20.534  27.075  1.00  0.00     0.023 C 
ENDROOT
BRANCH   1   2
ATOM      2  C   UNL A   1      41.357  19.506  26.061  1.00  0.00     0.023 C 
BRANCH   2   3
ATOM      3  C   UNL A   1      42.729  18.910  26.385  1.00  0.00     0.116 C 
BRANCH   3   4
ATOM      4  N   UNL A   1      43.500  18.734  25.174  1.00  0.00    -0.351 N 
ATOM      5  C   UNL A   1      44.572  19.398  24.673  1.00  0.00     0.279 C 
ATOM      6  O   UNL A   1      44.983  18.980  23.587  1.00  0.00    -0.268 OA
ATOM      7  H   UNL A   1      43.188  17.992  24.607  1.00  0.00     0.163 HD
BRANCH   5   8
ATOM      8  C   UNL A   1      45.273  20.534  25.461  1.00  0.00     0.283 C 
ATOM      9  C   UNL A   1      44.197  22.729  25.468  1.00  0.00     0.284 C 
ATOM     10  N   UNL A   1      44.321  21.441  26.181  1.00  0.00    -0.320 N 
ATOM     11  S   UNL A   1      44.980  22.557  23.849  1.00  0.00    -0.087 SA
ATOM     12  H   UNL A   1      43.404  20.995  26.230  1.00  0.00     0.348 HD
ATOM     13  H   UNL A   1      44.677  21.616  27.120  1.00  0.00     0.348 HD
ATOM     14  C   UNL A   1      46.143  21.339  24.496  1.00  0.00     0.151 C 
BRANCH   9  15
ATOM     15  C   UNL A   1      44.723  23.923  26.275  1.00  0.00     0.075 A 
ATOM     16  C   UNL A   1      43.512  25.894  25.121  1.00  0.00     0.046 C 
ATOM     17  C   UNL A   1      44.489  25.286  26.073  1.00  0.00    -0.030 A 
ATOM     18  C   UNL A   1      45.371  26.100  26.867  1.00  0.00     0.015 A 
ATOM     19  C   UNL A   1      46.165  25.364  27.709  1.00  0.00     0.065 A 
ATOM     20  S   UNL A   1      45.802  23.711  27.616  1.00  0.00    -0.141 S 
ENDBRANCH   9  15
ENDBRANCH   5   8
ENDBRANCH   3   4
ENDBRANCH   2   3
ENDBRANCH   1   2
BRANCH   1  21
ATOM     21  C   UNL A   1      40.823  21.986  26.604  1.00  0.00     0.116 C 
BRANCH  21  22
ATOM     22  N   UNL A   1      39.572  22.359  25.964  1.00  0.00    -0.352 N 
ATOM     23  C   UNL A   1      38.811  23.491  26.118  1.00  0.00     0.251 C 
ATOM     24  H   UNL A   1      39.218  21.700  25.323  1.00  0.00     0.163 HD
ATOM     25  O   UNL A   1      37.693  23.548  25.607  1.00  0.00    -0.269 OA
BRANCH  23  26
ATOM     26  C   UNL A   1      39.309  24.633  26.916  1.00  0.00     0.039 A 
ATOM     27  C   UNL A   1      40.094  25.604  26.286  1.00  0.00     0.014 A 
ATOM     28  C   UNL A   1      39.024  24.746  28.279  1.00  0.00     0.014 A 
ATOM     29  C   UNL A   1      40.533  26.720  27.004  1.00  0.00     0.010 A 
ATOM     30  C   UNL A   1      39.400  25.894  28.975  1.00  0.00     0.010 A 
ATOM     31  C   UNL A   1      40.156  26.895  28.346  1.00  0.00    -0.014 A 
BRANCH  31  32
ATOM     32  C   UNL A   1      40.542  28.117  29.102  1.00  0.00     0.031 A 
ATOM     33  C   UNL A   1      41.928  28.247  29.675  1.00  0.00     0.074 A 
ATOM     34  C   UNL A   1      39.632  29.086  29.320  1.00  0.00     0.049 A 
ATOM     35  N   UNL A   1      42.427  29.193  30.432  1.00  0.00    -0.248 NA
ATOM     36  C   UNL A   1      42.874  27.160  29.373  1.00  0.00     0.031 C 
ATOM     37  C   UNL A   1      38.248  29.070  28.845  1.00  0.00     0.029 A 
ATOM     38  N   UNL A   1      39.730  30.272  30.006  1.00  0.00    -0.354 N 
ATOM     39  C   UNL A   1      43.738  28.817  30.693  1.00  0.00     0.074 A 
ATOM     40  C   UNL A   1      43.939  27.526  30.071  1.00  0.00     0.031 C 
ATOM     41  C   UNL A   1      37.633  30.198  29.233  1.00  0.00     0.029 A 
ATOM     42  C   UNL A   1      38.562  30.998  30.025  1.00  0.00     0.049 A 
ATOM     43  H   UNL A   1      40.559  30.574  30.443  1.00  0.00     0.167 HD
ATOM     44  C   UNL A   1      44.699  29.499  31.363  1.00  0.00     0.037 A 
ATOM     45  C   UNL A   1      38.271  32.169  30.626  1.00  0.00     0.037 A 
ATOM     46  C   UNL A   1      44.502  30.787  31.977  1.00  0.00     0.049 A 
ATOM     47  C   UNL A   1      39.344  32.874  31.416  1.00  0.00     0.074 A 
ATOM     48  C   UNL A   1      45.416  31.562  32.668  1.00  0.00     0.029 A 
ATOM     49  N   UNL A   1      43.305  31.488  31.973  1.00  0.00    -0.354 N 
ATOM     50  N   UNL A   1      40.594  32.531  31.611  1.00  0.00    -0.248 NA
ATOM     51  C   UNL A   1      38.963  34.137  32.066  1.00  0.00     0.031 C 
ATOM     52  C   UNL A   1      44.762  32.713  33.120  1.00  0.00     0.029 A 
ATOM     53  C   UNL A   1      43.456  32.682  32.662  1.00  0.00     0.049 A 
ATOM     54  H   UNL A   1      42.473  31.184  31.545  1.00  0.00     0.167 HD
ATOM     55  C   UNL A   1      41.156  33.553  32.365  1.00  0.00     0.074 A 
ATOM     56  C   UNL A   1      40.116  34.536  32.580  1.00  0.00     0.031 C 
ATOM     57  C   UNL A   1      42.420  33.666  32.840  1.00  0.00     0.037 A 
BRANCH  44  58
ATOM     58  C   UNL A   1      46.063  28.876  31.451  1.00  0.00     0.064 A 
ATOM     59  C   UNL A   1      46.411  28.032  32.517  1.00  0.00     0.173 A 
ATOM     60  C   UNL A   1      47.012  29.077  30.437  1.00  0.00     0.173 A 
ATOM     61  F   UNL A   1      45.544  27.814  33.518  1.00  0.00    -0.203 F 
ATOM     62  C   UNL A   1      47.665  27.429  32.575  1.00  0.00     0.198 A 
ATOM     63  C   UNL A   1      48.254  28.447  30.484  1.00  0.00     0.198 A 
ATOM     64  F   UNL A   1      46.730  29.869  29.393  1.00  0.00    -0.203 F 
ATOM     65  F   UNL A   1      47.989  26.662  33.625  1.00  0.00    -0.200 F 
ATOM     66  C   UNL A   1      48.581  27.630  31.555  1.00  0.00     0.200 A 
ATOM     67  F   UNL A   1      49.132  28.629  29.487  1.00  0.00    -0.200 F 
ATOM     68  F   UNL A   1      49.783  27.037  31.605  1.00  0.00    -0.200 F 
ENDBRANCH  44  58
BRANCH  45  69
ATOM     69  C   UNL A   1      36.912  32.762  30.510  1.00  0.00     0.064 A 
ATOM     70  C   UNL A   1      36.555  33.536  29.395  1.00  0.00     0.173 A 
ATOM     71  C   UNL A   1      35.961  32.623  31.533  1.00  0.00     0.173 A 
ATOM     72  F   UNL A   1      37.435  33.718  28.399  1.00  0.00    -0.203 F 
ATOM     73  C   UNL A   1      35.321  34.180  29.327  1.00  0.00     0.198 A 
ATOM     74  C   UNL A   1      34.713  33.237  31.447  1.00  0.00     0.198 A 
ATOM     75  F   UNL A   1      36.245  31.890  32.620  1.00  0.00    -0.203 F 
ATOM     76  F   UNL A   1      35.039  34.973  28.285  1.00  0.00    -0.200 F 
ATOM     77  C   UNL A   1      34.400  34.028  30.353  1.00  0.00     0.200 A 
ATOM     78  F   UNL A   1      33.820  33.075  32.433  1.00  0.00    -0.200 F 
ATOM     79  F   UNL A   1      33.218  34.657  30.293  1.00  0.00    -0.200 F 
ENDBRANCH  45  69
BRANCH  57  80
ATOM     80  C   UNL A   1      42.771  34.925  33.582  1.00  0.00     0.064 A 
ATOM     81  C   UNL A   1      42.698  35.008  34.980  1.00  0.00     0.173 A 
ATOM     82  C   UNL A   1      43.225  36.055  32.881  1.00  0.00     0.173 A 
ATOM     83  F   UNL A   1      42.258  33.963  35.696  1.00  0.00    -0.203 F 
ATOM     84  C   UNL A   1      43.034  36.185  35.645  1.00  0.00     0.198 A 
ATOM     85  C   UNL A   1      43.593  37.217  33.552  1.00  0.00     0.198 A 
ATOM     86  F   UNL A   1      43.321  36.026  31.543  1.00  0.00    -0.203 F 
ATOM     87  F   UNL A   1      42.903  36.259  36.978  1.00  0.00    -0.200 F 
ATOM     88  C   UNL A   1      43.490  37.284  34.933  1.00  0.00     0.200 A 
ATOM     89  F   UNL A   1      44.050  38.271  32.862  1.00  0.00    -0.200 F 
ATOM     90  F   UNL A   1      43.821  38.412  35.577  1.00  0.00    -0.200 F 
ENDBRANCH  57  80
ENDBRANCH  31  32
ENDBRANCH  23  26
ENDBRANCH  21  22
ENDBRANCH   1  21
TORSDOF 12
ENDMDL
MODEL 2
REMARK VINA RESULT:     -11.0      5.118      9.669
REMARK SMILES Cc1ccsc1[C@@H]1[NH2+][C@@H](C(=O)NCCCCNC(=O)c2ccc(-c3c4nc(c(-c5c(F)c(F)c(F)c(F)c5F)c5ccc([nH]5)c(-c5c(F)c(F)c(F)c(F)c5F)c5nc(c(-c6c(F)c(F)c(F)c(F)c6F)c6ccc3[nH]6)C=C5)C=C4)cc2)CS1
REMARK SMILES IDX 15 1 14 2 13 3 12 4 10 5 11 6 9 8 7 9 8 10 84 11 83 14 6 15
REMARK SMILES IDX 1 16 2 17 3 18 4 19 5 20 16 21 17 22 18 23 19 25 20 26 21 27
REMARK SMILES IDX 82 28 22 29 81 30 23 31 24 32 25 33 75 34 26 35 80 36 74 37
REMARK SMILES IDX 76 38 27 39 79 40 73 41 72 42 28 44 60 45 40 46 59 47 41 48
REMARK SMILES IDX 44 49 58 50 77 51 42 52 43 53 57 55 78 56 45 57 29 58 30 59
REMARK SMILES IDX 38 60 31 61 32 62 36 63 39 64 33 65 34 66 37 67 35 68 61 69
REMARK SMILES IDX 62 70 70 71 63 72 64 73 68 74 71 75 65 76 66 77 69 78 67 79
REMARK SMILES IDX 46 80 47 81 55 82 48 83 49 84 53 85 56 86 50 87 51 88 54 89
REMARK SMILES IDX 52 90
REMARK H PARENT 12 7 8 12 8 13 17 24 76 43 44 54
REMARK Flexibility Score: inf
ROOT
ATOM      1  C   UNL A   1      31.385  32.125  26.495  1.00  0.00     0.023 C 
ENDROOT
BRANCH   1   2
ATOM      2  C   UNL A   1      31.490  30.626  26.170  1.00  0.00     0.023 C 
BRANCH   2   3
ATOM      3  C   UNL A   1      32.915  30.078  26.062  1.00  0.00     0.116 C 
BRANCH   3   4
ATOM      4  N   UNL A   1      33.245  29.799  24.681  1.00  0.00    -0.351 N 
ATOM      5  C   UNL A   1      33.420  28.637  24.004  1.00  0.00     0.279 C 
ATOM      6  O   UNL A   1      33.709  28.768  22.811  1.00  0.00    -0.268 OA
ATOM      7  H   UNL A   1      33.364  30.606  24.130  1.00  0.00     0.163 HD
BRANCH   5   8
ATOM      8  C   UNL A   1      33.182  27.257  24.668  1.00  0.00     0.283 C 
ATOM      9  C   UNL A   1      33.232  25.287  23.223  1.00  0.00     0.284 C 
ATOM     10  N   UNL A   1      34.035  26.162  24.101  1.00  0.00    -0.320 N 
ATOM     11  S   UNL A   1      31.640  26.087  22.927  1.00  0.00    -0.087 SA
ATOM     12  H   UNL A   1      34.796  26.575  23.561  1.00  0.00     0.348 HD
ATOM     13  H   UNL A   1      34.411  25.606  24.868  1.00  0.00     0.348 HD
ATOM     14  C   UNL A   1      31.703  26.896  24.539  1.00  0.00     0.151 C 
BRANCH   9  15
ATOM     15  C   UNL A   1      33.104  23.852  23.749  1.00  0.00     0.075 A 
ATOM     16  C   UNL A   1      35.528  22.992  23.488  1.00  0.00     0.046 C 
ATOM     17  C   UNL A   1      34.073  22.844  23.788  1.00  0.00    -0.030 A 
ATOM     18  C   UNL A   1      33.496  21.563  24.100  1.00  0.00     0.015 A 
ATOM     19  C   UNL A   1      32.156  21.636  24.385  1.00  0.00     0.065 A 
ATOM     20  S   UNL A   1      31.604  23.238  24.364  1.00  0.00    -0.141 S 
ENDBRANCH   9  15
ENDBRANCH   5   8
ENDBRANCH   3   4
ENDBRANCH   2   3
ENDBRANCH   1   2
BRANCH   1  21
ATOM     21  C   UNL A   1      32.570  32.723  27.248  1.00  0.00     0.116 C 
BRANCH  21  22
ATOM     22  N   UNL A   1      32.350  34.110  27.624  1.00  0.00    -0.352 N 
ATOM     23  C   UNL A   1      32.981  34.873  28.575  1.00  0.00     0.251 C 
ATOM     24  H   UNL A   1      31.640  34.572  27.120  1.00  0.00     0.163 HD
ATOM     25  O   UNL A   1      32.536  35.985  28.858  1.00  0.00    -0.269 OA
BRANCH  23  26
ATOM     26  C   UNL A   1      34.174  34.360  29.284  1.00  0.00     0.039 A 
ATOM     27  C   UNL A   1      34.001  33.702  30.506  1.00  0.00     0.014 A 
ATOM     28  C   UNL A   1      35.460  34.538  28.766  1.00  0.00     0.014 A 
ATOM     29  C   UNL A   1      35.106  33.163  31.170  1.00  0.00     0.010 A 
ATOM     30  C   UNL A   1      36.551  33.938  29.392  1.00  0.00     0.010 A 
ATOM     31  C   UNL A   1      36.387  33.241  30.599  1.00  0.00    -0.014 A 
BRANCH  31  32
ATOM     32  C   UNL A   1      37.562  32.600  31.249  1.00  0.00     0.031 A 
ATOM     33  C   UNL A   1      38.276  31.462  30.571  1.00  0.00     0.074 A 
ATOM     34  C   UNL A   1      37.955  33.005  32.473  1.00  0.00     0.049 A 
ATOM     35  N   UNL A   1      39.264  30.721  31.011  1.00  0.00    -0.248 NA
ATOM     36  C   UNL A   1      37.806  31.094  29.225  1.00  0.00     0.031 C 
ATOM     37  C   UNL A   1      37.331  34.076  33.251  1.00  0.00     0.029 A 
ATOM     38  N   UNL A   1      38.969  32.556  33.284  1.00  0.00    -0.354 N 
ATOM     39  C   UNL A   1      39.531  29.807  30.001  1.00  0.00     0.074 A 
ATOM     40  C   UNL A   1      38.560  30.040  28.952  1.00  0.00     0.031 C 
ATOM     41  C   UNL A   1      37.987  34.217  34.414  1.00  0.00     0.029 A 
ATOM     42  C   UNL A   1      39.047  33.216  34.488  1.00  0.00     0.049 A 
ATOM     43  H   UNL A   1      39.582  31.830  33.028  1.00  0.00     0.167 HD
ATOM     44  C   UNL A   1      40.516  28.878  29.937  1.00  0.00     0.037 A 
ATOM     45  C   UNL A   1      39.871  33.026  35.537  1.00  0.00     0.037 A 
ATOM     46  C   UNL A   1      41.485  28.649  30.976  1.00  0.00     0.049 A 
ATOM     47  C   UNL A   1      40.918  31.943  35.460  1.00  0.00     0.074 A 
ATOM     48  C   UNL A   1      42.527  27.740  30.999  1.00  0.00     0.029 A 
ATOM     49  N   UNL A   1      41.531  29.339  32.179  1.00  0.00    -0.354 N 
ATOM     50  N   UNL A   1      41.192  31.120  34.478  1.00  0.00    -0.248 NA
ATOM     51  C   UNL A   1      41.774  31.768  36.642  1.00  0.00     0.031 C 
ATOM     52  C   UNL A   1      43.177  27.848  32.233  1.00  0.00     0.029 A 
ATOM     53  C   UNL A   1      42.576  28.865  32.955  1.00  0.00     0.049 A 
ATOM     54  H   UNL A   1      40.913  30.059  32.441  1.00  0.00     0.167 HD
ATOM     55  C   UNL A   1      42.275  30.364  34.904  1.00  0.00     0.074 A 
ATOM     56  C   UNL A   1      42.620  30.836  36.229  1.00  0.00     0.031 C 
ATOM     57  C   UNL A   1      42.927  29.366  34.259  1.00  0.00     0.037 A 
BRANCH  44  58
ATOM     58  C   UNL A   1      40.610  28.047  28.688  1.00  0.00     0.064 A 
ATOM     59  C   UNL A   1      41.390  28.457  27.597  1.00  0.00     0.173 A 
ATOM     60  C   UNL A   1      39.963  26.805  28.602  1.00  0.00     0.173 A 
ATOM     61  F   UNL A   1      42.021  29.641  27.623  1.00  0.00    -0.203 F 
ATOM     62  C   UNL A   1      41.501  27.666  26.456  1.00  0.00     0.198 A 
ATOM     63  C   UNL A   1      40.103  26.002  27.472  1.00  0.00     0.198 A 
ATOM     64  F   UNL A   1      39.210  26.361  29.619  1.00  0.00    -0.203 F 
ATOM     65  F   UNL A   1      42.216  28.100  25.409  1.00  0.00    -0.200 F 
ATOM     66  C   UNL A   1      40.866  26.436  26.399  1.00  0.00     0.200 A 
ATOM     67  F   UNL A   1      39.501  24.805  27.425  1.00  0.00    -0.200 F 
ATOM     68  F   UNL A   1      40.985  25.668  25.306  1.00  0.00    -0.200 F 
ENDBRANCH  44  58
BRANCH  45  69
ATOM     69  C   UNL A   1      39.756  33.873  36.755  1.00  0.00     0.064 A 
ATOM     70  C   UNL A   1      38.944  33.485  37.831  1.00  0.00     0.173 A 
ATOM     71  C   UNL A   1      40.405  35.114  36.848  1.00  0.00     0.173 A 
ATOM     72  F   UNL A   1      38.286  32.317  37.783  1.00  0.00    -0.203 F 
ATOM     73  C   UNL A   1      38.750  34.320  38.929  1.00  0.00     0.198 A 
ATOM     74  C   UNL A   1      40.240  35.933  37.963  1.00  0.00     0.198 A 
ATOM     75  F   UNL A   1      41.199  35.534  35.851  1.00  0.00    -0.203 F 
ATOM     76  F   UNL A   1      37.909  33.954  39.905  1.00  0.00    -0.200 F 
ATOM     77  C   UNL A   1      39.400  35.543  38.995  1.00  0.00     0.200 A 
ATOM     78  F   UNL A   1      40.883  37.107  38.031  1.00  0.00    -0.200 F 
ATOM     79  F   UNL A   1      39.205  36.352  40.046  1.00  0.00    -0.200 F 
ENDBRANCH  45  69
BRANCH  57  80
ATOM     80  C   UNL A   1      44.119  28.760  34.945  1.00  0.00     0.064 A 
ATOM     81  C   UNL A   1      45.412  29.275  34.777  1.00  0.00     0.173 A 
ATOM     82  C   UNL A   1      43.955  27.670  35.815  1.00  0.00     0.173 A 
ATOM     83  F   UNL A   1      45.626  30.307  33.946  1.00  0.00    -0.203 F 
ATOM     84  C   UNL A   1      46.501  28.700  35.428  1.00  0.00     0.198 A 
ATOM     85  C   UNL A   1      45.041  27.120  36.490  1.00  0.00     0.198 A 
ATOM     86  F   UNL A   1      42.738  27.144  36.017  1.00  0.00    -0.203 F 
ATOM     87  F   UNL A   1      47.737  29.174  35.208  1.00  0.00    -0.200 F 
ATOM     88  C   UNL A   1      46.314  27.631  36.290  1.00  0.00     0.200 A 
ATOM     89  F   UNL A   1      44.853  26.099  37.336  1.00  0.00    -0.200 F 
ATOM     90  F   UNL A   1      47.363  27.085  36.922  1.00  0.00    -0.200 F 
ENDBRANCH  57  80
ENDBRANCH  31  32
ENDBRANCH  23  26
ENDBRANCH  21  22
ENDBRANCH   1  21
TORSDOF 12
ENDMDL
MODEL 3
REMARK VINA RESULT:     -11.0      5.165      9.514
REMARK SMILES Cc1ccsc1[C@@H]1[NH2+][C@@H](C(=O)NCCCCNC(=O)c2ccc(-c3c4nc(c(-c5c(F)c(F)c(F)c(F)c5F)c5ccc([nH]5)c(-c5c(F)c(F)c(F)c(F)c5F)c5nc(c(-c6c(F)c(F)c(F)c(F)c6F)c6ccc3[nH]6)C=C5)C=C4)cc2)CS1
REMARK SMILES IDX 15 1 14 2 13 3 12 4 10 5 11 6 9 8 7 9 8 10 84 11 83 14 6 15
REMARK SMILES IDX 1 16 2 17 3 18 4 19 5 20 16 21 17 22 18 23 19 25 20 26 21 27
REMARK SMILES IDX 82 28 22 29 81 30 23 31 24 32 25 33 75 34 26 35 80 36 74 37
REMARK SMILES IDX 76 38 27 39 79 40 73 41 72 42 28 44 60 45 40 46 59 47 41 48
REMARK SMILES IDX 44 49 58 50 77 51 42 52 43 53 57 55 78 56 45 57 29 58 30 59
REMARK SMILES IDX 38 60 31 61 32 62 36 63 39 64 33 65 34 66 37 67 35 68 61 69
REMARK SMILES IDX 62 70 70 71 63 72 64 73 68 74 71 75 65 76 66 77 69 78 67 79
REMARK SMILES IDX 46 80 47 81 55 82 48 83 49 84 53 85 56 86 50 87 51 88 54 89
REMARK SMILES IDX 52 90
REMARK H PARENT 12 7 8 12 8 13 17 24 76 43 44 54
REMARK Flexibility Score: inf
ROOT
ATOM      1  C   UNL A   1      31.377  32.099  26.523  1.00  0.00     0.023 C 
ENDROOT
BRANCH   1   2
ATOM      2  C   UNL A   1      31.507  30.604  26.192  1.00  0.00     0.023 C 
BRANCH   2   3
ATOM      3  C   UNL A   1      32.941  30.079  26.086  1.00  0.00     0.116 C 
BRANCH   3   4
ATOM      4  N   UNL A   1      33.271  29.793  24.706  1.00  0.00    -0.351 N 
ATOM      5  C   UNL A   1      33.472  28.629  24.040  1.00  0.00     0.279 C 
ATOM      6  O   UNL A   1      33.753  28.754  22.845  1.00  0.00    -0.268 OA
ATOM      7  H   UNL A   1      33.367  30.597  24.146  1.00  0.00     0.163 HD
BRANCH   5   8
ATOM      8  C   UNL A   1      33.271  27.251  24.721  1.00  0.00     0.283 C 
ATOM      9  C   UNL A   1      33.173  25.284  23.273  1.00  0.00     0.284 C 
ATOM     10  N   UNL A   1      34.058  26.146  24.083  1.00  0.00    -0.320 N 
ATOM     11  S   UNL A   1      31.573  26.107  23.113  1.00  0.00    -0.087 SA
ATOM     12  H   UNL A   1      34.777  26.549  23.481  1.00  0.00     0.348 HD
ATOM     13  H   UNL A   1      34.490  25.582  24.814  1.00  0.00     0.348 HD
ATOM     14  C   UNL A   1      31.782  26.910  24.715  1.00  0.00     0.151 C 
BRANCH   9  15
ATOM     15  C   UNL A   1      33.069  23.849  23.806  1.00  0.00     0.075 A 
ATOM     16  C   UNL A   1      35.488  23.001  23.466  1.00  0.00     0.046 C 
ATOM     17  C   UNL A   1      34.044  22.847  23.815  1.00  0.00    -0.030 A 
ATOM     18  C   UNL A   1      33.484  21.564  24.148  1.00  0.00     0.015 A 
ATOM     19  C   UNL A   1      32.154  21.631  24.478  1.00  0.00     0.065 A 
ATOM     20  S   UNL A   1      31.593  23.230  24.472  1.00  0.00    -0.141 S 
ENDBRANCH   9  15
ENDBRANCH   5   8
ENDBRANCH   3   4
ENDBRANCH   2   3
ENDBRANCH   1   2
BRANCH   1  21
ATOM     21  C   UNL A   1      32.573  32.725  27.238  1.00  0.00     0.116 C 
BRANCH  21  22
ATOM     22  N   UNL A   1      32.345  34.116  27.593  1.00  0.00    -0.352 N 
ATOM     23  C   UNL A   1      32.963  34.893  28.541  1.00  0.00     0.251 C 
ATOM     24  H   UNL A   1      31.640  34.570  27.074  1.00  0.00     0.163 HD
ATOM     25  O   UNL A   1      32.513  36.008  28.803  1.00  0.00    -0.269 OA
BRANCH  23  26
ATOM     26  C   UNL A   1      34.149  34.393  29.270  1.00  0.00     0.039 A 
ATOM     27  C   UNL A   1      33.966  33.773  30.510  1.00  0.00     0.014 A 
ATOM     28  C   UNL A   1      35.438  34.545  28.753  1.00  0.00     0.014 A 
ATOM     29  C   UNL A   1      35.063  33.245  31.196  1.00  0.00     0.010 A 
ATOM     30  C   UNL A   1      36.522  33.955  29.401  1.00  0.00     0.010 A 
ATOM     31  C   UNL A   1      36.348  33.296  30.628  1.00  0.00    -0.014 A 
BRANCH  31  32
ATOM     32  C   UNL A   1      37.514  32.666  31.303  1.00  0.00     0.031 A 
ATOM     33  C   UNL A   1      38.229  31.510  30.656  1.00  0.00     0.074 A 
ATOM     34  C   UNL A   1      37.900  33.098  32.520  1.00  0.00     0.049 A 
ATOM     35  N   UNL A   1      39.210  30.775  31.122  1.00  0.00    -0.248 NA
ATOM     36  C   UNL A   1      37.768  31.112  29.316  1.00  0.00     0.031 C 
ATOM     37  C   UNL A   1      37.274  34.189  33.267  1.00  0.00     0.029 A 
ATOM     38  N   UNL A   1      38.905  32.664  33.349  1.00  0.00    -0.354 N 
ATOM     39  C   UNL A   1      39.481  29.837  30.135  1.00  0.00     0.074 A 
ATOM     40  C   UNL A   1      38.520  30.049  29.074  1.00  0.00     0.031 C 
ATOM     41  C   UNL A   1      37.921  34.355  34.432  1.00  0.00     0.029 A 
ATOM     42  C   UNL A   1      38.977  33.352  34.538  1.00  0.00     0.049 A 
ATOM     43  H   UNL A   1      39.517  31.929  33.115  1.00  0.00     0.167 HD
ATOM     44  C   UNL A   1      40.463  28.903  30.101  1.00  0.00     0.037 A 
ATOM     45  C   UNL A   1      39.791  33.182  35.598  1.00  0.00     0.037 A 
ATOM     46  C   UNL A   1      41.423  28.694  31.154  1.00  0.00     0.049 A 
ATOM     47  C   UNL A   1      40.834  32.094  35.555  1.00  0.00     0.074 A 
ATOM     48  C   UNL A   1      42.461  27.781  31.206  1.00  0.00     0.029 A 
ATOM     49  N   UNL A   1      41.462  29.412  32.340  1.00  0.00    -0.354 N 
ATOM     50  N   UNL A   1      41.112  31.247  34.594  1.00  0.00    -0.248 NA
ATOM     51  C   UNL A   1      41.680  31.944  36.747  1.00  0.00     0.031 C 
ATOM     52  C   UNL A   1      43.101  27.916  32.442  1.00  0.00     0.029 A 
ATOM     53  C   UNL A   1      42.499  28.951  33.136  1.00  0.00     0.049 A 
ATOM     54  H   UNL A   1      40.845  30.140  32.581  1.00  0.00     0.167 HD
ATOM     55  C   UNL A   1      42.189  30.497  35.047  1.00  0.00     0.074 A 
ATOM     56  C   UNL A   1      42.525  30.998  36.362  1.00  0.00     0.031 C 
ATOM     57  C   UNL A   1      42.841  29.481  34.430  1.00  0.00     0.037 A 
BRANCH  44  58
ATOM     58  C   UNL A   1      40.563  28.042  28.873  1.00  0.00     0.064 A 
ATOM     59  C   UNL A   1      39.842  26.843  28.762  1.00  0.00     0.173 A 
ATOM     60  C   UNL A   1      41.340  28.444  27.776  1.00  0.00     0.173 A 
ATOM     61  F   UNL A   1      39.092  26.408  29.786  1.00  0.00    -0.203 F 
ATOM     62  C   UNL A   1      39.912  26.068  27.608  1.00  0.00     0.198 A 
ATOM     63  C   UNL A   1      41.382  27.681  26.611  1.00  0.00     0.198 A 
ATOM     64  F   UNL A   1      42.044  29.584  27.826  1.00  0.00    -0.203 F 
ATOM     65  F   UNL A   1      39.249  24.905  27.543  1.00  0.00    -0.200 F 
ATOM     66  C   UNL A   1      40.674  26.492  26.530  1.00  0.00     0.200 A 
ATOM     67  F   UNL A   1      42.106  28.102  25.564  1.00  0.00    -0.200 F 
ATOM     68  F   UNL A   1      40.729  25.752  25.414  1.00  0.00    -0.200 F 
ENDBRANCH  44  58
BRANCH  45  69
ATOM     69  C   UNL A   1      39.670  34.059  36.794  1.00  0.00     0.064 A 
ATOM     70  C   UNL A   1      40.388  35.261  36.883  1.00  0.00     0.173 A 
ATOM     71  C   UNL A   1      38.886  33.689  37.898  1.00  0.00     0.173 A 
ATOM     72  F   UNL A   1      41.169  35.650  35.864  1.00  0.00    -0.203 F 
ATOM     73  C   UNL A   1      40.361  36.035  38.041  1.00  0.00     0.198 A 
ATOM     74  C   UNL A   1      38.830  34.483  39.041  1.00  0.00     0.198 A 
ATOM     75  F   UNL A   1      38.174  32.552  37.866  1.00  0.00    -0.203 F 
ATOM     76  F   UNL A   1      41.116  37.139  38.125  1.00  0.00    -0.200 F 
ATOM     77  C   UNL A   1      39.580  35.646  39.119  1.00  0.00     0.200 A 
ATOM     78  F   UNL A   1      38.062  34.111  40.075  1.00  0.00    -0.200 F 
ATOM     79  F   UNL A   1      39.562  36.384  40.238  1.00  0.00    -0.200 F 
ENDBRANCH  45  69
BRANCH  57  80
ATOM     80  C   UNL A   1      44.025  28.887  35.139  1.00  0.00     0.064 A 
ATOM     81  C   UNL A   1      43.896  27.804  36.020  1.00  0.00     0.173 A 
ATOM     82  C   UNL A   1      45.315  29.389  34.902  1.00  0.00     0.173 A 
ATOM     83  F   UNL A   1      42.685  27.295  36.293  1.00  0.00    -0.203 F 
ATOM     84  C   UNL A   1      45.009  27.266  36.661  1.00  0.00     0.198 A 
ATOM     85  C   UNL A   1      46.430  28.826  35.518  1.00  0.00     0.198 A 
ATOM     86  F   UNL A   1      45.496  30.419  34.062  1.00  0.00    -0.203 F 
ATOM     87  F   UNL A   1      44.855  26.266  37.542  1.00  0.00    -0.200 F 
ATOM     88  C   UNL A   1      46.275  27.770  36.403  1.00  0.00     0.200 A 
ATOM     89  F   UNL A   1      47.652  29.305  35.252  1.00  0.00    -0.200 F 
ATOM     90  F   UNL A   1      47.346  27.245  37.015  1.00  0.00    -0.200 F 
ENDBRANCH  57  80
ENDBRANCH  31  32
ENDBRANCH  23  26
ENDBRANCH  21  22
ENDBRANCH   1  21
TORSDOF 12
ENDMDL
