MODEL 1
REMARK VINA RESULT:     -12.7      0.000      0.000
REMARK SMILES Cc1cnc(C)c(N2CCC[C@@](CC3CC3)(C(=O)NCCCCNC(=O)c3ccc(-c4c5nc(c(-c6c(F)c(F)c(F)c(F)c6F)c6ccc([nH]6)c(-c6c(F)c(F)c(F)c(F)c6F)c6nc(c(-c7c(F)c(F)c(F)c(F)c7F)c7ccc4[nH]7)C=C6)C=C5)cc3)C2)n1
REMARK SMILES IDX 21 1 20 2 19 3 17 4 18 5 12 7 8 8 9 9 90 10 10 11 11 12 7 13
REMARK SMILES IDX 1 14 2 15 3 16 91 17 4 18 5 19 6 20 13 21 14 22 15 23 16 24
REMARK SMILES IDX 22 25 23 26 24 27 25 28 26 30 27 31 28 32 89 33 29 34 88 35
REMARK SMILES IDX 30 36 31 37 32 38 82 39 33 40 87 41 81 42 83 43 34 44 86 45
REMARK SMILES IDX 80 46 79 47 35 49 67 50 47 51 66 52 48 53 51 54 65 55 84 56
REMARK SMILES IDX 49 57 50 58 64 60 85 61 52 62 36 63 37 64 45 65 38 66 39 67
REMARK SMILES IDX 43 68 46 69 40 70 41 71 44 72 42 73 68 74 69 75 77 76 70 77
REMARK SMILES IDX 71 78 75 79 78 80 72 81 73 82 76 83 74 84 53 85 54 86 62 87
REMARK SMILES IDX 55 88 56 89 60 90 63 91 57 92 58 93 61 94 59 95
REMARK H PARENT 19 6 24 29 83 48 51 59
REMARK Flexibility Score: inf
ROOT
ATOM      1  C   UNL A   1      31.277  27.278  26.534  1.00  0.00     0.023 C 
ENDROOT
BRANCH   1   2
ATOM      2  C   UNL A   1      30.436  26.287  25.743  1.00  0.00     0.116 C 
BRANCH   2   3
ATOM      3  N   UNL A   1      30.083  25.091  26.454  1.00  0.00    -0.356 N 
ATOM      4  C   UNL A   1      30.682  23.866  26.431  1.00  0.00     0.228 C 
ATOM      5  O   UNL A   1      30.357  23.115  27.357  1.00  0.00    -0.274 OA
ATOM      6  H   UNL A   1      29.295  25.165  27.041  1.00  0.00     0.163 HD
BRANCH   4   7
ATOM      7  C   UNL A   1      31.723  23.434  25.350  1.00  0.00     0.067 C 
ATOM      8  N   UNL A   1      32.470  21.319  24.307  1.00  0.00    -0.354 N 
ATOM      9  C   UNL A   1      31.900  21.548  22.993  1.00  0.00     0.118 C 
ATOM     10  C   UNL A   1      31.682  21.856  25.418  1.00  0.00     0.135 C 
ATOM     11  C   UNL A   1      31.899  23.054  22.766  1.00  0.00     0.023 C 
ATOM     12  C   UNL A   1      31.246  23.822  23.922  1.00  0.00     0.020 C 
BRANCH   8  13
ATOM     13  C   UNL A   1      33.132  20.118  24.509  1.00  0.00     0.150 A 
ATOM     14  C   UNL A   1      32.272  16.589  25.107  1.00  0.00     0.068 C 
ATOM     15  C   UNL A   1      33.067  17.841  24.913  1.00  0.00     0.058 A 
ATOM     16  C   UNL A   1      34.450  17.813  25.011  1.00  0.00     0.135 A 
ATOM     17  N   UNL A   1      32.395  18.993  24.666  1.00  0.00    -0.233 NA
ATOM     18  N   UNL A   1      35.214  18.913  24.859  1.00  0.00    -0.256 NA
ATOM     19  C   UNL A   1      34.539  20.067  24.605  1.00  0.00     0.080 A 
ATOM     20  C   UNL A   1      35.378  21.311  24.591  1.00  0.00     0.071 C 
ENDBRANCH   8  13
BRANCH   7  21
ATOM     21  C   UNL A   1      33.159  23.839  25.814  1.00  0.00     0.022 C 
BRANCH  21  22
ATOM     22  C   UNL A   1      34.118  24.726  25.053  1.00  0.00    -0.010 C 
ATOM     23  C   UNL A   1      33.980  26.023  24.281  1.00  0.00     0.004 C 
ATOM     24  C   UNL A   1      34.390  26.067  25.716  1.00  0.00     0.004 C 
ENDBRANCH  21  22
ENDBRANCH   7  21
ENDBRANCH   4   7
ENDBRANCH   2   3
ENDBRANCH   1   2
BRANCH   1  25
ATOM     25  C   UNL A   1      31.567  28.585  25.802  1.00  0.00     0.023 C 
BRANCH  25  26
ATOM     26  C   UNL A   1      32.709  29.427  26.367  1.00  0.00     0.116 C 
BRANCH  26  27
ATOM     27  N   UNL A   1      32.343  30.794  26.720  1.00  0.00    -0.352 N 
ATOM     28  C   UNL A   1      33.148  31.742  27.318  1.00  0.00     0.251 C 
ATOM     29  H   UNL A   1      31.422  31.070  26.508  1.00  0.00     0.163 HD
ATOM     30  O   UNL A   1      32.729  32.858  27.601  1.00  0.00    -0.269 OA
BRANCH  28  31
ATOM     31  C   UNL A   1      34.529  31.350  27.659  1.00  0.00     0.039 A 
ATOM     32  C   UNL A   1      35.513  32.339  27.726  1.00  0.00     0.014 A 
ATOM     33  C   UNL A   1      34.784  30.047  28.089  1.00  0.00     0.014 A 
ATOM     34  C   UNL A   1      36.735  32.044  28.334  1.00  0.00     0.010 A 
ATOM     35  C   UNL A   1      35.976  29.778  28.754  1.00  0.00     0.010 A 
ATOM     36  C   UNL A   1      36.950  30.780  28.908  1.00  0.00    -0.014 A 
BRANCH  36  37
ATOM     37  C   UNL A   1      38.162  30.474  29.708  1.00  0.00     0.031 A 
ATOM     38  C   UNL A   1      39.174  29.502  29.174  1.00  0.00     0.074 A 
ATOM     39  C   UNL A   1      38.286  30.961  30.960  1.00  0.00     0.049 A 
ATOM     40  N   UNL A   1      40.182  28.935  29.785  1.00  0.00    -0.248 NA
ATOM     41  C   UNL A   1      39.004  29.082  27.774  1.00  0.00     0.031 C 
ATOM     42  C   UNL A   1      37.349  31.875  31.615  1.00  0.00     0.029 A 
ATOM     43  N   UNL A   1      39.239  30.723  31.922  1.00  0.00    -0.354 N 
ATOM     44  C   UNL A   1      40.734  28.058  28.862  1.00  0.00     0.074 A 
ATOM     45  C   UNL A   1      39.940  28.150  27.656  1.00  0.00     0.031 C 
ATOM     46  C   UNL A   1      37.771  32.121  32.866  1.00  0.00     0.029 A 
ATOM     47  C   UNL A   1      38.983  31.348  33.120  1.00  0.00     0.049 A 
ATOM     48  H   UNL A   1      40.032  30.160  31.766  1.00  0.00     0.167 HD
ATOM     49  C   UNL A   1      41.815  27.256  29.006  1.00  0.00     0.037 A 
ATOM     50  C   UNL A   1      39.638  31.283  34.296  1.00  0.00     0.037 A 
ATOM     51  C   UNL A   1      42.643  27.216  30.181  1.00  0.00     0.049 A 
ATOM     52  C   UNL A   1      40.863  30.415  34.412  1.00  0.00     0.074 A 
ATOM     53  C   UNL A   1      43.813  26.507  30.384  1.00  0.00     0.029 A 
ATOM     54  N   UNL A   1      42.391  27.922  31.346  1.00  0.00    -0.354 N 
ATOM     55  N   UNL A   1      41.415  29.641  33.509  1.00  0.00    -0.248 NA
ATOM     56  C   UNL A   1      41.559  30.411  35.708  1.00  0.00     0.031 C 
ATOM     57  C   UNL A   1      44.255  26.760  31.686  1.00  0.00     0.029 A 
ATOM     58  C   UNL A   1      43.380  27.654  32.279  1.00  0.00     0.049 A 
ATOM     59  H   UNL A   1      41.625  28.523  31.491  1.00  0.00     0.167 HD
ATOM     60  C   UNL A   1      42.535  29.088  34.115  1.00  0.00     0.074 A 
ATOM     61  C   UNL A   1      42.590  29.616  35.461  1.00  0.00     0.031 C 
ATOM     62  C   UNL A   1      43.436  28.218  33.601  1.00  0.00     0.037 A 
BRANCH  49  63
ATOM     63  C   UNL A   1      42.176  26.357  27.865  1.00  0.00     0.064 A 
ATOM     64  C   UNL A   1      41.557  25.112  27.685  1.00  0.00     0.173 A 
ATOM     65  C   UNL A   1      43.106  26.776  26.902  1.00  0.00     0.173 A 
ATOM     66  F   UNL A   1      40.670  24.663  28.586  1.00  0.00    -0.203 F 
ATOM     67  C   UNL A   1      41.868  24.312  26.590  1.00  0.00     0.198 A 
ATOM     68  C   UNL A   1      43.396  25.984  25.794  1.00  0.00     0.198 A 
ATOM     69  F   UNL A   1      43.723  27.962  27.026  1.00  0.00    -0.203 F 
ATOM     70  F   UNL A   1      41.288  23.111  26.454  1.00  0.00    -0.200 F 
ATOM     71  C   UNL A   1      42.779  24.752  25.641  1.00  0.00     0.200 A 
ATOM     72  F   UNL A   1      44.268  26.416  24.873  1.00  0.00    -0.200 F 
ATOM     73  F   UNL A   1      43.066  23.986  24.579  1.00  0.00    -0.200 F 
ENDBRANCH  49  63
BRANCH  50  74
ATOM     74  C   UNL A   1      39.153  32.058  35.469  1.00  0.00     0.064 A 
ATOM     75  C   UNL A   1      39.528  33.397  35.650  1.00  0.00     0.173 A 
ATOM     76  C   UNL A   1      38.340  31.470  36.448  1.00  0.00     0.173 A 
ATOM     77  F   UNL A   1      40.324  33.996  34.752  1.00  0.00    -0.203 F 
ATOM     78  C   UNL A   1      39.131  34.109  36.780  1.00  0.00     0.198 A 
ATOM     79  C   UNL A   1      37.921  32.192  37.564  1.00  0.00     0.198 A 
ATOM     80  F   UNL A   1      37.951  30.193  36.320  1.00  0.00    -0.203 F 
ATOM     81  F   UNL A   1      39.549  35.371  36.955  1.00  0.00    -0.200 F 
ATOM     82  C   UNL A   1      38.325  33.507  37.734  1.00  0.00     0.200 A 
ATOM     83  F   UNL A   1      37.132  31.611  38.478  1.00  0.00    -0.200 F 
ATOM     84  F   UNL A   1      37.949  34.192  38.823  1.00  0.00    -0.200 F 
ENDBRANCH  50  74
BRANCH  62  85
ATOM     85  C   UNL A   1      44.594  27.822  34.467  1.00  0.00     0.064 A 
ATOM     86  C   UNL A   1      45.780  28.567  34.492  1.00  0.00     0.173 A 
ATOM     87  C   UNL A   1      44.481  26.728  35.337  1.00  0.00     0.173 A 
ATOM     88  F   UNL A   1      45.939  29.613  33.667  1.00  0.00    -0.203 F 
ATOM     89  C   UNL A   1      46.819  28.226  35.354  1.00  0.00     0.198 A 
ATOM     90  C   UNL A   1      45.511  26.403  36.214  1.00  0.00     0.198 A 
ATOM     91  F   UNL A   1      43.361  25.989  35.352  1.00  0.00    -0.203 F 
ATOM     92  F   UNL A   1      47.955  28.935  35.346  1.00  0.00    -0.200 F 
ATOM     93  C   UNL A   1      46.679  27.151  36.222  1.00  0.00     0.200 A 
ATOM     94  F   UNL A   1      45.370  25.372  37.060  1.00  0.00    -0.200 F 
ATOM     95  F   UNL A   1      47.672  26.834  37.063  1.00  0.00    -0.200 F 
ENDBRANCH  62  85
ENDBRANCH  36  37
ENDBRANCH  28  31
ENDBRANCH  26  27
ENDBRANCH  25  26
ENDBRANCH   1  25
TORSDOF 14
ENDMDL
MODEL 2
REMARK VINA RESULT:     -12.4      1.269      2.076
REMARK SMILES Cc1cnc(C)c(N2CCC[C@@](CC3CC3)(C(=O)NCCCCNC(=O)c3ccc(-c4c5nc(c(-c6c(F)c(F)c(F)c(F)c6F)c6ccc([nH]6)c(-c6c(F)c(F)c(F)c(F)c6F)c6nc(c(-c7c(F)c(F)c(F)c(F)c7F)c7ccc4[nH]7)C=C6)C=C5)cc3)C2)n1
REMARK SMILES IDX 21 1 20 2 19 3 17 4 18 5 12 7 8 8 9 9 90 10 10 11 11 12 7 13
REMARK SMILES IDX 1 14 2 15 3 16 91 17 4 18 5 19 6 20 13 21 14 22 15 23 16 24
REMARK SMILES IDX 22 25 23 26 24 27 25 28 26 30 27 31 28 32 89 33 29 34 88 35
REMARK SMILES IDX 30 36 31 37 32 38 82 39 33 40 87 41 81 42 83 43 34 44 86 45
REMARK SMILES IDX 80 46 79 47 35 49 67 50 47 51 66 52 48 53 51 54 65 55 84 56
REMARK SMILES IDX 49 57 50 58 64 60 85 61 52 62 36 63 37 64 45 65 38 66 39 67
REMARK SMILES IDX 43 68 46 69 40 70 41 71 44 72 42 73 68 74 69 75 77 76 70 77
REMARK SMILES IDX 71 78 75 79 78 80 72 81 73 82 76 83 74 84 53 85 54 86 62 87
REMARK SMILES IDX 55 88 56 89 60 90 63 91 57 92 58 93 61 94 59 95
REMARK H PARENT 19 6 24 29 83 48 51 59
REMARK Flexibility Score: inf
ROOT
ATOM      1  C   UNL A   1      32.825  28.352  23.637  1.00  0.00     0.023 C 
ENDROOT
BRANCH   1   2
ATOM      2  C   UNL A   1      31.886  27.480  22.815  1.00  0.00     0.116 C 
BRANCH   2   3
ATOM      3  N   UNL A   1      32.536  26.600  21.886  1.00  0.00    -0.356 N 
ATOM      4  C   UNL A   1      32.952  25.313  22.065  1.00  0.00     0.228 C 
ATOM      5  O   UNL A   1      33.203  24.701  21.021  1.00  0.00    -0.274 OA
ATOM      6  H   UNL A   1      32.706  26.979  20.993  1.00  0.00     0.163 HD
BRANCH   4   7
ATOM      7  C   UNL A   1      33.080  24.633  23.465  1.00  0.00     0.067 C 
ATOM      8  N   UNL A   1      33.684  22.399  24.338  1.00  0.00    -0.354 N 
ATOM      9  C   UNL A   1      34.962  22.767  24.920  1.00  0.00     0.118 C 
ATOM     10  C   UNL A   1      33.343  23.117  23.109  1.00  0.00     0.135 C 
ATOM     11  C   UNL A   1      34.852  24.224  25.347  1.00  0.00     0.023 C 
ATOM     12  C   UNL A   1      34.346  25.131  24.219  1.00  0.00     0.020 C 
BRANCH   8  13
ATOM     13  C   UNL A   1      33.305  21.070  24.434  1.00  0.00     0.150 A 
ATOM     14  C   UNL A   1      32.140  18.389  22.196  1.00  0.00     0.068 C 
ATOM     15  C   UNL A   1      32.543  19.128  23.433  1.00  0.00     0.058 A 
ATOM     16  C   UNL A   1      32.464  18.513  24.673  1.00  0.00     0.135 A 
ATOM     17  N   UNL A   1      32.959  20.413  23.302  1.00  0.00    -0.233 NA
ATOM     18  N   UNL A   1      32.800  19.136  25.819  1.00  0.00    -0.256 NA
ATOM     19  C   UNL A   1      33.224  20.423  25.686  1.00  0.00     0.080 A 
ATOM     20  C   UNL A   1      33.448  21.161  26.973  1.00  0.00     0.071 C 
ENDBRANCH   8  13
BRANCH   7  21
ATOM     21  C   UNL A   1      31.696  24.661  24.190  1.00  0.00     0.022 C 
BRANCH  21  22
ATOM     22  C   UNL A   1      31.466  24.999  25.646  1.00  0.00    -0.010 C 
ATOM     23  C   UNL A   1      31.771  26.199  26.519  1.00  0.00     0.004 C 
ATOM     24  C   UNL A   1      30.427  26.084  25.881  1.00  0.00     0.004 C 
ENDBRANCH  21  22
ENDBRANCH   7  21
ENDBRANCH   4   7
ENDBRANCH   2   3
ENDBRANCH   1   2
BRANCH   1  25
ATOM     25  C   UNL A   1      32.121  29.345  24.557  1.00  0.00     0.023 C 
BRANCH  25  26
ATOM     26  C   UNL A   1      32.892  29.756  25.808  1.00  0.00     0.116 C 
BRANCH  26  27
ATOM     27  N   UNL A   1      32.431  30.991  26.431  1.00  0.00    -0.352 N 
ATOM     28  C   UNL A   1      33.147  31.816  27.276  1.00  0.00     0.251 C 
ATOM     29  H   UNL A   1      31.508  31.268  26.227  1.00  0.00     0.163 HD
ATOM     30  O   UNL A   1      32.651  32.819  27.772  1.00  0.00    -0.269 OA
BRANCH  28  31
ATOM     31  C   UNL A   1      34.528  31.418  27.610  1.00  0.00     0.039 A 
ATOM     32  C   UNL A   1      35.513  32.405  27.690  1.00  0.00     0.014 A 
ATOM     33  C   UNL A   1      34.784  30.109  28.021  1.00  0.00     0.014 A 
ATOM     34  C   UNL A   1      36.736  32.100  28.293  1.00  0.00     0.010 A 
ATOM     35  C   UNL A   1      35.975  29.829  28.680  1.00  0.00     0.010 A 
ATOM     36  C   UNL A   1      36.950  30.828  28.848  1.00  0.00    -0.014 A 
BRANCH  36  37
ATOM     37  C   UNL A   1      38.164  30.510  29.642  1.00  0.00     0.031 A 
ATOM     38  C   UNL A   1      39.172  29.541  29.096  1.00  0.00     0.074 A 
ATOM     39  C   UNL A   1      38.291  30.982  30.899  1.00  0.00     0.049 A 
ATOM     40  N   UNL A   1      40.179  28.964  29.698  1.00  0.00    -0.248 NA
ATOM     41  C   UNL A   1      38.998  29.137  27.691  1.00  0.00     0.031 C 
ATOM     42  C   UNL A   1      37.357  31.891  31.566  1.00  0.00     0.029 A 
ATOM     43  N   UNL A   1      39.245  30.732  31.857  1.00  0.00    -0.354 N 
ATOM     44  C   UNL A   1      40.727  28.097  28.764  1.00  0.00     0.074 A 
ATOM     45  C   UNL A   1      39.931  28.205  27.561  1.00  0.00     0.031 C 
ATOM     46  C   UNL A   1      37.783  32.122  32.820  1.00  0.00     0.029 A 
ATOM     47  C   UNL A   1      38.993  31.343  33.062  1.00  0.00     0.049 A 
ATOM     48  H   UNL A   1      40.036  30.168  31.694  1.00  0.00     0.167 HD
ATOM     49  C   UNL A   1      41.806  27.291  28.897  1.00  0.00     0.037 A 
ATOM     50  C   UNL A   1      39.649  31.263  34.236  1.00  0.00     0.037 A 
ATOM     51  C   UNL A   1      42.636  27.235  30.071  1.00  0.00     0.049 A 
ATOM     52  C   UNL A   1      40.873  30.392  34.340  1.00  0.00     0.074 A 
ATOM     53  C   UNL A   1      43.804  26.521  30.263  1.00  0.00     0.029 A 
ATOM     54  N   UNL A   1      42.388  27.928  31.244  1.00  0.00    -0.354 N 
ATOM     55  N   UNL A   1      41.421  29.626  33.428  1.00  0.00    -0.248 NA
ATOM     56  C   UNL A   1      41.571  30.371  35.635  1.00  0.00     0.031 C 
ATOM     57  C   UNL A   1      44.250  26.757  31.567  1.00  0.00     0.029 A 
ATOM     58  C   UNL A   1      43.378  27.648  32.171  1.00  0.00     0.049 A 
ATOM     59  H   UNL A   1      41.624  28.530  31.397  1.00  0.00     0.167 HD
ATOM     60  C   UNL A   1      42.540  29.063  34.025  1.00  0.00     0.074 A 
ATOM     61  C   UNL A   1      42.599  29.576  35.377  1.00  0.00     0.031 C 
ATOM     62  C   UNL A   1      43.438  28.196  33.500  1.00  0.00     0.037 A 
BRANCH  49  63
ATOM     63  C   UNL A   1      42.162  26.403  27.745  1.00  0.00     0.064 A 
ATOM     64  C   UNL A   1      43.161  26.756  26.827  1.00  0.00     0.173 A 
ATOM     65  C   UNL A   1      41.541  25.154  27.597  1.00  0.00     0.173 A 
ATOM     66  F   UNL A   1      43.774  27.945  26.920  1.00  0.00    -0.203 F 
ATOM     67  C   UNL A   1      43.514  25.896  25.791  1.00  0.00     0.198 A 
ATOM     68  C   UNL A   1      41.915  24.285  26.575  1.00  0.00     0.198 A 
ATOM     69  F   UNL A   1      40.582  24.769  28.453  1.00  0.00    -0.203 F 
ATOM     70  F   UNL A   1      44.450  26.266  24.905  1.00  0.00    -0.200 F 
ATOM     71  C   UNL A   1      42.899  24.658  25.672  1.00  0.00     0.200 A 
ATOM     72  F   UNL A   1      41.327  23.087  26.469  1.00  0.00    -0.200 F 
ATOM     73  F   UNL A   1      43.251  23.825  24.683  1.00  0.00    -0.200 F 
ENDBRANCH  49  63
BRANCH  50  74
ATOM     74  C   UNL A   1      39.169  32.027  35.419  1.00  0.00     0.064 A 
ATOM     75  C   UNL A   1      39.541  33.365  35.610  1.00  0.00     0.173 A 
ATOM     76  C   UNL A   1      38.363  31.428  36.397  1.00  0.00     0.173 A 
ATOM     77  F   UNL A   1      40.331  33.974  34.713  1.00  0.00    -0.203 F 
ATOM     78  C   UNL A   1      39.148  34.066  36.748  1.00  0.00     0.198 A 
ATOM     79  C   UNL A   1      37.948  32.139  37.522  1.00  0.00     0.198 A 
ATOM     80  F   UNL A   1      37.976  30.151  36.259  1.00  0.00    -0.203 F 
ATOM     81  F   UNL A   1      39.565  35.327  36.932  1.00  0.00    -0.200 F 
ATOM     82  C   UNL A   1      38.350  33.453  37.701  1.00  0.00     0.200 A 
ATOM     83  F   UNL A   1      37.166  31.547  38.435  1.00  0.00    -0.200 F 
ATOM     84  F   UNL A   1      37.977  34.127  38.799  1.00  0.00    -0.200 F 
ENDBRANCH  50  74
BRANCH  62  85
ATOM     85  C   UNL A   1      44.597  27.788  34.359  1.00  0.00     0.064 A 
ATOM     86  C   UNL A   1      45.774  28.544  34.412  1.00  0.00     0.173 A 
ATOM     87  C   UNL A   1      44.492  26.667  35.196  1.00  0.00     0.173 A 
ATOM     88  F   UNL A   1      45.925  29.615  33.618  1.00  0.00    -0.203 F 
ATOM     89  C   UNL A   1      46.813  28.189  35.268  1.00  0.00     0.198 A 
ATOM     90  C   UNL A   1      45.521  26.328  36.069  1.00  0.00     0.198 A 
ATOM     91  F   UNL A   1      43.380  25.916  35.184  1.00  0.00    -0.203 F 
ATOM     92  F   UNL A   1      47.941  28.910  35.286  1.00  0.00    -0.200 F 
ATOM     93  C   UNL A   1      46.681  27.088  36.103  1.00  0.00     0.200 A 
ATOM     94  F   UNL A   1      45.387  25.271  36.883  1.00  0.00    -0.200 F 
ATOM     95  F   UNL A   1      47.674  26.757  36.939  1.00  0.00    -0.200 F 
ENDBRANCH  62  85
ENDBRANCH  36  37
ENDBRANCH  28  31
ENDBRANCH  26  27
ENDBRANCH  25  26
ENDBRANCH   1  25
TORSDOF 14
ENDMDL
MODEL 3
REMARK VINA RESULT:     -12.4      0.589      7.322
REMARK SMILES Cc1cnc(C)c(N2CCC[C@@](CC3CC3)(C(=O)NCCCCNC(=O)c3ccc(-c4c5nc(c(-c6c(F)c(F)c(F)c(F)c6F)c6ccc([nH]6)c(-c6c(F)c(F)c(F)c(F)c6F)c6nc(c(-c7c(F)c(F)c(F)c(F)c7F)c7ccc4[nH]7)C=C6)C=C5)cc3)C2)n1
REMARK SMILES IDX 21 1 20 2 19 3 17 4 18 5 12 7 8 8 9 9 90 10 10 11 11 12 7 13
REMARK SMILES IDX 1 14 2 15 3 16 91 17 4 18 5 19 6 20 13 21 14 22 15 23 16 24
REMARK SMILES IDX 22 25 23 26 24 27 25 28 26 30 27 31 28 32 89 33 29 34 88 35
REMARK SMILES IDX 30 36 31 37 32 38 82 39 33 40 87 41 81 42 83 43 34 44 86 45
REMARK SMILES IDX 80 46 79 47 35 49 67 50 47 51 66 52 48 53 51 54 65 55 84 56
REMARK SMILES IDX 49 57 50 58 64 60 85 61 52 62 36 63 37 64 45 65 38 66 39 67
REMARK SMILES IDX 43 68 46 69 40 70 41 71 44 72 42 73 68 74 69 75 77 76 70 77
REMARK SMILES IDX 71 78 75 79 78 80 72 81 73 82 76 83 74 84 53 85 54 86 62 87
REMARK SMILES IDX 55 88 56 89 60 90 63 91 57 92 58 93 61 94 59 95
REMARK H PARENT 19 6 24 29 83 48 51 59
REMARK Flexibility Score: inf
ROOT
ATOM      1  C   UNL A   1      31.097  27.642  26.648  1.00  0.00     0.023 C 
ENDROOT
BRANCH   1   2
ATOM      2  C   UNL A   1      30.499  26.555  25.767  1.00  0.00     0.116 C 
BRANCH   2   3
ATOM      3  N   UNL A   1      30.102  25.363  26.462  1.00  0.00    -0.356 N 
ATOM      4  C   UNL A   1      30.653  24.117  26.419  1.00  0.00     0.228 C 
ATOM      5  O   UNL A   1      30.302  23.365  27.335  1.00  0.00    -0.274 OA
ATOM      6  H   UNL A   1      29.319  25.459  27.052  1.00  0.00     0.163 HD
BRANCH   4   7
ATOM      7  C   UNL A   1      31.673  23.660  25.328  1.00  0.00     0.067 C 
ATOM      8  N   UNL A   1      32.385  21.524  24.303  1.00  0.00    -0.354 N 
ATOM      9  C   UNL A   1      31.797  21.741  22.994  1.00  0.00     0.118 C 
ATOM     10  C   UNL A   1      31.619  22.084  25.418  1.00  0.00     0.135 C 
ATOM     11  C   UNL A   1      31.805  23.244  22.747  1.00  0.00     0.023 C 
ATOM     12  C   UNL A   1      31.177  24.033  23.902  1.00  0.00     0.020 C 
BRANCH   8  13
ATOM     13  C   UNL A   1      33.039  20.320  24.511  1.00  0.00     0.150 A 
ATOM     14  C   UNL A   1      32.156  16.794  25.094  1.00  0.00     0.068 C 
ATOM     15  C   UNL A   1      32.959  18.043  24.911  1.00  0.00     0.058 A 
ATOM     16  C   UNL A   1      34.341  18.009  25.026  1.00  0.00     0.135 A 
ATOM     17  N   UNL A   1      32.295  19.198  24.658  1.00  0.00    -0.233 NA
ATOM     18  N   UNL A   1      35.111  19.105  24.885  1.00  0.00    -0.256 NA
ATOM     19  C   UNL A   1      34.444  20.263  24.624  1.00  0.00     0.080 A 
ATOM     20  C   UNL A   1      35.289  21.503  24.622  1.00  0.00     0.071 C 
ENDBRANCH   8  13
BRANCH   7  21
ATOM     21  C   UNL A   1      33.120  24.058  25.764  1.00  0.00     0.022 C 
BRANCH  21  22
ATOM     22  C   UNL A   1      34.043  24.996  25.019  1.00  0.00    -0.010 C 
ATOM     23  C   UNL A   1      33.864  26.327  24.317  1.00  0.00     0.004 C 
ATOM     24  C   UNL A   1      34.319  26.306  25.739  1.00  0.00     0.004 C 
ENDBRANCH  21  22
ENDBRANCH   7  21
ENDBRANCH   4   7
ENDBRANCH   2   3
ENDBRANCH   1   2
BRANCH   1  25
ATOM     25  C   UNL A   1      31.459  28.926  25.909  1.00  0.00     0.023 C 
BRANCH  25  26
ATOM     26  C   UNL A   1      32.742  29.618  26.363  1.00  0.00     0.116 C 
BRANCH  26  27
ATOM     27  N   UNL A   1      32.577  31.011  26.760  1.00  0.00    -0.352 N 
ATOM     28  C   UNL A   1      33.496  31.804  27.418  1.00  0.00     0.251 C 
ATOM     29  H   UNL A   1      31.716  31.433  26.534  1.00  0.00     0.163 HD
ATOM     30  O   UNL A   1      33.242  32.960  27.733  1.00  0.00    -0.269 OA
BRANCH  28  31
ATOM     31  C   UNL A   1      34.789  31.194  27.781  1.00  0.00     0.039 A 
ATOM     32  C   UNL A   1      35.890  32.025  27.996  1.00  0.00     0.014 A 
ATOM     33  C   UNL A   1      34.842  29.833  28.086  1.00  0.00     0.014 A 
ATOM     34  C   UNL A   1      37.023  31.507  28.628  1.00  0.00     0.010 A 
ATOM     35  C   UNL A   1      35.944  29.338  28.774  1.00  0.00     0.010 A 
ATOM     36  C   UNL A   1      37.032  30.176  29.076  1.00  0.00    -0.014 A 
BRANCH  36  37
ATOM     37  C   UNL A   1      38.142  29.630  29.897  1.00  0.00     0.031 A 
ATOM     38  C   UNL A   1      38.348  30.139  31.295  1.00  0.00     0.074 A 
ATOM     39  C   UNL A   1      39.038  28.786  29.345  1.00  0.00     0.049 A 
ATOM     40  N   UNL A   1      39.363  29.962  32.101  1.00  0.00    -0.248 NA
ATOM     41  C   UNL A   1      37.283  30.994  31.844  1.00  0.00     0.031 C 
ATOM     42  C   UNL A   1      38.981  28.255  27.982  1.00  0.00     0.029 A 
ATOM     43  N   UNL A   1      40.198  28.253  29.857  1.00  0.00    -0.354 N 
ATOM     44  C   UNL A   1      39.082  30.721  33.228  1.00  0.00     0.074 A 
ATOM     45  C   UNL A   1      37.813  31.376  32.997  1.00  0.00     0.031 C 
ATOM     46  C   UNL A   1      40.053  27.475  27.766  1.00  0.00     0.029 A 
ATOM     47  C   UNL A   1      40.897  27.485  28.956  1.00  0.00     0.049 A 
ATOM     48  H   UNL A   1      40.498  28.406  30.782  1.00  0.00     0.167 HD
ATOM     49  C   UNL A   1      39.814  30.849  34.359  1.00  0.00     0.037 A 
ATOM     50  C   UNL A   1      42.096  26.880  29.070  1.00  0.00     0.037 A 
ATOM     51  C   UNL A   1      41.041  30.144  34.613  1.00  0.00     0.049 A 
ATOM     52  C   UNL A   1      42.867  27.005  30.358  1.00  0.00     0.074 A 
ATOM     53  C   UNL A   1      41.804  30.135  35.767  1.00  0.00     0.029 A 
ATOM     54  N   UNL A   1      41.677  29.315  33.703  1.00  0.00    -0.354 N 
ATOM     55  N   UNL A   1      42.558  27.672  31.443  1.00  0.00    -0.248 NA
ATOM     56  C   UNL A   1      44.152  26.293  30.439  1.00  0.00     0.031 C 
ATOM     57  C   UNL A   1      42.921  29.325  35.545  1.00  0.00     0.029 A 
ATOM     58  C   UNL A   1      42.833  28.800  34.267  1.00  0.00     0.049 A 
ATOM     59  H   UNL A   1      41.357  29.123  32.792  1.00  0.00     0.167 HD
ATOM     60  C   UNL A   1      43.588  27.434  32.342  1.00  0.00     0.074 A 
ATOM     61  C   UNL A   1      44.531  26.558  31.681  1.00  0.00     0.031 C 
ATOM     62  C   UNL A   1      43.740  27.901  33.604  1.00  0.00     0.037 A 
BRANCH  49  63
ATOM     63  C   UNL A   1      39.310  31.780  35.417  1.00  0.00     0.064 A 
ATOM     64  C   UNL A   1      38.445  31.344  36.430  1.00  0.00     0.173 A 
ATOM     65  C   UNL A   1      39.750  33.112  35.454  1.00  0.00     0.173 A 
ATOM     66  F   UNL A   1      37.986  30.083  36.429  1.00  0.00    -0.203 F 
ATOM     67  C   UNL A   1      38.026  32.212  37.434  1.00  0.00     0.198 A 
ATOM     68  C   UNL A   1      39.351  33.970  36.475  1.00  0.00     0.198 A 
ATOM     69  F   UNL A   1      40.583  33.576  34.510  1.00  0.00    -0.203 F 
ATOM     70  F   UNL A   1      37.173  31.782  38.375  1.00  0.00    -0.200 F 
ATOM     71  C   UNL A   1      38.487  33.520  37.462  1.00  0.00     0.200 A 
ATOM     72  F   UNL A   1      39.805  35.230  36.506  1.00  0.00    -0.200 F 
ATOM     73  F   UNL A   1      38.094  34.350  38.439  1.00  0.00    -0.200 F 
ENDBRANCH  49  63
BRANCH  50  74
ATOM     74  C   UNL A   1      42.654  26.099  27.934  1.00  0.00     0.064 A 
ATOM     75  C   UNL A   1      42.404  24.724  27.815  1.00  0.00     0.173 A 
ATOM     76  C   UNL A   1      43.475  26.698  26.968  1.00  0.00     0.173 A 
ATOM     77  F   UNL A   1      41.643  24.102  28.728  1.00  0.00    -0.203 F 
ATOM     78  C   UNL A   1      42.976  23.974  26.790  1.00  0.00     0.198 A 
ATOM     79  C   UNL A   1      44.025  25.951  25.928  1.00  0.00     0.198 A 
ATOM     80  F   UNL A   1      43.742  28.010  27.035  1.00  0.00    -0.203 F 
ATOM     81  F   UNL A   1      42.765  22.651  26.733  1.00  0.00    -0.200 F 
ATOM     82  C   UNL A   1      43.784  24.589  25.846  1.00  0.00     0.200 A 
ATOM     83  F   UNL A   1      44.795  26.551  25.010  1.00  0.00    -0.200 F 
ATOM     84  F   UNL A   1      44.339  23.865  24.863  1.00  0.00    -0.200 F 
ENDBRANCH  50  74
BRANCH  62  85
ATOM     85  C   UNL A   1      44.934  27.436  34.381  1.00  0.00     0.064 A 
ATOM     86  C   UNL A   1      44.905  26.254  35.133  1.00  0.00     0.173 A 
ATOM     87  C   UNL A   1      46.143  28.143  34.305  1.00  0.00     0.173 A 
ATOM     88  F   UNL A   1      43.767  25.554  35.247  1.00  0.00    -0.203 F 
ATOM     89  C   UNL A   1      46.045  25.800  35.792  1.00  0.00     0.198 A 
ATOM     90  C   UNL A   1      47.286  27.674  34.944  1.00  0.00     0.198 A 
ATOM     91  F   UNL A   1      46.220  29.276  33.591  1.00  0.00    -0.203 F 
ATOM     92  F   UNL A   1      45.991  24.682  36.528  1.00  0.00    -0.200 F 
ATOM     93  C   UNL A   1      47.236  26.504  35.687  1.00  0.00     0.200 A 
ATOM     94  F   UNL A   1      48.440  28.348  34.833  1.00  0.00    -0.200 F 
ATOM     95  F   UNL A   1      48.336  26.056  36.307  1.00  0.00    -0.200 F 
ENDBRANCH  62  85
ENDBRANCH  36  37
ENDBRANCH  28  31
ENDBRANCH  26  27
ENDBRANCH  25  26
ENDBRANCH   1  25
TORSDOF 14
ENDMDL
