MODEL 1
REMARK VINA RESULT:     -12.6      0.000      0.000
REMARK SMILES C[C@@H]1CCN(c2cncc(C(=O)NCCCCNC(=O)c3ccc(-c4c5nc(c(-c6c(F)c(F)c(F)c(F)c6F)c6ccc([nH]6)c(-c6c(F)c(F)c(F)c(F)c6F)c6nc(c(-c7c(F)c(F)c(F)c(F)c7F)c7ccc4[nH]7)C=C6)C=C5)cc3)n2)[C@H](C)C1
REMARK SMILES IDX 16 1 15 2 14 3 13 4 11 5 12 6 10 8 6 9 7 10 84 11 8 12 9 13
REMARK SMILES IDX 5 14 1 15 2 16 3 17 87 18 4 19 85 20 86 21 17 22 18 23 19 24
REMARK SMILES IDX 20 26 21 27 22 28 83 29 23 30 82 31 24 32 25 33 26 34 76 35
REMARK SMILES IDX 27 36 81 37 75 38 77 39 28 40 80 41 74 42 73 43 29 45 61 46
REMARK SMILES IDX 41 47 60 48 42 49 45 50 59 51 78 52 43 53 44 54 58 56 79 57
REMARK SMILES IDX 46 58 30 59 31 60 39 61 32 62 33 63 37 64 40 65 34 66 35 67
REMARK SMILES IDX 38 68 36 69 62 70 63 71 71 72 64 73 65 74 69 75 72 76 66 77
REMARK SMILES IDX 67 78 70 79 68 80 47 81 48 82 56 83 49 84 50 85 54 86 57 87
REMARK SMILES IDX 51 88 52 89 55 90 53 91
REMARK H PARENT 13 7 18 25 77 44 45 55
REMARK Flexibility Score: inf
ROOT
ATOM      1  C   UNL A   1      31.419  31.965  26.462  1.00  0.00     0.023 C 
ENDROOT
BRANCH   1   2
ATOM      2  C   UNL A   1      31.543  30.458  26.209  1.00  0.00     0.023 C 
BRANCH   2   3
ATOM      3  C   UNL A   1      32.979  29.974  26.010  1.00  0.00     0.116 C 
BRANCH   3   4
ATOM      4  N   UNL A   1      33.281  29.738  24.612  1.00  0.00    -0.351 N 
ATOM      5  C   UNL A   1      33.307  28.569  23.883  1.00  0.00     0.271 C 
ATOM      6  O   UNL A   1      33.609  28.655  22.690  1.00  0.00    -0.267 OA
ATOM      7  H   UNL A   1      33.504  30.548  24.098  1.00  0.00     0.163 HD
BRANCH   5   8
ATOM      8  C   UNL A   1      33.002  27.225  24.462  1.00  0.00     0.148 A 
ATOM      9  C   UNL A   1      33.593  25.026  24.902  1.00  0.00     0.148 A 
ATOM     10  C   UNL A   1      32.323  24.851  25.466  1.00  0.00     0.157 A 
ATOM     11  N   UNL A   1      33.931  26.236  24.404  1.00  0.00    -0.222 NA
ATOM     12  N   UNL A   1      31.384  25.827  25.558  1.00  0.00    -0.258 NA
ATOM     13  C   UNL A   1      31.757  27.020  25.040  1.00  0.00     0.145 A 
BRANCH   9  14
ATOM     14  N   UNL A   1      34.529  24.015  24.870  1.00  0.00    -0.353 N 
ATOM     15  C   UNL A   1      37.151  21.301  24.730  1.00  0.00     0.008 C 
ATOM     16  C   UNL A   1      37.062  22.763  24.283  1.00  0.00    -0.011 C 
ATOM     17  C   UNL A   1      36.878  23.724  25.471  1.00  0.00     0.025 C 
ATOM     18  C   UNL A   1      35.983  23.001  23.210  1.00  0.00     0.028 C 
ATOM     19  C   UNL A   1      35.439  23.786  25.982  1.00  0.00     0.118 C 
ATOM     20  C   UNL A   1      34.541  23.084  23.742  1.00  0.00     0.081 C 
ATOM     21  C   UNL A   1      33.961  21.722  24.113  1.00  0.00     0.031 C 
ENDBRANCH   9  14
ENDBRANCH   5   8
ENDBRANCH   3   4
ENDBRANCH   2   3
ENDBRANCH   1   2
BRANCH   1  22
ATOM     22  C   UNL A   1      32.563  32.587  27.260  1.00  0.00     0.116 C 
BRANCH  22  23
ATOM     23  N   UNL A   1      32.340  33.981  27.611  1.00  0.00    -0.352 N 
ATOM     24  C   UNL A   1      33.028  34.763  28.505  1.00  0.00     0.251 C 
ATOM     25  H   UNL A   1      31.595  34.423  27.143  1.00  0.00     0.163 HD
ATOM     26  O   UNL A   1      32.645  35.901  28.759  1.00  0.00    -0.269 OA
BRANCH  24  27
ATOM     27  C   UNL A   1      34.213  34.213  29.197  1.00  0.00     0.039 A 
ATOM     28  C   UNL A   1      34.019  33.378  30.299  1.00  0.00     0.014 A 
ATOM     29  C   UNL A   1      35.505  34.496  28.748  1.00  0.00     0.014 A 
ATOM     30  C   UNL A   1      35.119  32.778  30.913  1.00  0.00     0.010 A 
ATOM     31  C   UNL A   1      36.594  33.837  29.311  1.00  0.00     0.010 A 
ATOM     32  C   UNL A   1      36.414  32.974  30.402  1.00  0.00    -0.014 A 
BRANCH  32  33
ATOM     33  C   UNL A   1      37.581  32.275  30.998  1.00  0.00     0.031 A 
ATOM     34  C   UNL A   1      38.073  32.651  32.368  1.00  0.00     0.074 A 
ATOM     35  C   UNL A   1      38.228  31.336  30.282  1.00  0.00     0.049 A 
ATOM     36  N   UNL A   1      39.080  32.162  33.048  1.00  0.00    -0.248 NA
ATOM     37  C   UNL A   1      37.358  33.739  33.054  1.00  0.00     0.031 C 
ATOM     38  C   UNL A   1      37.888  30.929  28.918  1.00  0.00     0.029 A 
ATOM     39  N   UNL A   1      39.308  30.552  30.602  1.00  0.00    -0.354 N 
ATOM     40  C   UNL A   1      39.123  32.887  34.232  1.00  0.00     0.074 A 
ATOM     41  C   UNL A   1      38.084  33.890  34.152  1.00  0.00     0.031 C 
ATOM     42  C   UNL A   1      38.722  29.950  28.530  1.00  0.00     0.029 A 
ATOM     43  C   UNL A   1      39.671  29.680  29.606  1.00  0.00     0.049 A 
ATOM     44  H   UNL A   1      39.779  30.609  31.465  1.00  0.00     0.167 HD
ATOM     45  C   UNL A   1      39.938  32.714  35.300  1.00  0.00     0.037 A 
ATOM     46  C   UNL A   1      40.655  28.761  29.565  1.00  0.00     0.037 A 
ATOM     47  C   UNL A   1      40.957  31.700  35.385  1.00  0.00     0.049 A 
ATOM     48  C   UNL A   1      41.534  28.577  30.773  1.00  0.00     0.074 A 
ATOM     49  C   UNL A   1      41.797  31.406  36.445  1.00  0.00     0.029 A 
ATOM     50  N   UNL A   1      41.276  30.816  34.365  1.00  0.00    -0.354 N 
ATOM     51  N   UNL A   1      41.512  29.213  31.920  1.00  0.00    -0.248 NA
ATOM     52  C   UNL A   1      42.566  27.534  30.685  1.00  0.00     0.031 C 
ATOM     53  C   UNL A   1      42.653  30.372  36.052  1.00  0.00     0.029 A 
ATOM     54  C   UNL A   1      42.311  29.986  34.766  1.00  0.00     0.049 A 
ATOM     55  H   UNL A   1      40.834  30.783  33.487  1.00  0.00     0.167 HD
ATOM     56  C   UNL A   1      42.501  28.627  32.699  1.00  0.00     0.074 A 
ATOM     57  C   UNL A   1      43.093  27.575  31.900  1.00  0.00     0.031 C 
ATOM     58  C   UNL A   1      42.883  28.935  33.964  1.00  0.00     0.037 A 
BRANCH  45  59
ATOM     59  C   UNL A   1      39.753  33.638  36.470  1.00  0.00     0.064 A 
ATOM     60  C   UNL A   1      40.404  34.880  36.535  1.00  0.00     0.173 A 
ATOM     61  C   UNL A   1      38.890  33.295  37.521  1.00  0.00     0.173 A 
ATOM     62  F   UNL A   1      41.249  35.251  35.561  1.00  0.00    -0.203 F 
ATOM     63  C   UNL A   1      40.224  35.728  37.625  1.00  0.00     0.198 A 
ATOM     64  C   UNL A   1      38.687  34.160  38.593  1.00  0.00     0.198 A 
ATOM     65  F   UNL A   1      38.237  32.123  37.507  1.00  0.00    -0.203 F 
ATOM     66  F   UNL A   1      40.898  36.885  37.690  1.00  0.00    -0.200 F 
ATOM     67  C   UNL A   1      39.360  35.372  38.649  1.00  0.00     0.200 A 
ATOM     68  F   UNL A   1      37.842  33.820  39.576  1.00  0.00    -0.200 F 
ATOM     69  F   UNL A   1      39.181  36.193  39.692  1.00  0.00    -0.200 F 
ENDBRANCH  45  59
BRANCH  46  70
ATOM     70  C   UNL A   1      40.832  27.913  28.358  1.00  0.00     0.064 A 
ATOM     71  C   UNL A   1      41.631  28.342  27.289  1.00  0.00     0.173 A 
ATOM     72  C   UNL A   1      40.203  26.665  28.244  1.00  0.00     0.173 A 
ATOM     73  F   UNL A   1      42.238  29.536  27.344  1.00  0.00    -0.203 F 
ATOM     74  C   UNL A   1      41.777  27.564  26.142  1.00  0.00     0.198 A 
ATOM     75  C   UNL A   1      40.373  25.876  27.108  1.00  0.00     0.198 A 
ATOM     76  F   UNL A   1      39.434  26.207  29.242  1.00  0.00    -0.203 F 
ATOM     77  F   UNL A   1      42.507  28.021  25.114  1.00  0.00    -0.200 F 
ATOM     78  C   UNL A   1      41.151  26.331  26.054  1.00  0.00     0.200 A 
ATOM     79  F   UNL A   1      39.780  24.676  27.033  1.00  0.00    -0.200 F 
ATOM     80  F   UNL A   1      41.293  25.583  24.952  1.00  0.00    -0.200 F 
ENDBRANCH  46  70
BRANCH  58  81
ATOM     81  C   UNL A   1      43.963  28.092  34.578  1.00  0.00     0.064 A 
ATOM     82  C   UNL A   1      45.314  28.465  34.522  1.00  0.00     0.173 A 
ATOM     83  C   UNL A   1      43.637  26.905  35.252  1.00  0.00     0.173 A 
ATOM     84  F   UNL A   1      45.680  29.583  33.877  1.00  0.00    -0.203 F 
ATOM     85  C   UNL A   1      46.301  27.664  35.090  1.00  0.00     0.198 A 
ATOM     86  C   UNL A   1      44.623  26.123  35.846  1.00  0.00     0.198 A 
ATOM     87  F   UNL A   1      42.359  26.506  35.341  1.00  0.00    -0.203 F 
ATOM     88  F   UNL A   1      47.591  28.011  34.977  1.00  0.00    -0.200 F 
ATOM     89  C   UNL A   1      45.955  26.498  35.757  1.00  0.00     0.200 A 
ATOM     90  F   UNL A   1      44.285  25.005  36.503  1.00  0.00    -0.200 F 
ATOM     91  F   UNL A   1      46.906  25.729  36.306  1.00  0.00    -0.200 F 
ENDBRANCH  58  81
ENDBRANCH  32  33
ENDBRANCH  24  27
ENDBRANCH  22  23
ENDBRANCH   1  22
TORSDOF 12
ENDMDL
MODEL 2
REMARK VINA RESULT:     -12.5      0.819      7.349
REMARK SMILES C[C@@H]1CCN(c2cncc(C(=O)NCCCCNC(=O)c3ccc(-c4c5nc(c(-c6c(F)c(F)c(F)c(F)c6F)c6ccc([nH]6)c(-c6c(F)c(F)c(F)c(F)c6F)c6nc(c(-c7c(F)c(F)c(F)c(F)c7F)c7ccc4[nH]7)C=C6)C=C5)cc3)n2)[C@H](C)C1
REMARK SMILES IDX 16 1 15 2 14 3 13 4 11 5 12 6 10 8 6 9 7 10 84 11 8 12 9 13
REMARK SMILES IDX 5 14 1 15 2 16 3 17 87 18 4 19 85 20 86 21 17 22 18 23 19 24
REMARK SMILES IDX 20 26 21 27 22 28 83 29 23 30 82 31 24 32 25 33 26 34 76 35
REMARK SMILES IDX 27 36 81 37 75 38 77 39 28 40 80 41 74 42 73 43 29 45 61 46
REMARK SMILES IDX 41 47 60 48 42 49 45 50 59 51 78 52 43 53 44 54 58 56 79 57
REMARK SMILES IDX 46 58 30 59 31 60 39 61 32 62 33 63 37 64 40 65 34 66 35 67
REMARK SMILES IDX 38 68 36 69 62 70 63 71 71 72 64 73 65 74 69 75 72 76 66 77
REMARK SMILES IDX 67 78 70 79 68 80 47 81 48 82 56 83 49 84 50 85 54 86 57 87
REMARK SMILES IDX 51 88 52 89 55 90 53 91
REMARK H PARENT 13 7 18 25 77 44 45 55
REMARK Flexibility Score: inf
ROOT
ATOM      1  C   UNL A   1      31.518  32.099  26.611  1.00  0.00     0.023 C 
ENDROOT
BRANCH   1   2
ATOM      2  C   UNL A   1      31.606  30.569  26.647  1.00  0.00     0.023 C 
BRANCH   2   3
ATOM      3  C   UNL A   1      32.764  29.991  25.833  1.00  0.00     0.116 C 
BRANCH   3   4
ATOM      4  N   UNL A   1      32.341  29.578  24.509  1.00  0.00    -0.351 N 
ATOM      5  C   UNL A   1      32.027  28.330  24.015  1.00  0.00     0.271 C 
ATOM      6  O   UNL A   1      31.698  28.261  22.828  1.00  0.00    -0.267 OA
ATOM      7  H   UNL A   1      32.265  30.310  23.856  1.00  0.00     0.163 HD
BRANCH   5   8
ATOM      8  C   UNL A   1      32.074  27.080  24.832  1.00  0.00     0.148 A 
ATOM      9  C   UNL A   1      33.018  25.023  25.335  1.00  0.00     0.148 A 
ATOM     10  C   UNL A   1      32.020  24.858  26.304  1.00  0.00     0.157 A 
ATOM     11  N   UNL A   1      33.042  26.156  24.601  1.00  0.00    -0.222 NA
ATOM     12  N   UNL A   1      31.054  25.773  26.572  1.00  0.00    -0.258 NA
ATOM     13  C   UNL A   1      31.107  26.890  25.809  1.00  0.00     0.145 A 
BRANCH   9  14
ATOM     14  N   UNL A   1      34.005  24.082  25.130  1.00  0.00    -0.353 N 
ATOM     15  C   UNL A   1      36.760  21.572  24.519  1.00  0.00     0.008 C 
ATOM     16  C   UNL A   1      36.578  23.076  24.294  1.00  0.00    -0.011 C 
ATOM     17  C   UNL A   1      36.386  23.842  25.616  1.00  0.00     0.025 C 
ATOM     18  C   UNL A   1      35.450  23.405  23.299  1.00  0.00     0.028 C 
ATOM     19  C   UNL A   1      34.964  23.746  26.170  1.00  0.00     0.118 C 
ATOM     20  C   UNL A   1      34.025  23.328  23.876  1.00  0.00     0.081 C 
ATOM     21  C   UNL A   1      33.531  21.895  24.058  1.00  0.00     0.031 C 
ENDBRANCH   9  14
ENDBRANCH   5   8
ENDBRANCH   3   4
ENDBRANCH   2   3
ENDBRANCH   1   2
BRANCH   1  22
ATOM     22  C   UNL A   1      32.686  32.834  27.264  1.00  0.00     0.116 C 
BRANCH  22  23
ATOM     23  N   UNL A   1      32.377  34.206  27.639  1.00  0.00    -0.352 N 
ATOM     24  C   UNL A   1      32.966  34.986  28.603  1.00  0.00     0.251 C 
ATOM     25  H   UNL A   1      31.649  34.631  27.132  1.00  0.00     0.163 HD
ATOM     26  O   UNL A   1      32.516  36.098  28.862  1.00  0.00    -0.269 OA
BRANCH  24  27
ATOM     27  C   UNL A   1      34.123  34.464  29.361  1.00  0.00     0.039 A 
ATOM     28  C   UNL A   1      33.894  33.842  30.590  1.00  0.00     0.014 A 
ATOM     29  C   UNL A   1      35.421  34.565  28.854  1.00  0.00     0.014 A 
ATOM     30  C   UNL A   1      34.962  33.264  31.280  1.00  0.00     0.010 A 
ATOM     31  C   UNL A   1      36.470  33.923  29.504  1.00  0.00     0.010 A 
ATOM     32  C   UNL A   1      36.253  33.269  30.726  1.00  0.00    -0.014 A 
BRANCH  32  33
ATOM     33  C   UNL A   1      37.378  32.587  31.414  1.00  0.00     0.031 A 
ATOM     34  C   UNL A   1      38.085  31.434  30.758  1.00  0.00     0.074 A 
ATOM     35  C   UNL A   1      37.730  32.977  32.654  1.00  0.00     0.049 A 
ATOM     36  N   UNL A   1      39.079  30.709  31.207  1.00  0.00    -0.248 NA
ATOM     37  C   UNL A   1      37.592  31.020  29.435  1.00  0.00     0.031 C 
ATOM     38  C   UNL A   1      37.080  34.039  33.424  1.00  0.00     0.029 A 
ATOM     39  N   UNL A   1      38.723  32.524  33.488  1.00  0.00    -0.354 N 
ATOM     40  C   UNL A   1      39.322  29.753  30.229  1.00  0.00     0.074 A 
ATOM     41  C   UNL A   1      38.332  29.949  29.192  1.00  0.00     0.031 C 
ATOM     42  C   UNL A   1      37.710  34.178  34.602  1.00  0.00     0.029 A 
ATOM     43  C   UNL A   1      38.788  33.197  34.683  1.00  0.00     0.049 A 
ATOM     44  H   UNL A   1      39.331  31.787  33.251  1.00  0.00     0.167 HD
ATOM     45  C   UNL A   1      40.298  28.816  30.186  1.00  0.00     0.037 A 
ATOM     46  C   UNL A   1      39.627  33.045  35.725  1.00  0.00     0.037 A 
ATOM     47  C   UNL A   1      41.296  28.639  31.209  1.00  0.00     0.049 A 
ATOM     48  C   UNL A   1      40.715  32.008  35.644  1.00  0.00     0.074 A 
ATOM     49  C   UNL A   1      42.362  27.756  31.234  1.00  0.00     0.029 A 
ATOM     50  N   UNL A   1      41.347  29.360  32.393  1.00  0.00    -0.354 N 
ATOM     51  N   UNL A   1      40.987  31.165  34.677  1.00  0.00    -0.248 NA
ATOM     52  C   UNL A   1      41.624  31.914  36.794  1.00  0.00     0.031 C 
ATOM     53  C   UNL A   1      43.032  27.912  32.451  1.00  0.00     0.029 A 
ATOM     54  C   UNL A   1      42.417  28.930  33.162  1.00  0.00     0.049 A 
ATOM     55  H   UNL A   1      40.717  30.070  32.650  1.00  0.00     0.167 HD
ATOM     56  C   UNL A   1      42.113  30.465  35.087  1.00  0.00     0.074 A 
ATOM     57  C   UNL A   1      42.483  30.993  36.383  1.00  0.00     0.031 C 
ATOM     58  C   UNL A   1      42.780  29.473  34.446  1.00  0.00     0.037 A 
BRANCH  45  59
ATOM     59  C   UNL A   1      40.341  27.914  28.986  1.00  0.00     0.064 A 
ATOM     60  C   UNL A   1      41.107  28.234  27.853  1.00  0.00     0.173 A 
ATOM     61  C   UNL A   1      39.638  26.701  28.978  1.00  0.00     0.173 A 
ATOM     62  F   UNL A   1      41.789  29.388  27.804  1.00  0.00    -0.203 F 
ATOM     63  C   UNL A   1      41.139  27.390  26.746  1.00  0.00     0.198 A 
ATOM     64  C   UNL A   1      39.698  25.843  27.883  1.00  0.00     0.198 A 
ATOM     65  F   UNL A   1      38.895  26.342  30.036  1.00  0.00    -0.203 F 
ATOM     66  F   UNL A   1      41.834  27.743  25.656  1.00  0.00    -0.200 F 
ATOM     67  C   UNL A   1      40.441  26.191  26.765  1.00  0.00     0.200 A 
ATOM     68  F   UNL A   1      39.034  24.679  27.908  1.00  0.00    -0.200 F 
ATOM     69  F   UNL A   1      40.480  25.376  25.703  1.00  0.00    -0.200 F 
ENDBRANCH  45  59
BRANCH  46  70
ATOM     70  C   UNL A   1      39.503  33.926  36.915  1.00  0.00     0.064 A 
ATOM     71  C   UNL A   1      40.125  35.182  36.949  1.00  0.00     0.173 A 
ATOM     72  C   UNL A   1      38.769  33.531  38.043  1.00  0.00     0.173 A 
ATOM     73  F   UNL A   1      40.852  35.597  35.902  1.00  0.00    -0.203 F 
ATOM     74  C   UNL A   1      40.037  36.000  38.074  1.00  0.00     0.198 A 
ATOM     75  C   UNL A   1      38.658  34.362  39.156  1.00  0.00     0.198 A 
ATOM     76  F   UNL A   1      38.150  32.342  38.059  1.00  0.00    -0.203 F 
ATOM     77  F   UNL A   1      40.682  37.174  38.097  1.00  0.00    -0.200 F 
ATOM     78  C   UNL A   1      39.301  35.591  39.174  1.00  0.00     0.200 A 
ATOM     79  F   UNL A   1      37.933  33.971  40.213  1.00  0.00    -0.200 F 
ATOM     80  F   UNL A   1      39.214  36.379  40.255  1.00  0.00    -0.200 F 
ENDBRANCH  46  70
BRANCH  58  81
ATOM     81  C   UNL A   1      44.007  28.926  35.118  1.00  0.00     0.064 A 
ATOM     82  C   UNL A   1      45.280  29.469  34.889  1.00  0.00     0.173 A 
ATOM     83  C   UNL A   1      43.901  27.859  36.024  1.00  0.00     0.173 A 
ATOM     84  F   UNL A   1      45.436  30.480  34.021  1.00  0.00    -0.203 F 
ATOM     85  C   UNL A   1      46.406  28.940  35.514  1.00  0.00     0.198 A 
ATOM     86  C   UNL A   1      45.024  27.355  36.672  1.00  0.00     0.198 A 
ATOM     87  F   UNL A   1      42.706  27.309  36.285  1.00  0.00    -0.203 F 
ATOM     88  F   UNL A   1      47.619  29.437  35.238  1.00  0.00    -0.200 F 
ATOM     89  C   UNL A   1      46.277  27.889  36.410  1.00  0.00     0.200 A 
ATOM     90  F   UNL A   1      44.896  26.349  37.548  1.00  0.00    -0.200 F 
ATOM     91  F   UNL A   1      47.361  27.384  37.014  1.00  0.00    -0.200 F 
ENDBRANCH  58  81
ENDBRANCH  32  33
ENDBRANCH  24  27
ENDBRANCH  22  23
ENDBRANCH   1  22
TORSDOF 12
ENDMDL
MODEL 3
REMARK VINA RESULT:     -12.5      0.989      2.010
REMARK SMILES C[C@@H]1CCN(c2cncc(C(=O)NCCCCNC(=O)c3ccc(-c4c5nc(c(-c6c(F)c(F)c(F)c(F)c6F)c6ccc([nH]6)c(-c6c(F)c(F)c(F)c(F)c6F)c6nc(c(-c7c(F)c(F)c(F)c(F)c7F)c7ccc4[nH]7)C=C6)C=C5)cc3)n2)[C@H](C)C1
REMARK SMILES IDX 16 1 15 2 14 3 13 4 11 5 12 6 10 8 6 9 7 10 84 11 8 12 9 13
REMARK SMILES IDX 5 14 1 15 2 16 3 17 87 18 4 19 85 20 86 21 17 22 18 23 19 24
REMARK SMILES IDX 20 26 21 27 22 28 83 29 23 30 82 31 24 32 25 33 26 34 76 35
REMARK SMILES IDX 27 36 81 37 75 38 77 39 28 40 80 41 74 42 73 43 29 45 61 46
REMARK SMILES IDX 41 47 60 48 42 49 45 50 59 51 78 52 43 53 44 54 58 56 79 57
REMARK SMILES IDX 46 58 30 59 31 60 39 61 32 62 33 63 37 64 40 65 34 66 35 67
REMARK SMILES IDX 38 68 36 69 62 70 63 71 71 72 64 73 65 74 69 75 72 76 66 77
REMARK SMILES IDX 67 78 70 79 68 80 47 81 48 82 56 83 49 84 50 85 54 86 57 87
REMARK SMILES IDX 51 88 52 89 55 90 53 91
REMARK H PARENT 13 7 18 25 77 44 45 55
REMARK Flexibility Score: inf
ROOT
ATOM      1  C   UNL A   1      31.336  32.171  26.568  1.00  0.00     0.023 C 
ENDROOT
BRANCH   1   2
ATOM      2  C   UNL A   1      31.574  30.741  26.069  1.00  0.00     0.023 C 
BRANCH   2   3
ATOM      3  C   UNL A   1      31.811  29.723  27.184  1.00  0.00     0.116 C 
BRANCH   3   4
ATOM      4  N   UNL A   1      33.219  29.591  27.506  1.00  0.00    -0.351 N 
ATOM      5  C   UNL A   1      34.203  28.815  26.931  1.00  0.00     0.271 C 
ATOM      6  O   UNL A   1      35.335  28.892  27.415  1.00  0.00    -0.267 OA
ATOM      7  H   UNL A   1      33.522  30.148  28.259  1.00  0.00     0.163 HD
BRANCH   5   8
ATOM      8  C   UNL A   1      33.965  27.896  25.777  1.00  0.00     0.148 A 
ATOM      9  C   UNL A   1      33.732  25.762  24.900  1.00  0.00     0.148 A 
ATOM     10  C   UNL A   1      33.602  26.350  23.636  1.00  0.00     0.157 A 
ATOM     11  N   UNL A   1      33.906  26.554  25.981  1.00  0.00    -0.222 NA
ATOM     12  N   UNL A   1      33.634  27.687  23.406  1.00  0.00    -0.258 NA
ATOM     13  C   UNL A   1      33.819  28.446  24.511  1.00  0.00     0.145 A 
BRANCH   9  14
ATOM     14  N   UNL A   1      33.650  24.399  25.089  1.00  0.00    -0.353 N 
ATOM     15  C   UNL A   1      33.521  20.658  25.594  1.00  0.00     0.008 C 
ATOM     16  C   UNL A   1      34.628  21.707  25.446  1.00  0.00    -0.011 C 
ATOM     17  C   UNL A   1      34.613  22.733  26.593  1.00  0.00     0.025 C 
ATOM     18  C   UNL A   1      34.612  22.411  24.077  1.00  0.00     0.028 C 
ATOM     19  C   UNL A   1      33.551  23.820  26.419  1.00  0.00     0.118 C 
ATOM     20  C   UNL A   1      33.554  23.519  23.924  1.00  0.00     0.081 C 
ATOM     21  C   UNL A   1      32.142  22.974  23.730  1.00  0.00     0.031 C 
ENDBRANCH   9  14
ENDBRANCH   5   8
ENDBRANCH   3   4
ENDBRANCH   2   3
ENDBRANCH   1   2
BRANCH   1  22
ATOM     22  C   UNL A   1      32.539  32.839  27.230  1.00  0.00     0.116 C 
BRANCH  22  23
ATOM     23  N   UNL A   1      32.290  34.211  27.644  1.00  0.00    -0.352 N 
ATOM     24  C   UNL A   1      32.957  34.959  28.583  1.00  0.00     0.251 C 
ATOM     25  H   UNL A   1      31.544  34.664  27.190  1.00  0.00     0.163 HD
ATOM     26  O   UNL A   1      32.554  36.078  28.887  1.00  0.00    -0.269 OA
BRANCH  24  27
ATOM     27  C   UNL A   1      34.143  34.394  29.261  1.00  0.00     0.039 A 
ATOM     28  C   UNL A   1      33.956  33.628  30.413  1.00  0.00     0.014 A 
ATOM     29  C   UNL A   1      35.428  34.597  28.752  1.00  0.00     0.014 A 
ATOM     30  C   UNL A   1      35.053  33.012  31.018  1.00  0.00     0.010 A 
ATOM     31  C   UNL A   1      36.509  33.921  29.310  1.00  0.00     0.010 A 
ATOM     32  C   UNL A   1      36.334  33.124  30.451  1.00  0.00    -0.014 A 
BRANCH  32  33
ATOM     33  C   UNL A   1      37.492  32.407  31.042  1.00  0.00     0.031 A 
ATOM     34  C   UNL A   1      37.989  32.767  32.414  1.00  0.00     0.074 A 
ATOM     35  C   UNL A   1      38.127  31.465  30.320  1.00  0.00     0.049 A 
ATOM     36  N   UNL A   1      38.991  32.261  33.091  1.00  0.00    -0.248 NA
ATOM     37  C   UNL A   1      37.289  33.859  33.108  1.00  0.00     0.031 C 
ATOM     38  C   UNL A   1      37.783  31.071  28.953  1.00  0.00     0.029 A 
ATOM     39  N   UNL A   1      39.198  30.665  30.634  1.00  0.00    -0.354 N 
ATOM     40  C   UNL A   1      39.043  32.977  34.280  1.00  0.00     0.074 A 
ATOM     41  C   UNL A   1      38.016  33.993  34.207  1.00  0.00     0.031 C 
ATOM     42  C   UNL A   1      38.604  30.085  28.558  1.00  0.00     0.029 A 
ATOM     43  C   UNL A   1      39.550  29.796  29.631  1.00  0.00     0.049 A 
ATOM     44  H   UNL A   1      39.670  30.710  31.497  1.00  0.00     0.167 HD
ATOM     45  C   UNL A   1      39.856  32.786  35.347  1.00  0.00     0.037 A 
ATOM     46  C   UNL A   1      40.522  28.865  29.584  1.00  0.00     0.037 A 
ATOM     47  C   UNL A   1      40.863  31.759  35.424  1.00  0.00     0.049 A 
ATOM     48  C   UNL A   1      41.399  28.662  30.791  1.00  0.00     0.074 A 
ATOM     49  C   UNL A   1      41.699  31.447  36.482  1.00  0.00     0.029 A 
ATOM     50  N   UNL A   1      41.170  30.878  34.398  1.00  0.00    -0.354 N 
ATOM     51  N   UNL A   1      41.386  29.289  31.941  1.00  0.00    -0.248 NA
ATOM     52  C   UNL A   1      42.418  27.607  30.695  1.00  0.00     0.031 C 
ATOM     53  C   UNL A   1      42.542  30.405  36.081  1.00  0.00     0.029 A 
ATOM     54  C   UNL A   1      42.195  30.033  34.793  1.00  0.00     0.049 A 
ATOM     55  H   UNL A   1      40.727  30.857  33.520  1.00  0.00     0.167 HD
ATOM     56  C   UNL A   1      42.367  28.686  32.716  1.00  0.00     0.074 A 
ATOM     57  C   UNL A   1      42.946  27.633  31.910  1.00  0.00     0.031 C 
ATOM     58  C   UNL A   1      42.754  28.980  33.983  1.00  0.00     0.037 A 
BRANCH  45  59
ATOM     59  C   UNL A   1      39.682  33.704  36.523  1.00  0.00     0.064 A 
ATOM     60  C   UNL A   1      40.319  34.955  36.579  1.00  0.00     0.173 A 
ATOM     61  C   UNL A   1      38.846  33.348  37.590  1.00  0.00     0.173 A 
ATOM     62  F   UNL A   1      41.139  35.339  35.589  1.00  0.00    -0.203 F 
ATOM     63  C   UNL A   1      40.150  35.797  37.675  1.00  0.00     0.198 A 
ATOM     64  C   UNL A   1      38.653  34.207  38.669  1.00  0.00     0.198 A 
ATOM     65  F   UNL A   1      38.208  32.167  37.586  1.00  0.00    -0.203 F 
ATOM     66  F   UNL A   1      40.810  36.962  37.730  1.00  0.00    -0.200 F 
ATOM     67  C   UNL A   1      39.311  35.426  38.715  1.00  0.00     0.200 A 
ATOM     68  F   UNL A   1      37.832  33.852  39.668  1.00  0.00    -0.200 F 
ATOM     69  F   UNL A   1      39.143  36.242  39.765  1.00  0.00    -0.200 F 
ENDBRANCH  45  59
BRANCH  46  70
ATOM     70  C   UNL A   1      40.689  28.023  28.371  1.00  0.00     0.064 A 
ATOM     71  C   UNL A   1      40.069  26.770  28.275  1.00  0.00     0.173 A 
ATOM     72  C   UNL A   1      41.474  28.448  27.289  1.00  0.00     0.173 A 
ATOM     73  F   UNL A   1      39.324  26.312  29.291  1.00  0.00    -0.203 F 
ATOM     74  C   UNL A   1      40.246  25.963  27.152  1.00  0.00     0.198 A 
ATOM     75  C   UNL A   1      41.626  27.653  26.156  1.00  0.00     0.198 A 
ATOM     76  F   UNL A   1      42.082  29.642  27.329  1.00  0.00    -0.203 F 
ATOM     77  F   UNL A   1      39.681  24.748  27.109  1.00  0.00    -0.200 F 
ATOM     78  C   UNL A   1      41.020  26.406  26.093  1.00  0.00     0.200 A 
ATOM     79  F   UNL A   1      42.363  28.091  25.126  1.00  0.00    -0.200 F 
ATOM     80  F   UNL A   1      41.188  25.632  25.013  1.00  0.00    -0.200 F 
ENDBRANCH  46  70
BRANCH  58  81
ATOM     81  C   UNL A   1      43.823  28.119  34.591  1.00  0.00     0.064 A 
ATOM     82  C   UNL A   1      43.520  26.923  35.258  1.00  0.00     0.173 A 
ATOM     83  C   UNL A   1      45.173  28.487  34.481  1.00  0.00     0.173 A 
ATOM     84  F   UNL A   1      42.244  26.535  35.402  1.00  0.00    -0.203 F 
ATOM     85  C   UNL A   1      44.526  26.145  35.823  1.00  0.00     0.198 A 
ATOM     86  C   UNL A   1      46.179  27.689  35.019  1.00  0.00     0.198 A 
ATOM     87  F   UNL A   1      45.518  29.617  33.847  1.00  0.00    -0.203 F 
ATOM     88  F   UNL A   1      44.210  25.035  36.504  1.00  0.00    -0.200 F 
ATOM     89  C   UNL A   1      45.855  26.524  35.697  1.00  0.00     0.200 A 
ATOM     90  F   UNL A   1      47.463  28.050  34.885  1.00  0.00    -0.200 F 
ATOM     91  F   UNL A   1      46.823  25.772  36.239  1.00  0.00    -0.200 F 
ENDBRANCH  58  81
ENDBRANCH  32  33
ENDBRANCH  24  27
ENDBRANCH  22  23
ENDBRANCH   1  22
TORSDOF 12
ENDMDL
