MODEL 1
REMARK VINA RESULT:     -13.7      0.000      0.000
REMARK SMILES O=C(NCCCCNC(=O)c1ccccc1-c1ccccc1C(=O)N1CC[NH+](Cc2ccc3c(c2)OCO3)CC1)c1ccc(-c2c3nc(c(-c4c(F)c(F)c(F)c(F)c4F)c4ccc([nH]4)c(-c4c(F)c(F)c(F)c(F)c4F)c4nc(c(-c5c(F)c(F)c(F)c(F)c5F)c5ccc2[nH]5)C=C4)C=C3)cc1
REMARK SMILES IDX 6 1 5 2 4 3 3 4 1 5 2 6 41 8 42 9 103 10 43 11 102 12 44 13
REMARK SMILES IDX 45 14 46 15 96 16 47 17 101 18 95 19 97 20 48 21 100 22
REMARK SMILES IDX 94 23 93 24 49 26 81 27 61 28 80 29 62 30 65 31 79 32 98 33
REMARK SMILES IDX 63 34 64 35 78 37 99 38 66 39 50 40 51 41 59 42 52 43 53 44
REMARK SMILES IDX 57 45 60 46 54 47 55 48 58 49 56 50 82 51 83 52 91 53 84 54
REMARK SMILES IDX 85 55 89 56 92 57 86 58 87 59 90 60 88 61 67 62 68 63 76 64
REMARK SMILES IDX 69 65 70 66 74 67 77 68 71 69 72 70 75 71 73 72 7 73 8 74
REMARK SMILES IDX 9 75 10 77 11 78 12 79 16 80 13 81 15 82 14 83 17 84 18 85
REMARK SMILES IDX 22 86 19 87 21 88 20 89 23 90 24 91 25 92 26 93 40 94 27 95
REMARK SMILES IDX 39 96 28 97 29 99 30 100 31 101 35 102 32 103 34 104 33 105
REMARK SMILES IDX 36 106 38 107 37 108
REMARK H PARENT 3 7 97 25 65 36 8 76 28 98
REMARK Flexibility Score: inf
ROOT
ATOM      1  C   UNL A   1      34.252  30.976  27.696  1.00  0.00     0.023 C 
ENDROOT
BRANCH   1   2
ATOM      2  C   UNL A   1      33.118  31.973  27.940  1.00  0.00     0.023 C 
BRANCH   2   3
ATOM      3  C   UNL A   1      33.293  33.306  27.222  1.00  0.00     0.116 C 
BRANCH   3   4
ATOM      4  N   UNL A   1      32.806  34.426  28.020  1.00  0.00    -0.352 N 
ATOM      5  O   UNL A   1      32.555  35.680  29.879  1.00  0.00    -0.269 OA
ATOM      6  C   UNL A   1      33.192  34.841  29.267  1.00  0.00     0.251 C 
ATOM      7  H   UNL A   1      32.094  34.962  27.601  1.00  0.00     0.163 HD
BRANCH   6   8
ATOM      8  C   UNL A   1      34.392  34.230  29.854  1.00  0.00     0.039 A 
ATOM      9  C   UNL A   1      35.649  34.534  29.323  1.00  0.00     0.014 A 
ATOM     10  C   UNL A   1      34.245  33.327  30.905  1.00  0.00     0.014 A 
ATOM     11  C   UNL A   1      36.758  33.831  29.762  1.00  0.00     0.010 A 
ATOM     12  C   UNL A   1      35.375  32.686  31.404  1.00  0.00     0.010 A 
ATOM     13  C   UNL A   1      36.631  32.919  30.821  1.00  0.00    -0.014 A 
BRANCH  13  14
ATOM     14  C   UNL A   1      37.840  32.278  31.374  1.00  0.00     0.031 A 
ATOM     15  C   UNL A   1      38.559  31.209  30.612  1.00  0.00     0.074 A 
ATOM     16  C   UNL A   1      38.252  32.658  32.596  1.00  0.00     0.049 A 
ATOM     17  N   UNL A   1      39.574  30.474  30.986  1.00  0.00    -0.248 NA
ATOM     18  C   UNL A   1      38.067  30.915  29.258  1.00  0.00     0.031 C 
ATOM     19  C   UNL A   1      37.604  33.684  33.418  1.00  0.00     0.029 A 
ATOM     20  N   UNL A   1      39.297  32.224  33.366  1.00  0.00    -0.354 N 
ATOM     21  C   UNL A   1      39.825  29.611  29.929  1.00  0.00     0.074 A 
ATOM     22  C   UNL A   1      38.845  29.902  28.902  1.00  0.00     0.031 C 
ATOM     23  C   UNL A   1      38.271  33.808  34.572  1.00  0.00     0.029 A 
ATOM     24  C   UNL A   1      39.346  32.824  34.598  1.00  0.00     0.049 A 
ATOM     25  H   UNL A   1      39.947  31.548  33.066  1.00  0.00     0.167 HD
ATOM     26  C   UNL A   1      40.789  28.664  29.834  1.00  0.00     0.037 A 
ATOM     27  C   UNL A   1      40.143  32.579  35.652  1.00  0.00     0.037 A 
ATOM     28  C   UNL A   1      41.762  28.406  30.865  1.00  0.00     0.049 A 
ATOM     29  C   UNL A   1      41.192  31.516  35.528  1.00  0.00     0.074 A 
ATOM     30  C   UNL A   1      42.817  27.513  30.852  1.00  0.00     0.029 A 
ATOM     31  N   UNL A   1      41.787  29.039  32.101  1.00  0.00    -0.354 N 
ATOM     32  N   UNL A   1      41.449  30.730  34.511  1.00  0.00    -0.248 NA
ATOM     33  C   UNL A   1      42.058  31.303  36.693  1.00  0.00     0.031 C 
ATOM     34  C   UNL A   1      43.451  27.569  32.098  1.00  0.00     0.029 A 
ATOM     35  C   UNL A   1      42.824  28.534  32.871  1.00  0.00     0.049 A 
ATOM     36  H   UNL A   1      41.162  29.743  32.389  1.00  0.00     0.167 HD
ATOM     37  C   UNL A   1      42.515  29.935  34.904  1.00  0.00     0.074 A 
ATOM     38  C   UNL A   1      42.863  30.345  36.251  1.00  0.00     0.031 C 
ATOM     39  C   UNL A   1      43.146  28.957  34.212  1.00  0.00     0.037 A 
BRANCH  26  40
ATOM     40  C   UNL A   1      40.817  27.820  28.593  1.00  0.00     0.064 A 
ATOM     41  C   UNL A   1      41.591  28.166  27.475  1.00  0.00     0.173 A 
ATOM     42  C   UNL A   1      40.069  26.634  28.528  1.00  0.00     0.173 A 
ATOM     43  F   UNL A   1      42.314  29.296  27.479  1.00  0.00    -0.203 F 
ATOM     44  C   UNL A   1      41.590  27.374  26.330  1.00  0.00     0.198 A 
ATOM     45  C   UNL A   1      40.094  25.829  27.392  1.00  0.00     0.198 A 
ATOM     46  F   UNL A   1      39.316  26.252  29.571  1.00  0.00    -0.203 F 
ATOM     47  F   UNL A   1      42.297  27.751  25.255  1.00  0.00    -0.200 F 
ATOM     48  C   UNL A   1      40.846  26.204  26.290  1.00  0.00     0.200 A 
ATOM     49  F   UNL A   1      39.383  24.693  27.362  1.00  0.00    -0.200 F 
ATOM     50  F   UNL A   1      40.848  25.442  25.188  1.00  0.00    -0.200 F 
ENDBRANCH  26  40
BRANCH  27  51
ATOM     51  C   UNL A   1      39.943  33.355  36.899  1.00  0.00     0.064 A 
ATOM     52  C   UNL A   1      40.659  34.533  37.141  1.00  0.00     0.173 A 
ATOM     53  C   UNL A   1      38.966  32.977  37.834  1.00  0.00     0.173 A 
ATOM     54  F   UNL A   1      41.608  34.927  36.280  1.00  0.00    -0.203 F 
ATOM     55  C   UNL A   1      40.407  35.305  38.272  1.00  0.00     0.198 A 
ATOM     56  C   UNL A   1      38.695  33.764  38.950  1.00  0.00     0.198 A 
ATOM     57  F   UNL A   1      38.243  31.865  37.637  1.00  0.00    -0.203 F 
ATOM     58  F   UNL A   1      41.117  36.421  38.491  1.00  0.00    -0.200 F 
ATOM     59  C   UNL A   1      39.418  34.927  39.170  1.00  0.00     0.200 A 
ATOM     60  F   UNL A   1      37.724  33.407  39.801  1.00  0.00    -0.200 F 
ATOM     61  F   UNL A   1      39.159  35.685  40.243  1.00  0.00    -0.200 F 
ENDBRANCH  27  51
BRANCH  39  62
ATOM     62  C   UNL A   1      44.294  28.275  34.893  1.00  0.00     0.064 A 
ATOM     63  C   UNL A   1      45.593  28.798  34.837  1.00  0.00     0.173 A 
ATOM     64  C   UNL A   1      44.078  27.118  35.655  1.00  0.00     0.173 A 
ATOM     65  F   UNL A   1      45.849  29.893  34.105  1.00  0.00    -0.203 F 
ATOM     66  C   UNL A   1      46.640  28.178  35.512  1.00  0.00     0.198 A 
ATOM     67  C   UNL A   1      45.123  26.515  36.349  1.00  0.00     0.198 A 
ATOM     68  F   UNL A   1      42.852  26.582  35.740  1.00  0.00    -0.203 F 
ATOM     69  F   UNL A   1      47.882  28.674  35.419  1.00  0.00    -0.200 F 
ATOM     70  C   UNL A   1      46.403  27.043  36.274  1.00  0.00     0.200 A 
ATOM     71  F   UNL A   1      44.890  25.426  37.094  1.00  0.00    -0.200 F 
ATOM     72  F   UNL A   1      47.411  26.456  36.933  1.00  0.00    -0.200 F 
ENDBRANCH  39  62
ENDBRANCH  13  14
ENDBRANCH   6   8
ENDBRANCH   3   4
ENDBRANCH   2   3
ENDBRANCH   1   2
BRANCH   1  73
ATOM     73  C   UNL A   1      33.788  29.660  27.081  1.00  0.00     0.116 C 
BRANCH  73  74
ATOM     74  N   UNL A   1      32.382  29.733  26.779  1.00  0.00    -0.352 N 
ATOM     75  C   UNL A   1      31.883  29.905  25.524  1.00  0.00     0.251 C 
ATOM     76  H   UNL A   1      31.743  29.656  27.524  1.00  0.00     0.163 HD
ATOM     77  O   UNL A   1      30.964  30.701  25.360  1.00  0.00    -0.269 OA
BRANCH  75  78
ATOM     78  C   UNL A   1      32.469  29.139  24.391  1.00  0.00     0.047 A 
ATOM     79  C   UNL A   1      33.823  29.417  24.128  1.00  0.00     0.014 A 
ATOM     80  C   UNL A   1      31.748  28.239  23.566  1.00  0.00    -0.005 A 
ATOM     81  C   UNL A   1      34.490  28.791  23.077  1.00  0.00     0.001 A 
ATOM     82  C   UNL A   1      32.461  27.621  22.510  1.00  0.00     0.009 A 
ATOM     83  C   UNL A   1      33.811  27.888  22.271  1.00  0.00     0.001 A 
BRANCH  80  84
ATOM     84  C   UNL A   1      30.323  27.849  23.734  1.00  0.00    -0.005 A 
ATOM     85  C   UNL A   1      29.400  28.458  22.839  1.00  0.00     0.009 A 
ATOM     86  C   UNL A   1      29.806  26.908  24.654  1.00  0.00     0.047 A 
ATOM     87  C   UNL A   1      28.044  28.125  22.811  1.00  0.00     0.001 A 
ATOM     88  C   UNL A   1      28.425  26.593  24.619  1.00  0.00     0.014 A 
ATOM     89  C   UNL A   1      27.555  27.186  23.703  1.00  0.00     0.001 A 
BRANCH  86  90
ATOM     90  C   UNL A   1      30.620  26.026  25.548  1.00  0.00     0.254 C 
ATOM     91  O   UNL A   1      30.870  26.456  26.679  1.00  0.00    -0.269 OA
ATOM     92  N   UNL A   1      30.993  24.744  25.164  1.00  0.00    -0.327 N 
ATOM     93  C   UNL A   1      31.271  23.793  26.231  1.00  0.00     0.181 C 
ATOM     94  C   UNL A   1      31.648  24.426  23.900  1.00  0.00     0.181 C 
ATOM     95  C   UNL A   1      31.006  22.333  25.809  1.00  0.00     0.284 C 
ATOM     96  C   UNL A   1      31.503  22.939  23.484  1.00  0.00     0.284 C 
ATOM     97  N   UNL A   1      31.574  21.900  24.524  1.00  0.00    -0.328 N 
ATOM     98  H   UNL A   1      30.942  21.178  24.175  1.00  0.00     0.348 HD
BRANCH  97  99
ATOM     99  C   UNL A   1      32.813  21.124  24.611  1.00  0.00     0.299 C 
BRANCH  99 100
ATOM    100  C   UNL A   1      32.608  19.642  24.403  1.00  0.00     0.010 A 
ATOM    101  C   UNL A   1      32.458  19.139  23.091  1.00  0.00     0.013 A 
ATOM    102  C   UNL A   1      32.830  18.767  25.477  1.00  0.00     0.060 A 
ATOM    103  C   UNL A   1      32.727  17.798  22.815  1.00  0.00     0.051 A 
ATOM    104  C   UNL A   1      33.161  17.472  25.161  1.00  0.00     0.166 A 
ATOM    105  C   UNL A   1      33.149  17.013  23.864  1.00  0.00     0.165 A 
ATOM    106  O   UNL A   1      33.720  16.577  26.022  1.00  0.00    -0.454 OA
ATOM    107  O   UNL A   1      33.707  15.774  23.759  1.00  0.00    -0.454 OA
ATOM    108  C   UNL A   1      34.303  15.663  25.071  1.00  0.00     0.468 C 
ENDBRANCH  99 100
ENDBRANCH  97  99
ENDBRANCH  86  90
ENDBRANCH  80  84
ENDBRANCH  75  78
ENDBRANCH  73  74
ENDBRANCH   1  73
TORSDOF 15
ENDMDL
MODEL 2
REMARK VINA RESULT:     -13.7      2.422      3.380
REMARK SMILES O=C(NCCCCNC(=O)c1ccccc1-c1ccccc1C(=O)N1CC[NH+](Cc2ccc3c(c2)OCO3)CC1)c1ccc(-c2c3nc(c(-c4c(F)c(F)c(F)c(F)c4F)c4ccc([nH]4)c(-c4c(F)c(F)c(F)c(F)c4F)c4nc(c(-c5c(F)c(F)c(F)c(F)c5F)c5ccc2[nH]5)C=C4)C=C3)cc1
REMARK SMILES IDX 6 1 5 2 4 3 3 4 1 5 2 6 41 8 42 9 103 10 43 11 102 12 44 13
REMARK SMILES IDX 45 14 46 15 96 16 47 17 101 18 95 19 97 20 48 21 100 22
REMARK SMILES IDX 94 23 93 24 49 26 81 27 61 28 80 29 62 30 65 31 79 32 98 33
REMARK SMILES IDX 63 34 64 35 78 37 99 38 66 39 50 40 51 41 59 42 52 43 53 44
REMARK SMILES IDX 57 45 60 46 54 47 55 48 58 49 56 50 82 51 83 52 91 53 84 54
REMARK SMILES IDX 85 55 89 56 92 57 86 58 87 59 90 60 88 61 67 62 68 63 76 64
REMARK SMILES IDX 69 65 70 66 74 67 77 68 71 69 72 70 75 71 73 72 7 73 8 74
REMARK SMILES IDX 9 75 10 77 11 78 12 79 16 80 13 81 15 82 14 83 17 84 18 85
REMARK SMILES IDX 22 86 19 87 21 88 20 89 23 90 24 91 25 92 26 93 40 94 27 95
REMARK SMILES IDX 39 96 28 97 29 99 30 100 31 101 35 102 32 103 34 104 33 105
REMARK SMILES IDX 36 106 38 107 37 108
REMARK H PARENT 3 7 97 25 65 36 8 76 28 98
REMARK Flexibility Score: inf
ROOT
ATOM      1  C   UNL A   1      31.432  30.718  26.855  1.00  0.00     0.023 C 
ENDROOT
BRANCH   1   2
ATOM      2  C   UNL A   1      31.384  32.235  26.663  1.00  0.00     0.023 C 
BRANCH   2   3
ATOM      3  C   UNL A   1      32.676  32.953  27.037  1.00  0.00     0.116 C 
BRANCH   3   4
ATOM      4  N   UNL A   1      32.422  34.250  27.654  1.00  0.00    -0.352 N 
ATOM      5  O   UNL A   1      32.563  35.838  29.251  1.00  0.00    -0.269 OA
ATOM      6  C   UNL A   1      33.018  34.829  28.743  1.00  0.00     0.251 C 
ATOM      7  H   UNL A   1      31.718  34.788  27.225  1.00  0.00     0.163 HD
BRANCH   6   8
ATOM      8  C   UNL A   1      34.220  34.186  29.292  1.00  0.00     0.039 A 
ATOM      9  C   UNL A   1      34.088  33.229  30.303  1.00  0.00     0.014 A 
ATOM     10  C   UNL A   1      35.471  34.577  28.820  1.00  0.00     0.014 A 
ATOM     11  C   UNL A   1      35.222  32.752  30.937  1.00  0.00     0.010 A 
ATOM     12  C   UNL A   1      36.610  34.029  29.401  1.00  0.00     0.010 A 
ATOM     13  C   UNL A   1      36.490  33.131  30.474  1.00  0.00    -0.014 A 
BRANCH  13  14
ATOM     14  C   UNL A   1      37.693  32.511  31.065  1.00  0.00     0.031 A 
ATOM     15  C   UNL A   1      38.422  31.417  30.350  1.00  0.00     0.074 A 
ATOM     16  C   UNL A   1      38.088  32.934  32.279  1.00  0.00     0.049 A 
ATOM     17  N   UNL A   1      39.432  30.696  30.763  1.00  0.00    -0.248 NA
ATOM     18  C   UNL A   1      37.947  31.075  29.001  1.00  0.00     0.031 C 
ATOM     19  C   UNL A   1      37.430  33.988  33.055  1.00  0.00     0.029 A 
ATOM     20  N   UNL A   1      39.123  32.529  33.076  1.00  0.00    -0.354 N 
ATOM     21  C   UNL A   1      39.697  29.797  29.741  1.00  0.00     0.074 A 
ATOM     22  C   UNL A   1      38.730  30.051  28.692  1.00  0.00     0.031 C 
ATOM     23  C   UNL A   1      38.082  34.153  34.213  1.00  0.00     0.029 A 
ATOM     24  C   UNL A   1      39.157  33.171  34.288  1.00  0.00     0.049 A 
ATOM     25  H   UNL A   1      39.778  31.844  32.809  1.00  0.00     0.167 HD
ATOM     26  C   UNL A   1      40.663  28.848  29.692  1.00  0.00     0.037 A 
ATOM     27  C   UNL A   1      39.940  32.965  35.359  1.00  0.00     0.037 A 
ATOM     28  C   UNL A   1      41.622  28.627  30.743  1.00  0.00     0.049 A 
ATOM     29  C   UNL A   1      40.991  31.899  35.286  1.00  0.00     0.074 A 
ATOM     30  C   UNL A   1      42.678  27.735  30.776  1.00  0.00     0.029 A 
ATOM     31  N   UNL A   1      41.631  29.304  31.957  1.00  0.00    -0.354 N 
ATOM     32  N   UNL A   1      41.262  31.078  34.301  1.00  0.00    -0.248 NA
ATOM     33  C   UNL A   1      41.842  31.728  36.469  1.00  0.00     0.031 C 
ATOM     34  C   UNL A   1      43.296  27.836  32.027  1.00  0.00     0.029 A 
ATOM     35  C   UNL A   1      42.658  28.826  32.757  1.00  0.00     0.049 A 
ATOM     36  H   UNL A   1      41.002  30.016  32.211  1.00  0.00     0.167 HD
ATOM     37  C   UNL A   1      42.322  30.299  34.735  1.00  0.00     0.074 A 
ATOM     38  C   UNL A   1      42.653  30.756  36.071  1.00  0.00     0.031 C 
ATOM     39  C   UNL A   1      42.963  29.297  34.086  1.00  0.00     0.037 A 
BRANCH  26  40
ATOM     40  C   UNL A   1      40.706  27.961  28.481  1.00  0.00     0.064 A 
ATOM     41  C   UNL A   1      41.478  28.279  27.354  1.00  0.00     0.173 A 
ATOM     42  C   UNL A   1      39.977  26.761  28.458  1.00  0.00     0.173 A 
ATOM     43  F   UNL A   1      42.184  29.419  27.319  1.00  0.00    -0.203 F 
ATOM     44  C   UNL A   1      41.493  27.446  26.237  1.00  0.00     0.198 A 
ATOM     45  C   UNL A   1      40.017  25.917  27.351  1.00  0.00     0.198 A 
ATOM     46  F   UNL A   1      39.227  26.405  29.511  1.00  0.00    -0.203 F 
ATOM     47  F   UNL A   1      42.197  27.796  25.152  1.00  0.00    -0.200 F 
ATOM     48  C   UNL A   1      40.767  26.264  26.238  1.00  0.00     0.200 A 
ATOM     49  F   UNL A   1      39.325  24.770  27.360  1.00  0.00    -0.200 F 
ATOM     50  F   UNL A   1      40.784  25.464  25.164  1.00  0.00    -0.200 F 
ENDBRANCH  26  40
BRANCH  27  51
ATOM     51  C   UNL A   1      39.724  33.784  36.576  1.00  0.00     0.064 A 
ATOM     52  C   UNL A   1      40.278  35.063  36.694  1.00  0.00     0.173 A 
ATOM     53  C   UNL A   1      38.883  33.335  37.607  1.00  0.00     0.173 A 
ATOM     54  F   UNL A   1      41.094  35.530  35.738  1.00  0.00    -0.203 F 
ATOM     55  C   UNL A   1      40.003  35.865  37.800  1.00  0.00     0.198 A 
ATOM     56  C   UNL A   1      38.586  34.146  38.698  1.00  0.00     0.198 A 
ATOM     57  F   UNL A   1      38.316  32.122  37.530  1.00  0.00    -0.203 F 
ATOM     58  F   UNL A   1      40.559  37.080  37.899  1.00  0.00    -0.200 F 
ATOM     59  C   UNL A   1      39.148  35.411  38.795  1.00  0.00     0.200 A 
ATOM     60  F   UNL A   1      37.742  33.713  39.644  1.00  0.00    -0.200 F 
ATOM     61  F   UNL A   1      38.863  36.192  39.844  1.00  0.00    -0.200 F 
ENDBRANCH  27  51
BRANCH  39  62
ATOM     62  C   UNL A   1      44.102  28.641  34.806  1.00  0.00     0.064 A 
ATOM     63  C   UNL A   1      45.402  29.163  34.749  1.00  0.00     0.173 A 
ATOM     64  C   UNL A   1      43.877  27.510  35.605  1.00  0.00     0.173 A 
ATOM     65  F   UNL A   1      45.666  30.232  33.983  1.00  0.00    -0.203 F 
ATOM     66  C   UNL A   1      46.440  28.568  35.458  1.00  0.00     0.198 A 
ATOM     67  C   UNL A   1      44.913  26.933  36.333  1.00  0.00     0.198 A 
ATOM     68  F   UNL A   1      42.650  26.976  35.692  1.00  0.00    -0.203 F 
ATOM     69  F   UNL A   1      47.682  29.062  35.364  1.00  0.00    -0.200 F 
ATOM     70  C   UNL A   1      46.194  27.460  36.257  1.00  0.00     0.200 A 
ATOM     71  F   UNL A   1      44.671  25.870  37.112  1.00  0.00    -0.200 F 
ATOM     72  F   UNL A   1      47.193  26.897  36.949  1.00  0.00    -0.200 F 
ENDBRANCH  39  62
ENDBRANCH  13  14
ENDBRANCH   6   8
ENDBRANCH   3   4
ENDBRANCH   2   3
ENDBRANCH   1   2
BRANCH   1  73
ATOM     73  C   UNL A   1      32.057  29.971  25.682  1.00  0.00     0.116 C 
BRANCH  73  74
ATOM     74  N   UNL A   1      33.280  29.339  26.105  1.00  0.00    -0.352 N 
ATOM     75  C   UNL A   1      33.670  28.097  25.707  1.00  0.00     0.251 C 
ATOM     76  H   UNL A   1      33.869  29.833  26.720  1.00  0.00     0.163 HD
ATOM     77  O   UNL A   1      34.127  27.326  26.545  1.00  0.00    -0.269 OA
BRANCH  75  78
ATOM     78  C   UNL A   1      33.521  27.704  24.279  1.00  0.00     0.047 A 
ATOM     79  C   UNL A   1      34.192  28.534  23.364  1.00  0.00     0.014 A 
ATOM     80  C   UNL A   1      32.722  26.627  23.818  1.00  0.00    -0.005 A 
ATOM     81  C   UNL A   1      34.116  28.298  21.993  1.00  0.00     0.001 A 
ATOM     82  C   UNL A   1      32.671  26.417  22.419  1.00  0.00     0.009 A 
ATOM     83  C   UNL A   1      33.360  27.235  21.520  1.00  0.00     0.001 A 
BRANCH  80  84
ATOM     84  C   UNL A   1      31.968  25.669  24.670  1.00  0.00    -0.005 A 
ATOM     85  C   UNL A   1      30.938  26.229  25.477  1.00  0.00     0.009 A 
ATOM     86  C   UNL A   1      32.139  24.267  24.722  1.00  0.00     0.047 A 
ATOM     87  C   UNL A   1      30.085  25.449  26.260  1.00  0.00     0.001 A 
ATOM     88  C   UNL A   1      31.270  23.493  25.531  1.00  0.00     0.014 A 
ATOM     89  C   UNL A   1      30.250  24.074  26.284  1.00  0.00     0.001 A 
BRANCH  86  90
ATOM     90  C   UNL A   1      33.029  23.464  23.825  1.00  0.00     0.254 C 
ATOM     91  O   UNL A   1      32.672  23.344  22.649  1.00  0.00    -0.269 OA
ATOM     92  N   UNL A   1      34.247  22.962  24.266  1.00  0.00    -0.327 N 
ATOM     93  C   UNL A   1      35.257  22.701  23.249  1.00  0.00     0.181 C 
ATOM     94  C   UNL A   1      34.417  22.180  25.486  1.00  0.00     0.181 C 
ATOM     95  C   UNL A   1      36.695  22.816  23.797  1.00  0.00     0.284 C 
ATOM     96  C   UNL A   1      35.874  22.175  26.019  1.00  0.00     0.284 C 
ATOM     97  N   UNL A   1      36.983  22.111  25.054  1.00  0.00    -0.328 N 
ATOM     98  H   UNL A   1      37.719  22.653  25.510  1.00  0.00     0.348 HD
BRANCH  97  99
ATOM     99  C   UNL A   1      37.675  20.827  24.914  1.00  0.00     0.299 C 
BRANCH  99 100
ATOM    100  C   UNL A   1      38.961  20.749  25.699  1.00  0.00     0.010 A 
ATOM    101  C   UNL A   1      39.646  19.516  25.792  1.00  0.00     0.013 A 
ATOM    102  C   UNL A   1      39.589  21.939  26.098  1.00  0.00     0.060 A 
ATOM    103  C   UNL A   1      41.010  19.486  26.086  1.00  0.00     0.051 A 
ATOM    104  C   UNL A   1      40.944  21.883  26.311  1.00  0.00     0.166 A 
ATOM    105  C   UNL A   1      41.640  20.697  26.266  1.00  0.00     0.165 A 
ATOM    106  O   UNL A   1      41.769  22.965  26.381  1.00  0.00    -0.454 OA
ATOM    107  O   UNL A   1      42.987  20.897  26.296  1.00  0.00    -0.454 OA
ATOM    108  C   UNL A   1      43.026  22.326  26.080  1.00  0.00     0.468 C 
ENDBRANCH  99 100
ENDBRANCH  97  99
ENDBRANCH  86  90
ENDBRANCH  80  84
ENDBRANCH  75  78
ENDBRANCH  73  74
ENDBRANCH   1  73
TORSDOF 15
ENDMDL
MODEL 3
REMARK VINA RESULT:     -13.5      3.491      7.101
REMARK SMILES O=C(NCCCCNC(=O)c1ccccc1-c1ccccc1C(=O)N1CC[NH+](Cc2ccc3c(c2)OCO3)CC1)c1ccc(-c2c3nc(c(-c4c(F)c(F)c(F)c(F)c4F)c4ccc([nH]4)c(-c4c(F)c(F)c(F)c(F)c4F)c4nc(c(-c5c(F)c(F)c(F)c(F)c5F)c5ccc2[nH]5)C=C4)C=C3)cc1
REMARK SMILES IDX 6 1 5 2 4 3 3 4 1 5 2 6 41 8 42 9 103 10 43 11 102 12 44 13
REMARK SMILES IDX 45 14 46 15 96 16 47 17 101 18 95 19 97 20 48 21 100 22
REMARK SMILES IDX 94 23 93 24 49 26 81 27 61 28 80 29 62 30 65 31 79 32 98 33
REMARK SMILES IDX 63 34 64 35 78 37 99 38 66 39 50 40 51 41 59 42 52 43 53 44
REMARK SMILES IDX 57 45 60 46 54 47 55 48 58 49 56 50 82 51 83 52 91 53 84 54
REMARK SMILES IDX 85 55 89 56 92 57 86 58 87 59 90 60 88 61 67 62 68 63 76 64
REMARK SMILES IDX 69 65 70 66 74 67 77 68 71 69 72 70 75 71 73 72 7 73 8 74
REMARK SMILES IDX 9 75 10 77 11 78 12 79 16 80 13 81 15 82 14 83 17 84 18 85
REMARK SMILES IDX 22 86 19 87 21 88 20 89 23 90 24 91 25 92 26 93 40 94 27 95
REMARK SMILES IDX 39 96 28 97 29 99 30 100 31 101 35 102 32 103 34 104 33 105
REMARK SMILES IDX 36 106 38 107 37 108
REMARK H PARENT 3 7 97 25 65 36 8 76 28 98
REMARK Flexibility Score: inf
ROOT
ATOM      1  C   UNL A   1      35.135  24.742  26.337  1.00  0.00     0.023 C 
ENDROOT
BRANCH   1   2
ATOM      2  C   UNL A   1      35.572  23.949  25.103  1.00  0.00     0.023 C 
BRANCH   2   3
ATOM      3  C   UNL A   1      37.073  23.986  24.836  1.00  0.00     0.116 C 
BRANCH   3   4
ATOM      4  N   UNL A   1      37.753  22.814  25.374  1.00  0.00    -0.352 N 
ATOM      5  O   UNL A   1      39.424  21.679  26.381  1.00  0.00    -0.269 OA
ATOM      6  C   UNL A   1      38.864  22.741  26.172  1.00  0.00     0.251 C 
ATOM      7  H   UNL A   1      37.357  21.948  25.126  1.00  0.00     0.163 HD
BRANCH   6   8
ATOM      8  C   UNL A   1      39.373  23.988  26.759  1.00  0.00     0.039 A 
ATOM      9  C   UNL A   1      39.043  24.313  28.079  1.00  0.00     0.014 A 
ATOM     10  C   UNL A   1      40.140  24.842  25.970  1.00  0.00     0.014 A 
ATOM     11  C   UNL A   1      39.378  25.562  28.573  1.00  0.00     0.010 A 
ATOM     12  C   UNL A   1      40.550  26.062  26.500  1.00  0.00     0.010 A 
ATOM     13  C   UNL A   1      40.153  26.435  27.795  1.00  0.00    -0.014 A 
BRANCH  13  14
ATOM     14  C   UNL A   1      40.621  27.706  28.381  1.00  0.00     0.031 A 
ATOM     15  C   UNL A   1      42.043  27.873  28.814  1.00  0.00     0.074 A 
ATOM     16  C   UNL A   1      39.722  28.693  28.546  1.00  0.00     0.049 A 
ATOM     17  N   UNL A   1      42.601  28.881  29.435  1.00  0.00    -0.248 NA
ATOM     18  C   UNL A   1      42.959  26.758  28.529  1.00  0.00     0.031 C 
ATOM     19  C   UNL A   1      38.310  28.613  28.163  1.00  0.00     0.029 A 
ATOM     20  N   UNL A   1      39.853  29.944  29.084  1.00  0.00    -0.354 N 
ATOM     21  C   UNL A   1      43.922  28.513  29.641  1.00  0.00     0.074 A 
ATOM     22  C   UNL A   1      44.082  27.182  29.093  1.00  0.00     0.031 C 
ATOM     23  C   UNL A   1      37.707  29.768  28.469  1.00  0.00     0.029 A 
ATOM     24  C   UNL A   1      38.671  30.638  29.131  1.00  0.00     0.049 A 
ATOM     25  H   UNL A   1      40.708  30.309  29.407  1.00  0.00     0.167 HD
ATOM     26  C   UNL A   1      44.907  29.231  30.234  1.00  0.00     0.037 A 
ATOM     27  C   UNL A   1      38.384  31.829  29.685  1.00  0.00     0.037 A 
ATOM     28  C   UNL A   1      44.725  30.561  30.756  1.00  0.00     0.049 A 
ATOM     29  C   UNL A   1      39.486  32.596  30.350  1.00  0.00     0.074 A 
ATOM     30  C   UNL A   1      45.663  31.402  31.324  1.00  0.00     0.029 A 
ATOM     31  N   UNL A   1      43.512  31.239  30.781  1.00  0.00    -0.354 N 
ATOM     32  N   UNL A   1      40.743  32.259  30.507  1.00  0.00    -0.248 NA
ATOM     33  C   UNL A   1      39.134  33.903  30.916  1.00  0.00     0.031 C 
ATOM     34  C   UNL A   1      45.011  32.568  31.739  1.00  0.00     0.029 A 
ATOM     35  C   UNL A   1      43.674  32.477  31.383  1.00  0.00     0.049 A 
ATOM     36  H   UNL A   1      42.663  30.892  30.424  1.00  0.00     0.167 HD
ATOM     37  C   UNL A   1      41.340  33.315  31.178  1.00  0.00     0.074 A 
ATOM     38  C   UNL A   1      40.306  34.311  31.386  1.00  0.00     0.031 C 
ATOM     39  C   UNL A   1      42.626  33.448  31.582  1.00  0.00     0.037 A 
BRANCH  26  40
ATOM     40  C   UNL A   1      46.252  28.580  30.379  1.00  0.00     0.064 A 
ATOM     41  C   UNL A   1      47.250  28.710  29.403  1.00  0.00     0.173 A 
ATOM     42  C   UNL A   1      46.553  27.828  31.526  1.00  0.00     0.173 A 
ATOM     43  F   UNL A   1      47.011  29.407  28.282  1.00  0.00    -0.203 F 
ATOM     44  C   UNL A   1      48.486  28.087  29.554  1.00  0.00     0.198 A 
ATOM     45  C   UNL A   1      47.800  27.230  31.687  1.00  0.00     0.198 A 
ATOM     46  F   UNL A   1      45.637  27.676  32.495  1.00  0.00    -0.203 F 
ATOM     47  F   UNL A   1      49.407  28.183  28.584  1.00  0.00    -0.200 F 
ATOM     48  C   UNL A   1      48.763  27.351  30.697  1.00  0.00     0.200 A 
ATOM     49  F   UNL A   1      48.068  26.531  32.799  1.00  0.00    -0.200 F 
ATOM     50  F   UNL A   1      49.953  26.754  30.842  1.00  0.00    -0.200 F 
ENDBRANCH  26  40
BRANCH  27  51
ATOM     51  C   UNL A   1      36.989  32.327  29.634  1.00  0.00     0.064 A 
ATOM     52  C   UNL A   1      36.120  32.154  30.717  1.00  0.00     0.173 A 
ATOM     53  C   UNL A   1      36.526  33.064  28.532  1.00  0.00     0.173 A 
ATOM     54  F   UNL A   1      36.516  31.450  31.787  1.00  0.00    -0.203 F 
ATOM     55  C   UNL A   1      34.838  32.698  30.701  1.00  0.00     0.198 A 
ATOM     56  C   UNL A   1      35.255  33.631  28.528  1.00  0.00     0.198 A 
ATOM     57  F   UNL A   1      37.329  33.270  27.477  1.00  0.00    -0.203 F 
ATOM     58  F   UNL A   1      34.018  32.505  31.743  1.00  0.00    -0.200 F 
ATOM     59  C   UNL A   1      34.410  33.446  29.612  1.00  0.00     0.200 A 
ATOM     60  F   UNL A   1      34.856  34.371  27.485  1.00  0.00    -0.200 F 
ATOM     61  F   UNL A   1      33.187  33.990  29.609  1.00  0.00    -0.200 F 
ENDBRANCH  27  51
BRANCH  39  62
ATOM     62  C   UNL A   1      42.992  34.726  32.274  1.00  0.00     0.064 A 
ATOM     63  C   UNL A   1      43.457  35.838  31.559  1.00  0.00     0.173 A 
ATOM     64  C   UNL A   1      42.820  34.854  33.661  1.00  0.00     0.173 A 
ATOM     65  F   UNL A   1      43.653  35.755  30.235  1.00  0.00    -0.203 F 
ATOM     66  C   UNL A   1      43.750  37.032  32.211  1.00  0.00     0.198 A 
ATOM     67  C   UNL A   1      43.090  36.057  34.305  1.00  0.00     0.198 A 
ATOM     68  F   UNL A   1      42.375  33.818  34.386  1.00  0.00    -0.203 F 
ATOM     69  F   UNL A   1      44.227  38.073  31.515  1.00  0.00    -0.200 F 
ATOM     70  C   UNL A   1      43.558  37.144  33.581  1.00  0.00     0.200 A 
ATOM     71  F   UNL A   1      42.894  36.167  35.626  1.00  0.00    -0.200 F 
ATOM     72  F   UNL A   1      43.829  38.298  34.204  1.00  0.00    -0.200 F 
ENDBRANCH  39  62
ENDBRANCH  13  14
ENDBRANCH   6   8
ENDBRANCH   3   4
ENDBRANCH   2   3
ENDBRANCH   1   2
BRANCH   1  73
ATOM     73  C   UNL A   1      34.119  25.837  26.032  1.00  0.00     0.116 C 
BRANCH  73  74
ATOM     74  N   UNL A   1      34.540  26.581  24.872  1.00  0.00    -0.352 N 
ATOM     75  C   UNL A   1      33.878  27.665  24.384  1.00  0.00     0.251 C 
ATOM     76  H   UNL A   1      35.355  26.287  24.404  1.00  0.00     0.163 HD
ATOM     77  O   UNL A   1      33.709  27.755  23.172  1.00  0.00    -0.269 OA
BRANCH  75  78
ATOM     78  C   UNL A   1      33.369  28.699  25.326  1.00  0.00     0.047 A 
ATOM     79  C   UNL A   1      34.354  29.309  26.123  1.00  0.00     0.014 A 
ATOM     80  C   UNL A   1      32.001  29.034  25.494  1.00  0.00    -0.005 A 
ATOM     81  C   UNL A   1      34.013  30.275  27.068  1.00  0.00     0.001 A 
ATOM     82  C   UNL A   1      31.695  30.022  26.461  1.00  0.00     0.009 A 
ATOM     83  C   UNL A   1      32.684  30.636  27.233  1.00  0.00     0.001 A 
BRANCH  80  84
ATOM     84  C   UNL A   1      30.862  28.477  24.717  1.00  0.00    -0.005 A 
ATOM     85  C   UNL A   1      30.329  29.317  23.701  1.00  0.00     0.009 A 
ATOM     86  C   UNL A   1      30.294  27.189  24.855  1.00  0.00     0.047 A 
ATOM     87  C   UNL A   1      29.322  28.901  22.829  1.00  0.00     0.001 A 
ATOM     88  C   UNL A   1      29.264  26.789  23.967  1.00  0.00     0.014 A 
ATOM     89  C   UNL A   1      28.789  27.630  22.960  1.00  0.00     0.001 A 
BRANCH  86  90
ATOM     90  C   UNL A   1      30.822  26.092  25.726  1.00  0.00     0.254 C 
ATOM     91  O   UNL A   1      30.818  26.296  26.943  1.00  0.00    -0.269 OA
ATOM     92  N   UNL A   1      31.206  24.864  25.200  1.00  0.00    -0.327 N 
ATOM     93  C   UNL A   1      31.169  23.723  26.102  1.00  0.00     0.181 C 
ATOM     94  C   UNL A   1      32.126  24.706  24.078  1.00  0.00     0.181 C 
ATOM     95  C   UNL A   1      30.934  22.389  25.364  1.00  0.00     0.284 C 
ATOM     96  C   UNL A   1      32.004  23.333  23.367  1.00  0.00     0.284 C 
ATOM     97  N   UNL A   1      31.768  22.130  24.181  1.00  0.00    -0.328 N 
ATOM     98  H   UNL A   1      31.200  21.543  23.569  1.00  0.00     0.348 HD
BRANCH  97  99
ATOM     99  C   UNL A   1      32.906  21.233  24.396  1.00  0.00     0.299 C 
BRANCH  99 100
ATOM    100  C   UNL A   1      32.558  19.773  24.235  1.00  0.00     0.010 A 
ATOM    101  C   UNL A   1      32.464  19.220  22.937  1.00  0.00     0.013 A 
ATOM    102  C   UNL A   1      32.593  18.936  25.361  1.00  0.00     0.060 A 
ATOM    103  C   UNL A   1      32.607  17.846  22.743  1.00  0.00     0.051 A 
ATOM    104  C   UNL A   1      32.805  17.599  25.131  1.00  0.00     0.166 A 
ATOM    105  C   UNL A   1      32.851  17.076  23.859  1.00  0.00     0.165 A 
ATOM    106  O   UNL A   1      33.189  16.696  26.075  1.00  0.00    -0.454 OA
ATOM    107  O   UNL A   1      33.277  15.783  23.857  1.00  0.00    -0.454 OA
ATOM    108  C   UNL A   1      33.746  15.678  25.219  1.00  0.00     0.468 C 
ENDBRANCH  99 100
ENDBRANCH  97  99
ENDBRANCH  86  90
ENDBRANCH  80  84
ENDBRANCH  75  78
ENDBRANCH  73  74
ENDBRANCH   1  73
TORSDOF 15
ENDMDL
