MODEL 1
REMARK VINA RESULT:     -15.0      0.000      0.000
REMARK SMILES CN(C(=O)C[C@@H]1SC(=O)N(c2ccccc2)C1=O)c1ccccc1C(=O)NCCCCNC(=O)c1ccc(-c2c3nc(c(-c4c(F)c(F)c(F)c(F)c4F)c4ccc([nH]4)c(-c4c(F)c(F)c(F)c(F)c4F)c4nc(c(-c5c(F)c(F)c(F)c(F)c5F)c5ccc2[nH]5)C=C4)C=C3)cc1
REMARK SMILES IDX 28 1 27 2 25 3 26 4 24 6 19 7 20 8 21 9 23 10 22 11 2 12
REMARK SMILES IDX 1 13 3 14 4 15 5 16 6 17 7 18 17 19 8 20 10 21 18 22 9 23
REMARK SMILES IDX 11 24 12 25 16 26 13 27 15 28 14 29 29 30 30 31 31 32 32 33
REMARK SMILES IDX 33 34 34 36 35 37 36 38 97 39 37 40 96 41 38 42 39 43 40 44
REMARK SMILES IDX 90 45 41 46 95 47 89 48 91 49 42 50 94 51 88 52 87 53 43 55
REMARK SMILES IDX 75 56 55 57 74 58 56 59 59 60 73 61 92 62 57 63 58 64 72 66
REMARK SMILES IDX 93 67 60 68 44 69 45 70 53 71 46 72 47 73 51 74 54 75 48 76
REMARK SMILES IDX 49 77 52 78 50 79 76 80 77 81 85 82 78 83 79 84 83 85 86 86
REMARK SMILES IDX 80 87 81 88 84 89 82 90 61 91 62 92 70 93 63 94 64 95 68 96
REMARK SMILES IDX 71 97 65 98 66 99 69 100 67 101
REMARK H PARENT 27 5 32 35 91 54 59 65
REMARK Flexibility Score: inf
ROOT
ATOM      1  C   UNL A   1      35.131  23.558  25.598  1.00  0.00     0.116 C 
ENDROOT
BRANCH   1   2
ATOM      2  N   UNL A   1      33.986  23.528  26.421  1.00  0.00    -0.352 N 
ATOM      3  C   UNL A   1      32.917  22.702  26.297  1.00  0.00     0.253 C 
ATOM      4  O   UNL A   1      32.121  22.781  27.240  1.00  0.00    -0.269 OA
ATOM      5  H   UNL A   1      33.960  24.176  27.162  1.00  0.00     0.163 HD
BRANCH   3   6
ATOM      6  C   UNL A   1      32.641  21.765  25.132  1.00  0.00     0.063 A 
ATOM      7  C   UNL A   1      32.228  21.939  23.766  1.00  0.00     0.056 A 
ATOM      8  C   UNL A   1      32.195  20.777  22.950  1.00  0.00     0.027 A 
ATOM      9  C   UNL A   1      32.502  19.495  23.427  1.00  0.00     0.002 A 
ATOM     10  C   UNL A   1      32.887  20.430  25.581  1.00  0.00     0.016 A 
ATOM     11  C   UNL A   1      32.828  19.316  24.754  1.00  0.00     0.001 A 
BRANCH   7  12
ATOM     12  N   UNL A   1      31.981  23.179  23.005  1.00  0.00    -0.315 N 
ATOM     13  C   UNL A   1      30.623  23.709  23.214  1.00  0.00     0.153 C 
BRANCH  12  14
ATOM     14  C   UNL A   1      33.071  23.908  22.449  1.00  0.00     0.228 C 
ATOM     15  O   UNL A   1      34.217  23.435  22.489  1.00  0.00    -0.274 OA
BRANCH  14  16
ATOM     16  C   UNL A   1      32.928  25.322  21.725  1.00  0.00     0.125 C 
BRANCH  16  17
ATOM     17  C   UNL A   1      32.736  26.553  22.729  1.00  0.00     0.156 C 
ATOM     18  S   UNL A   1      32.652  26.386  24.528  1.00  0.00    -0.050 SA
ATOM     19  C   UNL A   1      31.386  27.183  22.493  1.00  0.00     0.248 C 
ATOM     20  C   UNL A   1      31.563  27.809  24.662  1.00  0.00     0.293 C 
ATOM     21  N   UNL A   1      30.882  28.024  23.497  1.00  0.00    -0.240 N 
ATOM     22  O   UNL A   1      30.988  26.930  21.368  1.00  0.00    -0.273 OA
ATOM     23  O   UNL A   1      31.459  28.419  25.729  1.00  0.00    -0.261 OA
BRANCH  21  24
ATOM     24  C   UNL A   1      29.760  29.047  23.426  1.00  0.00     0.053 A 
ATOM     25  C   UNL A   1      29.856  30.426  23.675  1.00  0.00     0.027 A 
ATOM     26  C   UNL A   1      28.450  28.746  23.063  1.00  0.00     0.027 A 
ATOM     27  C   UNL A   1      28.852  31.424  23.746  1.00  0.00     0.002 A 
ATOM     28  C   UNL A   1      27.389  29.727  23.098  1.00  0.00     0.002 A 
ATOM     29  C   UNL A   1      27.579  31.058  23.463  1.00  0.00     0.000 A 
ENDBRANCH  21  24
ENDBRANCH  16  17
ENDBRANCH  14  16
ENDBRANCH  12  14
ENDBRANCH   7  12
ENDBRANCH   3   6
ENDBRANCH   1   2
BRANCH   1  30
ATOM     30  C   UNL A   1      36.205  22.587  26.007  1.00  0.00     0.023 C 
BRANCH  30  31
ATOM     31  C   UNL A   1      36.391  21.387  24.987  1.00  0.00     0.023 C 
BRANCH  31  32
ATOM     32  C   UNL A   1      37.542  20.075  24.877  1.00  0.00     0.116 C 
BRANCH  32  33
ATOM     33  N   UNL A   1      39.120  19.906  25.463  1.00  0.00    -0.352 N 
ATOM     34  C   UNL A   1      40.259  20.419  26.172  1.00  0.00     0.251 C 
ATOM     35  H   UNL A   1      39.394  19.006  25.176  1.00  0.00     0.163 HD
ATOM     36  O   UNL A   1      41.314  19.796  25.996  1.00  0.00    -0.269 OA
BRANCH  34  37
ATOM     37  C   UNL A   1      40.394  21.688  27.028  1.00  0.00     0.039 A 
ATOM     38  C   UNL A   1      41.455  21.935  27.937  1.00  0.00     0.014 A 
ATOM     39  C   UNL A   1      39.534  22.745  26.823  1.00  0.00     0.014 A 
ATOM     40  C   UNL A   1      41.789  23.268  28.392  1.00  0.00     0.010 A 
ATOM     41  C   UNL A   1      39.947  24.059  27.175  1.00  0.00     0.010 A 
ATOM     42  C   UNL A   1      41.104  24.404  27.924  1.00  0.00    -0.014 A 
BRANCH  42  43
ATOM     43  C   UNL A   1      41.534  25.904  28.114  1.00  0.00     0.031 A 
ATOM     44  C   UNL A   1      42.879  26.417  27.546  1.00  0.00     0.074 A 
ATOM     45  C   UNL A   1      40.905  26.830  28.900  1.00  0.00     0.049 A 
ATOM     46  N   UNL A   1      43.573  27.505  27.826  1.00  0.00    -0.248 NA
ATOM     47  C   UNL A   1      43.597  25.524  26.630  1.00  0.00     0.031 C 
ATOM     48  C   UNL A   1      39.688  26.642  29.688  1.00  0.00     0.029 A 
ATOM     49  N   UNL A   1      41.248  28.153  29.195  1.00  0.00    -0.354 N 
ATOM     50  C   UNL A   1      44.825  27.319  27.239  1.00  0.00     0.074 A 
ATOM     51  C   UNL A   1      44.841  25.953  26.774  1.00  0.00     0.031 C 
ATOM     52  C   UNL A   1      39.369  27.786  30.324  1.00  0.00     0.029 A 
ATOM     53  C   UNL A   1      40.354  28.819  30.011  1.00  0.00     0.049 A 
ATOM     54  H   UNL A   1      42.064  28.578  28.846  1.00  0.00     0.167 HD
ATOM     55  C   UNL A   1      45.839  28.190  26.976  1.00  0.00     0.037 A 
ATOM     56  C   UNL A   1      40.295  30.104  30.446  1.00  0.00     0.037 A 
ATOM     57  C   UNL A   1      45.798  29.605  27.238  1.00  0.00     0.049 A 
ATOM     58  C   UNL A   1      41.356  31.120  30.068  1.00  0.00     0.074 A 
ATOM     59  C   UNL A   1      46.691  30.587  26.839  1.00  0.00     0.029 A 
ATOM     60  N   UNL A   1      44.794  30.246  27.940  1.00  0.00    -0.354 N 
ATOM     61  N   UNL A   1      42.460  30.954  29.385  1.00  0.00    -0.248 NA
ATOM     62  C   UNL A   1      41.143  32.514  30.508  1.00  0.00     0.031 C 
ATOM     63  C   UNL A   1      46.251  31.817  27.339  1.00  0.00     0.029 A 
ATOM     64  C   UNL A   1      45.054  31.608  28.000  1.00  0.00     0.049 A 
ATOM     65  H   UNL A   1      44.011  29.803  28.340  1.00  0.00     0.167 HD
ATOM     66  C   UNL A   1      43.037  32.217  29.267  1.00  0.00     0.074 A 
ATOM     67  C   UNL A   1      42.164  33.146  29.944  1.00  0.00     0.031 C 
ATOM     68  C   UNL A   1      44.190  32.564  28.643  1.00  0.00     0.037 A 
BRANCH  55  69
ATOM     69  C   UNL A   1      47.069  27.644  26.278  1.00  0.00     0.064 A 
ATOM     70  C   UNL A   1      48.189  27.185  26.995  1.00  0.00     0.173 A 
ATOM     71  C   UNL A   1      47.135  27.576  24.877  1.00  0.00     0.173 A 
ATOM     72  F   UNL A   1      48.184  27.194  28.338  1.00  0.00    -0.203 F 
ATOM     73  C   UNL A   1      49.357  26.795  26.346  1.00  0.00     0.198 A 
ATOM     74  C   UNL A   1      48.282  27.120  24.229  1.00  0.00     0.198 A 
ATOM     75  F   UNL A   1      46.087  27.952  24.129  1.00  0.00    -0.203 F 
ATOM     76  F   UNL A   1      50.448  26.494  27.062  1.00  0.00    -0.200 F 
ATOM     77  C   UNL A   1      49.402  26.758  24.963  1.00  0.00     0.200 A 
ATOM     78  F   UNL A   1      48.311  27.045  22.891  1.00  0.00    -0.200 F 
ATOM     79  F   UNL A   1      50.527  26.386  24.338  1.00  0.00    -0.200 F 
ENDBRANCH  55  69
BRANCH  56  80
ATOM     80  C   UNL A   1      39.090  30.587  31.195  1.00  0.00     0.064 A 
ATOM     81  C   UNL A   1      37.997  31.119  30.488  1.00  0.00     0.173 A 
ATOM     82  C   UNL A   1      39.004  30.569  32.593  1.00  0.00     0.173 A 
ATOM     83  F   UNL A   1      38.049  31.211  29.151  1.00  0.00    -0.203 F 
ATOM     84  C   UNL A   1      36.873  31.616  31.148  1.00  0.00     0.198 A 
ATOM     85  C   UNL A   1      37.865  31.042  33.252  1.00  0.00     0.198 A 
ATOM     86  F   UNL A   1      40.024  30.094  33.324  1.00  0.00    -0.203 F 
ATOM     87  F   UNL A   1      35.871  32.160  30.444  1.00  0.00    -0.200 F 
ATOM     88  C   UNL A   1      36.803  31.566  32.530  1.00  0.00     0.200 A 
ATOM     89  F   UNL A   1      37.798  30.995  34.591  1.00  0.00    -0.200 F 
ATOM     90  F   UNL A   1      35.719  32.034  33.165  1.00  0.00    -0.200 F 
ENDBRANCH  56  80
BRANCH  68  91
ATOM     91  C   UNL A   1      44.573  34.019  28.590  1.00  0.00     0.064 A 
ATOM     92  C   UNL A   1      44.050  34.894  27.626  1.00  0.00     0.173 A 
ATOM     93  C   UNL A   1      45.443  34.559  29.552  1.00  0.00     0.173 A 
ATOM     94  F   UNL A   1      43.217  34.436  26.679  1.00  0.00    -0.203 F 
ATOM     95  C   UNL A   1      44.408  36.241  27.606  1.00  0.00     0.198 A 
ATOM     96  C   UNL A   1      45.771  35.914  29.551  1.00  0.00     0.198 A 
ATOM     97  F   UNL A   1      45.965  33.776  30.507  1.00  0.00    -0.203 F 
ATOM     98  F   UNL A   1      43.933  37.046  26.643  1.00  0.00    -0.200 F 
ATOM     99  C   UNL A   1      45.262  36.752  28.572  1.00  0.00     0.200 A 
ATOM    100  F   UNL A   1      46.582  36.407  30.497  1.00  0.00    -0.200 F 
ATOM    101  F   UNL A   1      45.599  38.049  28.556  1.00  0.00    -0.200 F 
ENDBRANCH  68  91
ENDBRANCH  42  43
ENDBRANCH  34  37
ENDBRANCH  32  33
ENDBRANCH  31  32
ENDBRANCH  30  31
ENDBRANCH   1  30
TORSDOF 16
ENDMDL
MODEL 2
REMARK VINA RESULT:     -14.9      1.338      2.102
REMARK SMILES CN(C(=O)C[C@@H]1SC(=O)N(c2ccccc2)C1=O)c1ccccc1C(=O)NCCCCNC(=O)c1ccc(-c2c3nc(c(-c4c(F)c(F)c(F)c(F)c4F)c4ccc([nH]4)c(-c4c(F)c(F)c(F)c(F)c4F)c4nc(c(-c5c(F)c(F)c(F)c(F)c5F)c5ccc2[nH]5)C=C4)C=C3)cc1
REMARK SMILES IDX 28 1 27 2 25 3 26 4 24 6 19 7 20 8 21 9 23 10 22 11 2 12
REMARK SMILES IDX 1 13 3 14 4 15 5 16 6 17 7 18 17 19 8 20 10 21 18 22 9 23
REMARK SMILES IDX 11 24 12 25 16 26 13 27 15 28 14 29 29 30 30 31 31 32 32 33
REMARK SMILES IDX 33 34 34 36 35 37 36 38 97 39 37 40 96 41 38 42 39 43 40 44
REMARK SMILES IDX 90 45 41 46 95 47 89 48 91 49 42 50 94 51 88 52 87 53 43 55
REMARK SMILES IDX 75 56 55 57 74 58 56 59 59 60 73 61 92 62 57 63 58 64 72 66
REMARK SMILES IDX 93 67 60 68 44 69 45 70 53 71 46 72 47 73 51 74 54 75 48 76
REMARK SMILES IDX 49 77 52 78 50 79 76 80 77 81 85 82 78 83 79 84 83 85 86 86
REMARK SMILES IDX 80 87 81 88 84 89 82 90 61 91 62 92 70 93 63 94 64 95 68 96
REMARK SMILES IDX 71 97 65 98 66 99 69 100 67 101
REMARK H PARENT 27 5 32 35 91 54 59 65
REMARK Flexibility Score: inf
ROOT
ATOM      1  C   UNL A   1      35.118  24.026  25.146  1.00  0.00     0.116 C 
ENDROOT
BRANCH   1   2
ATOM      2  N   UNL A   1      34.564  23.555  26.356  1.00  0.00    -0.352 N 
ATOM      3  C   UNL A   1      33.789  22.454  26.519  1.00  0.00     0.253 C 
ATOM      4  O   UNL A   1      33.564  22.181  27.705  1.00  0.00    -0.269 OA
ATOM      5  H   UNL A   1      34.760  24.081  27.164  1.00  0.00     0.163 HD
BRANCH   3   6
ATOM      6  C   UNL A   1      33.195  21.603  25.407  1.00  0.00     0.063 A 
ATOM      7  C   UNL A   1      32.496  21.879  24.183  1.00  0.00     0.056 A 
ATOM      8  C   UNL A   1      32.204  20.771  23.344  1.00  0.00     0.027 A 
ATOM      9  C   UNL A   1      32.526  19.449  23.679  1.00  0.00     0.002 A 
ATOM     10  C   UNL A   1      33.450  20.232  25.727  1.00  0.00     0.016 A 
ATOM     11  C   UNL A   1      33.132  19.174  24.886  1.00  0.00     0.001 A 
BRANCH   7  12
ATOM     12  N   UNL A   1      32.165  23.174  23.555  1.00  0.00    -0.315 N 
ATOM     13  C   UNL A   1      32.929  23.414  22.320  1.00  0.00     0.153 C 
BRANCH  12  14
ATOM     14  C   UNL A   1      30.992  23.880  23.947  1.00  0.00     0.228 C 
ATOM     15  O   UNL A   1      30.082  24.073  23.127  1.00  0.00    -0.274 OA
BRANCH  14  16
ATOM     16  C   UNL A   1      30.729  24.436  25.419  1.00  0.00     0.125 C 
BRANCH  16  17
ATOM     17  C   UNL A   1      30.582  26.028  25.498  1.00  0.00     0.156 C 
ATOM     18  S   UNL A   1      30.357  27.095  24.056  1.00  0.00    -0.050 SA
ATOM     19  C   UNL A   1      31.864  26.621  26.025  1.00  0.00     0.248 C 
ATOM     20  C   UNL A   1      31.219  28.451  24.858  1.00  0.00     0.293 C 
ATOM     21  N   UNL A   1      32.069  27.995  25.825  1.00  0.00    -0.240 N 
ATOM     22  O   UNL A   1      32.488  25.790  26.663  1.00  0.00    -0.273 OA
ATOM     23  O   UNL A   1      31.052  29.613  24.478  1.00  0.00    -0.261 OA
BRANCH  21  24
ATOM     24  C   UNL A   1      33.052  28.933  26.509  1.00  0.00     0.053 A 
ATOM     25  C   UNL A   1      32.766  30.184  27.080  1.00  0.00     0.027 A 
ATOM     26  C   UNL A   1      34.403  28.654  26.689  1.00  0.00     0.027 A 
ATOM     27  C   UNL A   1      33.629  31.168  27.627  1.00  0.00     0.002 A 
ATOM     28  C   UNL A   1      35.325  29.610  27.259  1.00  0.00     0.002 A 
ATOM     29  C   UNL A   1      34.949  30.875  27.704  1.00  0.00     0.000 A 
ENDBRANCH  21  24
ENDBRANCH  16  17
ENDBRANCH  14  16
ENDBRANCH  12  14
ENDBRANCH   7  12
ENDBRANCH   3   6
ENDBRANCH   1   2
BRANCH   1  30
ATOM     30  C   UNL A   1      36.521  23.551  24.890  1.00  0.00     0.023 C 
BRANCH  30  31
ATOM     31  C   UNL A   1      36.587  22.118  24.214  1.00  0.00     0.023 C 
BRANCH  31  32
ATOM     32  C   UNL A   1      37.419  20.635  24.627  1.00  0.00     0.116 C 
BRANCH  32  33
ATOM     33  N   UNL A   1      38.910  20.348  25.371  1.00  0.00    -0.352 N 
ATOM     34  C   UNL A   1      40.007  20.775  26.194  1.00  0.00     0.251 C 
ATOM     35  H   UNL A   1      39.141  19.428  25.111  1.00  0.00     0.163 HD
ATOM     36  O   UNL A   1      41.023  20.071  26.125  1.00  0.00    -0.269 OA
BRANCH  34  37
ATOM     37  C   UNL A   1      40.151  22.034  27.063  1.00  0.00     0.039 A 
ATOM     38  C   UNL A   1      41.237  22.283  27.943  1.00  0.00     0.014 A 
ATOM     39  C   UNL A   1      39.272  23.082  26.899  1.00  0.00     0.014 A 
ATOM     40  C   UNL A   1      41.567  23.614  28.406  1.00  0.00     0.010 A 
ATOM     41  C   UNL A   1      39.679  24.397  27.256  1.00  0.00     0.010 A 
ATOM     42  C   UNL A   1      40.853  24.746  27.974  1.00  0.00    -0.014 A 
BRANCH  42  43
ATOM     43  C   UNL A   1      41.270  26.250  28.172  1.00  0.00     0.031 A 
ATOM     44  C   UNL A   1      42.616  26.774  27.618  1.00  0.00     0.074 A 
ATOM     45  C   UNL A   1      40.626  27.169  28.954  1.00  0.00     0.049 A 
ATOM     46  N   UNL A   1      43.299  27.868  27.908  1.00  0.00    -0.248 NA
ATOM     47  C   UNL A   1      43.351  25.890  26.707  1.00  0.00     0.031 C 
ATOM     48  C   UNL A   1      39.403  26.969  29.729  1.00  0.00     0.029 A 
ATOM     49  N   UNL A   1      40.955  28.494  29.255  1.00  0.00    -0.354 N 
ATOM     50  C   UNL A   1      44.558  27.693  27.333  1.00  0.00     0.074 A 
ATOM     51  C   UNL A   1      44.589  26.327  26.865  1.00  0.00     0.031 C 
ATOM     52  C   UNL A   1      39.068  28.110  30.365  1.00  0.00     0.029 A 
ATOM     53  C   UNL A   1      40.048  29.151  30.064  1.00  0.00     0.049 A 
ATOM     54  H   UNL A   1      41.772  28.927  28.915  1.00  0.00     0.167 HD
ATOM     55  C   UNL A   1      45.568  28.572  27.082  1.00  0.00     0.037 A 
ATOM     56  C   UNL A   1      39.975  30.435  30.501  1.00  0.00     0.037 A 
ATOM     57  C   UNL A   1      45.513  29.986  27.346  1.00  0.00     0.049 A 
ATOM     58  C   UNL A   1      41.032  31.460  30.136  1.00  0.00     0.074 A 
ATOM     59  C   UNL A   1      46.402  30.975  26.958  1.00  0.00     0.029 A 
ATOM     60  N   UNL A   1      44.497  30.618  28.040  1.00  0.00    -0.354 N 
ATOM     61  N   UNL A   1      42.143  31.304  29.463  1.00  0.00    -0.248 NA
ATOM     62  C   UNL A   1      40.804  32.851  30.577  1.00  0.00     0.031 C 
ATOM     63  C   UNL A   1      45.948  32.201  27.457  1.00  0.00     0.029 A 
ATOM     64  C   UNL A   1      44.746  31.981  28.105  1.00  0.00     0.049 A 
ATOM     65  H   UNL A   1      43.714  30.167  28.430  1.00  0.00     0.167 HD
ATOM     66  C   UNL A   1      42.712  32.572  29.353  1.00  0.00     0.074 A 
ATOM     67  C   UNL A   1      41.824  33.492  30.024  1.00  0.00     0.031 C 
ATOM     68  C   UNL A   1      43.868  32.929  28.741  1.00  0.00     0.037 A 
BRANCH  55  69
ATOM     69  C   UNL A   1      46.809  28.038  26.395  1.00  0.00     0.064 A 
ATOM     70  C   UNL A   1      47.955  27.660  27.118  1.00  0.00     0.173 A 
ATOM     71  C   UNL A   1      46.859  27.898  24.998  1.00  0.00     0.173 A 
ATOM     72  F   UNL A   1      47.968  27.741  28.458  1.00  0.00    -0.203 F 
ATOM     73  C   UNL A   1      49.128  27.281  26.472  1.00  0.00     0.198 A 
ATOM     74  C   UNL A   1      48.014  27.452  24.358  1.00  0.00     0.198 A 
ATOM     75  F   UNL A   1      45.787  28.192  24.247  1.00  0.00    -0.203 F 
ATOM     76  F   UNL A   1      50.241  27.060  27.186  1.00  0.00    -0.200 F 
ATOM     77  C   UNL A   1      49.157  27.173  25.093  1.00  0.00     0.200 A 
ATOM     78  F   UNL A   1      48.028  27.307  23.025  1.00  0.00    -0.200 F 
ATOM     79  F   UNL A   1      50.287  26.812  24.471  1.00  0.00    -0.200 F 
ENDBRANCH  55  69
BRANCH  56  80
ATOM     80  C   UNL A   1      38.759  30.906  31.239  1.00  0.00     0.064 A 
ATOM     81  C   UNL A   1      37.679  31.455  30.524  1.00  0.00     0.173 A 
ATOM     82  C   UNL A   1      38.650  30.861  32.635  1.00  0.00     0.173 A 
ATOM     83  F   UNL A   1      37.753  31.574  29.191  1.00  0.00    -0.203 F 
ATOM     84  C   UNL A   1      36.545  31.942  31.176  1.00  0.00     0.198 A 
ATOM     85  C   UNL A   1      37.501  31.324  33.284  1.00  0.00     0.198 A 
ATOM     86  F   UNL A   1      39.656  30.369  33.373  1.00  0.00    -0.203 F 
ATOM     87  F   UNL A   1      35.557  32.504  30.466  1.00  0.00    -0.200 F 
ATOM     88  C   UNL A   1      36.452  31.866  32.555  1.00  0.00     0.200 A 
ATOM     89  F   UNL A   1      37.412  31.252  34.620  1.00  0.00    -0.200 F 
ATOM     90  F   UNL A   1      35.359  32.325  33.181  1.00  0.00    -0.200 F 
ENDBRANCH  56  80
BRANCH  68  91
ATOM     91  C   UNL A   1      44.240  34.388  28.695  1.00  0.00     0.064 A 
ATOM     92  C   UNL A   1      43.791  35.240  27.676  1.00  0.00     0.173 A 
ATOM     93  C   UNL A   1      45.021  34.953  29.717  1.00  0.00     0.173 A 
ATOM     94  F   UNL A   1      43.044  34.757  26.672  1.00  0.00    -0.203 F 
ATOM     95  C   UNL A   1      44.136  36.591  27.663  1.00  0.00     0.198 A 
ATOM     96  C   UNL A   1      45.336  36.310  29.720  1.00  0.00     0.198 A 
ATOM     97  F   UNL A   1      45.469  34.191  30.726  1.00  0.00    -0.203 F 
ATOM     98  F   UNL A   1      43.736  37.374  26.651  1.00  0.00    -0.200 F 
ATOM     99  C   UNL A   1      44.902  37.127  28.688  1.00  0.00     0.200 A 
ATOM    100  F   UNL A   1      46.060  36.828  30.722  1.00  0.00    -0.200 F 
ATOM    101  F   UNL A   1      45.226  38.427  28.678  1.00  0.00    -0.200 F 
ENDBRANCH  68  91
ENDBRANCH  42  43
ENDBRANCH  34  37
ENDBRANCH  32  33
ENDBRANCH  31  32
ENDBRANCH  30  31
ENDBRANCH   1  30
TORSDOF 16
ENDMDL
MODEL 3
REMARK VINA RESULT:     -14.8      1.776      4.923
REMARK SMILES CN(C(=O)C[C@@H]1SC(=O)N(c2ccccc2)C1=O)c1ccccc1C(=O)NCCCCNC(=O)c1ccc(-c2c3nc(c(-c4c(F)c(F)c(F)c(F)c4F)c4ccc([nH]4)c(-c4c(F)c(F)c(F)c(F)c4F)c4nc(c(-c5c(F)c(F)c(F)c(F)c5F)c5ccc2[nH]5)C=C4)C=C3)cc1
REMARK SMILES IDX 28 1 27 2 25 3 26 4 24 6 19 7 20 8 21 9 23 10 22 11 2 12
REMARK SMILES IDX 1 13 3 14 4 15 5 16 6 17 7 18 17 19 8 20 10 21 18 22 9 23
REMARK SMILES IDX 11 24 12 25 16 26 13 27 15 28 14 29 29 30 30 31 31 32 32 33
REMARK SMILES IDX 33 34 34 36 35 37 36 38 97 39 37 40 96 41 38 42 39 43 40 44
REMARK SMILES IDX 90 45 41 46 95 47 89 48 91 49 42 50 94 51 88 52 87 53 43 55
REMARK SMILES IDX 75 56 55 57 74 58 56 59 59 60 73 61 92 62 57 63 58 64 72 66
REMARK SMILES IDX 93 67 60 68 44 69 45 70 53 71 46 72 47 73 51 74 54 75 48 76
REMARK SMILES IDX 49 77 52 78 50 79 76 80 77 81 85 82 78 83 79 84 83 85 86 86
REMARK SMILES IDX 80 87 81 88 84 89 82 90 61 91 62 92 70 93 63 94 64 95 68 96
REMARK SMILES IDX 71 97 65 98 66 99 69 100 67 101
REMARK H PARENT 27 5 32 35 91 54 59 65
REMARK Flexibility Score: inf
ROOT
ATOM      1  C   UNL A   1      34.817  24.612  23.598  1.00  0.00     0.116 C 
ENDROOT
BRANCH   1   2
ATOM      2  N   UNL A   1      33.825  25.214  22.796  1.00  0.00    -0.352 N 
ATOM      3  C   UNL A   1      32.994  26.226  23.153  1.00  0.00     0.253 C 
ATOM      4  O   UNL A   1      32.324  26.669  22.213  1.00  0.00    -0.269 OA
ATOM      5  H   UNL A   1      33.724  24.863  21.882  1.00  0.00     0.163 HD
BRANCH   3   6
ATOM      6  C   UNL A   1      32.827  26.794  24.554  1.00  0.00     0.063 A 
ATOM      7  C   UNL A   1      31.975  26.499  25.673  1.00  0.00     0.056 A 
ATOM      8  C   UNL A   1      32.223  27.211  26.876  1.00  0.00     0.027 A 
ATOM      9  C   UNL A   1      33.213  28.194  26.996  1.00  0.00     0.002 A 
ATOM     10  C   UNL A   1      33.784  27.845  24.713  1.00  0.00     0.016 A 
ATOM     11  C   UNL A   1      33.984  28.530  25.904  1.00  0.00     0.001 A 
BRANCH   7  12
ATOM     12  N   UNL A   1      30.963  25.437  25.835  1.00  0.00    -0.315 N 
ATOM     13  C   UNL A   1      29.840  25.578  24.893  1.00  0.00     0.153 C 
BRANCH  12  14
ATOM     14  C   UNL A   1      31.272  24.259  26.575  1.00  0.00     0.228 C 
ATOM     15  O   UNL A   1      30.393  23.703  27.251  1.00  0.00    -0.274 OA
BRANCH  14  16
ATOM     16  C   UNL A   1      32.702  23.552  26.577  1.00  0.00     0.125 C 
BRANCH  16  17
ATOM     17  C   UNL A   1      32.958  22.594  25.321  1.00  0.00     0.156 C 
ATOM     18  S   UNL A   1      31.779  22.364  23.969  1.00  0.00    -0.050 SA
ATOM     19  C   UNL A   1      33.047  21.165  25.794  1.00  0.00     0.248 C 
ATOM     20  C   UNL A   1      32.334  20.677  23.701  1.00  0.00     0.293 C 
ATOM     21  N   UNL A   1      32.901  20.156  24.830  1.00  0.00    -0.240 N 
ATOM     22  O   UNL A   1      33.354  21.125  26.973  1.00  0.00    -0.273 OA
ATOM     23  O   UNL A   1      32.134  20.115  22.621  1.00  0.00    -0.261 OA
BRANCH  21  24
ATOM     24  C   UNL A   1      33.269  18.683  24.911  1.00  0.00     0.053 A 
ATOM     25  C   UNL A   1      32.528  17.660  25.526  1.00  0.00     0.027 A 
ATOM     26  C   UNL A   1      34.413  18.130  24.343  1.00  0.00     0.027 A 
ATOM     27  C   UNL A   1      32.846  16.296  25.750  1.00  0.00     0.002 A 
ATOM     28  C   UNL A   1      34.778  16.744  24.521  1.00  0.00     0.002 A 
ATOM     29  C   UNL A   1      34.013  15.831  25.244  1.00  0.00     0.000 A 
ENDBRANCH  21  24
ENDBRANCH  16  17
ENDBRANCH  14  16
ENDBRANCH  12  14
ENDBRANCH   7  12
ENDBRANCH   3   6
ENDBRANCH   1   2
BRANCH   1  30
ATOM     30  C   UNL A   1      35.328  23.304  23.062  1.00  0.00     0.023 C 
BRANCH  30  31
ATOM     31  C   UNL A   1      36.650  22.803  23.779  1.00  0.00     0.023 C 
BRANCH  31  32
ATOM     32  C   UNL A   1      37.173  21.244  24.377  1.00  0.00     0.116 C 
BRANCH  32  33
ATOM     33  N   UNL A   1      38.558  20.768  25.224  1.00  0.00    -0.352 N 
ATOM     34  C   UNL A   1      39.636  21.049  26.129  1.00  0.00     0.251 C 
ATOM     35  H   UNL A   1      38.690  19.827  24.968  1.00  0.00     0.163 HD
ATOM     36  O   UNL A   1      40.558  20.223  26.125  1.00  0.00    -0.269 OA
BRANCH  34  37
ATOM     37  C   UNL A   1      39.874  22.276  27.024  1.00  0.00     0.039 A 
ATOM     38  C   UNL A   1      41.035  22.482  27.815  1.00  0.00     0.014 A 
ATOM     39  C   UNL A   1      39.000  23.340  26.971  1.00  0.00     0.014 A 
ATOM     40  C   UNL A   1      41.423  23.793  28.290  1.00  0.00     0.010 A 
ATOM     41  C   UNL A   1      39.455  24.637  27.334  1.00  0.00     0.010 A 
ATOM     42  C   UNL A   1      40.692  24.948  27.959  1.00  0.00    -0.014 A 
BRANCH  42  43
ATOM     43  C   UNL A   1      41.146  26.439  28.169  1.00  0.00     0.031 A 
ATOM     44  C   UNL A   1      42.507  26.933  27.623  1.00  0.00     0.074 A 
ATOM     45  C   UNL A   1      40.524  27.368  28.958  1.00  0.00     0.049 A 
ATOM     46  N   UNL A   1      43.216  28.006  27.922  1.00  0.00    -0.248 NA
ATOM     47  C   UNL A   1      43.220  26.037  26.706  1.00  0.00     0.031 C 
ATOM     48  C   UNL A   1      39.295  27.193  29.729  1.00  0.00     0.029 A 
ATOM     49  N   UNL A   1      40.886  28.682  29.269  1.00  0.00    -0.354 N 
ATOM     50  C   UNL A   1      44.472  27.804  27.348  1.00  0.00     0.074 A 
ATOM     51  C   UNL A   1      44.469  26.441  26.870  1.00  0.00     0.031 C 
ATOM     52  C   UNL A   1      38.988  28.337  30.373  1.00  0.00     0.029 A 
ATOM     53  C   UNL A   1      39.994  29.356  30.081  1.00  0.00     0.049 A 
ATOM     54  H   UNL A   1      41.714  29.096  28.934  1.00  0.00     0.167 HD
ATOM     55  C   UNL A   1      45.504  28.659  27.106  1.00  0.00     0.037 A 
ATOM     56  C   UNL A   1      39.953  30.637  30.528  1.00  0.00     0.037 A 
ATOM     57  C   UNL A   1      45.484  30.071  27.381  1.00  0.00     0.049 A 
ATOM     58  C   UNL A   1      41.036  31.637  30.173  1.00  0.00     0.074 A 
ATOM     59  C   UNL A   1      46.400  31.041  27.003  1.00  0.00     0.029 A 
ATOM     60  N   UNL A   1      44.484  30.724  28.078  1.00  0.00    -0.354 N 
ATOM     61  N   UNL A   1      42.145  31.458  29.501  1.00  0.00    -0.248 NA
ATOM     62  C   UNL A   1      40.843  33.031  30.625  1.00  0.00     0.031 C 
ATOM     63  C   UNL A   1      45.976  32.274  27.510  1.00  0.00     0.029 A 
ATOM     64  C   UNL A   1      44.767  32.080  28.154  1.00  0.00     0.049 A 
ATOM     65  H   UNL A   1      43.688  30.291  28.463  1.00  0.00     0.167 HD
ATOM     66  C   UNL A   1      42.746  32.713  29.403  1.00  0.00     0.074 A 
ATOM     67  C   UNL A   1      41.881  33.649  30.079  1.00  0.00     0.031 C 
ATOM     68  C   UNL A   1      43.913  33.044  28.796  1.00  0.00     0.037 A 
BRANCH  55  69
ATOM     69  C   UNL A   1      46.732  28.098  26.417  1.00  0.00     0.064 A 
ATOM     70  C   UNL A   1      47.886  27.732  27.135  1.00  0.00     0.173 A 
ATOM     71  C   UNL A   1      46.763  27.921  25.024  1.00  0.00     0.173 A 
ATOM     72  F   UNL A   1      47.917  27.848  28.472  1.00  0.00    -0.203 F 
ATOM     73  C   UNL A   1      49.048  27.329  26.484  1.00  0.00     0.198 A 
ATOM     74  C   UNL A   1      47.908  27.451  24.381  1.00  0.00     0.198 A 
ATOM     75  F   UNL A   1      45.684  28.203  24.280  1.00  0.00    -0.203 F 
ATOM     76  F   UNL A   1      50.168  27.119  27.190  1.00  0.00    -0.200 F 
ATOM     77  C   UNL A   1      49.058  27.184  25.108  1.00  0.00     0.200 A 
ATOM     78  F   UNL A   1      47.903  27.271  23.052  1.00  0.00    -0.200 F 
ATOM     79  F   UNL A   1      50.178  26.799  24.481  1.00  0.00    -0.200 F 
ENDBRANCH  55  69
BRANCH  56  80
ATOM     80  C   UNL A   1      38.748  31.134  31.267  1.00  0.00     0.064 A 
ATOM     81  C   UNL A   1      38.721  31.082  32.672  1.00  0.00     0.173 A 
ATOM     82  C   UNL A   1      37.607  31.626  30.620  1.00  0.00     0.173 A 
ATOM     83  F   UNL A   1      39.764  30.569  33.341  1.00  0.00    -0.203 F 
ATOM     84  C   UNL A   1      37.603  31.497  33.397  1.00  0.00     0.198 A 
ATOM     85  C   UNL A   1      36.498  32.067  31.349  1.00  0.00     0.198 A 
ATOM     86  F   UNL A   1      37.563  31.679  29.281  1.00  0.00    -0.203 F 
ATOM     87  F   UNL A   1      37.594  31.388  34.733  1.00  0.00    -0.200 F 
ATOM     88  C   UNL A   1      36.496  32.001  32.735  1.00  0.00     0.200 A 
ATOM     89  F   UNL A   1      35.425  32.554  30.707  1.00  0.00    -0.200 F 
ATOM     90  F   UNL A   1      35.426  32.409  33.430  1.00  0.00    -0.200 F 
ENDBRANCH  56  80
BRANCH  68  91
ATOM     91  C   UNL A   1      44.321  34.494  28.762  1.00  0.00     0.064 A 
ATOM     92  C   UNL A   1      45.195  35.046  29.709  1.00  0.00     0.173 A 
ATOM     93  C   UNL A   1      43.865  35.334  27.732  1.00  0.00     0.173 A 
ATOM     94  F   UNL A   1      45.661  34.293  30.718  1.00  0.00    -0.203 F 
ATOM     95  C   UNL A   1      45.570  36.387  29.648  1.00  0.00     0.198 A 
ATOM     96  C   UNL A   1      44.270  36.666  27.653  1.00  0.00     0.198 A 
ATOM     97  F   UNL A   1      43.038  34.861  26.788  1.00  0.00    -0.203 F 
ATOM     98  F   UNL A   1      46.367  36.903  30.596  1.00  0.00    -0.200 F 
ATOM     99  C   UNL A   1      45.113  37.194  28.617  1.00  0.00     0.200 A 
ATOM    100  F   UNL A   1      43.841  37.437  26.645  1.00  0.00    -0.200 F 
ATOM    101  F   UNL A   1      45.481  38.481  28.555  1.00  0.00    -0.200 F 
ENDBRANCH  68  91
ENDBRANCH  42  43
ENDBRANCH  34  37
ENDBRANCH  32  33
ENDBRANCH  31  32
ENDBRANCH  30  31
ENDBRANCH   1  30
TORSDOF 16
ENDMDL
