MODEL 1
REMARK VINA RESULT:     -12.5      0.000      0.000
REMARK SMILES O=C(NCCCCNC(=O)[C@]1([NH2+]C2CC2)CCC[C@H](SC2CCCCC2)C1)c1ccc(-c2c3nc(c(-c4c(F)c(F)c(F)c(F)c4F)c4ccc([nH]4)c(-c4c(F)c(F)c(F)c(F)c4F)c4nc(c(-c5c(F)c(F)c(F)c(F)c5F)c5ccc2[nH]5)C=C4)C=C3)cc1
REMARK SMILES IDX 5 1 4 2 3 3 1 4 2 5 28 7 29 8 90 9 30 10 89 11 31 12 32 13
REMARK SMILES IDX 33 14 83 15 34 16 88 17 82 18 84 19 35 20 87 21 81 22 80 23
REMARK SMILES IDX 36 25 68 26 48 27 67 28 49 29 52 30 66 31 85 32 50 33 51 34
REMARK SMILES IDX 65 36 86 37 53 38 37 39 38 40 46 41 39 42 40 43 44 44 47 45
REMARK SMILES IDX 41 46 42 47 45 48 43 49 69 50 70 51 78 52 71 53 72 54 76 55
REMARK SMILES IDX 79 56 73 57 74 58 77 59 75 60 54 61 55 62 63 63 56 64 57 65
REMARK SMILES IDX 61 66 64 67 58 68 59 69 62 70 60 71 6 72 7 73 8 74 9 75
REMARK SMILES IDX 10 77 11 78 16 79 27 80 17 81 19 82 18 83 12 84 13 87 14 88
REMARK SMILES IDX 15 89 20 90 21 91 22 92 26 93 23 94 25 95 24 96
REMARK H PARENT 3 6 84 24 52 35 8 76 12 85 12 86
REMARK Flexibility Score: inf
ROOT
ATOM      1  C   UNL A   1      31.933  31.711  26.697  1.00  0.00     0.023 C 
ENDROOT
BRANCH   1   2
ATOM      2  C   UNL A   1      32.973  32.579  27.387  1.00  0.00     0.116 C 
BRANCH   2   3
ATOM      3  N   UNL A   1      32.520  33.947  27.633  1.00  0.00    -0.352 N 
ATOM      4  O   UNL A   1      32.411  35.941  28.702  1.00  0.00    -0.269 OA
ATOM      5  C   UNL A   1      32.978  34.871  28.545  1.00  0.00     0.251 C 
ATOM      6  H   UNL A   1      31.777  34.253  27.063  1.00  0.00     0.163 HD
BRANCH   5   7
ATOM      7  C   UNL A   1      34.156  34.521  29.363  1.00  0.00     0.039 A 
ATOM      8  C   UNL A   1      35.431  34.676  28.826  1.00  0.00     0.014 A 
ATOM      9  C   UNL A   1      33.977  33.930  30.616  1.00  0.00     0.014 A 
ATOM     10  C   UNL A   1      36.495  34.024  29.422  1.00  0.00     0.010 A 
ATOM     11  C   UNL A   1      35.080  33.395  31.284  1.00  0.00     0.010 A 
ATOM     12  C   UNL A   1      36.339  33.380  30.662  1.00  0.00    -0.014 A 
BRANCH  12  13
ATOM     13  C   UNL A   1      37.520  32.712  31.267  1.00  0.00     0.031 A 
ATOM     14  C   UNL A   1      37.954  33.011  32.676  1.00  0.00     0.074 A 
ATOM     15  C   UNL A   1      38.149  31.758  30.551  1.00  0.00     0.049 A 
ATOM     16  N   UNL A   1      38.942  32.489  33.361  1.00  0.00    -0.248 NA
ATOM     17  C   UNL A   1      37.197  34.035  33.413  1.00  0.00     0.031 C 
ATOM     18  C   UNL A   1      37.812  31.384  29.175  1.00  0.00     0.029 A 
ATOM     19  N   UNL A   1      39.157  30.895  30.890  1.00  0.00    -0.354 N 
ATOM     20  C   UNL A   1      38.958  33.155  34.580  1.00  0.00     0.074 A 
ATOM     21  C   UNL A   1      37.882  34.121  34.545  1.00  0.00     0.031 C 
ATOM     22  C   UNL A   1      38.527  30.309  28.823  1.00  0.00     0.029 A 
ATOM     23  C   UNL A   1      39.439  29.976  29.910  1.00  0.00     0.049 A 
ATOM     24  H   UNL A   1      39.634  30.932  31.750  1.00  0.00     0.167 HD
ATOM     25  C   UNL A   1      39.796  32.972  35.629  1.00  0.00     0.037 A 
ATOM     26  C   UNL A   1      40.341  28.979  29.880  1.00  0.00     0.037 A 
ATOM     27  C   UNL A   1      40.829  31.968  35.674  1.00  0.00     0.049 A 
ATOM     28  C   UNL A   1      41.233  28.781  31.069  1.00  0.00     0.074 A 
ATOM     29  C   UNL A   1      41.713  31.682  36.700  1.00  0.00     0.029 A 
ATOM     30  N   UNL A   1      41.107  31.075  34.649  1.00  0.00    -0.354 N 
ATOM     31  N   UNL A   1      41.246  29.427  32.208  1.00  0.00    -0.248 NA
ATOM     32  C   UNL A   1      42.246  27.724  30.962  1.00  0.00     0.031 C 
ATOM     33  C   UNL A   1      42.548  30.639  36.283  1.00  0.00     0.029 A 
ATOM     34  C   UNL A   1      42.155  30.245  35.013  1.00  0.00     0.049 A 
ATOM     35  H   UNL A   1      40.630  31.036  33.788  1.00  0.00     0.167 HD
ATOM     36  C   UNL A   1      42.260  28.855  32.959  1.00  0.00     0.074 A 
ATOM     37  C   UNL A   1      42.822  27.788  32.153  1.00  0.00     0.031 C 
ATOM     38  C   UNL A   1      42.695  29.187  34.198  1.00  0.00     0.037 A 
BRANCH  25  39
ATOM     39  C   UNL A   1      39.660  33.896  36.806  1.00  0.00     0.064 A 
ATOM     40  C   UNL A   1      38.868  33.576  37.918  1.00  0.00     0.173 A 
ATOM     41  C   UNL A   1      40.375  35.104  36.838  1.00  0.00     0.173 A 
ATOM     42  F   UNL A   1      38.155  32.439  37.934  1.00  0.00    -0.203 F 
ATOM     43  C   UNL A   1      38.781  34.439  39.009  1.00  0.00     0.198 A 
ATOM     44  C   UNL A   1      40.307  35.952  37.941  1.00  0.00     0.198 A 
ATOM     45  F   UNL A   1      41.154  35.456  35.804  1.00  0.00    -0.203 F 
ATOM     46  F   UNL A   1      37.987  34.131  40.044  1.00  0.00    -0.200 F 
ATOM     47  C   UNL A   1      39.505  35.622  39.022  1.00  0.00     0.200 A 
ATOM     48  F   UNL A   1      41.018  37.088  37.957  1.00  0.00    -0.200 F 
ATOM     49  F   UNL A   1      39.427  36.447  40.077  1.00  0.00    -0.200 F 
ENDBRANCH  25  39
BRANCH  26  50
ATOM     50  C   UNL A   1      40.435  28.107  28.683  1.00  0.00     0.064 A 
ATOM     51  C   UNL A   1      41.218  28.476  27.581  1.00  0.00     0.173 A 
ATOM     52  C   UNL A   1      39.775  26.870  28.630  1.00  0.00     0.173 A 
ATOM     53  F   UNL A   1      41.855  29.657  27.578  1.00  0.00    -0.203 F 
ATOM     54  C   UNL A   1      41.331  27.644  26.469  1.00  0.00     0.198 A 
ATOM     55  C   UNL A   1      39.914  26.026  27.533  1.00  0.00     0.198 A 
ATOM     56  F   UNL A   1      39.019  26.467  29.663  1.00  0.00    -0.203 F 
ATOM     57  F   UNL A   1      42.060  28.035  25.415  1.00  0.00    -0.200 F 
ATOM     58  C   UNL A   1      40.688  26.416  26.450  1.00  0.00     0.200 A 
ATOM     59  F   UNL A   1      39.309  24.830  27.529  1.00  0.00    -0.200 F 
ATOM     60  F   UNL A   1      40.811  25.609  25.388  1.00  0.00    -0.200 F 
ENDBRANCH  26  50
BRANCH  38  61
ATOM     61  C   UNL A   1      43.811  28.363  34.763  1.00  0.00     0.064 A 
ATOM     62  C   UNL A   1      45.154  28.731  34.592  1.00  0.00     0.173 A 
ATOM     63  C   UNL A   1      43.533  27.195  35.488  1.00  0.00     0.173 A 
ATOM     64  F   UNL A   1      45.469  29.830  33.890  1.00  0.00    -0.203 F 
ATOM     65  C   UNL A   1      46.180  27.939  35.101  1.00  0.00     0.198 A 
ATOM     66  C   UNL A   1      44.561  26.420  36.017  1.00  0.00     0.198 A 
ATOM     67  F   UNL A   1      42.264  26.804  35.680  1.00  0.00    -0.203 F 
ATOM     68  F   UNL A   1      47.458  28.279  34.879  1.00  0.00    -0.200 F 
ATOM     69  C   UNL A   1      45.883  26.788  35.815  1.00  0.00     0.200 A 
ATOM     70  F   UNL A   1      44.273  25.312  36.714  1.00  0.00    -0.200 F 
ATOM     71  F   UNL A   1      46.872  26.026  36.300  1.00  0.00    -0.200 F 
ENDBRANCH  38  61
ENDBRANCH  12  13
ENDBRANCH   5   7
ENDBRANCH   2   3
ENDBRANCH   1   2
BRANCH   1  72
ATOM     72  C   UNL A   1      31.962  30.259  27.153  1.00  0.00     0.023 C 
BRANCH  72  73
ATOM     73  C   UNL A   1      32.840  29.354  26.285  1.00  0.00     0.116 C 
BRANCH  73  74
ATOM     74  N   UNL A   1      32.431  27.982  26.489  1.00  0.00    -0.351 N 
ATOM     75  C   UNL A   1      31.372  27.348  25.895  1.00  0.00     0.281 C 
ATOM     76  H   UNL A   1      32.968  27.450  27.120  1.00  0.00     0.163 HD
ATOM     77  O   UNL A   1      30.714  26.589  26.614  1.00  0.00    -0.268 OA
BRANCH  75  78
ATOM     78  C   UNL A   1      31.092  27.492  24.360  1.00  0.00     0.176 C 
ATOM     79  C   UNL A   1      29.944  26.540  23.926  1.00  0.00     0.079 C 
ATOM     80  C   UNL A   1      32.398  27.158  23.560  1.00  0.00     0.093 C 
ATOM     81  C   UNL A   1      30.339  25.068  23.834  1.00  0.00     0.008 C 
ATOM     82  C   UNL A   1      32.772  25.652  23.456  1.00  0.00     0.053 C 
ATOM     83  C   UNL A   1      31.554  24.890  22.938  1.00  0.00     0.015 C 
BRANCH  78  84
ATOM     84  N   UNL A   1      30.708  28.903  24.013  1.00  0.00    -0.331 N 
ATOM     85  H   UNL A   1      31.512  29.337  23.560  1.00  0.00     0.347 HD
ATOM     86  H   UNL A   1      30.430  29.324  24.899  1.00  0.00     0.347 HD
BRANCH  84  87
ATOM     87  C   UNL A   1      29.546  29.091  23.126  1.00  0.00     0.183 C 
ATOM     88  C   UNL A   1      28.853  30.425  23.079  1.00  0.00     0.071 C 
ATOM     89  C   UNL A   1      29.715  30.007  21.936  1.00  0.00     0.071 C 
ENDBRANCH  84  87
ENDBRANCH  78  84
BRANCH  82  90
ATOM     90  S   UNL A   1      33.512  25.086  25.050  1.00  0.00    -0.155 SA
BRANCH  90  91
ATOM     91  C   UNL A   1      35.131  24.312  24.644  1.00  0.00     0.047 C 
ATOM     92  C   UNL A   1      35.867  23.755  25.870  1.00  0.00     0.014 C 
ATOM     93  C   UNL A   1      35.089  23.334  23.469  1.00  0.00     0.014 C 
ATOM     94  C   UNL A   1      37.253  23.225  25.504  1.00  0.00     0.001 C 
ATOM     95  C   UNL A   1      36.499  22.843  23.128  1.00  0.00     0.001 C 
ATOM     96  C   UNL A   1      37.194  22.237  24.343  1.00  0.00     0.000 C 
ENDBRANCH  90  91
ENDBRANCH  82  90
ENDBRANCH  75  78
ENDBRANCH  73  74
ENDBRANCH  72  73
ENDBRANCH   1  72
TORSDOF 15
ENDMDL
MODEL 2
REMARK VINA RESULT:     -12.4      5.512     10.777
REMARK SMILES O=C(NCCCCNC(=O)[C@]1([NH2+]C2CC2)CCC[C@H](SC2CCCCC2)C1)c1ccc(-c2c3nc(c(-c4c(F)c(F)c(F)c(F)c4F)c4ccc([nH]4)c(-c4c(F)c(F)c(F)c(F)c4F)c4nc(c(-c5c(F)c(F)c(F)c(F)c5F)c5ccc2[nH]5)C=C4)C=C3)cc1
REMARK SMILES IDX 5 1 4 2 3 3 1 4 2 5 28 7 29 8 90 9 30 10 89 11 31 12 32 13
REMARK SMILES IDX 33 14 83 15 34 16 88 17 82 18 84 19 35 20 87 21 81 22 80 23
REMARK SMILES IDX 36 25 68 26 48 27 67 28 49 29 52 30 66 31 85 32 50 33 51 34
REMARK SMILES IDX 65 36 86 37 53 38 37 39 38 40 46 41 39 42 40 43 44 44 47 45
REMARK SMILES IDX 41 46 42 47 45 48 43 49 69 50 70 51 78 52 71 53 72 54 76 55
REMARK SMILES IDX 79 56 73 57 74 58 77 59 75 60 54 61 55 62 63 63 56 64 57 65
REMARK SMILES IDX 61 66 64 67 58 68 59 69 62 70 60 71 6 72 7 73 8 74 9 75
REMARK SMILES IDX 10 77 11 78 16 79 27 80 17 81 19 82 18 83 12 84 13 87 14 88
REMARK SMILES IDX 15 89 20 90 21 91 22 92 26 93 23 94 25 95 24 96
REMARK H PARENT 3 6 84 24 52 35 8 76 12 85 12 86
REMARK Flexibility Score: inf
ROOT
ATOM      1  C   UNL A   1      37.815  20.560  25.085  1.00  0.00     0.023 C 
ENDROOT
BRANCH   1   2
ATOM      2  C   UNL A   1      39.126  20.751  25.830  1.00  0.00     0.116 C 
BRANCH   2   3
ATOM      3  N   UNL A   1      39.961  19.551  25.857  1.00  0.00    -0.352 N 
ATOM      4  O   UNL A   1      41.883  18.358  25.963  1.00  0.00    -0.269 OA
ATOM      5  C   UNL A   1      41.313  19.430  26.090  1.00  0.00     0.251 C 
ATOM      6  H   UNL A   1      39.487  18.705  25.682  1.00  0.00     0.163 HD
BRANCH   5   7
ATOM      7  C   UNL A   1      42.069  20.642  26.460  1.00  0.00     0.039 A 
ATOM      8  C   UNL A   1      42.263  20.942  27.806  1.00  0.00     0.014 A 
ATOM      9  C   UNL A   1      42.479  21.532  25.466  1.00  0.00     0.014 A 
ATOM     10  C   UNL A   1      42.635  22.225  28.161  1.00  0.00     0.010 A 
ATOM     11  C   UNL A   1      42.989  22.780  25.831  1.00  0.00     0.010 A 
ATOM     12  C   UNL A   1      43.010  23.162  27.182  1.00  0.00    -0.014 A 
BRANCH  12  13
ATOM     13  C   UNL A   1      43.421  24.521  27.621  1.00  0.00     0.031 A 
ATOM     14  C   UNL A   1      44.853  24.972  27.539  1.00  0.00     0.074 A 
ATOM     15  C   UNL A   1      42.459  25.380  28.016  1.00  0.00     0.049 A 
ATOM     16  N   UNL A   1      45.368  26.136  27.850  1.00  0.00    -0.248 NA
ATOM     17  C   UNL A   1      45.843  23.994  27.061  1.00  0.00     0.031 C 
ATOM     18  C   UNL A   1      41.037  25.050  28.133  1.00  0.00     0.029 A 
ATOM     19  N   UNL A   1      42.517  26.709  28.338  1.00  0.00    -0.354 N 
ATOM     20  C   UNL A   1      46.738  26.013  27.658  1.00  0.00     0.074 A 
ATOM     21  C   UNL A   1      46.980  24.662  27.203  1.00  0.00     0.031 C 
ATOM     22  C   UNL A   1      40.347  26.165  28.402  1.00  0.00     0.029 A 
ATOM     23  C   UNL A   1      41.285  27.267  28.571  1.00  0.00     0.049 A 
ATOM     24  H   UNL A   1      43.360  27.215  28.399  1.00  0.00     0.167 HD
ATOM     25  C   UNL A   1      47.702  26.947  27.846  1.00  0.00     0.037 A 
ATOM     26  C   UNL A   1      40.942  28.526  28.896  1.00  0.00     0.037 A 
ATOM     27  C   UNL A   1      47.444  28.309  28.246  1.00  0.00     0.049 A 
ATOM     28  C   UNL A   1      42.028  29.546  29.065  1.00  0.00     0.074 A 
ATOM     29  C   UNL A   1      48.347  29.340  28.436  1.00  0.00     0.029 A 
ATOM     30  N   UNL A   1      46.184  28.829  28.503  1.00  0.00    -0.354 N 
ATOM     31  N   UNL A   1      43.321  29.412  28.895  1.00  0.00    -0.248 NA
ATOM     32  C   UNL A   1      41.611  30.888  29.487  1.00  0.00     0.031 C 
ATOM     33  C   UNL A   1      47.637  30.476  28.842  1.00  0.00     0.029 A 
ATOM     34  C   UNL A   1      46.287  30.164  28.862  1.00  0.00     0.049 A 
ATOM     35  H   UNL A   1      45.340  28.325  28.442  1.00  0.00     0.167 HD
ATOM     36  C   UNL A   1      43.872  30.650  29.180  1.00  0.00     0.074 A 
ATOM     37  C   UNL A   1      42.769  31.531  29.508  1.00  0.00     0.031 C 
ATOM     38  C   UNL A   1      45.174  31.023  29.180  1.00  0.00     0.037 A 
BRANCH  25  39
ATOM     39  C   UNL A   1      49.132  26.528  27.655  1.00  0.00     0.064 A 
ATOM     40  C   UNL A   1      49.711  26.404  26.384  1.00  0.00     0.173 A 
ATOM     41  C   UNL A   1      49.951  26.293  28.772  1.00  0.00     0.173 A 
ATOM     42  F   UNL A   1      48.970  26.606  25.283  1.00  0.00    -0.203 F 
ATOM     43  C   UNL A   1      51.048  26.040  26.237  1.00  0.00     0.198 A 
ATOM     44  C   UNL A   1      51.294  25.956  28.622  1.00  0.00     0.198 A 
ATOM     45  F   UNL A   1      49.451  26.405  30.012  1.00  0.00    -0.203 F 
ATOM     46  F   UNL A   1      51.569  25.889  25.011  1.00  0.00    -0.200 F 
ATOM     47  C   UNL A   1      51.839  25.824  27.355  1.00  0.00     0.200 A 
ATOM     48  F   UNL A   1      52.059  25.760  29.705  1.00  0.00    -0.200 F 
ATOM     49  F   UNL A   1      53.128  25.482  27.211  1.00  0.00    -0.200 F 
ENDBRANCH  25  39
BRANCH  26  50
ATOM     50  C   UNL A   1      39.512  28.876  29.082  1.00  0.00     0.064 A 
ATOM     51  C   UNL A   1      38.901  28.771  30.338  1.00  0.00     0.173 A 
ATOM     52  C   UNL A   1      38.736  29.357  28.016  1.00  0.00     0.173 A 
ATOM     53  F   UNL A   1      39.597  28.301  31.384  1.00  0.00    -0.203 F 
ATOM     54  C   UNL A   1      37.567  29.128  30.521  1.00  0.00     0.198 A 
ATOM     55  C   UNL A   1      37.413  29.743  28.206  1.00  0.00     0.198 A 
ATOM     56  F   UNL A   1      39.276  29.482  26.795  1.00  0.00    -0.203 F 
ATOM     57  F   UNL A   1      36.997  28.987  31.725  1.00  0.00    -0.200 F 
ATOM     58  C   UNL A   1      36.826  29.622  29.457  1.00  0.00     0.200 A 
ATOM     59  F   UNL A   1      36.709  30.241  27.181  1.00  0.00    -0.200 F 
ATOM     60  F   UNL A   1      35.549  29.981  29.637  1.00  0.00    -0.200 F 
ENDBRANCH  26  50
BRANCH  38  61
ATOM     61  C   UNL A   1      45.465  32.454  29.516  1.00  0.00     0.064 A 
ATOM     62  C   UNL A   1      45.491  33.449  28.528  1.00  0.00     0.173 A 
ATOM     63  C   UNL A   1      45.717  32.833  30.843  1.00  0.00     0.173 A 
ATOM     64  F   UNL A   1      45.274  33.131  27.243  1.00  0.00    -0.203 F 
ATOM     65  C   UNL A   1      45.790  34.769  28.853  1.00  0.00     0.198 A 
ATOM     66  C   UNL A   1      45.990  34.159  31.167  1.00  0.00     0.198 A 
ATOM     67  F   UNL A   1      45.702  31.917  31.822  1.00  0.00    -0.203 F 
ATOM     68  F   UNL A   1      45.863  35.695  27.886  1.00  0.00    -0.200 F 
ATOM     69  C   UNL A   1      46.035  35.123  30.171  1.00  0.00     0.200 A 
ATOM     70  F   UNL A   1      46.219  34.501  32.442  1.00  0.00    -0.200 F 
ATOM     71  F   UNL A   1      46.327  36.394  30.481  1.00  0.00    -0.200 F 
ENDBRANCH  38  61
ENDBRANCH  12  13
ENDBRANCH   5   7
ENDBRANCH   2   3
ENDBRANCH   1   2
BRANCH   1  72
ATOM     72  C   UNL A   1      37.360  21.805  24.337  1.00  0.00     0.023 C 
BRANCH  72  73
ATOM     73  C   UNL A   1      36.341  22.651  25.105  1.00  0.00     0.116 C 
BRANCH  73  74
ATOM     74  N   UNL A   1      35.572  23.422  24.153  1.00  0.00    -0.351 N 
ATOM     75  C   UNL A   1      34.467  22.999  23.462  1.00  0.00     0.281 C 
ATOM     76  H   UNL A   1      35.872  24.344  23.985  1.00  0.00     0.163 HD
ATOM     77  O   UNL A   1      34.390  23.355  22.281  1.00  0.00    -0.268 OA
BRANCH  75  78
ATOM     78  C   UNL A   1      33.315  22.208  24.170  1.00  0.00     0.176 C 
ATOM     79  C   UNL A   1      32.024  22.242  23.307  1.00  0.00     0.079 C 
ATOM     80  C   UNL A   1      33.039  22.841  25.577  1.00  0.00     0.093 C 
ATOM     81  C   UNL A   1      31.280  23.575  23.330  1.00  0.00     0.008 C 
ATOM     82  C   UNL A   1      32.259  24.187  25.582  1.00  0.00     0.053 C 
ATOM     83  C   UNL A   1      30.986  24.006  24.758  1.00  0.00     0.015 C 
BRANCH  78  84
ATOM     84  N   UNL A   1      33.707  20.775  24.398  1.00  0.00    -0.331 N 
ATOM     85  H   UNL A   1      34.205  20.731  25.287  1.00  0.00     0.347 HD
ATOM     86  H   UNL A   1      34.258  20.521  23.579  1.00  0.00     0.347 HD
BRANCH  84  87
ATOM     87  C   UNL A   1      32.624  19.776  24.448  1.00  0.00     0.183 C 
ATOM     88  C   UNL A   1      32.883  18.373  23.972  1.00  0.00     0.071 C 
ATOM     89  C   UNL A   1      32.765  18.639  25.434  1.00  0.00     0.071 C 
ENDBRANCH  84  87
ENDBRANCH  78  84
BRANCH  82  90
ATOM     90  S   UNL A   1      33.393  25.562  25.100  1.00  0.00    -0.155 SA
BRANCH  90  91
ATOM     91  C   UNL A   1      33.080  26.948  26.268  1.00  0.00     0.047 C 
ATOM     92  C   UNL A   1      33.875  28.219  25.937  1.00  0.00     0.014 C 
ATOM     93  C   UNL A   1      31.601  27.218  26.550  1.00  0.00     0.014 C 
ATOM     94  C   UNL A   1      33.672  29.304  26.994  1.00  0.00     0.001 C 
ATOM     95  C   UNL A   1      31.447  28.298  27.626  1.00  0.00     0.001 C 
ATOM     96  C   UNL A   1      32.192  29.575  27.251  1.00  0.00     0.000 C 
ENDBRANCH  90  91
ENDBRANCH  82  90
ENDBRANCH  75  78
ENDBRANCH  73  74
ENDBRANCH  72  73
ENDBRANCH   1  72
TORSDOF 15
ENDMDL
MODEL 3
REMARK VINA RESULT:     -12.4      0.318      1.965
REMARK SMILES O=C(NCCCCNC(=O)[C@]1([NH2+]C2CC2)CCC[C@H](SC2CCCCC2)C1)c1ccc(-c2c3nc(c(-c4c(F)c(F)c(F)c(F)c4F)c4ccc([nH]4)c(-c4c(F)c(F)c(F)c(F)c4F)c4nc(c(-c5c(F)c(F)c(F)c(F)c5F)c5ccc2[nH]5)C=C4)C=C3)cc1
REMARK SMILES IDX 5 1 4 2 3 3 1 4 2 5 28 7 29 8 90 9 30 10 89 11 31 12 32 13
REMARK SMILES IDX 33 14 83 15 34 16 88 17 82 18 84 19 35 20 87 21 81 22 80 23
REMARK SMILES IDX 36 25 68 26 48 27 67 28 49 29 52 30 66 31 85 32 50 33 51 34
REMARK SMILES IDX 65 36 86 37 53 38 37 39 38 40 46 41 39 42 40 43 44 44 47 45
REMARK SMILES IDX 41 46 42 47 45 48 43 49 69 50 70 51 78 52 71 53 72 54 76 55
REMARK SMILES IDX 79 56 73 57 74 58 77 59 75 60 54 61 55 62 63 63 56 64 57 65
REMARK SMILES IDX 61 66 64 67 58 68 59 69 62 70 60 71 6 72 7 73 8 74 9 75
REMARK SMILES IDX 10 77 11 78 16 79 27 80 17 81 19 82 18 83 12 84 13 87 14 88
REMARK SMILES IDX 15 89 20 90 21 91 22 92 26 93 23 94 25 95 24 96
REMARK H PARENT 3 6 84 24 52 35 8 76 12 85 12 86
REMARK Flexibility Score: inf
ROOT
ATOM      1  C   UNL A   1      32.019  31.792  26.922  1.00  0.00     0.023 C 
ENDROOT
BRANCH   1   2
ATOM      2  C   UNL A   1      33.103  32.729  27.430  1.00  0.00     0.116 C 
BRANCH   2   3
ATOM      3  N   UNL A   1      32.619  34.077  27.721  1.00  0.00    -0.352 N 
ATOM      4  O   UNL A   1      32.447  36.021  28.870  1.00  0.00    -0.269 OA
ATOM      5  C   UNL A   1      33.038  34.969  28.683  1.00  0.00     0.251 C 
ATOM      6  H   UNL A   1      31.885  34.394  27.146  1.00  0.00     0.163 HD
BRANCH   5   7
ATOM      7  C   UNL A   1      34.201  34.605  29.514  1.00  0.00     0.039 A 
ATOM      8  C   UNL A   1      35.486  34.789  29.010  1.00  0.00     0.014 A 
ATOM      9  C   UNL A   1      34.002  33.975  30.744  1.00  0.00     0.014 A 
ATOM     10  C   UNL A   1      36.543  34.129  29.609  1.00  0.00     0.010 A 
ATOM     11  C   UNL A   1      35.096  33.430  31.419  1.00  0.00     0.010 A 
ATOM     12  C   UNL A   1      36.367  33.445  30.824  1.00  0.00    -0.014 A 
BRANCH  12  13
ATOM     13  C   UNL A   1      37.543  32.770  31.434  1.00  0.00     0.031 A 
ATOM     14  C   UNL A   1      37.975  33.070  32.843  1.00  0.00     0.074 A 
ATOM     15  C   UNL A   1      38.165  31.810  30.722  1.00  0.00     0.049 A 
ATOM     16  N   UNL A   1      38.957  32.543  33.532  1.00  0.00    -0.248 NA
ATOM     17  C   UNL A   1      37.224  34.101  33.575  1.00  0.00     0.031 C 
ATOM     18  C   UNL A   1      37.829  31.435  29.346  1.00  0.00     0.029 A 
ATOM     19  N   UNL A   1      39.167  30.941  31.065  1.00  0.00    -0.354 N 
ATOM     20  C   UNL A   1      38.975  33.211  34.749  1.00  0.00     0.074 A 
ATOM     21  C   UNL A   1      37.907  34.185  34.710  1.00  0.00     0.031 C 
ATOM     22  C   UNL A   1      38.537  30.354  28.999  1.00  0.00     0.029 A 
ATOM     23  C   UNL A   1      39.444  30.017  30.088  1.00  0.00     0.049 A 
ATOM     24  H   UNL A   1      39.642  30.976  31.927  1.00  0.00     0.167 HD
ATOM     25  C   UNL A   1      39.810  33.025  35.800  1.00  0.00     0.037 A 
ATOM     26  C   UNL A   1      40.339  29.013  30.063  1.00  0.00     0.037 A 
ATOM     27  C   UNL A   1      40.836  32.013  35.851  1.00  0.00     0.049 A 
ATOM     28  C   UNL A   1      41.226  28.811  31.254  1.00  0.00     0.074 A 
ATOM     29  C   UNL A   1      41.715  31.723  36.880  1.00  0.00     0.029 A 
ATOM     30  N   UNL A   1      41.108  31.116  34.829  1.00  0.00    -0.354 N 
ATOM     31  N   UNL A   1      41.241  29.461  32.392  1.00  0.00    -0.248 NA
ATOM     32  C   UNL A   1      42.232  27.747  31.153  1.00  0.00     0.031 C 
ATOM     33  C   UNL A   1      42.543  30.673  36.467  1.00  0.00     0.029 A 
ATOM     34  C   UNL A   1      42.150  30.279  35.198  1.00  0.00     0.049 A 
ATOM     35  H   UNL A   1      40.634  31.078  33.967  1.00  0.00     0.167 HD
ATOM     36  C   UNL A   1      42.249  28.882  33.147  1.00  0.00     0.074 A 
ATOM     37  C   UNL A   1      42.805  27.810  32.345  1.00  0.00     0.031 C 
ATOM     38  C   UNL A   1      42.684  29.214  34.386  1.00  0.00     0.037 A 
BRANCH  25  39
ATOM     39  C   UNL A   1      39.678  33.953  36.975  1.00  0.00     0.064 A 
ATOM     40  C   UNL A   1      40.269  35.224  36.992  1.00  0.00     0.173 A 
ATOM     41  C   UNL A   1      38.903  33.577  38.084  1.00  0.00     0.173 A 
ATOM     42  F   UNL A   1      41.029  35.629  35.962  1.00  0.00    -0.203 F 
ATOM     43  C   UNL A   1      40.108  36.076  38.083  1.00  0.00     0.198 A 
ATOM     44  C   UNL A   1      38.722  34.441  39.161  1.00  0.00     0.198 A 
ATOM     45  F   UNL A   1      38.308  32.375  38.117  1.00  0.00    -0.203 F 
ATOM     46  F   UNL A   1      40.715  37.271  38.094  1.00  0.00    -0.200 F 
ATOM     47  C   UNL A   1      39.329  35.687  39.162  1.00  0.00     0.200 A 
ATOM     48  F   UNL A   1      37.958  34.067  40.198  1.00  0.00    -0.200 F 
ATOM     49  F   UNL A   1      39.168  36.511  40.208  1.00  0.00    -0.200 F 
ENDBRANCH  25  39
BRANCH  26  50
ATOM     50  C   UNL A   1      40.429  28.137  28.869  1.00  0.00     0.064 A 
ATOM     51  C   UNL A   1      39.720  26.931  28.804  1.00  0.00     0.173 A 
ATOM     52  C   UNL A   1      41.195  28.506  27.753  1.00  0.00     0.173 A 
ATOM     53  F   UNL A   1      38.987  26.528  29.853  1.00  0.00    -0.203 F 
ATOM     54  C   UNL A   1      39.780  26.122  27.671  1.00  0.00     0.198 A 
ATOM     55  C   UNL A   1      41.228  27.713  26.609  1.00  0.00     0.198 A 
ATOM     56  F   UNL A   1      41.887  29.655  27.762  1.00  0.00    -0.203 F 
ATOM     57  F   UNL A   1      39.119  24.957  27.647  1.00  0.00    -0.200 F 
ATOM     58  C   UNL A   1      40.526  26.518  26.571  1.00  0.00     0.200 A 
ATOM     59  F   UNL A   1      41.932  28.111  25.541  1.00  0.00    -0.200 F 
ATOM     60  F   UNL A   1      40.569  25.749  25.475  1.00  0.00    -0.200 F 
ENDBRANCH  26  50
BRANCH  38  61
ATOM     61  C   UNL A   1      43.793  28.384  34.956  1.00  0.00     0.064 A 
ATOM     62  C   UNL A   1      43.532  27.215  35.686  1.00  0.00     0.173 A 
ATOM     63  C   UNL A   1      45.130  28.761  34.766  1.00  0.00     0.173 A 
ATOM     64  F   UNL A   1      42.268  26.825  35.909  1.00  0.00    -0.203 F 
ATOM     65  C   UNL A   1      44.573  26.469  36.233  1.00  0.00     0.198 A 
ATOM     66  C   UNL A   1      46.168  27.998  35.293  1.00  0.00     0.198 A 
ATOM     67  F   UNL A   1      45.428  29.870  34.074  1.00  0.00    -0.203 F 
ATOM     68  F   UNL A   1      44.301  25.385  36.974  1.00  0.00    -0.200 F 
ATOM     69  C   UNL A   1      45.889  26.859  36.033  1.00  0.00     0.200 A 
ATOM     70  F   UNL A   1      47.440  28.372  35.092  1.00  0.00    -0.200 F 
ATOM     71  F   UNL A   1      46.889  26.142  36.563  1.00  0.00    -0.200 F 
ENDBRANCH  38  61
ENDBRANCH  12  13
ENDBRANCH   5   7
ENDBRANCH   2   3
ENDBRANCH   1   2
BRANCH   1  72
ATOM     72  C   UNL A   1      32.344  30.321  27.139  1.00  0.00     0.023 C 
BRANCH  72  73
ATOM     73  C   UNL A   1      32.358  29.494  25.851  1.00  0.00     0.116 C 
BRANCH  73  74
ATOM     74  N   UNL A   1      32.173  28.101  26.196  1.00  0.00    -0.351 N 
ATOM     75  C   UNL A   1      31.217  27.256  25.697  1.00  0.00     0.281 C 
ATOM     76  H   UNL A   1      32.797  27.723  26.857  1.00  0.00     0.163 HD
ATOM     77  O   UNL A   1      30.698  26.478  26.504  1.00  0.00    -0.268 OA
BRANCH  75  78
ATOM     78  C   UNL A   1      30.894  27.204  24.165  1.00  0.00     0.176 C 
ATOM     79  C   UNL A   1      29.874  26.071  23.864  1.00  0.00     0.079 C 
ATOM     80  C   UNL A   1      32.218  26.964  23.362  1.00  0.00     0.093 C 
ATOM     81  C   UNL A   1      30.460  24.662  23.905  1.00  0.00     0.008 C 
ATOM     82  C   UNL A   1      32.787  25.516  23.396  1.00  0.00     0.053 C 
ATOM     83  C   UNL A   1      31.672  24.553  22.994  1.00  0.00     0.015 C 
BRANCH  78  84
ATOM     84  N   UNL A   1      30.320  28.511  23.692  1.00  0.00    -0.331 N 
ATOM     85  H   UNL A   1      31.072  29.031  23.242  1.00  0.00     0.347 HD
ATOM     86  H   UNL A   1      29.931  28.944  24.529  1.00  0.00     0.347 HD
BRANCH  84  87
ATOM     87  C   UNL A   1      29.194  28.451  22.742  1.00  0.00     0.183 C 
ATOM     88  C   UNL A   1      27.913  29.173  23.060  1.00  0.00     0.071 C 
ATOM     89  C   UNL A   1      28.824  29.724  22.015  1.00  0.00     0.071 C 
ENDBRANCH  84  87
ENDBRANCH  78  84
BRANCH  82  90
ATOM     90  S   UNL A   1      33.624  25.218  25.015  1.00  0.00    -0.155 SA
BRANCH  90  91
ATOM     91  C   UNL A   1      35.206  24.354  24.648  1.00  0.00     0.047 C 
ATOM     92  C   UNL A   1      35.865  23.734  25.887  1.00  0.00     0.014 C 
ATOM     93  C   UNL A   1      35.145  23.400  23.455  1.00  0.00     0.014 C 
ATOM     94  C   UNL A   1      37.229  23.126  25.558  1.00  0.00     0.001 C 
ATOM     95  C   UNL A   1      36.534  22.830  23.151  1.00  0.00     0.001 C 
ATOM     96  C   UNL A   1      37.149  22.162  24.378  1.00  0.00     0.000 C 
ENDBRANCH  90  91
ENDBRANCH  82  90
ENDBRANCH  75  78
ENDBRANCH  73  74
ENDBRANCH  72  73
ENDBRANCH   1  72
TORSDOF 15
ENDMDL
