MODEL 1
REMARK VINA RESULT:     -10.7      0.000      0.000
REMARK SMILES [NH3+]CCOCC(=O)N[C@]1(C(=O)NCCCCNC(=O)c2ccc(-c3c4nc(c(-c5c(F)c(F)c(F)c(F)c5F)c5ccc([nH]5)c(-c5c(F)c(F)c(F)c(F)c5F)c5nc(c(-c6c(F)c(F)c(F)c(F)c6F)c6ccc3[nH]6)C=C5)C=C4)cc2)CCOC1
REMARK SMILES IDX 10 1 11 2 12 3 9 5 83 6 86 7 84 8 85 9 8 10 6 11 7 12 5 14
REMARK SMILES IDX 4 15 3 16 2 17 1 18 13 22 14 23 15 24 16 25 17 26 18 27
REMARK SMILES IDX 19 29 20 30 21 31 82 32 22 33 81 34 23 35 24 36 25 37 75 38
REMARK SMILES IDX 26 39 80 40 74 41 76 42 27 43 79 44 73 45 72 46 28 48 60 49
REMARK SMILES IDX 40 50 59 51 41 52 44 53 58 54 77 55 42 56 43 57 57 59 78 60
REMARK SMILES IDX 45 61 29 62 30 63 38 64 31 65 32 66 36 67 39 68 33 69 34 70
REMARK SMILES IDX 37 71 35 72 61 73 62 74 70 75 63 76 64 77 68 78 71 79 65 80
REMARK SMILES IDX 66 81 69 82 67 83 46 84 47 85 55 86 48 87 49 88 53 89 56 90
REMARK SMILES IDX 50 91 51 92 54 93 52 94
REMARK H PARENT 12 4 8 13 1 19 1 20 1 21 17 28 76 47 44 58
REMARK Flexibility Score: inf
ROOT
ATOM      1  C   UNL A   1      32.621  28.952  23.385  1.00  0.00     0.248 C 
ATOM      2  O   UNL A   1      33.694  29.090  22.780  1.00  0.00    -0.272 OA
ATOM      3  N   UNL A   1      32.521  29.678  24.525  1.00  0.00    -0.354 N 
ATOM      4  H   UNL A   1      33.378  30.050  24.834  1.00  0.00     0.163 HD
ENDROOT
BRANCH   1   5
ATOM      5  C   UNL A   1      31.452  28.153  22.746  1.00  0.00     0.144 C 
ATOM      6  C   UNL A   1      30.460  27.372  23.604  1.00  0.00     0.069 C 
ATOM      7  C   UNL A   1      30.572  29.240  22.082  1.00  0.00     0.198 C 
ATOM      8  C   UNL A   1      29.096  27.828  23.129  1.00  0.00     0.163 C 
ATOM      9  O   UNL A   1      29.258  29.157  22.652  1.00  0.00    -0.378 OA
BRANCH   5  10
ATOM     10  N   UNL A   1      32.049  27.241  21.739  1.00  0.00    -0.338 N 
ATOM     11  C   UNL A   1      32.854  26.152  21.932  1.00  0.00     0.246 C 
ATOM     12  O   UNL A   1      33.278  25.555  20.938  1.00  0.00    -0.272 OA
ATOM     13  H   UNL A   1      31.836  27.449  20.801  1.00  0.00     0.164 HD
BRANCH  11  14
ATOM     14  C   UNL A   1      33.233  25.676  23.350  1.00  0.00     0.260 C 
BRANCH  14  15
ATOM     15  O   UNL A   1      33.304  24.290  23.616  1.00  0.00    -0.366 OA
BRANCH  15  16
ATOM     16  C   UNL A   1      32.044  23.610  23.595  1.00  0.00     0.222 C 
BRANCH  16  17
ATOM     17  C   UNL A   1      32.156  22.091  23.393  1.00  0.00     0.287 C 
BRANCH  17  18
ATOM     18  N   UNL A   1      32.082  21.643  22.001  1.00  0.00    -0.356 N 
ATOM     19  H   UNL A   1      31.340  20.951  21.905  1.00  0.00     0.344 HD
ATOM     20  H   UNL A   1      32.973  21.227  21.730  1.00  0.00     0.344 HD
ATOM     21  H   UNL A   1      31.882  22.440  21.397  1.00  0.00     0.344 HD
ENDBRANCH  17  18
ENDBRANCH  16  17
ENDBRANCH  15  16
ENDBRANCH  14  15
ENDBRANCH  11  14
ENDBRANCH   5  10
ENDBRANCH   1   5
BRANCH   3  22
ATOM     22  C   UNL A   1      31.399  30.011  25.374  1.00  0.00     0.116 C 
BRANCH  22  23
ATOM     23  C   UNL A   1      31.872  30.575  26.713  1.00  0.00     0.023 C 
BRANCH  23  24
ATOM     24  C   UNL A   1      31.549  32.060  26.924  1.00  0.00     0.023 C 
BRANCH  24  25
ATOM     25  C   UNL A   1      32.759  32.988  26.959  1.00  0.00     0.116 C 
BRANCH  25  26
ATOM     26  N   UNL A   1      32.478  34.247  27.626  1.00  0.00    -0.352 N 
ATOM     27  C   UNL A   1      33.054  34.789  28.747  1.00  0.00     0.251 C 
ATOM     28  H   UNL A   1      31.771  34.793  27.213  1.00  0.00     0.163 HD
ATOM     29  O   UNL A   1      32.576  35.797  29.254  1.00  0.00    -0.269 OA
BRANCH  27  30
ATOM     30  C   UNL A   1      34.234  34.144  29.358  1.00  0.00     0.039 A 
ATOM     31  C   UNL A   1      34.029  33.132  30.298  1.00  0.00     0.014 A 
ATOM     32  C   UNL A   1      35.532  34.542  29.025  1.00  0.00     0.014 A 
ATOM     33  C   UNL A   1      35.126  32.492  30.875  1.00  0.00     0.010 A 
ATOM     34  C   UNL A   1      36.623  33.844  29.535  1.00  0.00     0.010 A 
ATOM     35  C   UNL A   1      36.433  32.826  30.482  1.00  0.00    -0.014 A 
BRANCH  35  36
ATOM     36  C   UNL A   1      37.605  32.138  31.079  1.00  0.00     0.031 A 
ATOM     37  C   UNL A   1      38.073  32.501  32.462  1.00  0.00     0.074 A 
ATOM     38  C   UNL A   1      38.267  31.208  30.364  1.00  0.00     0.049 A 
ATOM     39  N   UNL A   1      39.074  32.014  33.153  1.00  0.00    -0.248 NA
ATOM     40  C   UNL A   1      37.339  33.574  33.150  1.00  0.00     0.031 C 
ATOM     41  C   UNL A   1      37.948  30.812  28.992  1.00  0.00     0.029 A 
ATOM     42  N   UNL A   1      39.348  30.429  30.692  1.00  0.00    -0.354 N 
ATOM     43  C   UNL A   1      39.094  32.729  34.343  1.00  0.00     0.074 A 
ATOM     44  C   UNL A   1      38.051  33.725  34.256  1.00  0.00     0.031 C 
ATOM     45  C   UNL A   1      38.792  29.842  28.607  1.00  0.00     0.029 A 
ATOM     46  C   UNL A   1      39.732  29.571  29.691  1.00  0.00     0.049 A 
ATOM     47  H   UNL A   1      39.805  30.480  31.563  1.00  0.00     0.167 HD
ATOM     48  C   UNL A   1      39.892  32.551  35.423  1.00  0.00     0.037 A 
ATOM     49  C   UNL A   1      40.728  28.666  29.653  1.00  0.00     0.037 A 
ATOM     50  C   UNL A   1      40.914  31.541  35.514  1.00  0.00     0.049 A 
ATOM     51  C   UNL A   1      41.593  28.479  30.871  1.00  0.00     0.074 A 
ATOM     52  C   UNL A   1      41.732  31.235  36.586  1.00  0.00     0.029 A 
ATOM     53  N   UNL A   1      41.262  30.676  34.486  1.00  0.00    -0.354 N 
ATOM     54  N   UNL A   1      41.549  29.102  32.023  1.00  0.00    -0.248 NA
ATOM     55  C   UNL A   1      42.638  27.450  30.786  1.00  0.00     0.031 C 
ATOM     56  C   UNL A   1      42.614  30.223  36.189  1.00  0.00     0.029 A 
ATOM     57  C   UNL A   1      42.301  29.852  34.891  1.00  0.00     0.049 A 
ATOM     58  H   UNL A   1      40.833  30.651  33.600  1.00  0.00     0.167 HD
ATOM     59  C   UNL A   1      42.534  28.522  32.811  1.00  0.00     0.074 A 
ATOM     60  C   UNL A   1      43.148  27.484  32.009  1.00  0.00     0.031 C 
ATOM     61  C   UNL A   1      42.900  28.821  34.082  1.00  0.00     0.037 A 
BRANCH  48  62
ATOM     62  C   UNL A   1      39.690  33.472  36.594  1.00  0.00     0.064 A 
ATOM     63  C   UNL A   1      40.343  34.712  36.681  1.00  0.00     0.173 A 
ATOM     64  C   UNL A   1      38.813  33.121  37.632  1.00  0.00     0.173 A 
ATOM     65  F   UNL A   1      41.202  35.093  35.723  1.00  0.00    -0.203 F 
ATOM     66  C   UNL A   1      40.156  35.547  37.780  1.00  0.00     0.198 A 
ATOM     67  C   UNL A   1      38.600  33.975  38.712  1.00  0.00     0.198 A 
ATOM     68  F   UNL A   1      38.158  31.952  37.599  1.00  0.00    -0.203 F 
ATOM     69  F   UNL A   1      40.837  36.698  37.869  1.00  0.00    -0.200 F 
ATOM     70  C   UNL A   1      39.279  35.182  38.790  1.00  0.00     0.200 A 
ATOM     71  F   UNL A   1      37.741  33.627  39.679  1.00  0.00    -0.200 F 
ATOM     72  F   UNL A   1      39.094  35.989  39.844  1.00  0.00    -0.200 F 
ENDBRANCH  48  62
BRANCH  49  73
ATOM     73  C   UNL A   1      40.939  27.845  28.431  1.00  0.00     0.064 A 
ATOM     74  C   UNL A   1      41.789  28.282  27.406  1.00  0.00     0.173 A 
ATOM     75  C   UNL A   1      40.296  26.611  28.264  1.00  0.00     0.173 A 
ATOM     76  F   UNL A   1      42.413  29.464  27.511  1.00  0.00    -0.203 F 
ATOM     77  C   UNL A   1      41.971  27.526  26.250  1.00  0.00     0.198 A 
ATOM     78  C   UNL A   1      40.501  25.841  27.121  1.00  0.00     0.198 A 
ATOM     79  F   UNL A   1      39.477  26.144  29.218  1.00  0.00    -0.203 F 
ATOM     80  F   UNL A   1      42.750  27.989  25.264  1.00  0.00    -0.200 F 
ATOM     81  C   UNL A   1      41.331  26.303  26.111  1.00  0.00     0.200 A 
ATOM     82  F   UNL A   1      39.896  24.652  26.998  1.00  0.00    -0.200 F 
ATOM     83  F   UNL A   1      41.509  25.574  25.001  1.00  0.00    -0.200 F 
ENDBRANCH  49  73
BRANCH  61  84
ATOM     84  C   UNL A   1      43.986  27.987  34.700  1.00  0.00     0.064 A 
ATOM     85  C   UNL A   1      45.332  28.377  34.661  1.00  0.00     0.173 A 
ATOM     86  C   UNL A   1      43.669  26.789  35.361  1.00  0.00     0.173 A 
ATOM     87  F   UNL A   1      45.691  29.506  34.032  1.00  0.00    -0.203 F 
ATOM     88  C   UNL A   1      46.325  27.582  35.228  1.00  0.00     0.198 A 
ATOM     89  C   UNL A   1      44.661  26.015  35.958  1.00  0.00     0.198 A 
ATOM     90  F   UNL A   1      42.396  26.373  35.436  1.00  0.00    -0.203 F 
ATOM     91  F   UNL A   1      47.612  27.944  35.124  1.00  0.00    -0.200 F 
ATOM     92  C   UNL A   1      45.988  26.406  35.881  1.00  0.00     0.200 A 
ATOM     93  F   UNL A   1      44.330  24.888  36.604  1.00  0.00    -0.200 F 
ATOM     94  F   UNL A   1      46.945  25.643  36.429  1.00  0.00    -0.200 F 
ENDBRANCH  61  84
ENDBRANCH  35  36
ENDBRANCH  27  30
ENDBRANCH  25  26
ENDBRANCH  24  25
ENDBRANCH  23  24
ENDBRANCH  22  23
ENDBRANCH   3  22
TORSDOF 17
ENDMDL
MODEL 2
REMARK VINA RESULT:     -10.7      4.407      7.904
REMARK SMILES [NH3+]CCOCC(=O)N[C@]1(C(=O)NCCCCNC(=O)c2ccc(-c3c4nc(c(-c5c(F)c(F)c(F)c(F)c5F)c5ccc([nH]5)c(-c5c(F)c(F)c(F)c(F)c5F)c5nc(c(-c6c(F)c(F)c(F)c(F)c6F)c6ccc3[nH]6)C=C5)C=C4)cc2)CCOC1
REMARK SMILES IDX 10 1 11 2 12 3 9 5 83 6 86 7 84 8 85 9 8 10 6 11 7 12 5 14
REMARK SMILES IDX 4 15 3 16 2 17 1 18 13 22 14 23 15 24 16 25 17 26 18 27
REMARK SMILES IDX 19 29 20 30 21 31 82 32 22 33 81 34 23 35 24 36 25 37 75 38
REMARK SMILES IDX 26 39 80 40 74 41 76 42 27 43 79 44 73 45 72 46 28 48 60 49
REMARK SMILES IDX 40 50 59 51 41 52 44 53 58 54 77 55 42 56 43 57 57 59 78 60
REMARK SMILES IDX 45 61 29 62 30 63 38 64 31 65 32 66 36 67 39 68 33 69 34 70
REMARK SMILES IDX 37 71 35 72 61 73 62 74 70 75 63 76 64 77 68 78 71 79 65 80
REMARK SMILES IDX 66 81 69 82 67 83 46 84 47 85 55 86 48 87 49 88 53 89 56 90
REMARK SMILES IDX 50 91 51 92 54 93 52 94
REMARK H PARENT 12 4 8 13 1 19 1 20 1 21 17 28 76 47 44 58
REMARK Flexibility Score: inf
ROOT
ATOM      1  C   UNL A   1      38.313  33.735  32.336  1.00  0.00     0.248 C 
ATOM      2  O   UNL A   1      39.110  34.596  32.736  1.00  0.00    -0.272 OA
ATOM      3  N   UNL A   1      38.005  33.822  31.019  1.00  0.00    -0.354 N 
ATOM      4  H   UNL A   1      38.281  34.670  30.603  1.00  0.00     0.163 HD
ENDROOT
BRANCH   1   5
ATOM      5  C   UNL A   1      37.886  32.564  33.263  1.00  0.00     0.144 C 
ATOM      6  C   UNL A   1      37.234  31.303  32.702  1.00  0.00     0.069 C 
ATOM      7  C   UNL A   1      39.220  32.044  33.852  1.00  0.00     0.198 C 
ATOM      8  C   UNL A   1      38.040  30.160  33.283  1.00  0.00     0.163 C 
ATOM      9  O   UNL A   1      39.353  30.660  33.500  1.00  0.00    -0.378 OA
BRANCH   5  10
ATOM     10  N   UNL A   1      37.010  33.139  34.313  1.00  0.00    -0.338 N 
ATOM     11  C   UNL A   1      35.723  33.590  34.212  1.00  0.00     0.246 C 
ATOM     12  O   UNL A   1      35.192  34.076  35.214  1.00  0.00    -0.272 OA
ATOM     13  H   UNL A   1      37.412  33.205  35.210  1.00  0.00     0.164 HD
BRANCH  11  14
ATOM     14  C   UNL A   1      34.947  33.506  32.880  1.00  0.00     0.260 C 
BRANCH  14  15
ATOM     15  O   UNL A   1      34.951  34.619  32.009  1.00  0.00    -0.366 OA
BRANCH  15  16
ATOM     16  C   UNL A   1      33.772  35.428  32.062  1.00  0.00     0.222 C 
BRANCH  16  17
ATOM     17  C   UNL A   1      33.337  35.991  30.701  1.00  0.00     0.287 C 
BRANCH  17  18
ATOM     18  N   UNL A   1      33.410  37.449  30.580  1.00  0.00    -0.356 N 
ATOM     19  H   UNL A   1      33.544  37.861  31.502  1.00  0.00     0.344 HD
ATOM     20  H   UNL A   1      32.543  37.800  30.173  1.00  0.00     0.344 HD
ATOM     21  H   UNL A   1      34.194  37.701  29.978  1.00  0.00     0.344 HD
ENDBRANCH  17  18
ENDBRANCH  16  17
ENDBRANCH  15  16
ENDBRANCH  14  15
ENDBRANCH  11  14
ENDBRANCH   5  10
ENDBRANCH   1   5
BRANCH   3  22
ATOM     22  C   UNL A   1      37.349  32.911  30.108  1.00  0.00     0.116 C 
BRANCH  22  23
ATOM     23  C   UNL A   1      37.003  33.605  28.792  1.00  0.00     0.023 C 
BRANCH  23  24
ATOM     24  C   UNL A   1      35.561  33.380  28.318  1.00  0.00     0.023 C 
BRANCH  24  25
ATOM     25  C   UNL A   1      34.715  32.485  29.217  1.00  0.00     0.116 C 
BRANCH  25  26
ATOM     26  N   UNL A   1      34.055  31.419  28.483  1.00  0.00    -0.352 N 
ATOM     27  C   UNL A   1      34.579  30.263  27.962  1.00  0.00     0.251 C 
ATOM     28  H   UNL A   1      33.090  31.544  28.339  1.00  0.00     0.163 HD
ATOM     29  O   UNL A   1      33.894  29.554  27.235  1.00  0.00    -0.269 OA
BRANCH  27  30
ATOM     30  C   UNL A   1      35.977  29.887  28.256  1.00  0.00     0.039 A 
ATOM     31  C   UNL A   1      36.945  30.097  27.271  1.00  0.00     0.014 A 
ATOM     32  C   UNL A   1      36.334  29.316  29.481  1.00  0.00     0.014 A 
ATOM     33  C   UNL A   1      38.277  29.769  27.530  1.00  0.00     0.010 A 
ATOM     34  C   UNL A   1      37.673  29.072  29.768  1.00  0.00     0.010 A 
ATOM     35  C   UNL A   1      38.656  29.275  28.789  1.00  0.00    -0.014 A 
BRANCH  35  36
ATOM     36  C   UNL A   1      40.074  28.940  29.077  1.00  0.00     0.031 A 
ATOM     37  C   UNL A   1      40.936  29.898  29.852  1.00  0.00     0.074 A 
ATOM     38  C   UNL A   1      40.594  27.787  28.614  1.00  0.00     0.049 A 
ATOM     39  N   UNL A   1      42.193  29.785  30.203  1.00  0.00    -0.248 NA
ATOM     40  C   UNL A   1      40.314  31.166  30.264  1.00  0.00     0.031 C 
ATOM     41  C   UNL A   1      39.877  26.804  27.799  1.00  0.00     0.029 A 
ATOM     42  N   UNL A   1      41.847  27.247  28.759  1.00  0.00    -0.354 N 
ATOM     43  C   UNL A   1      42.510  30.966  30.860  1.00  0.00     0.074 A 
ATOM     44  C   UNL A   1      41.337  31.809  30.803  1.00  0.00     0.031 C 
ATOM     45  C   UNL A   1      40.690  25.767  27.545  1.00  0.00     0.029 A 
ATOM     46  C   UNL A   1      41.994  26.026  28.149  1.00  0.00     0.049 A 
ATOM     47  H   UNL A   1      42.571  27.693  29.256  1.00  0.00     0.167 HD
ATOM     48  C   UNL A   1      43.665  31.306  31.481  1.00  0.00     0.037 A 
ATOM     49  C   UNL A   1      43.061  25.207  28.087  1.00  0.00     0.037 A 
ATOM     50  C   UNL A   1      44.822  30.452  31.556  1.00  0.00     0.049 A 
ATOM     51  C   UNL A   1      44.329  25.601  28.795  1.00  0.00     0.074 A 
ATOM     52  C   UNL A   1      46.017  30.673  32.215  1.00  0.00     0.029 A 
ATOM     53  N   UNL A   1      44.928  29.212  30.941  1.00  0.00    -0.354 N 
ATOM     54  N   UNL A   1      44.591  26.683  29.486  1.00  0.00    -0.248 NA
ATOM     55  C   UNL A   1      45.447  24.649  28.726  1.00  0.00     0.031 C 
ATOM     56  C   UNL A   1      46.869  29.594  31.954  1.00  0.00     0.029 A 
ATOM     57  C   UNL A   1      46.180  28.668  31.186  1.00  0.00     0.049 A 
ATOM     58  H   UNL A   1      44.219  28.782  30.410  1.00  0.00     0.167 HD
ATOM     59  C   UNL A   1      45.887  26.531  29.961  1.00  0.00     0.074 A 
ATOM     60  C   UNL A   1      46.351  25.242  29.492  1.00  0.00     0.031 C 
ATOM     61  C   UNL A   1      46.627  27.381  30.715  1.00  0.00     0.037 A 
BRANCH  48  62
ATOM     62  C   UNL A   1      43.733  32.661  32.128  1.00  0.00     0.064 A 
ATOM     63  C   UNL A   1      44.256  33.777  31.454  1.00  0.00     0.173 A 
ATOM     64  C   UNL A   1      43.246  32.853  33.429  1.00  0.00     0.173 A 
ATOM     65  F   UNL A   1      44.747  33.648  30.211  1.00  0.00    -0.203 F 
ATOM     66  C   UNL A   1      44.325  35.022  32.073  1.00  0.00     0.198 A 
ATOM     67  C   UNL A   1      43.283  34.109  34.032  1.00  0.00     0.198 A 
ATOM     68  F   UNL A   1      42.730  31.825  34.118  1.00  0.00    -0.203 F 
ATOM     69  F   UNL A   1      44.885  36.058  31.432  1.00  0.00    -0.200 F 
ATOM     70  C   UNL A   1      43.832  35.189  33.358  1.00  0.00     0.200 A 
ATOM     71  F   UNL A   1      42.792  34.271  35.268  1.00  0.00    -0.200 F 
ATOM     72  F   UNL A   1      43.892  36.390  33.951  1.00  0.00    -0.200 F 
ENDBRANCH  48  62
BRANCH  49  73
ATOM     73  C   UNL A   1      42.963  23.916  27.354  1.00  0.00     0.064 A 
ATOM     74  C   UNL A   1      42.503  22.756  27.993  1.00  0.00     0.173 A 
ATOM     75  C   UNL A   1      43.326  23.817  26.004  1.00  0.00     0.173 A 
ATOM     76  F   UNL A   1      42.161  22.796  29.289  1.00  0.00    -0.203 F 
ATOM     77  C   UNL A   1      42.433  21.541  27.315  1.00  0.00     0.198 A 
ATOM     78  C   UNL A   1      43.226  22.608  25.318  1.00  0.00     0.198 A 
ATOM     79  F   UNL A   1      43.765  24.898  25.344  1.00  0.00    -0.203 F 
ATOM     80  F   UNL A   1      42.037  20.437  27.963  1.00  0.00    -0.200 F 
ATOM     81  C   UNL A   1      42.789  21.469  25.977  1.00  0.00     0.200 A 
ATOM     82  F   UNL A   1      43.554  22.546  24.020  1.00  0.00    -0.200 F 
ATOM     83  F   UNL A   1      42.716  20.301  25.324  1.00  0.00    -0.200 F 
ENDBRANCH  49  73
BRANCH  61  84
ATOM     84  C   UNL A   1      48.001  26.926  31.116  1.00  0.00     0.064 A 
ATOM     85  C   UNL A   1      49.141  27.267  30.374  1.00  0.00     0.173 A 
ATOM     86  C   UNL A   1      48.181  26.155  32.277  1.00  0.00     0.173 A 
ATOM     87  F   UNL A   1      49.024  27.990  29.250  1.00  0.00    -0.203 F 
ATOM     88  C   UNL A   1      50.404  26.822  30.756  1.00  0.00     0.198 A 
ATOM     89  C   UNL A   1      49.450  25.743  32.676  1.00  0.00     0.198 A 
ATOM     90  F   UNL A   1      47.126  25.809  33.029  1.00  0.00    -0.203 F 
ATOM     91  F   UNL A   1      51.471  27.107  29.996  1.00  0.00    -0.200 F 
ATOM     92  C   UNL A   1      50.558  26.067  31.909  1.00  0.00     0.200 A 
ATOM     93  F   UNL A   1      49.597  25.029  33.799  1.00  0.00    -0.200 F 
ATOM     94  F   UNL A   1      51.775  25.643  32.277  1.00  0.00    -0.200 F 
ENDBRANCH  61  84
ENDBRANCH  35  36
ENDBRANCH  27  30
ENDBRANCH  25  26
ENDBRANCH  24  25
ENDBRANCH  23  24
ENDBRANCH  22  23
ENDBRANCH   3  22
TORSDOF 17
ENDMDL
MODEL 3
REMARK VINA RESULT:     -10.6      5.371     11.121
REMARK SMILES [NH3+]CCOCC(=O)N[C@]1(C(=O)NCCCCNC(=O)c2ccc(-c3c4nc(c(-c5c(F)c(F)c(F)c(F)c5F)c5ccc([nH]5)c(-c5c(F)c(F)c(F)c(F)c5F)c5nc(c(-c6c(F)c(F)c(F)c(F)c6F)c6ccc3[nH]6)C=C5)C=C4)cc2)CCOC1
REMARK SMILES IDX 10 1 11 2 12 3 9 5 83 6 86 7 84 8 85 9 8 10 6 11 7 12 5 14
REMARK SMILES IDX 4 15 3 16 2 17 1 18 13 22 14 23 15 24 16 25 17 26 18 27
REMARK SMILES IDX 19 29 20 30 21 31 82 32 22 33 81 34 23 35 24 36 25 37 75 38
REMARK SMILES IDX 26 39 80 40 74 41 76 42 27 43 79 44 73 45 72 46 28 48 60 49
REMARK SMILES IDX 40 50 59 51 41 52 44 53 58 54 77 55 42 56 43 57 57 59 78 60
REMARK SMILES IDX 45 61 29 62 30 63 38 64 31 65 32 66 36 67 39 68 33 69 34 70
REMARK SMILES IDX 37 71 35 72 61 73 62 74 70 75 63 76 64 77 68 78 71 79 65 80
REMARK SMILES IDX 66 81 69 82 67 83 46 84 47 85 55 86 48 87 49 88 53 89 56 90
REMARK SMILES IDX 50 91 51 92 54 93 52 94
REMARK H PARENT 12 4 8 13 1 19 1 20 1 21 17 28 76 47 44 58
REMARK Flexibility Score: inf
ROOT
ATOM      1  C   UNL A   1      34.237  21.836  26.782  1.00  0.00     0.248 C 
ATOM      2  O   UNL A   1      34.035  21.854  28.005  1.00  0.00    -0.272 OA
ATOM      3  N   UNL A   1      35.544  21.839  26.427  1.00  0.00    -0.354 N 
ATOM      4  H   UNL A   1      36.155  22.066  27.165  1.00  0.00     0.163 HD
ENDROOT
BRANCH   1   5
ATOM      5  C   UNL A   1      33.058  21.632  25.791  1.00  0.00     0.144 C 
ATOM      6  C   UNL A   1      33.125  22.152  24.357  1.00  0.00     0.069 C 
ATOM      7  C   UNL A   1      32.978  20.097  25.610  1.00  0.00     0.198 C 
ATOM      8  C   UNL A   1      32.753  20.963  23.497  1.00  0.00     0.163 C 
ATOM      9  O   UNL A   1      33.150  19.804  24.216  1.00  0.00    -0.378 OA
BRANCH   5  10
ATOM     10  N   UNL A   1      31.841  22.171  26.447  1.00  0.00    -0.338 N 
ATOM     11  C   UNL A   1      31.464  23.473  26.631  1.00  0.00     0.246 C 
ATOM     12  O   UNL A   1      30.421  23.699  27.250  1.00  0.00    -0.272 OA
ATOM     13  H   UNL A   1      31.216  21.496  26.800  1.00  0.00     0.164 HD
BRANCH  11  14
ATOM     14  C   UNL A   1      32.319  24.639  26.090  1.00  0.00     0.260 C 
BRANCH  14  15
ATOM     15  O   UNL A   1      31.902  25.968  26.330  1.00  0.00    -0.366 OA
BRANCH  15  16
ATOM     16  C   UNL A   1      31.400  26.656  25.179  1.00  0.00     0.222 C 
BRANCH  16  17
ATOM     17  C   UNL A   1      29.971  26.254  24.783  1.00  0.00     0.287 C 
BRANCH  17  18
ATOM     18  N   UNL A   1      29.882  25.205  23.766  1.00  0.00    -0.356 N 
ATOM     19  H   UNL A   1      29.985  24.292  24.207  1.00  0.00     0.344 HD
ATOM     20  H   UNL A   1      30.623  25.335  23.077  1.00  0.00     0.344 HD
ATOM     21  H   UNL A   1      28.974  25.257  23.302  1.00  0.00     0.344 HD
ENDBRANCH  17  18
ENDBRANCH  16  17
ENDBRANCH  15  16
ENDBRANCH  14  15
ENDBRANCH  11  14
ENDBRANCH   5  10
ENDBRANCH   1   5
BRANCH   3  22
ATOM     22  C   UNL A   1      36.217  21.572  25.175  1.00  0.00     0.116 C 
BRANCH  22  23
ATOM     23  C   UNL A   1      36.481  20.078  25.002  1.00  0.00     0.023 C 
BRANCH  23  24
ATOM     24  C   UNL A   1      37.941  19.726  24.688  1.00  0.00     0.023 C 
BRANCH  24  25
ATOM     25  C   UNL A   1      38.952  20.145  25.751  1.00  0.00     0.116 C 
BRANCH  25  26
ATOM     26  N   UNL A   1      40.050  19.203  25.880  1.00  0.00    -0.352 N 
ATOM     27  C   UNL A   1      41.380  19.439  26.122  1.00  0.00     0.251 C 
ATOM     28  H   UNL A   1      39.804  18.255  25.781  1.00  0.00     0.163 HD
ATOM     29  O   UNL A   1      42.188  18.522  26.043  1.00  0.00    -0.269 OA
BRANCH  27  30
ATOM     30  C   UNL A   1      41.840  20.803  26.451  1.00  0.00     0.039 A 
ATOM     31  C   UNL A   1      42.010  21.720  25.410  1.00  0.00     0.014 A 
ATOM     32  C   UNL A   1      42.121  21.176  27.769  1.00  0.00     0.014 A 
ATOM     33  C   UNL A   1      42.425  23.021  25.697  1.00  0.00     0.010 A 
ATOM     34  C   UNL A   1      42.449  22.497  28.060  1.00  0.00     0.010 A 
ATOM     35  C   UNL A   1      42.626  23.428  27.026  1.00  0.00    -0.014 A 
BRANCH  35  36
ATOM     36  C   UNL A   1      43.051  24.816  27.339  1.00  0.00     0.031 A 
ATOM     37  C   UNL A   1      44.455  25.263  27.040  1.00  0.00     0.074 A 
ATOM     38  C   UNL A   1      42.181  25.664  27.921  1.00  0.00     0.049 A 
ATOM     39  N   UNL A   1      45.013  26.431  27.240  1.00  0.00    -0.248 NA
ATOM     40  C   UNL A   1      45.364  24.258  26.467  1.00  0.00     0.031 C 
ATOM     41  C   UNL A   1      40.811  25.330  28.315  1.00  0.00     0.029 A 
ATOM     42  N   UNL A   1      42.320  26.979  28.285  1.00  0.00    -0.354 N 
ATOM     43  C   UNL A   1      46.333  26.294  26.832  1.00  0.00     0.074 A 
ATOM     44  C   UNL A   1      46.512  24.916  26.435  1.00  0.00     0.031 C 
ATOM     45  C   UNL A   1      40.226  26.420  28.835  1.00  0.00     0.029 A 
ATOM     46  C   UNL A   1      41.188  27.519  28.842  1.00  0.00     0.049 A 
ATOM     47  H   UNL A   1      43.154  27.488  28.158  1.00  0.00     0.167 HD
ATOM     48  C   UNL A   1      47.302  27.240  26.766  1.00  0.00     0.037 A 
ATOM     49  C   UNL A   1      40.951  28.761  29.305  1.00  0.00     0.037 A 
ATOM     50  C   UNL A   1      47.111  28.618  27.140  1.00  0.00     0.049 A 
ATOM     51  C   UNL A   1      42.039  29.797  29.209  1.00  0.00     0.074 A 
ATOM     52  C   UNL A   1      48.006  29.668  27.050  1.00  0.00     0.029 A 
ATOM     53  N   UNL A   1      45.942  29.133  27.683  1.00  0.00    -0.354 N 
ATOM     54  N   UNL A   1      43.258  29.679  28.743  1.00  0.00    -0.248 NA
ATOM     55  C   UNL A   1      41.711  31.145  29.692  1.00  0.00     0.031 C 
ATOM     56  C   UNL A   1      47.399  30.807  27.591  1.00  0.00     0.029 A 
ATOM     57  C   UNL A   1      46.102  30.482  27.957  1.00  0.00     0.049 A 
ATOM     58  H   UNL A   1      45.121  28.616  27.849  1.00  0.00     0.167 HD
ATOM     59  C   UNL A   1      43.832  30.939  28.845  1.00  0.00     0.074 A 
ATOM     60  C   UNL A   1      42.819  31.811  29.402  1.00  0.00     0.031 C 
ATOM     61  C   UNL A   1      45.084  31.339  28.509  1.00  0.00     0.037 A 
BRANCH  48  62
ATOM     62  C   UNL A   1      48.656  26.814  26.272  1.00  0.00     0.064 A 
ATOM     63  C   UNL A   1      49.053  27.010  24.939  1.00  0.00     0.173 A 
ATOM     64  C   UNL A   1      49.579  26.224  27.149  1.00  0.00     0.173 A 
ATOM     65  F   UNL A   1      48.205  27.559  24.056  1.00  0.00    -0.203 F 
ATOM     66  C   UNL A   1      50.306  26.596  24.495  1.00  0.00     0.198 A 
ATOM     67  C   UNL A   1      50.845  25.844  26.709  1.00  0.00     0.198 A 
ATOM     68  F   UNL A   1      49.257  26.018  28.434  1.00  0.00    -0.203 F 
ATOM     69  F   UNL A   1      50.638  26.737  23.204  1.00  0.00    -0.200 F 
ATOM     70  C   UNL A   1      51.204  26.020  25.381  1.00  0.00     0.200 A 
ATOM     71  F   UNL A   1      51.717  25.302  27.571  1.00  0.00    -0.200 F 
ATOM     72  F   UNL A   1      52.412  25.628  24.954  1.00  0.00    -0.200 F 
ENDBRANCH  48  62
BRANCH  49  73
ATOM     73  C   UNL A   1      39.618  29.102  29.868  1.00  0.00     0.064 A 
ATOM     74  C   UNL A   1      38.582  29.563  29.043  1.00  0.00     0.173 A 
ATOM     75  C   UNL A   1      39.352  28.974  31.239  1.00  0.00     0.173 A 
ATOM     76  F   UNL A   1      38.793  29.720  27.728  1.00  0.00    -0.203 F 
ATOM     77  C   UNL A   1      37.339  29.905  29.571  1.00  0.00     0.198 A 
ATOM     78  C   UNL A   1      38.099  29.287  31.761  1.00  0.00     0.198 A 
ATOM     79  F   UNL A   1      40.306  28.529  32.070  1.00  0.00    -0.203 F 
ATOM     80  F   UNL A   1      36.383  30.391  28.768  1.00  0.00    -0.200 F 
ATOM     81  C   UNL A   1      37.096  29.761  30.930  1.00  0.00     0.200 A 
ATOM     82  F   UNL A   1      37.863  29.129  33.071  1.00  0.00    -0.200 F 
ATOM     83  F   UNL A   1      35.900  30.086  31.436  1.00  0.00    -0.200 F 
ENDBRANCH  49  73
BRANCH  61  84
ATOM     84  C   UNL A   1      45.414  32.792  28.696  1.00  0.00     0.064 A 
ATOM     85  C   UNL A   1      45.151  33.746  27.702  1.00  0.00     0.173 A 
ATOM     86  C   UNL A   1      45.983  33.240  29.900  1.00  0.00     0.173 A 
ATOM     87  F   UNL A   1      44.620  33.370  26.529  1.00  0.00    -0.203 F 
ATOM     88  C   UNL A   1      45.477  35.087  27.891  1.00  0.00     0.198 A 
ATOM     89  C   UNL A   1      46.275  34.587  30.098  1.00  0.00     0.198 A 
ATOM     90  F   UNL A   1      46.247  32.372  30.887  1.00  0.00    -0.203 F 
ATOM     91  F   UNL A   1      45.274  35.969  26.902  1.00  0.00    -0.200 F 
ATOM     92  C   UNL A   1      46.033  35.506  29.090  1.00  0.00     0.200 A 
ATOM     93  F   UNL A   1      46.795  34.992  31.265  1.00  0.00    -0.200 F 
ATOM     94  F   UNL A   1      46.344  36.798  29.271  1.00  0.00    -0.200 F 
ENDBRANCH  61  84
ENDBRANCH  35  36
ENDBRANCH  27  30
ENDBRANCH  25  26
ENDBRANCH  24  25
ENDBRANCH  23  24
ENDBRANCH  22  23
ENDBRANCH   3  22
TORSDOF 17
ENDMDL
