MODEL 1
REMARK VINA RESULT:     -13.5      0.000      0.000
REMARK SMILES CC1(C)[C@H](C(=O)NCCCCNC(=O)c2ccc(-c3c4nc(c(-c5c(F)c(F)c(F)c(F)c5F)c5ccc([nH]5)c(-c5c(F)c(F)c(F)c(F)c5F)c5nc(c(-c6c(F)c(F)c(F)c(F)c6F)c6ccc3[nH]6)C=C5)C=C4)cc2)[C@@H]1C(=O)N1CC[NH+](Cc2ccccc2)CC1
REMARK SMILES IDX 9 1 8 2 7 3 5 4 6 5 4 7 1 8 2 9 3 10 78 11 79 12 80 13 81 14
REMARK SMILES IDX 82 15 93 16 83 17 92 18 84 19 85 21 86 22 87 23 91 24 88 25
REMARK SMILES IDX 90 26 89 27 10 28 11 29 12 30 13 31 14 33 15 34 16 35 77 36
REMARK SMILES IDX 17 37 76 38 18 39 19 40 20 41 70 42 21 43 75 44 69 45 71 46
REMARK SMILES IDX 22 47 74 48 68 49 67 50 23 52 55 53 35 54 54 55 36 56 39 57
REMARK SMILES IDX 53 58 72 59 37 60 38 61 52 63 73 64 40 65 24 66 25 67 33 68
REMARK SMILES IDX 26 69 27 70 31 71 34 72 28 73 29 74 32 75 30 76 56 77 57 78
REMARK SMILES IDX 65 79 58 80 59 81 63 82 66 83 60 84 61 85 64 86 62 87 41 88
REMARK SMILES IDX 42 89 50 90 43 91 44 92 48 93 51 94 45 95 46 96 49 97 47 98
REMARK H PARENT 7 6 84 20 12 32 71 51 39 62
REMARK Flexibility Score: inf
ROOT
ATOM      1  C   UNL A   1      32.297  27.771  27.113  1.00  0.00     0.023 C 
ENDROOT
BRANCH   1   2
ATOM      2  C   UNL A   1      33.145  26.922  26.176  1.00  0.00     0.116 C 
BRANCH   2   3
ATOM      3  N   UNL A   1      33.059  25.500  26.408  1.00  0.00    -0.356 N 
ATOM      4  C   UNL A   1      33.872  24.463  26.036  1.00  0.00     0.224 C 
ATOM      5  O   UNL A   1      33.879  23.500  26.807  1.00  0.00    -0.275 OA
ATOM      6  H   UNL A   1      32.272  25.226  26.933  1.00  0.00     0.163 HD
BRANCH   4   7
ATOM      7  C   UNL A   1      34.696  24.319  24.803  1.00  0.00     0.098 C 
ATOM      8  C   UNL A   1      36.412  23.046  23.370  1.00  0.00     0.013 C 
ATOM      9  C   UNL A   1      34.983  23.156  23.871  1.00  0.00    -0.011 C 
ATOM     10  C   UNL A   1      34.385  21.788  24.086  1.00  0.00     0.013 C 
ATOM     11  C   UNL A   1      34.171  24.387  23.391  1.00  0.00     0.098 C 
BRANCH  11  12
ATOM     12  C   UNL A   1      32.722  24.340  23.083  1.00  0.00     0.227 C 
ATOM     13  O   UNL A   1      32.175  23.261  22.919  1.00  0.00    -0.275 OA
ATOM     14  N   UNL A   1      32.035  25.545  23.048  1.00  0.00    -0.331 N 
ATOM     15  C   UNL A   1      30.592  25.495  23.183  1.00  0.00     0.181 C 
ATOM     16  C   UNL A   1      32.549  26.783  22.457  1.00  0.00     0.181 C 
ATOM     17  C   UNL A   1      30.093  26.723  23.966  1.00  0.00     0.284 C 
ATOM     18  C   UNL A   1      31.846  28.076  22.960  1.00  0.00     0.284 C 
ATOM     19  N   UNL A   1      30.428  28.005  23.349  1.00  0.00    -0.328 N 
ATOM     20  H   UNL A   1      30.345  28.717  24.074  1.00  0.00     0.348 HD
BRANCH  19  21
ATOM     21  C   UNL A   1      29.433  28.522  22.405  1.00  0.00     0.299 C 
BRANCH  21  22
ATOM     22  C   UNL A   1      29.158  30.007  22.449  1.00  0.00     0.006 A 
ATOM     23  C   UNL A   1      28.705  30.680  21.308  1.00  0.00     0.009 A 
ATOM     24  C   UNL A   1      29.293  30.726  23.651  1.00  0.00     0.009 A 
ATOM     25  C   UNL A   1      28.341  32.026  21.383  1.00  0.00     0.001 A 
ATOM     26  C   UNL A   1      28.895  32.061  23.732  1.00  0.00     0.001 A 
ATOM     27  C   UNL A   1      28.414  32.708  22.597  1.00  0.00     0.000 A 
ENDBRANCH  21  22
ENDBRANCH  19  21
ENDBRANCH  11  12
ENDBRANCH   4   7
ENDBRANCH   2   3
ENDBRANCH   1   2
BRANCH   1  28
ATOM     28  C   UNL A   1      31.754  29.066  26.499  1.00  0.00     0.023 C 
BRANCH  28  29
ATOM     29  C   UNL A   1      32.780  30.140  26.122  1.00  0.00     0.116 C 
BRANCH  29  30
ATOM     30  N   UNL A   1      32.522  31.456  26.691  1.00  0.00    -0.352 N 
ATOM     31  C   UNL A   1      33.350  32.230  27.474  1.00  0.00     0.251 C 
ATOM     32  H   UNL A   1      31.639  31.844  26.490  1.00  0.00     0.163 HD
ATOM     33  O   UNL A   1      32.991  33.311  27.903  1.00  0.00    -0.269 OA
BRANCH  31  34
ATOM     34  C   UNL A   1      34.683  31.700  27.835  1.00  0.00     0.039 A 
ATOM     35  C   UNL A   1      35.758  32.591  27.911  1.00  0.00     0.014 A 
ATOM     36  C   UNL A   1      34.845  30.355  28.179  1.00  0.00     0.014 A 
ATOM     37  C   UNL A   1      36.974  32.157  28.441  1.00  0.00     0.010 A 
ATOM     38  C   UNL A   1      36.047  29.933  28.742  1.00  0.00     0.010 A 
ATOM     39  C   UNL A   1      37.105  30.841  28.916  1.00  0.00    -0.014 A 
BRANCH  39  40
ATOM     40  C   UNL A   1      38.292  30.428  29.706  1.00  0.00     0.031 A 
ATOM     41  C   UNL A   1      39.263  29.422  29.172  1.00  0.00     0.074 A 
ATOM     42  C   UNL A   1      38.433  30.904  30.959  1.00  0.00     0.049 A 
ATOM     43  N   UNL A   1      40.295  28.877  29.766  1.00  0.00    -0.248 NA
ATOM     44  C   UNL A   1      39.039  28.953  27.797  1.00  0.00     0.031 C 
ATOM     45  C   UNL A   1      37.533  31.863  31.603  1.00  0.00     0.029 A 
ATOM     46  N   UNL A   1      39.373  30.632  31.922  1.00  0.00    -0.354 N 
ATOM     47  C   UNL A   1      40.843  28.000  28.841  1.00  0.00     0.074 A 
ATOM     48  C   UNL A   1      40.007  28.058  27.658  1.00  0.00     0.031 C 
ATOM     49  C   UNL A   1      37.966  32.101  32.852  1.00  0.00     0.029 A 
ATOM     50  C   UNL A   1      39.148  31.286  33.109  1.00  0.00     0.049 A 
ATOM     51  H   UNL A   1      40.134  30.026  31.776  1.00  0.00     0.167 HD
ATOM     52  C   UNL A   1      41.949  27.229  28.965  1.00  0.00     0.037 A 
ATOM     53  C   UNL A   1      39.808  31.220  34.281  1.00  0.00     0.037 A 
ATOM     54  C   UNL A   1      42.784  27.179  30.138  1.00  0.00     0.049 A 
ATOM     55  C   UNL A   1      41.001  30.315  34.407  1.00  0.00     0.074 A 
ATOM     56  C   UNL A   1      43.968  26.488  30.326  1.00  0.00     0.029 A 
ATOM     57  N   UNL A   1      42.513  27.839  31.328  1.00  0.00    -0.354 N 
ATOM     58  N   UNL A   1      41.551  29.545  33.503  1.00  0.00    -0.248 NA
ATOM     59  C   UNL A   1      41.660  30.268  35.720  1.00  0.00     0.031 C 
ATOM     60  C   UNL A   1      44.391  26.693  31.644  1.00  0.00     0.029 A 
ATOM     61  C   UNL A   1      43.489  27.541  32.266  1.00  0.00     0.049 A 
ATOM     62  H   UNL A   1      41.741  28.429  31.484  1.00  0.00     0.167 HD
ATOM     63  C   UNL A   1      42.627  28.931  34.128  1.00  0.00     0.074 A 
ATOM     64  C   UNL A   1      42.662  29.430  35.487  1.00  0.00     0.031 C 
ATOM     65  C   UNL A   1      43.507  28.036  33.619  1.00  0.00     0.037 A 
BRANCH  52  66
ATOM     66  C   UNL A   1      42.327  26.370  27.797  1.00  0.00     0.064 A 
ATOM     67  C   UNL A   1      43.286  26.787  26.862  1.00  0.00     0.173 A 
ATOM     68  C   UNL A   1      41.761  25.096  27.635  1.00  0.00     0.173 A 
ATOM     69  F   UNL A   1      43.850  28.000  26.970  1.00  0.00    -0.203 F 
ATOM     70  C   UNL A   1      43.647  25.970  25.795  1.00  0.00     0.198 A 
ATOM     71  C   UNL A   1      42.142  24.273  26.580  1.00  0.00     0.198 A 
ATOM     72  F   UNL A   1      40.844  24.649  28.506  1.00  0.00    -0.203 F 
ATOM     73  F   UNL A   1      44.539  26.404  24.893  1.00  0.00    -0.200 F 
ATOM     74  C   UNL A   1      43.080  24.712  25.657  1.00  0.00     0.200 A 
ATOM     75  F   UNL A   1      41.600  23.053  26.454  1.00  0.00    -0.200 F 
ATOM     76  F   UNL A   1      43.433  23.924  24.633  1.00  0.00    -0.200 F 
ENDBRANCH  52  66
BRANCH  53  77
ATOM     77  C   UNL A   1      39.350  32.039  35.431  1.00  0.00     0.064 A 
ATOM     78  C   UNL A   1      38.489  31.501  36.395  1.00  0.00     0.173 A 
ATOM     79  C   UNL A   1      39.769  33.367  35.593  1.00  0.00     0.173 A 
ATOM     80  F   UNL A   1      38.045  30.242  36.268  1.00  0.00    -0.203 F 
ATOM     81  C   UNL A   1      38.054  32.266  37.476  1.00  0.00     0.198 A 
ATOM     82  C   UNL A   1      39.352  34.124  36.686  1.00  0.00     0.198 A 
ATOM     83  F   UNL A   1      40.596  33.926  34.696  1.00  0.00    -0.203 F 
ATOM     84  F   UNL A   1      37.204  31.739  38.367  1.00  0.00    -0.200 F 
ATOM     85  C   UNL A   1      38.491  33.574  37.623  1.00  0.00     0.200 A 
ATOM     86  F   UNL A   1      39.785  35.383  36.831  1.00  0.00    -0.200 F 
ATOM     87  F   UNL A   1      38.078  34.306  38.667  1.00  0.00    -0.200 F 
ENDBRANCH  53  77
BRANCH  65  88
ATOM     88  C   UNL A   1      44.586  27.538  34.533  1.00  0.00     0.064 A 
ATOM     89  C   UNL A   1      44.420  26.368  35.287  1.00  0.00     0.173 A 
ATOM     90  C   UNL A   1      45.812  28.213  34.623  1.00  0.00     0.173 A 
ATOM     91  F   UNL A   1      43.258  25.700  35.249  1.00  0.00    -0.203 F 
ATOM     92  C   UNL A   1      45.442  25.897  36.108  1.00  0.00     0.198 A 
ATOM     93  C   UNL A   1      46.839  27.727  35.427  1.00  0.00     0.198 A 
ATOM     94  F   UNL A   1      46.019  29.336  33.920  1.00  0.00    -0.203 F 
ATOM     95  F   UNL A   1      45.250  24.794  36.846  1.00  0.00    -0.200 F 
ATOM     96  C   UNL A   1      46.652  26.571  36.171  1.00  0.00     0.200 A 
ATOM     97  F   UNL A   1      48.011  28.375  35.480  1.00  0.00    -0.200 F 
ATOM     98  F   UNL A   1      47.636  26.112  36.955  1.00  0.00    -0.200 F 
ENDBRANCH  65  88
ENDBRANCH  39  40
ENDBRANCH  31  34
ENDBRANCH  29  30
ENDBRANCH  28  29
ENDBRANCH   1  28
TORSDOF 14
ENDMDL
MODEL 2
REMARK VINA RESULT:     -13.5      0.269      1.133
REMARK SMILES CC1(C)[C@H](C(=O)NCCCCNC(=O)c2ccc(-c3c4nc(c(-c5c(F)c(F)c(F)c(F)c5F)c5ccc([nH]5)c(-c5c(F)c(F)c(F)c(F)c5F)c5nc(c(-c6c(F)c(F)c(F)c(F)c6F)c6ccc3[nH]6)C=C5)C=C4)cc2)[C@@H]1C(=O)N1CC[NH+](Cc2ccccc2)CC1
REMARK SMILES IDX 9 1 8 2 7 3 5 4 6 5 4 7 1 8 2 9 3 10 78 11 79 12 80 13 81 14
REMARK SMILES IDX 82 15 93 16 83 17 92 18 84 19 85 21 86 22 87 23 91 24 88 25
REMARK SMILES IDX 90 26 89 27 10 28 11 29 12 30 13 31 14 33 15 34 16 35 77 36
REMARK SMILES IDX 17 37 76 38 18 39 19 40 20 41 70 42 21 43 75 44 69 45 71 46
REMARK SMILES IDX 22 47 74 48 68 49 67 50 23 52 55 53 35 54 54 55 36 56 39 57
REMARK SMILES IDX 53 58 72 59 37 60 38 61 52 63 73 64 40 65 24 66 25 67 33 68
REMARK SMILES IDX 26 69 27 70 31 71 34 72 28 73 29 74 32 75 30 76 56 77 57 78
REMARK SMILES IDX 65 79 58 80 59 81 63 82 66 83 60 84 61 85 64 86 62 87 41 88
REMARK SMILES IDX 42 89 50 90 43 91 44 92 48 93 51 94 45 95 46 96 49 97 47 98
REMARK H PARENT 7 6 84 20 12 32 71 51 39 62
REMARK Flexibility Score: inf
ROOT
ATOM      1  C   UNL A   1      32.385  27.929  27.174  1.00  0.00     0.023 C 
ENDROOT
BRANCH   1   2
ATOM      2  C   UNL A   1      33.064  27.040  26.143  1.00  0.00     0.116 C 
BRANCH   2   3
ATOM      3  N   UNL A   1      33.016  25.628  26.441  1.00  0.00    -0.356 N 
ATOM      4  C   UNL A   1      33.797  24.581  26.031  1.00  0.00     0.224 C 
ATOM      5  O   UNL A   1      33.890  23.650  26.836  1.00  0.00    -0.275 OA
ATOM      6  H   UNL A   1      32.289  25.372  27.053  1.00  0.00     0.163 HD
BRANCH   4   7
ATOM      7  C   UNL A   1      34.494  24.390  24.727  1.00  0.00     0.098 C 
ATOM      8  C   UNL A   1      36.072  23.071  23.184  1.00  0.00     0.013 C 
ATOM      9  C   UNL A   1      34.700  23.189  23.822  1.00  0.00    -0.011 C 
ATOM     10  C   UNL A   1      34.145  21.827  24.155  1.00  0.00     0.013 C 
ATOM     11  C   UNL A   1      33.827  24.391  23.375  1.00  0.00     0.098 C 
BRANCH  11  12
ATOM     12  C   UNL A   1      32.355  24.317  23.219  1.00  0.00     0.227 C 
ATOM     13  O   UNL A   1      31.810  23.226  23.146  1.00  0.00    -0.275 OA
ATOM     14  N   UNL A   1      31.651  25.512  23.215  1.00  0.00    -0.331 N 
ATOM     15  C   UNL A   1      30.229  25.450  23.499  1.00  0.00     0.181 C 
ATOM     16  C   UNL A   1      32.083  26.735  22.537  1.00  0.00     0.181 C 
ATOM     17  C   UNL A   1      29.794  26.698  24.289  1.00  0.00     0.284 C 
ATOM     18  C   UNL A   1      31.417  28.037  23.067  1.00  0.00     0.284 C 
ATOM     19  N   UNL A   1      30.046  27.962  23.601  1.00  0.00    -0.328 N 
ATOM     20  H   UNL A   1      30.027  28.697  24.308  1.00  0.00     0.348 HD
BRANCH  19  21
ATOM     21  C   UNL A   1      28.952  28.436  22.748  1.00  0.00     0.299 C 
BRANCH  21  22
ATOM     22  C   UNL A   1      28.845  29.930  22.544  1.00  0.00     0.006 A 
ATOM     23  C   UNL A   1      28.484  30.453  21.298  1.00  0.00     0.009 A 
ATOM     24  C   UNL A   1      29.044  30.816  23.619  1.00  0.00     0.009 A 
ATOM     25  C   UNL A   1      28.270  31.824  21.144  1.00  0.00     0.001 A 
ATOM     26  C   UNL A   1      28.796  32.181  23.472  1.00  0.00     0.001 A 
ATOM     27  C   UNL A   1      28.404  32.683  22.234  1.00  0.00     0.000 A 
ENDBRANCH  21  22
ENDBRANCH  19  21
ENDBRANCH  11  12
ENDBRANCH   4   7
ENDBRANCH   2   3
ENDBRANCH   1   2
BRANCH   1  28
ATOM     28  C   UNL A   1      31.768  29.215  26.612  1.00  0.00     0.023 C 
BRANCH  28  29
ATOM     29  C   UNL A   1      32.737  30.312  26.160  1.00  0.00     0.116 C 
BRANCH  29  30
ATOM     30  N   UNL A   1      32.497  31.621  26.755  1.00  0.00    -0.352 N 
ATOM     31  C   UNL A   1      33.329  32.361  27.566  1.00  0.00     0.251 C 
ATOM     32  H   UNL A   1      31.625  32.030  26.550  1.00  0.00     0.163 HD
ATOM     33  O   UNL A   1      32.986  33.439  28.013  1.00  0.00    -0.269 OA
BRANCH  31  34
ATOM     34  C   UNL A   1      34.647  31.797  27.932  1.00  0.00     0.039 A 
ATOM     35  C   UNL A   1      35.746  32.658  28.001  1.00  0.00     0.014 A 
ATOM     36  C   UNL A   1      34.771  30.451  28.288  1.00  0.00     0.014 A 
ATOM     37  C   UNL A   1      36.949  32.195  28.536  1.00  0.00     0.010 A 
ATOM     38  C   UNL A   1      35.960  30.002  28.856  1.00  0.00     0.010 A 
ATOM     39  C   UNL A   1      37.043  30.881  29.023  1.00  0.00    -0.014 A 
BRANCH  39  40
ATOM     40  C   UNL A   1      38.217  30.442  29.817  1.00  0.00     0.031 A 
ATOM     41  C   UNL A   1      39.192  29.446  29.270  1.00  0.00     0.074 A 
ATOM     42  C   UNL A   1      38.343  30.885  31.085  1.00  0.00     0.049 A 
ATOM     43  N   UNL A   1      40.214  28.882  29.863  1.00  0.00    -0.248 NA
ATOM     44  C   UNL A   1      38.984  29.015  27.881  1.00  0.00     0.031 C 
ATOM     45  C   UNL A   1      37.438  31.829  31.742  1.00  0.00     0.029 A 
ATOM     46  N   UNL A   1      39.269  30.583  32.053  1.00  0.00    -0.354 N 
ATOM     47  C   UNL A   1      40.771  28.027  28.923  1.00  0.00     0.074 A 
ATOM     48  C   UNL A   1      39.951  28.120  27.731  1.00  0.00     0.031 C 
ATOM     49  C   UNL A   1      37.855  32.033  33.002  1.00  0.00     0.029 A 
ATOM     50  C   UNL A   1      39.031  31.206  33.253  1.00  0.00     0.049 A 
ATOM     51  H   UNL A   1      40.030  29.978  31.901  1.00  0.00     0.167 HD
ATOM     52  C   UNL A   1      41.872  27.249  29.042  1.00  0.00     0.037 A 
ATOM     53  C   UNL A   1      39.674  31.106  34.432  1.00  0.00     0.037 A 
ATOM     54  C   UNL A   1      42.691  27.165  30.224  1.00  0.00     0.049 A 
ATOM     55  C   UNL A   1      40.862  30.194  34.550  1.00  0.00     0.074 A 
ATOM     56  C   UNL A   1      43.869  26.464  30.409  1.00  0.00     0.029 A 
ATOM     57  N   UNL A   1      42.406  27.793  31.428  1.00  0.00    -0.354 N 
ATOM     58  N   UNL A   1      41.422  29.445  33.634  1.00  0.00    -0.248 NA
ATOM     59  C   UNL A   1      41.503  30.109  35.870  1.00  0.00     0.031 C 
ATOM     60  C   UNL A   1      44.275  26.632  31.738  1.00  0.00     0.029 A 
ATOM     61  C   UNL A   1      43.369  27.467  32.370  1.00  0.00     0.049 A 
ATOM     62  H   UNL A   1      41.635  28.383  31.588  1.00  0.00     0.167 HD
ATOM     63  C   UNL A   1      42.486  28.811  34.257  1.00  0.00     0.074 A 
ATOM     64  C   UNL A   1      42.504  29.273  35.629  1.00  0.00     0.031 C 
ATOM     65  C   UNL A   1      43.370  27.925  33.736  1.00  0.00     0.037 A 
BRANCH  52  66
ATOM     66  C   UNL A   1      42.263  26.419  27.856  1.00  0.00     0.064 A 
ATOM     67  C   UNL A   1      43.246  26.851  26.954  1.00  0.00     0.173 A 
ATOM     68  C   UNL A   1      41.683  25.159  27.645  1.00  0.00     0.173 A 
ATOM     69  F   UNL A   1      43.824  28.052  27.109  1.00  0.00    -0.203 F 
ATOM     70  C   UNL A   1      43.619  26.060  25.871  1.00  0.00     0.198 A 
ATOM     71  C   UNL A   1      42.075  24.362  26.574  1.00  0.00     0.198 A 
ATOM     72  F   UNL A   1      40.743  24.699  28.484  1.00  0.00    -0.203 F 
ATOM     73  F   UNL A   1      44.535  26.508  25.000  1.00  0.00    -0.200 F 
ATOM     74  C   UNL A   1      43.038  24.815  25.684  1.00  0.00     0.200 A 
ATOM     75  F   UNL A   1      41.520  23.154  26.401  1.00  0.00    -0.200 F 
ATOM     76  F   UNL A   1      43.401  24.053  24.644  1.00  0.00    -0.200 F 
ENDBRANCH  52  66
BRANCH  53  77
ATOM     77  C   UNL A   1      39.204  31.897  35.597  1.00  0.00     0.064 A 
ATOM     78  C   UNL A   1      38.334  31.334  36.540  1.00  0.00     0.173 A 
ATOM     79  C   UNL A   1      39.618  33.222  35.795  1.00  0.00     0.173 A 
ATOM     80  F   UNL A   1      37.895  30.078  36.378  1.00  0.00    -0.203 F 
ATOM     81  C   UNL A   1      37.888  32.072  37.635  1.00  0.00     0.198 A 
ATOM     82  C   UNL A   1      39.190  33.950  36.902  1.00  0.00     0.198 A 
ATOM     83  F   UNL A   1      40.452  33.803  34.920  1.00  0.00    -0.203 F 
ATOM     84  F   UNL A   1      37.031  31.522  38.505  1.00  0.00    -0.200 F 
ATOM     85  C   UNL A   1      38.321  33.377  37.818  1.00  0.00     0.200 A 
ATOM     86  F   UNL A   1      39.619  35.207  37.081  1.00  0.00    -0.200 F 
ATOM     87  F   UNL A   1      37.896  34.082  38.875  1.00  0.00    -0.200 F 
ENDBRANCH  53  77
BRANCH  65  88
ATOM     88  C   UNL A   1      44.434  27.399  34.650  1.00  0.00     0.064 A 
ATOM     89  C   UNL A   1      45.636  28.094  34.846  1.00  0.00     0.173 A 
ATOM     90  C   UNL A   1      44.233  26.212  35.371  1.00  0.00     0.173 A 
ATOM     91  F   UNL A   1      45.882  29.223  34.163  1.00  0.00    -0.203 F 
ATOM     92  C   UNL A   1      46.605  27.613  35.723  1.00  0.00     0.198 A 
ATOM     93  C   UNL A   1      45.194  25.747  36.264  1.00  0.00     0.198 A 
ATOM     94  F   UNL A   1      43.099  25.513  35.219  1.00  0.00    -0.203 F 
ATOM     95  F   UNL A   1      47.761  28.275  35.870  1.00  0.00    -0.200 F 
ATOM     96  C   UNL A   1      46.380  26.445  36.437  1.00  0.00     0.200 A 
ATOM     97  F   UNL A   1      44.972  24.623  36.960  1.00  0.00    -0.200 F 
ATOM     98  F   UNL A   1      47.309  25.988  37.286  1.00  0.00    -0.200 F 
ENDBRANCH  65  88
ENDBRANCH  39  40
ENDBRANCH  31  34
ENDBRANCH  29  30
ENDBRANCH  28  29
ENDBRANCH   1  28
TORSDOF 14
ENDMDL
MODEL 3
REMARK VINA RESULT:     -13.3      2.281      5.400
REMARK SMILES CC1(C)[C@H](C(=O)NCCCCNC(=O)c2ccc(-c3c4nc(c(-c5c(F)c(F)c(F)c(F)c5F)c5ccc([nH]5)c(-c5c(F)c(F)c(F)c(F)c5F)c5nc(c(-c6c(F)c(F)c(F)c(F)c6F)c6ccc3[nH]6)C=C5)C=C4)cc2)[C@@H]1C(=O)N1CC[NH+](Cc2ccccc2)CC1
REMARK SMILES IDX 9 1 8 2 7 3 5 4 6 5 4 7 1 8 2 9 3 10 78 11 79 12 80 13 81 14
REMARK SMILES IDX 82 15 93 16 83 17 92 18 84 19 85 21 86 22 87 23 91 24 88 25
REMARK SMILES IDX 90 26 89 27 10 28 11 29 12 30 13 31 14 33 15 34 16 35 77 36
REMARK SMILES IDX 17 37 76 38 18 39 19 40 20 41 70 42 21 43 75 44 69 45 71 46
REMARK SMILES IDX 22 47 74 48 68 49 67 50 23 52 55 53 35 54 54 55 36 56 39 57
REMARK SMILES IDX 53 58 72 59 37 60 38 61 52 63 73 64 40 65 24 66 25 67 33 68
REMARK SMILES IDX 26 69 27 70 31 71 34 72 28 73 29 74 32 75 30 76 56 77 57 78
REMARK SMILES IDX 65 79 58 80 59 81 63 82 66 83 60 84 61 85 64 86 62 87 41 88
REMARK SMILES IDX 42 89 50 90 43 91 44 92 48 93 51 94 45 95 46 96 49 97 47 98
REMARK H PARENT 7 6 84 20 12 32 71 51 39 62
REMARK Flexibility Score: inf
ROOT
ATOM      1  C   UNL A   1      32.443  29.714  27.249  1.00  0.00     0.023 C 
ENDROOT
BRANCH   1   2
ATOM      2  C   UNL A   1      33.782  29.174  26.765  1.00  0.00     0.116 C 
BRANCH   2   3
ATOM      3  N   UNL A   1      33.854  28.931  25.344  1.00  0.00    -0.356 N 
ATOM      4  C   UNL A   1      32.923  28.480  24.446  1.00  0.00     0.224 C 
ATOM      5  O   UNL A   1      33.064  28.894  23.292  1.00  0.00    -0.275 OA
ATOM      6  H   UNL A   1      34.733  29.126  24.947  1.00  0.00     0.163 HD
BRANCH   4   7
ATOM      7  C   UNL A   1      31.807  27.517  24.662  1.00  0.00     0.098 C 
ATOM      8  C   UNL A   1      29.651  26.349  23.886  1.00  0.00     0.013 C 
ATOM      9  C   UNL A   1      31.163  26.456  23.789  1.00  0.00    -0.011 C 
ATOM     10  C   UNL A   1      31.629  26.181  22.382  1.00  0.00     0.013 C 
ATOM     11  C   UNL A   1      31.968  26.070  25.057  1.00  0.00     0.098 C 
BRANCH  11  12
ATOM     12  C   UNL A   1      33.279  25.381  25.012  1.00  0.00     0.227 C 
ATOM     13  O   UNL A   1      34.308  26.038  25.038  1.00  0.00    -0.275 OA
ATOM     14  N   UNL A   1      33.273  23.993  24.994  1.00  0.00    -0.331 N 
ATOM     15  C   UNL A   1      34.495  23.315  25.382  1.00  0.00     0.181 C 
ATOM     16  C   UNL A   1      32.340  23.171  24.221  1.00  0.00     0.181 C 
ATOM     17  C   UNL A   1      34.160  22.013  26.134  1.00  0.00     0.284 C 
ATOM     18  C   UNL A   1      32.199  21.707  24.727  1.00  0.00     0.284 C 
ATOM     19  N   UNL A   1      33.361  21.063  25.361  1.00  0.00    -0.328 N 
ATOM     20  H   UNL A   1      32.939  20.416  26.027  1.00  0.00     0.348 HD
BRANCH  19  21
ATOM     21  C   UNL A   1      34.131  20.103  24.565  1.00  0.00     0.299 C 
BRANCH  21  22
ATOM     22  C   UNL A   1      33.691  18.659  24.624  1.00  0.00     0.006 A 
ATOM     23  C   UNL A   1      34.266  17.706  23.777  1.00  0.00     0.009 A 
ATOM     24  C   UNL A   1      32.743  18.237  25.575  1.00  0.00     0.009 A 
ATOM     25  C   UNL A   1      33.943  16.355  23.915  1.00  0.00     0.001 A 
ATOM     26  C   UNL A   1      32.448  16.883  25.734  1.00  0.00     0.001 A 
ATOM     27  C   UNL A   1      33.053  15.942  24.906  1.00  0.00     0.000 A 
ENDBRANCH  21  22
ENDBRANCH  19  21
ENDBRANCH  11  12
ENDBRANCH   4   7
ENDBRANCH   2   3
ENDBRANCH   1   2
BRANCH   1  28
ATOM     28  C   UNL A   1      32.176  31.183  26.905  1.00  0.00     0.023 C 
BRANCH  28  29
ATOM     29  C   UNL A   1      33.171  32.216  27.447  1.00  0.00     0.116 C 
BRANCH  29  30
ATOM     30  N   UNL A   1      32.622  33.553  27.631  1.00  0.00    -0.352 N 
ATOM     31  C   UNL A   1      33.076  34.562  28.452  1.00  0.00     0.251 C 
ATOM     32  H   UNL A   1      31.820  33.763  27.099  1.00  0.00     0.163 HD
ATOM     33  O   UNL A   1      32.500  35.631  28.522  1.00  0.00    -0.269 OA
BRANCH  31  34
ATOM     34  C   UNL A   1      34.264  34.307  29.296  1.00  0.00     0.039 A 
ATOM     35  C   UNL A   1      34.073  33.755  30.566  1.00  0.00     0.014 A 
ATOM     36  C   UNL A   1      35.551  34.530  28.800  1.00  0.00     0.014 A 
ATOM     37  C   UNL A   1      35.179  33.320  31.299  1.00  0.00     0.010 A 
ATOM     38  C   UNL A   1      36.649  34.062  29.516  1.00  0.00     0.010 A 
ATOM     39  C   UNL A   1      36.469  33.416  30.751  1.00  0.00    -0.014 A 
BRANCH  39  40
ATOM     40  C   UNL A   1      37.624  32.741  31.392  1.00  0.00     0.031 A 
ATOM     41  C   UNL A   1      38.266  31.544  30.762  1.00  0.00     0.074 A 
ATOM     42  C   UNL A   1      38.030  33.164  32.605  1.00  0.00     0.049 A 
ATOM     43  N   UNL A   1      39.218  30.776  31.231  1.00  0.00    -0.248 NA
ATOM     44  C   UNL A   1      37.766  31.148  29.438  1.00  0.00     0.031 C 
ATOM     45  C   UNL A   1      37.460  34.297  33.337  1.00  0.00     0.029 A 
ATOM     46  N   UNL A   1      39.002  32.680  33.446  1.00  0.00    -0.354 N 
ATOM     47  C   UNL A   1      39.429  29.804  30.264  1.00  0.00     0.074 A 
ATOM     48  C   UNL A   1      38.482  30.058  29.197  1.00  0.00     0.031 C 
ATOM     49  C   UNL A   1      38.094  34.423  34.514  1.00  0.00     0.029 A 
ATOM     50  C   UNL A   1      39.086  33.360  34.637  1.00  0.00     0.049 A 
ATOM     51  H   UNL A   1      39.582  31.919  33.219  1.00  0.00     0.167 HD
ATOM     52  C   UNL A   1      40.340  28.803  30.264  1.00  0.00     0.037 A 
ATOM     53  C   UNL A   1      39.860  33.139  35.716  1.00  0.00     0.037 A 
ATOM     54  C   UNL A   1      41.287  28.558  31.321  1.00  0.00     0.049 A 
ATOM     55  C   UNL A   1      40.825  31.987  35.709  1.00  0.00     0.074 A 
ATOM     56  C   UNL A   1      42.300  27.616  31.371  1.00  0.00     0.029 A 
ATOM     57  N   UNL A   1      41.328  29.253  32.520  1.00  0.00    -0.354 N 
ATOM     58  N   UNL A   1      41.066  31.118  34.761  1.00  0.00    -0.248 NA
ATOM     59  C   UNL A   1      41.621  31.783  36.928  1.00  0.00     0.031 C 
ATOM     60  C   UNL A   1      42.925  27.711  32.619  1.00  0.00     0.029 A 
ATOM     61  C   UNL A   1      42.326  28.737  33.332  1.00  0.00     0.049 A 
ATOM     62  H   UNL A   1      40.736  30.002  32.760  1.00  0.00     0.167 HD
ATOM     63  C   UNL A   1      42.047  30.273  35.257  1.00  0.00     0.074 A 
ATOM     64  C   UNL A   1      42.369  30.743  36.588  1.00  0.00     0.031 C 
ATOM     65  C   UNL A   1      42.630  29.206  34.660  1.00  0.00     0.037 A 
BRANCH  52  66
ATOM     66  C   UNL A   1      40.360  27.888  29.076  1.00  0.00     0.064 A 
ATOM     67  C   UNL A   1      39.596  26.712  29.046  1.00  0.00     0.173 A 
ATOM     68  C   UNL A   1      41.114  28.212  27.938  1.00  0.00     0.173 A 
ATOM     69  F   UNL A   1      38.865  26.355  30.114  1.00  0.00    -0.203 F 
ATOM     70  C   UNL A   1      39.603  25.883  27.929  1.00  0.00     0.198 A 
ATOM     71  C   UNL A   1      41.100  27.392  26.814  1.00  0.00     0.198 A 
ATOM     72  F   UNL A   1      41.856  29.329  27.916  1.00  0.00    -0.203 F 
ATOM     73  F   UNL A   1      38.893  24.746  27.936  1.00  0.00    -0.200 F 
ATOM     74  C   UNL A   1      40.350  26.225  26.812  1.00  0.00     0.200 A 
ATOM     75  F   UNL A   1      41.815  27.730  25.732  1.00  0.00    -0.200 F 
ATOM     76  F   UNL A   1      40.352  25.429  25.734  1.00  0.00    -0.200 F 
ENDBRANCH  52  66
BRANCH  53  77
ATOM     77  C   UNL A   1      39.751  34.033  36.896  1.00  0.00     0.064 A 
ATOM     78  C   UNL A   1      40.475  35.231  36.955  1.00  0.00     0.173 A 
ATOM     79  C   UNL A   1      38.920  33.715  37.979  1.00  0.00     0.173 A 
ATOM     80  F   UNL A   1      41.300  35.564  35.952  1.00  0.00    -0.203 F 
ATOM     81  C   UNL A   1      40.379  36.074  38.061  1.00  0.00     0.198 A 
ATOM     82  C   UNL A   1      38.807  34.570  39.074  1.00  0.00     0.198 A 
ATOM     83  F   UNL A   1      38.206  32.579  37.967  1.00  0.00    -0.203 F 
ATOM     84  F   UNL A   1      41.107  37.197  38.108  1.00  0.00    -0.200 F 
ATOM     85  C   UNL A   1      39.541  35.745  39.116  1.00  0.00     0.200 A 
ATOM     86  F   UNL A   1      37.988  34.254  40.085  1.00  0.00    -0.200 F 
ATOM     87  F   UNL A   1      39.444  36.560  40.175  1.00  0.00    -0.200 F 
ENDBRANCH  53  77
BRANCH  65  88
ATOM     88  C   UNL A   1      43.678  28.471  35.439  1.00  0.00     0.064 A 
ATOM     89  C   UNL A   1      45.037  28.789  35.312  1.00  0.00     0.173 A 
ATOM     90  C   UNL A   1      43.317  27.470  36.354  1.00  0.00     0.173 A 
ATOM     91  F   UNL A   1      45.432  29.725  34.436  1.00  0.00    -0.203 F 
ATOM     92  C   UNL A   1      46.001  28.122  36.065  1.00  0.00     0.198 A 
ATOM     93  C   UNL A   1      44.281  26.822  37.121  1.00  0.00     0.198 A 
ATOM     94  F   UNL A   1      42.029  27.131  36.512  1.00  0.00    -0.203 F 
ATOM     95  F   UNL A   1      47.298  28.419  35.904  1.00  0.00    -0.200 F 
ATOM     96  C   UNL A   1      45.622  27.146  36.974  1.00  0.00     0.200 A 
ATOM     97  F   UNL A   1      43.912  25.884  38.005  1.00  0.00    -0.200 F 
ATOM     98  F   UNL A   1      46.548  26.511  37.704  1.00  0.00    -0.200 F 
ENDBRANCH  65  88
ENDBRANCH  39  40
ENDBRANCH  31  34
ENDBRANCH  29  30
ENDBRANCH  28  29
ENDBRANCH   1  28
TORSDOF 14
ENDMDL
