MODEL 1
REMARK VINA RESULT:     -13.7      0.000      0.000
REMARK SMILES Cc1cc(NC(=O)N2CCO[C@@H](CC(=O)NCCCCNC(=O)c3ccc(-c4c5nc(c(-c6c(F)c(F)c(F)c(F)c6F)c6ccc([nH]6)c(-c6c(F)c(F)c(F)c(F)c6F)c6nc(c(-c7c(F)c(F)c(F)c(F)c7F)c7ccc4[nH]7)C=C6)C=C5)cc3)C2)ccc1F
REMARK SMILES IDX 18 1 17 2 16 3 14 4 15 5 13 7 12 8 8 9 9 10 87 11 10 12
REMARK SMILES IDX 11 13 6 14 5 15 7 17 4 18 1 19 2 20 3 21 90 22 89 23 91 24
REMARK SMILES IDX 88 25 19 26 20 27 21 28 22 29 23 31 24 32 25 33 86 34 26 35
REMARK SMILES IDX 85 36 27 37 28 38 29 39 79 40 30 41 84 42 78 43 80 44 31 45
REMARK SMILES IDX 83 46 77 47 76 48 32 50 64 51 44 52 63 53 45 54 48 55 62 56
REMARK SMILES IDX 81 57 46 58 47 59 61 61 82 62 49 63 33 64 34 65 42 66 35 67
REMARK SMILES IDX 36 68 40 69 43 70 37 71 38 72 41 73 39 74 65 75 66 76 74 77
REMARK SMILES IDX 67 78 68 79 72 80 75 81 69 82 70 83 73 84 71 85 50 86 51 87
REMARK SMILES IDX 59 88 52 89 53 90 57 91 60 92 54 93 55 94 58 95 56 96
REMARK H PARENT 16 6 5 16 21 30 80 49 48 60
REMARK Flexibility Score: inf
ROOT
ATOM      1  C   UNL A   1      32.778  30.288  27.017  1.00  0.00     0.023 C 
ENDROOT
BRANCH   1   2
ATOM      2  C   UNL A   1      31.786  30.246  25.847  1.00  0.00     0.116 C 
BRANCH   2   3
ATOM      3  N   UNL A   1      32.414  29.756  24.628  1.00  0.00    -0.356 N 
ATOM      4  C   UNL A   1      32.373  28.540  24.004  1.00  0.00     0.222 C 
ATOM      5  O   UNL A   1      33.165  28.355  23.078  1.00  0.00    -0.275 OA
ATOM      6  H   UNL A   1      32.972  30.424  24.167  1.00  0.00     0.163 HD
BRANCH   4   7
ATOM      7  C   UNL A   1      31.388  27.446  24.402  1.00  0.00     0.133 C 
BRANCH   7   8
ATOM      8  C   UNL A   1      31.902  26.007  24.227  1.00  0.00     0.147 C 
ATOM      9  N   UNL A   1      31.685  23.789  25.435  1.00  0.00    -0.320 N 
ATOM     10  C   UNL A   1      31.082  23.226  24.233  1.00  0.00     0.150 C 
ATOM     11  C   UNL A   1      31.638  25.222  25.503  1.00  0.00     0.154 C 
ATOM     12  C   UNL A   1      31.559  23.998  22.999  1.00  0.00     0.182 C 
ATOM     13  O   UNL A   1      31.223  25.396  23.110  1.00  0.00    -0.374 OA
BRANCH   9  14
ATOM     14  C   UNL A   1      31.673  23.106  26.633  1.00  0.00     0.322 C 
ATOM     15  N   UNL A   1      32.652  22.189  26.862  1.00  0.00    -0.308 N 
ATOM     16  H   UNL A   1      32.482  21.568  27.606  1.00  0.00     0.171 HD
ATOM     17  O   UNL A   1      30.839  23.314  27.514  1.00  0.00    -0.248 OA
BRANCH  15  18
ATOM     18  C   UNL A   1      33.868  22.002  26.191  1.00  0.00     0.043 A 
ATOM     19  C   UNL A   1      37.216  23.782  26.004  1.00  0.00     0.047 C 
ATOM     20  C   UNL A   1      36.137  22.760  25.840  1.00  0.00    -0.013 A 
ATOM     21  C   UNL A   1      34.847  22.984  26.336  1.00  0.00     0.032 A 
ATOM     22  C   UNL A   1      36.424  21.541  25.222  1.00  0.00     0.126 A 
ATOM     23  C   UNL A   1      35.430  20.609  24.977  1.00  0.00     0.041 A 
ATOM     24  F   UNL A   1      37.678  21.259  24.843  1.00  0.00    -0.207 F 
ATOM     25  C   UNL A   1      34.140  20.870  25.417  1.00  0.00     0.029 A 
ENDBRANCH  15  18
ENDBRANCH   9  14
ENDBRANCH   7   8
ENDBRANCH   4   7
ENDBRANCH   2   3
ENDBRANCH   1   2
BRANCH   1  26
ATOM     26  C   UNL A   1      33.723  29.116  27.250  1.00  0.00     0.023 C 
BRANCH  26  27
ATOM     27  C   UNL A   1      35.132  29.603  27.449  1.00  0.00     0.116 C 
BRANCH  27  28
ATOM     28  N   UNL A   1      35.352  30.255  28.753  1.00  0.00    -0.352 N 
ATOM     29  C   UNL A   1      36.377  29.988  29.657  1.00  0.00     0.251 C 
ATOM     30  H   UNL A   1      34.707  30.953  29.011  1.00  0.00     0.163 HD
ATOM     31  O   UNL A   1      36.354  30.326  30.821  1.00  0.00    -0.269 OA
BRANCH  29  32
ATOM     32  C   UNL A   1      37.545  29.306  29.084  1.00  0.00     0.039 A 
ATOM     33  C   UNL A   1      38.256  29.757  27.968  1.00  0.00     0.014 A 
ATOM     34  C   UNL A   1      37.994  28.247  29.855  1.00  0.00     0.014 A 
ATOM     35  C   UNL A   1      39.489  29.167  27.698  1.00  0.00     0.010 A 
ATOM     36  C   UNL A   1      39.312  27.951  29.797  1.00  0.00     0.010 A 
ATOM     37  C   UNL A   1      40.017  28.288  28.649  1.00  0.00    -0.014 A 
BRANCH  37  38
ATOM     38  C   UNL A   1      41.273  27.568  28.551  1.00  0.00     0.031 A 
ATOM     39  C   UNL A   1      41.246  26.135  28.280  1.00  0.00     0.074 A 
ATOM     40  C   UNL A   1      42.389  28.333  28.632  1.00  0.00     0.049 A 
ATOM     41  N   UNL A   1      42.010  25.276  28.848  1.00  0.00    -0.248 NA
ATOM     42  C   UNL A   1      40.286  25.534  27.357  1.00  0.00     0.031 C 
ATOM     43  C   UNL A   1      43.789  28.024  28.426  1.00  0.00     0.029 A 
ATOM     44  N   UNL A   1      42.416  29.677  29.060  1.00  0.00    -0.354 N 
ATOM     45  C   UNL A   1      41.923  24.123  28.098  1.00  0.00     0.074 A 
ATOM     46  C   UNL A   1      40.712  24.265  27.325  1.00  0.00     0.031 C 
ATOM     47  C   UNL A   1      44.527  28.971  29.046  1.00  0.00     0.029 A 
ATOM     48  C   UNL A   1      43.618  29.877  29.736  1.00  0.00     0.049 A 
ATOM     49  H   UNL A   1      41.714  30.350  28.910  1.00  0.00     0.167 HD
ATOM     50  C   UNL A   1      43.017  23.307  28.040  1.00  0.00     0.037 A 
ATOM     51  C   UNL A   1      43.541  30.120  31.078  1.00  0.00     0.037 A 
ATOM     52  C   UNL A   1      44.120  23.932  28.781  1.00  0.00     0.049 A 
ATOM     53  C   UNL A   1      44.034  28.924  31.841  1.00  0.00     0.074 A 
ATOM     54  C   UNL A   1      45.175  24.721  28.347  1.00  0.00     0.029 A 
ATOM     55  N   UNL A   1      43.996  24.162  30.148  1.00  0.00    -0.354 N 
ATOM     56  N   UNL A   1      44.032  27.709  31.361  1.00  0.00    -0.248 NA
ATOM     57  C   UNL A   1      44.662  29.021  33.149  1.00  0.00     0.031 C 
ATOM     58  C   UNL A   1      45.636  25.483  29.454  1.00  0.00     0.029 A 
ATOM     59  C   UNL A   1      44.869  25.156  30.559  1.00  0.00     0.049 A 
ATOM     60  H   UNL A   1      43.374  23.683  30.742  1.00  0.00     0.167 HD
ATOM     61  C   UNL A   1      44.700  26.886  32.221  1.00  0.00     0.074 A 
ATOM     62  C   UNL A   1      45.068  27.753  33.330  1.00  0.00     0.031 C 
ATOM     63  C   UNL A   1      44.928  25.566  31.956  1.00  0.00     0.037 A 
BRANCH  50  64
ATOM     64  C   UNL A   1      43.217  22.175  27.052  1.00  0.00     0.064 A 
ATOM     65  C   UNL A   1      42.422  21.007  27.124  1.00  0.00     0.173 A 
ATOM     66  C   UNL A   1      44.161  22.173  26.006  1.00  0.00     0.173 A 
ATOM     67  F   UNL A   1      41.422  20.893  28.009  1.00  0.00    -0.203 F 
ATOM     68  C   UNL A   1      42.612  19.907  26.282  1.00  0.00     0.198 A 
ATOM     69  C   UNL A   1      44.379  21.055  25.188  1.00  0.00     0.198 A 
ATOM     70  F   UNL A   1      44.865  23.268  25.699  1.00  0.00    -0.203 F 
ATOM     71  F   UNL A   1      41.821  18.832  26.406  1.00  0.00    -0.200 F 
ATOM     72  C   UNL A   1      43.606  19.921  25.328  1.00  0.00     0.200 A 
ATOM     73  F   UNL A   1      45.338  21.093  24.252  1.00  0.00    -0.200 F 
ATOM     74  F   UNL A   1      43.798  18.863  24.531  1.00  0.00    -0.200 F 
ENDBRANCH  50  64
BRANCH  51  75
ATOM     75  C   UNL A   1      42.379  31.016  31.408  1.00  0.00     0.064 A 
ATOM     76  C   UNL A   1      42.374  32.265  30.747  1.00  0.00     0.173 A 
ATOM     77  C   UNL A   1      41.141  30.524  31.847  1.00  0.00     0.173 A 
ATOM     78  F   UNL A   1      43.534  32.812  30.349  1.00  0.00    -0.203 F 
ATOM     79  C   UNL A   1      41.186  32.860  30.327  1.00  0.00     0.198 A 
ATOM     80  C   UNL A   1      39.949  31.165  31.479  1.00  0.00     0.198 A 
ATOM     81  F   UNL A   1      41.067  29.367  32.518  1.00  0.00    -0.203 F 
ATOM     82  F   UNL A   1      41.225  33.920  29.506  1.00  0.00    -0.200 F 
ATOM     83  C   UNL A   1      39.974  32.285  30.657  1.00  0.00     0.200 A 
ATOM     84  F   UNL A   1      38.768  30.642  31.838  1.00  0.00    -0.200 F 
ATOM     85  F   UNL A   1      38.841  32.775  30.131  1.00  0.00    -0.200 F 
ENDBRANCH  51  75
BRANCH  63  86
ATOM     86  C   UNL A   1      45.335  24.548  32.987  1.00  0.00     0.064 A 
ATOM     87  C   UNL A   1      44.524  23.465  33.366  1.00  0.00     0.173 A 
ATOM     88  C   UNL A   1      46.650  24.539  33.513  1.00  0.00     0.173 A 
ATOM     89  F   UNL A   1      43.313  23.272  32.827  1.00  0.00    -0.203 F 
ATOM     90  C   UNL A   1      44.961  22.500  34.271  1.00  0.00     0.198 A 
ATOM     91  C   UNL A   1      47.111  23.524  34.343  1.00  0.00     0.198 A 
ATOM     92  F   UNL A   1      47.540  25.496  33.211  1.00  0.00    -0.203 F 
ATOM     93  F   UNL A   1      44.122  21.529  34.655  1.00  0.00    -0.200 F 
ATOM     94  C   UNL A   1      46.258  22.519  34.745  1.00  0.00     0.200 A 
ATOM     95  F   UNL A   1      48.394  23.517  34.733  1.00  0.00    -0.200 F 
ATOM     96  F   UNL A   1      46.691  21.558  35.570  1.00  0.00    -0.200 F 
ENDBRANCH  63  86
ENDBRANCH  37  38
ENDBRANCH  29  32
ENDBRANCH  27  28
ENDBRANCH  26  27
ENDBRANCH   1  26
TORSDOF 14
ENDMDL
MODEL 2
REMARK VINA RESULT:     -13.6      3.366     10.135
REMARK SMILES Cc1cc(NC(=O)N2CCO[C@@H](CC(=O)NCCCCNC(=O)c3ccc(-c4c5nc(c(-c6c(F)c(F)c(F)c(F)c6F)c6ccc([nH]6)c(-c6c(F)c(F)c(F)c(F)c6F)c6nc(c(-c7c(F)c(F)c(F)c(F)c7F)c7ccc4[nH]7)C=C6)C=C5)cc3)C2)ccc1F
REMARK SMILES IDX 18 1 17 2 16 3 14 4 15 5 13 7 12 8 8 9 9 10 87 11 10 12
REMARK SMILES IDX 11 13 6 14 5 15 7 17 4 18 1 19 2 20 3 21 90 22 89 23 91 24
REMARK SMILES IDX 88 25 19 26 20 27 21 28 22 29 23 31 24 32 25 33 86 34 26 35
REMARK SMILES IDX 85 36 27 37 28 38 29 39 79 40 30 41 84 42 78 43 80 44 31 45
REMARK SMILES IDX 83 46 77 47 76 48 32 50 64 51 44 52 63 53 45 54 48 55 62 56
REMARK SMILES IDX 81 57 46 58 47 59 61 61 82 62 49 63 33 64 34 65 42 66 35 67
REMARK SMILES IDX 36 68 40 69 43 70 37 71 38 72 41 73 39 74 65 75 66 76 74 77
REMARK SMILES IDX 67 78 68 79 72 80 75 81 69 82 70 83 73 84 71 85 50 86 51 87
REMARK SMILES IDX 59 88 52 89 53 90 57 91 60 92 54 93 55 94 58 95 56 96
REMARK H PARENT 16 6 5 16 21 30 80 49 48 60
REMARK Flexibility Score: inf
ROOT
ATOM      1  C   UNL A   1      37.762  21.959  25.195  1.00  0.00     0.023 C 
ENDROOT
BRANCH   1   2
ATOM      2  C   UNL A   1      36.661  20.924  24.929  1.00  0.00     0.116 C 
BRANCH   2   3
ATOM      3  N   UNL A   1      35.566  21.046  25.881  1.00  0.00    -0.356 N 
ATOM      4  C   UNL A   1      34.324  21.608  25.778  1.00  0.00     0.222 C 
ATOM      5  O   UNL A   1      33.674  21.733  26.818  1.00  0.00    -0.275 OA
ATOM      6  H   UNL A   1      35.756  20.652  26.763  1.00  0.00     0.163 HD
BRANCH   4   7
ATOM      7  C   UNL A   1      33.733  22.053  24.445  1.00  0.00     0.133 C 
BRANCH   7   8
ATOM      8  C   UNL A   1      32.935  23.367  24.489  1.00  0.00     0.147 C 
ATOM      9  N   UNL A   1      32.457  25.312  22.933  1.00  0.00    -0.320 N 
ATOM     10  C   UNL A   1      31.038  24.990  23.014  1.00  0.00     0.150 C 
ATOM     11  C   UNL A   1      33.330  24.232  23.301  1.00  0.00     0.154 C 
ATOM     12  C   UNL A   1      30.739  24.270  24.333  1.00  0.00     0.182 C 
ATOM     13  O   UNL A   1      31.525  23.067  24.447  1.00  0.00    -0.374 OA
BRANCH   9  14
ATOM     14  C   UNL A   1      32.938  26.217  22.011  1.00  0.00     0.322 C 
ATOM     15  N   UNL A   1      32.836  27.543  22.296  1.00  0.00    -0.308 N 
ATOM     16  H   UNL A   1      32.969  28.150  21.532  1.00  0.00     0.171 HD
ATOM     17  O   UNL A   1      33.485  25.877  20.962  1.00  0.00    -0.248 OA
BRANCH  15  18
ATOM     18  C   UNL A   1      32.566  28.171  23.519  1.00  0.00     0.043 A 
ATOM     19  C   UNL A   1      34.474  28.907  26.718  1.00  0.00     0.047 C 
ATOM     20  C   UNL A   1      33.415  28.901  25.663  1.00  0.00    -0.013 A 
ATOM     21  C   UNL A   1      33.559  28.138  24.498  1.00  0.00     0.032 A 
ATOM     22  C   UNL A   1      32.279  29.700  25.814  1.00  0.00     0.126 A 
ATOM     23  C   UNL A   1      31.241  29.652  24.900  1.00  0.00     0.041 A 
ATOM     24  F   UNL A   1      32.174  30.524  26.865  1.00  0.00    -0.207 F 
ATOM     25  C   UNL A   1      31.368  28.842  23.779  1.00  0.00     0.029 A 
ENDBRANCH  15  18
ENDBRANCH   9  14
ENDBRANCH   7   8
ENDBRANCH   4   7
ENDBRANCH   2   3
ENDBRANCH   1   2
BRANCH   1  26
ATOM     26  C   UNL A   1      37.395  23.429  25.359  1.00  0.00     0.023 C 
BRANCH  26  27
ATOM     27  C   UNL A   1      38.205  24.059  26.458  1.00  0.00     0.116 C 
BRANCH  27  28
ATOM     28  N   UNL A   1      39.646  24.140  26.156  1.00  0.00    -0.352 N 
ATOM     29  C   UNL A   1      40.484  25.230  26.372  1.00  0.00     0.251 C 
ATOM     30  H   UNL A   1      40.059  23.338  25.762  1.00  0.00     0.163 HD
ATOM     31  O   UNL A   1      41.570  25.360  25.849  1.00  0.00    -0.269 OA
BRANCH  29  32
ATOM     32  C   UNL A   1      39.984  26.212  27.344  1.00  0.00     0.039 A 
ATOM     33  C   UNL A   1      39.614  25.906  28.657  1.00  0.00     0.014 A 
ATOM     34  C   UNL A   1      40.068  27.519  26.896  1.00  0.00     0.014 A 
ATOM     35  C   UNL A   1      39.416  26.965  29.542  1.00  0.00     0.010 A 
ATOM     36  C   UNL A   1      40.226  28.486  27.827  1.00  0.00     0.010 A 
ATOM     37  C   UNL A   1      39.763  28.250  29.114  1.00  0.00    -0.014 A 
BRANCH  37  38
ATOM     38  C   UNL A   1      39.624  29.477  29.876  1.00  0.00     0.031 A 
ATOM     39  C   UNL A   1      38.577  30.423  29.505  1.00  0.00     0.074 A 
ATOM     40  C   UNL A   1      40.445  29.591  30.949  1.00  0.00     0.049 A 
ATOM     41  N   UNL A   1      38.727  31.696  29.480  1.00  0.00    -0.248 NA
ATOM     42  C   UNL A   1      37.253  29.988  29.068  1.00  0.00     0.031 C 
ATOM     43  C   UNL A   1      40.502  30.562  32.023  1.00  0.00     0.029 A 
ATOM     44  N   UNL A   1      41.560  28.766  31.202  1.00  0.00    -0.354 N 
ATOM     45  C   UNL A   1      37.460  32.235  29.423  1.00  0.00     0.074 A 
ATOM     46  C   UNL A   1      36.611  31.159  28.970  1.00  0.00     0.031 C 
ATOM     47  C   UNL A   1      41.733  30.509  32.576  1.00  0.00     0.029 A 
ATOM     48  C   UNL A   1      42.531  29.551  31.820  1.00  0.00     0.049 A 
ATOM     49  H   UNL A   1      41.638  27.809  30.982  1.00  0.00     0.167 HD
ATOM     50  C   UNL A   1      37.250  33.452  30.006  1.00  0.00     0.037 A 
ATOM     51  C   UNL A   1      43.675  29.790  31.114  1.00  0.00     0.037 A 
ATOM     52  C   UNL A   1      38.489  33.890  30.661  1.00  0.00     0.049 A 
ATOM     53  C   UNL A   1      43.702  31.221  30.660  1.00  0.00     0.074 A 
ATOM     54  C   UNL A   1      38.913  33.773  31.976  1.00  0.00     0.029 A 
ATOM     55  N   UNL A   1      39.632  34.121  29.901  1.00  0.00    -0.354 N 
ATOM     56  N   UNL A   1      42.629  31.949  30.498  1.00  0.00    -0.248 NA
ATOM     57  C   UNL A   1      44.934  31.967  30.459  1.00  0.00     0.031 C 
ATOM     58  C   UNL A   1      40.331  33.862  31.989  1.00  0.00     0.029 A 
ATOM     59  C   UNL A   1      40.769  34.038  30.687  1.00  0.00     0.049 A 
ATOM     60  H   UNL A   1      39.632  34.317  28.936  1.00  0.00     0.167 HD
ATOM     61  C   UNL A   1      42.996  33.240  30.253  1.00  0.00     0.074 A 
ATOM     62  C   UNL A   1      44.450  33.199  30.230  1.00  0.00     0.031 C 
ATOM     63  C   UNL A   1      42.091  34.254  30.113  1.00  0.00     0.037 A 
BRANCH  50  64
ATOM     64  C   UNL A   1      35.894  34.061  30.304  1.00  0.00     0.064 A 
ATOM     65  C   UNL A   1      35.051  34.494  29.254  1.00  0.00     0.173 A 
ATOM     66  C   UNL A   1      35.355  34.241  31.594  1.00  0.00     0.173 A 
ATOM     67  F   UNL A   1      35.384  34.311  27.969  1.00  0.00    -0.203 F 
ATOM     68  C   UNL A   1      33.823  35.124  29.477  1.00  0.00     0.198 A 
ATOM     69  C   UNL A   1      34.143  34.908  31.819  1.00  0.00     0.198 A 
ATOM     70  F   UNL A   1      35.950  33.728  32.677  1.00  0.00    -0.203 F 
ATOM     71  F   UNL A   1      33.075  35.507  28.432  1.00  0.00    -0.200 F 
ATOM     72  C   UNL A   1      33.378  35.352  30.760  1.00  0.00     0.200 A 
ATOM     73  F   UNL A   1      33.716  35.106  33.075  1.00  0.00    -0.200 F 
ATOM     74  F   UNL A   1      32.209  35.968  30.974  1.00  0.00    -0.200 F 
ENDBRANCH  50  64
BRANCH  51  75
ATOM     75  C   UNL A   1      44.120  28.569  30.359  1.00  0.00     0.064 A 
ATOM     76  C   UNL A   1      44.319  27.412  31.146  1.00  0.00     0.173 A 
ATOM     77  C   UNL A   1      43.838  28.371  28.999  1.00  0.00     0.173 A 
ATOM     78  F   UNL A   1      44.642  27.537  32.443  1.00  0.00    -0.203 F 
ATOM     79  C   UNL A   1      44.004  26.143  30.665  1.00  0.00     0.198 A 
ATOM     80  C   UNL A   1      43.589  27.084  28.503  1.00  0.00     0.198 A 
ATOM     81  F   UNL A   1      43.678  29.418  28.178  1.00  0.00    -0.203 F 
ATOM     82  F   UNL A   1      43.984  25.097  31.505  1.00  0.00    -0.200 F 
ATOM     83  C   UNL A   1      43.598  25.985  29.354  1.00  0.00     0.200 A 
ATOM     84  F   UNL A   1      43.244  26.915  27.219  1.00  0.00    -0.200 F 
ATOM     85  F   UNL A   1      43.158  24.790  28.934  1.00  0.00    -0.200 F 
ENDBRANCH  51  75
BRANCH  63  86
ATOM     86  C   UNL A   1      42.401  35.597  29.508  1.00  0.00     0.064 A 
ATOM     87  C   UNL A   1      43.165  36.579  30.158  1.00  0.00     0.173 A 
ATOM     88  C   UNL A   1      42.071  35.873  28.159  1.00  0.00     0.173 A 
ATOM     89  F   UNL A   1      43.669  36.381  31.384  1.00  0.00    -0.203 F 
ATOM     90  C   UNL A   1      43.495  37.784  29.540  1.00  0.00     0.198 A 
ATOM     91  C   UNL A   1      42.480  37.037  27.517  1.00  0.00     0.198 A 
ATOM     92  F   UNL A   1      41.371  35.009  27.409  1.00  0.00    -0.203 F 
ATOM     93  F   UNL A   1      44.162  38.718  30.230  1.00  0.00    -0.200 F 
ATOM     94  C   UNL A   1      43.168  38.006  28.216  1.00  0.00     0.200 A 
ATOM     95  F   UNL A   1      42.222  37.201  26.212  1.00  0.00    -0.200 F 
ATOM     96  F   UNL A   1      43.536  39.140  27.610  1.00  0.00    -0.200 F 
ENDBRANCH  63  86
ENDBRANCH  37  38
ENDBRANCH  29  32
ENDBRANCH  27  28
ENDBRANCH  26  27
ENDBRANCH   1  26
TORSDOF 14
ENDMDL
MODEL 3
REMARK VINA RESULT:     -13.6      1.325      1.712
REMARK SMILES Cc1cc(NC(=O)N2CCO[C@@H](CC(=O)NCCCCNC(=O)c3ccc(-c4c5nc(c(-c6c(F)c(F)c(F)c(F)c6F)c6ccc([nH]6)c(-c6c(F)c(F)c(F)c(F)c6F)c6nc(c(-c7c(F)c(F)c(F)c(F)c7F)c7ccc4[nH]7)C=C6)C=C5)cc3)C2)ccc1F
REMARK SMILES IDX 18 1 17 2 16 3 14 4 15 5 13 7 12 8 8 9 9 10 87 11 10 12
REMARK SMILES IDX 11 13 6 14 5 15 7 17 4 18 1 19 2 20 3 21 90 22 89 23 91 24
REMARK SMILES IDX 88 25 19 26 20 27 21 28 22 29 23 31 24 32 25 33 86 34 26 35
REMARK SMILES IDX 85 36 27 37 28 38 29 39 79 40 30 41 84 42 78 43 80 44 31 45
REMARK SMILES IDX 83 46 77 47 76 48 32 50 64 51 44 52 63 53 45 54 48 55 62 56
REMARK SMILES IDX 81 57 46 58 47 59 61 61 82 62 49 63 33 64 34 65 42 66 35 67
REMARK SMILES IDX 36 68 40 69 43 70 37 71 38 72 41 73 39 74 65 75 66 76 74 77
REMARK SMILES IDX 67 78 68 79 72 80 75 81 69 82 70 83 73 84 71 85 50 86 51 87
REMARK SMILES IDX 59 88 52 89 53 90 57 91 60 92 54 93 55 94 58 95 56 96
REMARK H PARENT 16 6 5 16 21 30 80 49 48 60
REMARK Flexibility Score: inf
ROOT
ATOM      1  C   UNL A   1      33.093  29.217  25.115  1.00  0.00     0.023 C 
ENDROOT
BRANCH   1   2
ATOM      2  C   UNL A   1      31.634  29.687  25.166  1.00  0.00     0.116 C 
BRANCH   2   3
ATOM      3  N   UNL A   1      31.005  29.631  23.853  1.00  0.00    -0.356 N 
ATOM      4  C   UNL A   1      30.342  28.631  23.200  1.00  0.00     0.222 C 
ATOM      5  O   UNL A   1      30.080  28.812  22.009  1.00  0.00    -0.275 OA
ATOM      6  H   UNL A   1      31.070  30.469  23.342  1.00  0.00     0.163 HD
BRANCH   4   7
ATOM      7  C   UNL A   1      29.912  27.342  23.893  1.00  0.00     0.133 C 
BRANCH   7   8
ATOM      8  C   UNL A   1      30.992  26.248  23.967  1.00  0.00     0.147 C 
ATOM      9  N   UNL A   1      31.433  24.153  25.325  1.00  0.00    -0.320 N 
ATOM     10  C   UNL A   1      31.394  23.379  24.089  1.00  0.00     0.150 C 
ATOM     11  C   UNL A   1      30.794  25.436  25.238  1.00  0.00     0.154 C 
ATOM     12  C   UNL A   1      31.776  24.270  22.903  1.00  0.00     0.182 C 
ATOM     13  O   UNL A   1      30.886  25.400  22.805  1.00  0.00    -0.374 OA
BRANCH   9  14
ATOM     14  C   UNL A   1      31.435  23.538  26.559  1.00  0.00     0.322 C 
ATOM     15  N   UNL A   1      32.562  22.886  26.952  1.00  0.00    -0.308 N 
ATOM     16  H   UNL A   1      32.450  22.274  27.715  1.00  0.00     0.171 HD
ATOM     17  O   UNL A   1      30.477  23.582  27.330  1.00  0.00    -0.248 OA
BRANCH  15  18
ATOM     18  C   UNL A   1      33.860  22.959  26.428  1.00  0.00     0.043 A 
ATOM     19  C   UNL A   1      36.413  20.517  25.038  1.00  0.00     0.047 C 
ATOM     20  C   UNL A   1      35.716  21.785  25.418  1.00  0.00    -0.013 A 
ATOM     21  C   UNL A   1      34.499  21.762  26.109  1.00  0.00     0.032 A 
ATOM     22  C   UNL A   1      36.260  23.015  25.042  1.00  0.00     0.126 A 
ATOM     23  C   UNL A   1      35.688  24.207  25.451  1.00  0.00     0.041 A 
ATOM     24  F   UNL A   1      37.362  23.057  24.281  1.00  0.00    -0.207 F 
ATOM     25  C   UNL A   1      34.515  24.172  26.192  1.00  0.00     0.029 A 
ENDBRANCH  15  18
ENDBRANCH   9  14
ENDBRANCH   7   8
ENDBRANCH   4   7
ENDBRANCH   2   3
ENDBRANCH   1   2
BRANCH   1  26
ATOM     26  C   UNL A   1      33.613  28.242  26.165  1.00  0.00     0.023 C 
BRANCH  26  27
ATOM     27  C   UNL A   1      34.779  28.833  26.907  1.00  0.00     0.116 C 
BRANCH  27  28
ATOM     28  N   UNL A   1      34.528  30.195  27.412  1.00  0.00    -0.352 N 
ATOM     29  C   UNL A   1      35.189  30.832  28.459  1.00  0.00     0.251 C 
ATOM     30  H   UNL A   1      33.818  30.709  26.962  1.00  0.00     0.163 HD
ATOM     31  O   UNL A   1      34.763  31.816  29.026  1.00  0.00    -0.269 OA
BRANCH  29  32
ATOM     32  C   UNL A   1      36.497  30.260  28.804  1.00  0.00     0.039 A 
ATOM     33  C   UNL A   1      36.711  29.344  29.837  1.00  0.00     0.014 A 
ATOM     34  C   UNL A   1      37.493  30.582  27.897  1.00  0.00     0.014 A 
ATOM     35  C   UNL A   1      37.939  28.686  29.882  1.00  0.00     0.010 A 
ATOM     36  C   UNL A   1      38.503  29.696  27.743  1.00  0.00     0.010 A 
ATOM     37  C   UNL A   1      38.810  28.851  28.801  1.00  0.00    -0.014 A 
BRANCH  37  38
ATOM     38  C   UNL A   1      40.130  28.263  28.662  1.00  0.00     0.031 A 
ATOM     39  C   UNL A   1      40.244  26.819  28.486  1.00  0.00     0.074 A 
ATOM     40  C   UNL A   1      41.157  29.146  28.614  1.00  0.00     0.049 A 
ATOM     41  N   UNL A   1      41.132  26.089  29.053  1.00  0.00    -0.248 NA
ATOM     42  C   UNL A   1      39.300  26.056  27.673  1.00  0.00     0.031 C 
ATOM     43  C   UNL A   1      42.567  28.974  28.330  1.00  0.00     0.029 A 
ATOM     44  N   UNL A   1      41.062  30.512  28.952  1.00  0.00    -0.354 N 
ATOM     45  C   UNL A   1      41.127  24.882  28.386  1.00  0.00     0.074 A 
ATOM     46  C   UNL A   1      39.861  24.840  27.693  1.00  0.00     0.031 C 
ATOM     47  C   UNL A   1      43.233  30.035  28.834  1.00  0.00     0.029 A 
ATOM     48  C   UNL A   1      42.274  30.887  29.527  1.00  0.00     0.049 A 
ATOM     49  H   UNL A   1      40.281  31.095  28.808  1.00  0.00     0.167 HD
ATOM     50  C   UNL A   1      42.298  24.186  28.304  1.00  0.00     0.037 A 
ATOM     51  C   UNL A   1      42.256  31.216  30.853  1.00  0.00     0.037 A 
ATOM     52  C   UNL A   1      43.371  24.975  28.924  1.00  0.00     0.049 A 
ATOM     53  C   UNL A   1      42.925  30.137  31.654  1.00  0.00     0.074 A 
ATOM     54  C   UNL A   1      44.302  25.838  28.367  1.00  0.00     0.029 A 
ATOM     55  N   UNL A   1      43.308  25.288  30.279  1.00  0.00    -0.354 N 
ATOM     56  N   UNL A   1      43.028  28.897  31.255  1.00  0.00    -0.248 NA
ATOM     57  C   UNL A   1      43.620  30.393  32.906  1.00  0.00     0.031 C 
ATOM     58  C   UNL A   1      44.744  26.723  29.387  1.00  0.00     0.029 A 
ATOM     59  C   UNL A   1      44.089  26.397  30.562  1.00  0.00     0.049 A 
ATOM     60  H   UNL A   1      42.781  24.790  30.944  1.00  0.00     0.167 HD
ATOM     61  C   UNL A   1      43.835  28.214  32.117  1.00  0.00     0.074 A 
ATOM     62  C   UNL A   1      44.174  29.192  33.139  1.00  0.00     0.031 C 
ATOM     63  C   UNL A   1      44.191  26.910  31.923  1.00  0.00     0.037 A 
BRANCH  50  64
ATOM     64  C   UNL A   1      42.560  23.013  27.380  1.00  0.00     0.064 A 
ATOM     65  C   UNL A   1      41.983  21.748  27.640  1.00  0.00     0.173 A 
ATOM     66  C   UNL A   1      43.357  23.062  26.219  1.00  0.00     0.173 A 
ATOM     67  F   UNL A   1      41.131  21.562  28.656  1.00  0.00    -0.203 F 
ATOM     68  C   UNL A   1      42.247  20.619  26.859  1.00  0.00     0.198 A 
ATOM     69  C   UNL A   1      43.655  21.922  25.459  1.00  0.00     0.198 A 
ATOM     70  F   UNL A   1      43.828  24.220  25.744  1.00  0.00    -0.203 F 
ATOM     71  F   UNL A   1      41.664  19.450  27.162  1.00  0.00    -0.200 F 
ATOM     72  C   UNL A   1      43.101  20.699  25.781  1.00  0.00     0.200 A 
ATOM     73  F   UNL A   1      44.473  22.023  24.402  1.00  0.00    -0.200 F 
ATOM     74  F   UNL A   1      43.366  19.615  25.041  1.00  0.00    -0.200 F 
ENDBRANCH  50  64
BRANCH  51  75
ATOM     75  C   UNL A   1      41.025  32.005  31.205  1.00  0.00     0.064 A 
ATOM     76  C   UNL A   1      40.850  33.205  30.480  1.00  0.00     0.173 A 
ATOM     77  C   UNL A   1      39.872  31.414  31.745  1.00  0.00     0.173 A 
ATOM     78  F   UNL A   1      41.921  33.845  29.984  1.00  0.00    -0.203 F 
ATOM     79  C   UNL A   1      39.584  33.648  30.103  1.00  0.00     0.198 A 
ATOM     80  C   UNL A   1      38.601  31.905  31.416  1.00  0.00     0.198 A 
ATOM     81  F   UNL A   1      39.959  30.297  32.479  1.00  0.00    -0.203 F 
ATOM     82  F   UNL A   1      39.464  34.657  29.226  1.00  0.00    -0.200 F 
ATOM     83  C   UNL A   1      38.460  32.972  30.536  1.00  0.00     0.200 A 
ATOM     84  F   UNL A   1      37.504  31.285  31.875  1.00  0.00    -0.200 F 
ATOM     85  F   UNL A   1      37.254  33.309  30.056  1.00  0.00    -0.200 F 
ENDBRANCH  51  75
BRANCH  63  86
ATOM     86  C   UNL A   1      44.772  26.017  32.986  1.00  0.00     0.064 A 
ATOM     87  C   UNL A   1      44.008  25.442  34.014  1.00  0.00     0.173 A 
ATOM     88  C   UNL A   1      46.113  25.571  32.899  1.00  0.00     0.173 A 
ATOM     89  F   UNL A   1      42.691  25.663  34.119  1.00  0.00    -0.203 F 
ATOM     90  C   UNL A   1      44.564  24.562  34.941  1.00  0.00     0.198 A 
ATOM     91  C   UNL A   1      46.639  24.623  33.770  1.00  0.00     0.198 A 
ATOM     92  F   UNL A   1      46.947  26.014  31.947  1.00  0.00    -0.203 F 
ATOM     93  F   UNL A   1      43.810  24.099  35.946  1.00  0.00    -0.200 F 
ATOM     94  C   UNL A   1      45.873  24.139  34.809  1.00  0.00     0.200 A 
ATOM     95  F   UNL A   1      47.885  24.167  33.581  1.00  0.00    -0.200 F 
ATOM     96  F   UNL A   1      46.386  23.250  35.667  1.00  0.00    -0.200 F 
ENDBRANCH  63  86
ENDBRANCH  37  38
ENDBRANCH  29  32
ENDBRANCH  27  28
ENDBRANCH  26  27
ENDBRANCH   1  26
TORSDOF 14
ENDMDL
