MODEL 1
REMARK VINA RESULT:     -13.7      0.000      0.000
REMARK SMILES O=C(NCCCCNC(=O)[C@@H]1[C@@H](C(=O)Nc2cccc([N+](=O)[O-])c2)[C@H]2C=C[C@@H]1O2)c1ccc(-c2c3nc(c(-c4c(F)c(F)c(F)c(F)c4F)c4ccc([nH]4)c(-c4c(F)c(F)c(F)c(F)c4F)c4nc(c(-c5c(F)c(F)c(F)c(F)c5F)c5ccc2[nH]5)C=C4)C=C3)cc1
REMARK SMILES IDX 6 1 5 2 4 3 3 4 1 5 2 6 30 8 31 9 92 10 32 11 91 12 33 13
REMARK SMILES IDX 34 14 35 15 85 16 36 17 90 18 84 19 86 20 37 21 89 22 83 23
REMARK SMILES IDX 82 24 38 26 70 27 50 28 69 29 51 30 54 31 68 32 87 33 52 34
REMARK SMILES IDX 53 35 67 37 88 38 55 39 39 40 40 41 48 42 41 43 42 44 46 45
REMARK SMILES IDX 49 46 43 47 44 48 47 49 45 50 71 51 72 52 80 53 73 54 74 55
REMARK SMILES IDX 78 56 81 57 75 58 76 59 79 60 77 61 56 62 57 63 65 64 58 65
REMARK SMILES IDX 59 66 63 67 66 68 60 69 61 70 64 71 62 72 7 73 8 74 9 75
REMARK SMILES IDX 10 77 11 78 12 79 28 80 25 81 27 82 29 83 26 84 13 85 14 86
REMARK SMILES IDX 15 87 16 89 17 90 24 91 18 92 20 93 19 94 21 95 22 96 23 97
REMARK H PARENT 3 7 86 25 54 36 8 76 15 88
REMARK Flexibility Score: inf
ROOT
ATOM      1  C   UNL A   1      31.670  30.805  25.910  1.00  0.00     0.023 C 
ENDROOT
BRANCH   1   2
ATOM      2  C   UNL A   1      31.379  32.163  26.545  1.00  0.00     0.023 C 
BRANCH   2   3
ATOM      3  C   UNL A   1      32.539  32.823  27.278  1.00  0.00     0.116 C 
BRANCH   3   4
ATOM      4  N   UNL A   1      32.283  34.203  27.657  1.00  0.00    -0.352 N 
ATOM      5  O   UNL A   1      32.501  36.124  28.818  1.00  0.00    -0.269 OA
ATOM      6  C   UNL A   1      32.931  35.005  28.570  1.00  0.00     0.251 C 
ATOM      7  H   UNL A   1      31.531  34.631  27.187  1.00  0.00     0.163 HD
BRANCH   6   8
ATOM      8  C   UNL A   1      34.125  34.500  29.286  1.00  0.00     0.039 A 
ATOM      9  C   UNL A   1      35.402  34.660  28.751  1.00  0.00     0.014 A 
ATOM     10  C   UNL A   1      33.960  33.846  30.512  1.00  0.00     0.014 A 
ATOM     11  C   UNL A   1      36.477  33.998  29.329  1.00  0.00     0.010 A 
ATOM     12  C   UNL A   1      35.066  33.275  31.154  1.00  0.00     0.010 A 
ATOM     13  C   UNL A   1      36.328  33.306  30.543  1.00  0.00    -0.014 A 
BRANCH  13  14
ATOM     14  C   UNL A   1      37.529  32.681  31.158  1.00  0.00     0.031 A 
ATOM     15  C   UNL A   1      37.976  33.033  32.550  1.00  0.00     0.074 A 
ATOM     16  C   UNL A   1      38.172  31.720  30.467  1.00  0.00     0.049 A 
ATOM     17  N   UNL A   1      38.950  32.512  33.258  1.00  0.00    -0.248 NA
ATOM     18  C   UNL A   1      37.252  34.111  33.239  1.00  0.00     0.031 C 
ATOM     19  C   UNL A   1      37.847  31.314  29.096  1.00  0.00     0.029 A 
ATOM     20  N   UNL A   1      39.198  30.884  30.824  1.00  0.00    -0.354 N 
ATOM     21  C   UNL A   1      38.964  33.204  34.462  1.00  0.00     0.074 A 
ATOM     22  C   UNL A   1      37.918  34.203  34.383  1.00  0.00     0.031 C 
ATOM     23  C   UNL A   1      38.601  30.260  28.759  1.00  0.00     0.029 A 
ATOM     24  C   UNL A   1      39.507  29.956  29.860  1.00  0.00     0.049 A 
ATOM     25  H   UNL A   1      39.666  30.942  31.689  1.00  0.00     0.167 HD
ATOM     26  C   UNL A   1      39.768  33.015  35.537  1.00  0.00     0.037 A 
ATOM     27  C   UNL A   1      40.422  28.969  29.857  1.00  0.00     0.037 A 
ATOM     28  C   UNL A   1      40.794  32.007  35.619  1.00  0.00     0.049 A 
ATOM     29  C   UNL A   1      41.278  28.768  31.073  1.00  0.00     0.074 A 
ATOM     30  C   UNL A   1      41.658  31.735  36.667  1.00  0.00     0.029 A 
ATOM     31  N   UNL A   1      41.091  31.099  34.614  1.00  0.00    -0.354 N 
ATOM     32  N   UNL A   1      41.271  29.427  32.205  1.00  0.00    -0.248 NA
ATOM     33  C   UNL A   1      42.272  27.689  31.008  1.00  0.00     0.031 C 
ATOM     34  C   UNL A   1      42.498  30.682  36.285  1.00  0.00     0.029 A 
ATOM     35  C   UNL A   1      42.130  30.271  35.014  1.00  0.00     0.049 A 
ATOM     36  H   UNL A   1      40.633  31.048  33.745  1.00  0.00     0.167 HD
ATOM     37  C   UNL A   1      42.260  28.848  32.986  1.00  0.00     0.074 A 
ATOM     38  C   UNL A   1      42.818  27.757  32.213  1.00  0.00     0.031 C 
ATOM     39  C   UNL A   1      42.681  29.200  34.225  1.00  0.00     0.037 A 
BRANCH  26  40
ATOM     40  C   UNL A   1      39.578  33.920  36.720  1.00  0.00     0.064 A 
ATOM     41  C   UNL A   1      38.790  33.539  37.816  1.00  0.00     0.173 A 
ATOM     42  C   UNL A   1      40.251  35.150  36.791  1.00  0.00     0.173 A 
ATOM     43  F   UNL A   1      38.120  32.378  37.795  1.00  0.00    -0.203 F 
ATOM     44  C   UNL A   1      38.670  34.363  38.934  1.00  0.00     0.198 A 
ATOM     45  C   UNL A   1      40.147  35.961  37.919  1.00  0.00     0.198 A 
ATOM     46  F   UNL A   1      41.023  35.558  35.773  1.00  0.00    -0.203 F 
ATOM     47  F   UNL A   1      37.889  33.992  39.957  1.00  0.00    -0.200 F 
ATOM     48  C   UNL A   1      39.355  35.568  38.987  1.00  0.00     0.200 A 
ATOM     49  F   UNL A   1      40.820  37.119  37.975  1.00  0.00    -0.200 F 
ATOM     50  F   UNL A   1      39.250  36.353  40.069  1.00  0.00    -0.200 F 
ENDBRANCH  26  40
BRANCH  27  51
ATOM     51  C   UNL A   1      40.568  28.106  28.657  1.00  0.00     0.064 A 
ATOM     52  C   UNL A   1      39.890  26.885  28.555  1.00  0.00     0.173 A 
ATOM     53  C   UNL A   1      41.377  28.497  27.580  1.00  0.00     0.173 A 
ATOM     54  F   UNL A   1      39.119  26.460  29.568  1.00  0.00    -0.203 F 
ATOM     55  C   UNL A   1      40.026  26.080  27.426  1.00  0.00     0.198 A 
ATOM     56  C   UNL A   1      41.488  27.707  26.439  1.00  0.00     0.198 A 
ATOM     57  F   UNL A   1      42.042  29.661  27.628  1.00  0.00    -0.203 F 
ATOM     58  F   UNL A   1      39.399  24.897  27.370  1.00  0.00    -0.200 F 
ATOM     59  C   UNL A   1      40.818  26.496  26.366  1.00  0.00     0.200 A 
ATOM     60  F   UNL A   1      42.240  28.122  25.412  1.00  0.00    -0.200 F 
ATOM     61  F   UNL A   1      40.941  25.726  25.277  1.00  0.00    -0.200 F 
ENDBRANCH  27  51
BRANCH  39  62
ATOM     62  C   UNL A   1      43.802  28.393  34.807  1.00  0.00     0.064 A 
ATOM     63  C   UNL A   1      45.140  28.779  34.640  1.00  0.00     0.173 A 
ATOM     64  C   UNL A   1      43.538  27.226  35.539  1.00  0.00     0.173 A 
ATOM     65  F   UNL A   1      45.442  29.879  33.933  1.00  0.00    -0.203 F 
ATOM     66  C   UNL A   1      46.176  28.006  35.155  1.00  0.00     0.198 A 
ATOM     67  C   UNL A   1      44.576  26.470  36.075  1.00  0.00     0.198 A 
ATOM     68  F   UNL A   1      42.274  26.819  35.729  1.00  0.00    -0.203 F 
ATOM     69  F   UNL A   1      47.449  28.363  34.934  1.00  0.00    -0.200 F 
ATOM     70  C   UNL A   1      45.893  26.854  35.873  1.00  0.00     0.200 A 
ATOM     71  F   UNL A   1      44.302  25.360  36.775  1.00  0.00    -0.200 F 
ATOM     72  F   UNL A   1      46.893  26.108  36.363  1.00  0.00    -0.200 F 
ENDBRANCH  39  62
ENDBRANCH  13  14
ENDBRANCH   6   8
ENDBRANCH   3   4
ENDBRANCH   2   3
ENDBRANCH   1   2
BRANCH   1  73
ATOM     73  C   UNL A   1      32.408  29.799  26.786  1.00  0.00     0.116 C 
BRANCH  73  74
ATOM     74  N   UNL A   1      31.642  28.601  27.076  1.00  0.00    -0.356 N 
ATOM     75  C   UNL A   1      31.805  27.333  26.603  1.00  0.00     0.227 C 
ATOM     76  H   UNL A   1      30.898  28.722  27.708  1.00  0.00     0.163 HD
ATOM     77  O   UNL A   1      31.123  26.446  27.115  1.00  0.00    -0.275 OA
BRANCH  75  78
ATOM     78  C   UNL A   1      32.723  27.100  25.417  1.00  0.00     0.127 C 
ATOM     79  C   UNL A   1      32.032  27.343  24.038  1.00  0.00     0.127 C 
ATOM     80  C   UNL A   1      33.044  25.596  25.354  1.00  0.00     0.155 C 
ATOM     81  C   UNL A   1      32.234  25.956  23.378  1.00  0.00     0.155 C 
ATOM     82  C   UNL A   1      34.183  25.374  24.413  1.00  0.00     0.004 C 
ATOM     83  O   UNL A   1      31.952  25.113  24.528  1.00  0.00    -0.365 OA
ATOM     84  C   UNL A   1      33.680  25.582  23.190  1.00  0.00     0.004 C 
BRANCH  79  85
ATOM     85  C   UNL A   1      32.586  28.453  23.147  1.00  0.00     0.231 C 
ATOM     86  O   UNL A   1      33.795  28.664  23.028  1.00  0.00    -0.274 OA
ATOM     87  N   UNL A   1      31.763  29.144  22.299  1.00  0.00    -0.325 N 
ATOM     88  H   UNL A   1      32.225  29.536  21.522  1.00  0.00     0.169 HD
BRANCH  87  89
ATOM     89  C   UNL A   1      30.389  29.397  22.332  1.00  0.00     0.048 A 
ATOM     90  C   UNL A   1      29.551  28.420  22.881  1.00  0.00     0.026 A 
ATOM     91  C   UNL A   1      29.826  30.517  21.732  1.00  0.00     0.111 A 
ATOM     92  C   UNL A   1      28.166  28.609  22.924  1.00  0.00     0.009 A 
ATOM     93  C   UNL A   1      28.437  30.709  21.780  1.00  0.00     0.271 A 
ATOM     94  C   UNL A   1      27.602  29.764  22.385  1.00  0.00     0.086 A 
BRANCH  93  95
ATOM     95  N   UNL A   1      27.855  31.906  21.165  1.00  0.00     0.062 N 
ATOM     96  O   UNL A   1      27.438  31.814  20.002  1.00  0.00    -0.258 OA
ATOM     97  O   UNL A   1      27.829  32.948  21.839  1.00  0.00    -0.258 OA
ENDBRANCH  93  95
ENDBRANCH  87  89
ENDBRANCH  79  85
ENDBRANCH  75  78
ENDBRANCH  73  74
ENDBRANCH   1  73
TORSDOF 14
ENDMDL
MODEL 2
REMARK VINA RESULT:     -13.6      0.308      1.596
REMARK SMILES O=C(NCCCCNC(=O)[C@@H]1[C@@H](C(=O)Nc2cccc([N+](=O)[O-])c2)[C@H]2C=C[C@@H]1O2)c1ccc(-c2c3nc(c(-c4c(F)c(F)c(F)c(F)c4F)c4ccc([nH]4)c(-c4c(F)c(F)c(F)c(F)c4F)c4nc(c(-c5c(F)c(F)c(F)c(F)c5F)c5ccc2[nH]5)C=C4)C=C3)cc1
REMARK SMILES IDX 6 1 5 2 4 3 3 4 1 5 2 6 30 8 31 9 92 10 32 11 91 12 33 13
REMARK SMILES IDX 34 14 35 15 85 16 36 17 90 18 84 19 86 20 37 21 89 22 83 23
REMARK SMILES IDX 82 24 38 26 70 27 50 28 69 29 51 30 54 31 68 32 87 33 52 34
REMARK SMILES IDX 53 35 67 37 88 38 55 39 39 40 40 41 48 42 41 43 42 44 46 45
REMARK SMILES IDX 49 46 43 47 44 48 47 49 45 50 71 51 72 52 80 53 73 54 74 55
REMARK SMILES IDX 78 56 81 57 75 58 76 59 79 60 77 61 56 62 57 63 65 64 58 65
REMARK SMILES IDX 59 66 63 67 66 68 60 69 61 70 64 71 62 72 7 73 8 74 9 75
REMARK SMILES IDX 10 77 11 78 12 79 28 80 25 81 27 82 29 83 26 84 13 85 14 86
REMARK SMILES IDX 15 87 16 89 17 90 24 91 18 92 20 93 19 94 21 95 22 96 23 97
REMARK H PARENT 3 7 86 25 54 36 8 76 15 88
REMARK Flexibility Score: inf
ROOT
ATOM      1  C   UNL A   1      31.704  30.523  25.901  1.00  0.00     0.023 C 
ENDROOT
BRANCH   1   2
ATOM      2  C   UNL A   1      31.425  31.890  26.520  1.00  0.00     0.023 C 
BRANCH   2   3
ATOM      3  C   UNL A   1      32.590  32.550  27.245  1.00  0.00     0.116 C 
BRANCH   3   4
ATOM      4  N   UNL A   1      32.346  33.936  27.607  1.00  0.00    -0.352 N 
ATOM      5  O   UNL A   1      32.585  35.871  28.741  1.00  0.00    -0.269 OA
ATOM      6  C   UNL A   1      33.007  34.746  28.504  1.00  0.00     0.251 C 
ATOM      7  H   UNL A   1      31.592  34.362  27.139  1.00  0.00     0.163 HD
BRANCH   6   8
ATOM      8  C   UNL A   1      34.204  34.244  29.216  1.00  0.00     0.039 A 
ATOM      9  C   UNL A   1      35.487  34.565  28.774  1.00  0.00     0.014 A 
ATOM     10  C   UNL A   1      34.038  33.428  30.341  1.00  0.00     0.014 A 
ATOM     11  C   UNL A   1      36.585  33.916  29.324  1.00  0.00     0.010 A 
ATOM     12  C   UNL A   1      35.157  32.864  30.966  1.00  0.00     0.010 A 
ATOM     13  C   UNL A   1      36.438  33.066  30.433  1.00  0.00    -0.014 A 
BRANCH  13  14
ATOM     14  C   UNL A   1      37.657  32.458  31.030  1.00  0.00     0.031 A 
ATOM     15  C   UNL A   1      38.107  32.799  32.424  1.00  0.00     0.074 A 
ATOM     16  C   UNL A   1      38.314  31.521  30.321  1.00  0.00     0.049 A 
ATOM     17  N   UNL A   1      39.096  32.290  33.117  1.00  0.00    -0.248 NA
ATOM     18  C   UNL A   1      37.364  33.852  33.134  1.00  0.00     0.031 C 
ATOM     19  C   UNL A   1      37.987  31.127  28.947  1.00  0.00     0.029 A 
ATOM     20  N   UNL A   1      39.360  30.701  30.659  1.00  0.00    -0.354 N 
ATOM     21  C   UNL A   1      39.105  32.965  34.331  1.00  0.00     0.074 A 
ATOM     22  C   UNL A   1      38.037  33.942  34.274  1.00  0.00     0.031 C 
ATOM     23  C   UNL A   1      38.761  30.094  28.589  1.00  0.00     0.029 A 
ATOM     24  C   UNL A   1      39.682  29.795  29.679  1.00  0.00     0.049 A 
ATOM     25  H   UNL A   1      39.834  30.757  31.521  1.00  0.00     0.167 HD
ATOM     26  C   UNL A   1      39.921  32.778  35.397  1.00  0.00     0.037 A 
ATOM     27  C   UNL A   1      40.618  28.827  29.656  1.00  0.00     0.037 A 
ATOM     28  C   UNL A   1      40.969  31.791  35.457  1.00  0.00     0.049 A 
ATOM     29  C   UNL A   1      41.487  28.627  30.862  1.00  0.00     0.074 A 
ATOM     30  C   UNL A   1      41.847  31.523  36.495  1.00  0.00     0.029 A 
ATOM     31  N   UNL A   1      41.278  30.904  34.437  1.00  0.00    -0.354 N 
ATOM     32  N   UNL A   1      41.475  29.271  32.004  1.00  0.00    -0.248 NA
ATOM     33  C   UNL A   1      42.503  27.571  30.774  1.00  0.00     0.031 C 
ATOM     34  C   UNL A   1      42.705  30.494  36.092  1.00  0.00     0.029 A 
ATOM     35  C   UNL A   1      42.337  30.093  34.818  1.00  0.00     0.049 A 
ATOM     36  H   UNL A   1      40.814  30.855  33.571  1.00  0.00     0.167 HD
ATOM     37  C   UNL A   1      42.481  28.702  32.769  1.00  0.00     0.074 A 
ATOM     38  C   UNL A   1      43.057  27.634  31.977  1.00  0.00     0.031 C 
ATOM     39  C   UNL A   1      42.905  29.045  34.010  1.00  0.00     0.037 A 
BRANCH  26  40
ATOM     40  C   UNL A   1      39.721  33.662  36.594  1.00  0.00     0.064 A 
ATOM     41  C   UNL A   1      40.321  34.926  36.680  1.00  0.00     0.173 A 
ATOM     42  C   UNL A   1      38.863  33.270  37.634  1.00  0.00     0.173 A 
ATOM     43  F   UNL A   1      41.156  35.345  35.718  1.00  0.00    -0.203 F 
ATOM     44  C   UNL A   1      40.079  35.762  37.770  1.00  0.00     0.198 A 
ATOM     45  C   UNL A   1      38.606  34.117  38.710  1.00  0.00     0.198 A 
ATOM     46  F   UNL A   1      38.258  32.073  37.597  1.00  0.00    -0.203 F 
ATOM     47  F   UNL A   1      40.686  36.955  37.845  1.00  0.00    -0.200 F 
ATOM     48  C   UNL A   1      39.217  35.359  38.778  1.00  0.00     0.200 A 
ATOM     49  F   UNL A   1      37.762  33.732  39.678  1.00  0.00    -0.200 F 
ATOM     50  F   UNL A   1      38.975  36.170  39.819  1.00  0.00    -0.200 F 
ENDBRANCH  26  40
BRANCH  27  51
ATOM     51  C   UNL A   1      40.773  27.984  28.443  1.00  0.00     0.064 A 
ATOM     52  C   UNL A   1      41.569  28.400  27.368  1.00  0.00     0.173 A 
ATOM     53  C   UNL A   1      40.142  26.736  28.345  1.00  0.00     0.173 A 
ATOM     54  F   UNL A   1      42.178  29.595  27.407  1.00  0.00    -0.203 F 
ATOM     55  C   UNL A   1      41.716  27.605  26.233  1.00  0.00     0.198 A 
ATOM     56  C   UNL A   1      40.315  25.927  27.225  1.00  0.00     0.198 A 
ATOM     57  F   UNL A   1      39.375  26.290  29.351  1.00  0.00    -0.203 F 
ATOM     58  F   UNL A   1      42.448  28.043  25.201  1.00  0.00    -0.200 F 
ATOM     59  C   UNL A   1      41.095  26.366  26.167  1.00  0.00     0.200 A 
ATOM     60  F   UNL A   1      39.728  24.725  27.173  1.00  0.00    -0.200 F 
ATOM     61  F   UNL A   1      41.245  25.597  25.080  1.00  0.00    -0.200 F 
ENDBRANCH  27  51
BRANCH  39  62
ATOM     62  C   UNL A   1      44.047  28.255  34.572  1.00  0.00     0.064 A 
ATOM     63  C   UNL A   1      45.376  28.665  34.391  1.00  0.00     0.173 A 
ATOM     64  C   UNL A   1      43.813  27.078  35.298  1.00  0.00     0.173 A 
ATOM     65  F   UNL A   1      45.649  29.775  33.688  1.00  0.00    -0.203 F 
ATOM     66  C   UNL A   1      46.432  27.908  34.887  1.00  0.00     0.198 A 
ATOM     67  C   UNL A   1      44.871  26.336  35.816  1.00  0.00     0.198 A 
ATOM     68  F   UNL A   1      42.559  26.647  35.502  1.00  0.00    -0.203 F 
ATOM     69  F   UNL A   1      47.696  28.288  34.654  1.00  0.00    -0.200 F 
ATOM     70  C   UNL A   1      46.178  26.746  35.601  1.00  0.00     0.200 A 
ATOM     71  F   UNL A   1      44.625  25.217  36.512  1.00  0.00    -0.200 F 
ATOM     72  F   UNL A   1      47.197  26.014  36.073  1.00  0.00    -0.200 F 
ENDBRANCH  39  62
ENDBRANCH  13  14
ENDBRANCH   6   8
ENDBRANCH   3   4
ENDBRANCH   2   3
ENDBRANCH   1   2
BRANCH   1  73
ATOM     73  C   UNL A   1      32.360  29.494  26.815  1.00  0.00     0.116 C 
BRANCH  73  74
ATOM     74  N   UNL A   1      31.563  28.299  27.019  1.00  0.00    -0.356 N 
ATOM     75  C   UNL A   1      31.705  27.059  26.470  1.00  0.00     0.227 C 
ATOM     76  H   UNL A   1      30.812  28.397  27.646  1.00  0.00     0.163 HD
ATOM     77  O   UNL A   1      30.996  26.158  26.917  1.00  0.00    -0.275 OA
BRANCH  75  78
ATOM     78  C   UNL A   1      32.636  26.879  25.285  1.00  0.00     0.127 C 
ATOM     79  C   UNL A   1      31.966  27.201  23.913  1.00  0.00     0.127 C 
ATOM     80  C   UNL A   1      32.942  25.376  25.147  1.00  0.00     0.155 C 
ATOM     81  C   UNL A   1      32.161  25.848  23.183  1.00  0.00     0.155 C 
ATOM     82  C   UNL A   1      34.091  25.191  24.210  1.00  0.00     0.004 C 
ATOM     83  O   UNL A   1      31.856  24.949  24.283  1.00  0.00    -0.365 OA
ATOM     84  C   UNL A   1      33.606  25.468  22.993  1.00  0.00     0.004 C 
BRANCH  79  85
ATOM     85  C   UNL A   1      32.543  28.350  23.088  1.00  0.00     0.231 C 
ATOM     86  O   UNL A   1      33.756  28.546  22.985  1.00  0.00    -0.274 OA
ATOM     87  N   UNL A   1      31.736  29.103  22.279  1.00  0.00    -0.325 N 
ATOM     88  H   UNL A   1      32.208  29.530  21.527  1.00  0.00     0.169 HD
BRANCH  87  89
ATOM     89  C   UNL A   1      30.366  29.379  22.322  1.00  0.00     0.048 A 
ATOM     90  C   UNL A   1      29.521  28.429  22.907  1.00  0.00     0.026 A 
ATOM     91  C   UNL A   1      29.813  30.490  21.700  1.00  0.00     0.111 A 
ATOM     92  C   UNL A   1      28.139  28.641  22.962  1.00  0.00     0.009 A 
ATOM     93  C   UNL A   1      28.428  30.706  21.759  1.00  0.00     0.271 A 
ATOM     94  C   UNL A   1      27.587  29.791  22.400  1.00  0.00     0.086 A 
BRANCH  93  95
ATOM     95  N   UNL A   1      27.856  31.895  21.120  1.00  0.00     0.062 N 
ATOM     96  O   UNL A   1      27.469  31.791  19.947  1.00  0.00    -0.258 OA
ATOM     97  O   UNL A   1      27.810  32.942  21.783  1.00  0.00    -0.258 OA
ENDBRANCH  93  95
ENDBRANCH  87  89
ENDBRANCH  79  85
ENDBRANCH  75  78
ENDBRANCH  73  74
ENDBRANCH   1  73
TORSDOF 14
ENDMDL
MODEL 3
REMARK VINA RESULT:     -13.5      1.570      3.943
REMARK SMILES O=C(NCCCCNC(=O)[C@@H]1[C@@H](C(=O)Nc2cccc([N+](=O)[O-])c2)[C@H]2C=C[C@@H]1O2)c1ccc(-c2c3nc(c(-c4c(F)c(F)c(F)c(F)c4F)c4ccc([nH]4)c(-c4c(F)c(F)c(F)c(F)c4F)c4nc(c(-c5c(F)c(F)c(F)c(F)c5F)c5ccc2[nH]5)C=C4)C=C3)cc1
REMARK SMILES IDX 6 1 5 2 4 3 3 4 1 5 2 6 30 8 31 9 92 10 32 11 91 12 33 13
REMARK SMILES IDX 34 14 35 15 85 16 36 17 90 18 84 19 86 20 37 21 89 22 83 23
REMARK SMILES IDX 82 24 38 26 70 27 50 28 69 29 51 30 54 31 68 32 87 33 52 34
REMARK SMILES IDX 53 35 67 37 88 38 55 39 39 40 40 41 48 42 41 43 42 44 46 45
REMARK SMILES IDX 49 46 43 47 44 48 47 49 45 50 71 51 72 52 80 53 73 54 74 55
REMARK SMILES IDX 78 56 81 57 75 58 76 59 79 60 77 61 56 62 57 63 65 64 58 65
REMARK SMILES IDX 59 66 63 67 66 68 60 69 61 70 64 71 62 72 7 73 8 74 9 75
REMARK SMILES IDX 10 77 11 78 12 79 28 80 25 81 27 82 29 83 26 84 13 85 14 86
REMARK SMILES IDX 15 87 16 89 17 90 24 91 18 92 20 93 19 94 21 95 22 96 23 97
REMARK H PARENT 3 7 86 25 54 36 8 76 15 88
REMARK Flexibility Score: inf
ROOT
ATOM      1  C   UNL A   1      31.533  30.599  26.229  1.00  0.00     0.023 C 
ENDROOT
BRANCH   1   2
ATOM      2  C   UNL A   1      31.387  32.086  26.540  1.00  0.00     0.023 C 
BRANCH   2   3
ATOM      3  C   UNL A   1      32.559  32.741  27.258  1.00  0.00     0.116 C 
BRANCH   3   4
ATOM      4  N   UNL A   1      32.312  34.119  27.646  1.00  0.00    -0.352 N 
ATOM      5  O   UNL A   1      32.545  36.033  28.818  1.00  0.00    -0.269 OA
ATOM      6  C   UNL A   1      32.969  34.913  28.561  1.00  0.00     0.251 C 
ATOM      7  H   UNL A   1      31.559  34.554  27.183  1.00  0.00     0.163 HD
BRANCH   6   8
ATOM      8  C   UNL A   1      34.164  34.398  29.268  1.00  0.00     0.039 A 
ATOM      9  C   UNL A   1      35.445  34.634  28.773  1.00  0.00     0.014 A 
ATOM     10  C   UNL A   1      33.996  33.656  30.442  1.00  0.00     0.014 A 
ATOM     11  C   UNL A   1      36.530  33.968  29.328  1.00  0.00     0.010 A 
ATOM     12  C   UNL A   1      35.107  33.078  31.068  1.00  0.00     0.010 A 
ATOM     13  C   UNL A   1      36.380  33.191  30.489  1.00  0.00    -0.014 A 
BRANCH  13  14
ATOM     14  C   UNL A   1      37.588  32.563  31.087  1.00  0.00     0.031 A 
ATOM     15  C   UNL A   1      38.043  32.898  32.481  1.00  0.00     0.074 A 
ATOM     16  C   UNL A   1      38.230  31.615  30.378  1.00  0.00     0.049 A 
ATOM     17  N   UNL A   1      39.024  32.372  33.174  1.00  0.00    -0.248 NA
ATOM     18  C   UNL A   1      37.318  33.963  33.190  1.00  0.00     0.031 C 
ATOM     19  C   UNL A   1      37.897  31.226  29.004  1.00  0.00     0.029 A 
ATOM     20  N   UNL A   1      39.263  30.778  30.716  1.00  0.00    -0.354 N 
ATOM     21  C   UNL A   1      39.043  33.047  34.388  1.00  0.00     0.074 A 
ATOM     22  C   UNL A   1      37.993  34.042  34.330  1.00  0.00     0.031 C 
ATOM     23  C   UNL A   1      38.654  30.181  28.647  1.00  0.00     0.029 A 
ATOM     24  C   UNL A   1      39.570  29.866  29.737  1.00  0.00     0.049 A 
ATOM     25  H   UNL A   1      39.737  30.827  31.579  1.00  0.00     0.167 HD
ATOM     26  C   UNL A   1      39.856  32.847  35.454  1.00  0.00     0.037 A 
ATOM     27  C   UNL A   1      40.489  28.884  29.714  1.00  0.00     0.037 A 
ATOM     28  C   UNL A   1      40.888  31.843  35.514  1.00  0.00     0.049 A 
ATOM     29  C   UNL A   1      41.355  28.670  30.920  1.00  0.00     0.074 A 
ATOM     30  C   UNL A   1      41.761  31.561  36.553  1.00  0.00     0.029 A 
ATOM     31  N   UNL A   1      41.182  30.950  34.495  1.00  0.00    -0.354 N 
ATOM     32  N   UNL A   1      41.353  29.314  32.062  1.00  0.00    -0.248 NA
ATOM     33  C   UNL A   1      42.354  27.597  30.833  1.00  0.00     0.031 C 
ATOM     34  C   UNL A   1      42.602  30.517  36.150  1.00  0.00     0.029 A 
ATOM     35  C   UNL A   1      42.228  30.122  34.877  1.00  0.00     0.049 A 
ATOM     36  H   UNL A   1      40.718  30.909  33.629  1.00  0.00     0.167 HD
ATOM     37  C   UNL A   1      42.350  28.729  32.827  1.00  0.00     0.074 A 
ATOM     38  C   UNL A   1      42.908  27.651  32.036  1.00  0.00     0.031 C 
ATOM     39  C   UNL A   1      42.778  29.065  34.069  1.00  0.00     0.037 A 
BRANCH  26  40
ATOM     40  C   UNL A   1      39.671  33.734  36.651  1.00  0.00     0.064 A 
ATOM     41  C   UNL A   1      40.261  35.004  36.720  1.00  0.00     0.173 A 
ATOM     42  C   UNL A   1      38.835  33.340  37.707  1.00  0.00     0.173 A 
ATOM     43  F   UNL A   1      41.074  35.426  35.741  1.00  0.00    -0.203 F 
ATOM     44  C   UNL A   1      40.032  35.843  37.811  1.00  0.00     0.198 A 
ATOM     45  C   UNL A   1      38.591  34.189  38.785  1.00  0.00     0.198 A 
ATOM     46  F   UNL A   1      38.241  32.138  37.687  1.00  0.00    -0.203 F 
ATOM     47  F   UNL A   1      40.630  37.041  37.869  1.00  0.00    -0.200 F 
ATOM     48  C   UNL A   1      39.192  35.437  38.837  1.00  0.00     0.200 A 
ATOM     49  F   UNL A   1      37.768  33.801  39.770  1.00  0.00    -0.200 F 
ATOM     50  F   UNL A   1      38.963  36.250  39.878  1.00  0.00    -0.200 F 
ENDBRANCH  26  40
BRANCH  27  51
ATOM     51  C   UNL A   1      40.631  28.038  28.501  1.00  0.00     0.064 A 
ATOM     52  C   UNL A   1      39.975  26.805  28.396  1.00  0.00     0.173 A 
ATOM     53  C   UNL A   1      41.413  28.458  27.415  1.00  0.00     0.173 A 
ATOM     54  F   UNL A   1      39.231  26.353  29.416  1.00  0.00    -0.203 F 
ATOM     55  C   UNL A   1      40.107  26.017  27.255  1.00  0.00     0.198 A 
ATOM     56  C   UNL A   1      41.519  27.684  26.263  1.00  0.00     0.198 A 
ATOM     57  F   UNL A   1      42.055  29.634  27.465  1.00  0.00    -0.203 F 
ATOM     58  F   UNL A   1      39.503  24.823  27.195  1.00  0.00    -0.200 F 
ATOM     59  C   UNL A   1      40.872  26.461  26.186  1.00  0.00     0.200 A 
ATOM     60  F   UNL A   1      42.244  28.126  25.227  1.00  0.00    -0.200 F 
ATOM     61  F   UNL A   1      40.990  25.706  25.086  1.00  0.00    -0.200 F 
ENDBRANCH  27  51
BRANCH  39  62
ATOM     62  C   UNL A   1      43.907  28.256  34.632  1.00  0.00     0.064 A 
ATOM     63  C   UNL A   1      43.669  27.080  35.358  1.00  0.00     0.173 A 
ATOM     64  C   UNL A   1      45.238  28.657  34.443  1.00  0.00     0.173 A 
ATOM     65  F   UNL A   1      42.411  26.666  35.578  1.00  0.00    -0.203 F 
ATOM     66  C   UNL A   1      44.721  26.353  35.906  1.00  0.00     0.198 A 
ATOM     67  C   UNL A   1      46.289  27.913  34.970  1.00  0.00     0.198 A 
ATOM     68  F   UNL A   1      45.516  29.773  33.752  1.00  0.00    -0.203 F 
ATOM     69  F   UNL A   1      44.467  25.263  36.644  1.00  0.00    -0.200 F 
ATOM     70  C   UNL A   1      46.029  26.768  35.709  1.00  0.00     0.200 A 
ATOM     71  F   UNL A   1      47.554  28.311  34.775  1.00  0.00    -0.200 F 
ATOM     72  F   UNL A   1      47.041  26.070  36.243  1.00  0.00    -0.200 F 
ENDBRANCH  39  62
ENDBRANCH  13  14
ENDBRANCH   6   8
ENDBRANCH   3   4
ENDBRANCH   2   3
ENDBRANCH   1   2
BRANCH   1  73
ATOM     73  C   UNL A   1      32.961  30.075  26.115  1.00  0.00     0.116 C 
BRANCH  73  74
ATOM     74  N   UNL A   1      33.336  29.681  24.770  1.00  0.00    -0.356 N 
ATOM     75  C   UNL A   1      32.635  28.955  23.853  1.00  0.00     0.227 C 
ATOM     76  H   UNL A   1      34.225  29.982  24.476  1.00  0.00     0.163 HD
ATOM     77  O   UNL A   1      33.099  28.879  22.716  1.00  0.00    -0.275 OA
BRANCH  75  78
ATOM     78  C   UNL A   1      31.395  28.202  24.300  1.00  0.00     0.127 C 
ATOM     79  C   UNL A   1      31.681  26.727  24.721  1.00  0.00     0.127 C 
ATOM     80  C   UNL A   1      30.486  28.014  23.071  1.00  0.00     0.155 C 
ATOM     81  C   UNL A   1      30.746  25.972  23.743  1.00  0.00     0.155 C 
ATOM     82  C   UNL A   1      29.132  27.571  23.522  1.00  0.00     0.004 C 
ATOM     83  O   UNL A   1      30.987  26.757  22.545  1.00  0.00    -0.365 OA
ATOM     84  C   UNL A   1      29.288  26.304  23.924  1.00  0.00     0.004 C 
BRANCH  79  85
ATOM     85  C   UNL A   1      31.390  26.328  26.167  1.00  0.00     0.231 C 
ATOM     86  O   UNL A   1      30.820  27.081  26.959  1.00  0.00    -0.274 OA
ATOM     87  N   UNL A   1      31.590  25.042  26.590  1.00  0.00    -0.325 N 
ATOM     88  H   UNL A   1      31.039  24.784  27.364  1.00  0.00     0.169 HD
BRANCH  87  89
ATOM     89  C   UNL A   1      32.432  24.026  26.126  1.00  0.00     0.048 A 
ATOM     90  C   UNL A   1      33.813  24.243  26.171  1.00  0.00     0.026 A 
ATOM     91  C   UNL A   1      31.943  22.878  25.516  1.00  0.00     0.111 A 
ATOM     92  C   UNL A   1      34.704  23.272  25.702  1.00  0.00     0.009 A 
ATOM     93  C   UNL A   1      32.835  21.902  25.051  1.00  0.00     0.271 A 
ATOM     94  C   UNL A   1      34.218  22.086  25.153  1.00  0.00     0.086 A 
BRANCH  93  95
ATOM     95  N   UNL A   1      32.309  20.682  24.430  1.00  0.00     0.062 N 
ATOM     96  O   UNL A   1      32.087  19.709  25.165  1.00  0.00    -0.258 OA
ATOM     97  O   UNL A   1      32.133  20.687  23.202  1.00  0.00    -0.258 OA
ENDBRANCH  93  95
ENDBRANCH  87  89
ENDBRANCH  79  85
ENDBRANCH  75  78
ENDBRANCH  73  74
ENDBRANCH   1  73
TORSDOF 14
ENDMDL
