MODEL 1
REMARK VINA RESULT:     -12.1      0.000      0.000
REMARK SMILES C[C@H]([C@@H](C)C(=O)NCCCCNC(=O)c1ccc(-c2c3nc(c(-c4c(F)c(F)c(F)c(F)c4F)c4ccc([nH]4)c(-c4c(F)c(F)c(F)c(F)c4F)c4nc(c(-c5c(F)c(F)c(F)c(F)c5F)c5ccc2[nH]5)C=C4)C=C3)cc1)n1c(CC#N)nc2ccccc21
REMARK SMILES IDX 8 1 7 2 5 3 6 4 3 6 4 7 2 8 1 9 78 10 79 11 89 12 83 13
REMARK SMILES IDX 84 14 88 15 85 16 87 17 86 18 80 19 81 20 82 21 9 22 10 23
REMARK SMILES IDX 11 24 12 25 13 26 14 28 15 29 16 30 77 31 17 32 76 33 18 34
REMARK SMILES IDX 19 35 20 36 70 37 21 38 75 39 69 40 71 41 22 42 74 43 68 44
REMARK SMILES IDX 67 45 23 47 55 48 35 49 54 50 36 51 39 52 53 53 72 54 37 55
REMARK SMILES IDX 38 56 52 58 73 59 40 60 24 61 25 62 33 63 26 64 27 65 31 66
REMARK SMILES IDX 34 67 28 68 29 69 32 70 30 71 56 72 57 73 65 74 58 75 59 76
REMARK SMILES IDX 63 77 66 78 60 79 61 80 64 81 62 82 41 83 42 84 50 85 43 86
REMARK SMILES IDX 44 87 48 88 51 89 45 90 46 91 49 92 47 93
REMARK H PARENT 7 5 12 27 71 46 39 57
REMARK Flexibility Score: inf
ROOT
ATOM      1  C   UNL A   1      32.793  29.781  25.546  1.00  0.00     0.116 C 
ENDROOT
BRANCH   1   2
ATOM      2  N   UNL A   1      31.871  29.374  24.484  1.00  0.00    -0.356 N 
ATOM      3  C   UNL A   1      31.926  28.469  23.461  1.00  0.00     0.224 C 
ATOM      4  O   UNL A   1      30.965  28.432  22.690  1.00  0.00    -0.275 OA
ATOM      5  H   UNL A   1      31.017  29.864  24.513  1.00  0.00     0.163 HD
BRANCH   3   6
ATOM      6  C   UNL A   1      33.086  27.496  23.256  1.00  0.00     0.098 C 
ATOM      7  C   UNL A   1      34.006  28.177  22.221  1.00  0.00     0.020 C 
BRANCH   6   8
ATOM      8  C   UNL A   1      32.565  25.984  23.263  1.00  0.00     0.098 C 
ATOM      9  C   UNL A   1      32.345  25.461  21.824  1.00  0.00     0.032 C 
BRANCH   8  10
ATOM     10  N   UNL A   1      33.364  24.967  23.953  1.00  0.00    -0.323 N 
ATOM     11  C   UNL A   1      32.943  24.571  25.170  1.00  0.00     0.124 A 
ATOM     12  C   UNL A   1      34.617  24.382  23.959  1.00  0.00     0.068 A 
ATOM     13  N   UNL A   1      33.871  24.806  26.065  1.00  0.00    -0.232 NA
ATOM     14  C   UNL A   1      34.954  24.413  25.340  1.00  0.00     0.089 A 
ATOM     15  C   UNL A   1      35.217  23.414  23.143  1.00  0.00     0.028 A 
ATOM     16  C   UNL A   1      36.064  23.747  25.872  1.00  0.00     0.030 A 
ATOM     17  C   UNL A   1      36.141  22.545  23.769  1.00  0.00     0.002 A 
ATOM     18  C   UNL A   1      36.593  22.733  25.082  1.00  0.00     0.002 A 
BRANCH  11  19
ATOM     19  C   UNL A   1      31.898  23.608  25.165  1.00  0.00     0.195 C 
BRANCH  19  20
ATOM     20  C   UNL A   1      30.881  23.587  26.295  1.00  0.00     0.070 C 
ATOM     21  N   UNL A   1      30.036  23.568  27.232  1.00  0.00    -0.198 NA
ENDBRANCH  19  20
ENDBRANCH  11  19
ENDBRANCH   8  10
ENDBRANCH   6   8
ENDBRANCH   3   6
ENDBRANCH   1   2
BRANCH   1  22
ATOM     22  C   UNL A   1      32.060  30.272  26.796  1.00  0.00     0.023 C 
BRANCH  22  23
ATOM     23  C   UNL A   1      31.761  31.763  26.806  1.00  0.00     0.023 C 
BRANCH  23  24
ATOM     24  C   UNL A   1      32.872  32.609  27.403  1.00  0.00     0.116 C 
BRANCH  24  25
ATOM     25  N   UNL A   1      32.472  33.987  27.652  1.00  0.00    -0.352 N 
ATOM     26  C   UNL A   1      32.980  34.884  28.572  1.00  0.00     0.251 C 
ATOM     27  H   UNL A   1      31.739  34.325  27.089  1.00  0.00     0.163 HD
ATOM     28  O   UNL A   1      32.461  35.963  28.748  1.00  0.00    -0.269 OA
BRANCH  26  29
ATOM     29  C   UNL A   1      34.158  34.473  29.370  1.00  0.00     0.039 A 
ATOM     30  C   UNL A   1      33.957  33.864  30.609  1.00  0.00     0.014 A 
ATOM     31  C   UNL A   1      35.443  34.620  28.847  1.00  0.00     0.014 A 
ATOM     32  C   UNL A   1      35.050  33.323  31.290  1.00  0.00     0.010 A 
ATOM     33  C   UNL A   1      36.510  33.992  29.473  1.00  0.00     0.010 A 
ATOM     34  C   UNL A   1      36.326  33.345  30.705  1.00  0.00    -0.014 A 
BRANCH  34  35
ATOM     35  C   UNL A   1      37.504  32.732  31.367  1.00  0.00     0.031 A 
ATOM     36  C   UNL A   1      38.201  31.577  30.703  1.00  0.00     0.074 A 
ATOM     37  C   UNL A   1      37.884  33.139  32.592  1.00  0.00     0.049 A 
ATOM     38  N   UNL A   1      39.148  30.801  31.165  1.00  0.00    -0.248 NA
ATOM     39  C   UNL A   1      37.739  31.221  29.352  1.00  0.00     0.031 C 
ATOM     40  C   UNL A   1      37.261  34.221  33.359  1.00  0.00     0.029 A 
ATOM     41  N   UNL A   1      38.877  32.675  33.420  1.00  0.00    -0.354 N 
ATOM     42  C   UNL A   1      39.372  29.855  30.173  1.00  0.00     0.074 A 
ATOM     43  C   UNL A   1      38.420  30.113  29.115  1.00  0.00     0.031 C 
ATOM     44  C   UNL A   1      37.897  34.348  34.535  1.00  0.00     0.029 A 
ATOM     45  C   UNL A   1      38.940  33.330  34.626  1.00  0.00     0.049 A 
ATOM     46  H   UNL A   1      39.486  31.943  33.172  1.00  0.00     0.167 HD
ATOM     47  C   UNL A   1      40.305  28.875  30.137  1.00  0.00     0.037 A 
ATOM     48  C   UNL A   1      39.740  33.122  35.689  1.00  0.00     0.037 A 
ATOM     49  C   UNL A   1      41.270  28.645  31.179  1.00  0.00     0.049 A 
ATOM     50  C   UNL A   1      40.767  32.022  35.629  1.00  0.00     0.074 A 
ATOM     51  C   UNL A   1      42.296  27.718  31.215  1.00  0.00     0.029 A 
ATOM     52  N   UNL A   1      41.324  29.350  32.373  1.00  0.00    -0.354 N 
ATOM     53  N   UNL A   1      41.012  31.170  34.663  1.00  0.00    -0.248 NA
ATOM     54  C   UNL A   1      41.633  31.858  36.804  1.00  0.00     0.031 C 
ATOM     55  C   UNL A   1      42.939  27.829  32.452  1.00  0.00     0.029 A 
ATOM     56  C   UNL A   1      42.353  28.865  33.162  1.00  0.00     0.049 A 
ATOM     57  H   UNL A   1      40.719  30.087  32.622  1.00  0.00     0.167 HD
ATOM     58  C   UNL A   1      42.080  30.395  35.097  1.00  0.00     0.074 A 
ATOM     59  C   UNL A   1      42.440  30.883  36.412  1.00  0.00     0.031 C 
ATOM     60  C   UNL A   1      42.708  29.374  34.463  1.00  0.00     0.037 A 
BRANCH  47  61
ATOM     61  C   UNL A   1      40.320  27.980  28.931  1.00  0.00     0.064 A 
ATOM     62  C   UNL A   1      39.601  26.776  28.895  1.00  0.00     0.173 A 
ATOM     63  C   UNL A   1      41.058  28.336  27.791  1.00  0.00     0.173 A 
ATOM     64  F   UNL A   1      38.892  26.380  29.963  1.00  0.00    -0.203 F 
ATOM     65  C   UNL A   1      39.652  25.942  27.781  1.00  0.00     0.198 A 
ATOM     66  C   UNL A   1      41.076  27.518  26.664  1.00  0.00     0.198 A 
ATOM     67  F   UNL A   1      41.760  29.479  27.768  1.00  0.00    -0.203 F 
ATOM     68  F   UNL A   1      39.010  24.765  27.797  1.00  0.00    -0.200 F 
ATOM     69  C   UNL A   1      40.383  26.317  26.664  1.00  0.00     0.200 A 
ATOM     70  F   UNL A   1      41.772  27.889  25.581  1.00  0.00    -0.200 F 
ATOM     71  F   UNL A   1      40.429  25.515  25.592  1.00  0.00    -0.200 F 
ENDBRANCH  47  61
BRANCH  48  72
ATOM     72  C   UNL A   1      39.619  33.988  36.891  1.00  0.00     0.064 A 
ATOM     73  C   UNL A   1      40.270  35.227  36.951  1.00  0.00     0.173 A 
ATOM     74  C   UNL A   1      38.850  33.600  37.999  1.00  0.00     0.173 A 
ATOM     75  F   UNL A   1      41.032  35.634  35.925  1.00  0.00    -0.203 F 
ATOM     76  C   UNL A   1      40.172  36.039  38.081  1.00  0.00     0.198 A 
ATOM     77  C   UNL A   1      38.730  34.424  39.115  1.00  0.00     0.198 A 
ATOM     78  F   UNL A   1      38.203  32.426  37.989  1.00  0.00    -0.203 F 
ATOM     79  F   UNL A   1      40.840  37.199  38.129  1.00  0.00    -0.200 F 
ATOM     80  C   UNL A   1      39.397  35.640  39.159  1.00  0.00     0.200 A 
ATOM     81  F   UNL A   1      37.968  34.042  40.149  1.00  0.00    -0.200 F 
ATOM     82  F   UNL A   1      39.299  36.422  40.242  1.00  0.00    -0.200 F 
ENDBRANCH  48  72
BRANCH  60  83
ATOM     83  C   UNL A   1      43.885  28.749  35.153  1.00  0.00     0.064 A 
ATOM     84  C   UNL A   1      45.190  29.233  34.978  1.00  0.00     0.173 A 
ATOM     85  C   UNL A   1      43.693  27.686  36.050  1.00  0.00     0.173 A 
ATOM     86  F   UNL A   1      45.429  30.237  34.122  1.00  0.00    -0.203 F 
ATOM     87  C   UNL A   1      46.262  28.659  35.659  1.00  0.00     0.198 A 
ATOM     88  C   UNL A   1      44.761  27.138  36.753  1.00  0.00     0.198 A 
ATOM     89  F   UNL A   1      42.463  27.192  36.260  1.00  0.00    -0.203 F 
ATOM     90  F   UNL A   1      47.506  29.108  35.444  1.00  0.00    -0.200 F 
ATOM     91  C   UNL A   1      46.045  27.621  36.553  1.00  0.00     0.200 A 
ATOM     92  F   UNL A   1      44.547  26.146  37.628  1.00  0.00    -0.200 F 
ATOM     93  F   UNL A   1      47.076  27.080  37.216  1.00  0.00    -0.200 F 
ENDBRANCH  60  83
ENDBRANCH  34  35
ENDBRANCH  26  29
ENDBRANCH  24  25
ENDBRANCH  23  24
ENDBRANCH  22  23
ENDBRANCH   1  22
TORSDOF 15
ENDMDL
MODEL 2
REMARK VINA RESULT:     -12.0      5.432     10.511
REMARK SMILES C[C@H]([C@@H](C)C(=O)NCCCCNC(=O)c1ccc(-c2c3nc(c(-c4c(F)c(F)c(F)c(F)c4F)c4ccc([nH]4)c(-c4c(F)c(F)c(F)c(F)c4F)c4nc(c(-c5c(F)c(F)c(F)c(F)c5F)c5ccc2[nH]5)C=C4)C=C3)cc1)n1c(CC#N)nc2ccccc21
REMARK SMILES IDX 8 1 7 2 5 3 6 4 3 6 4 7 2 8 1 9 78 10 79 11 89 12 83 13
REMARK SMILES IDX 84 14 88 15 85 16 87 17 86 18 80 19 81 20 82 21 9 22 10 23
REMARK SMILES IDX 11 24 12 25 13 26 14 28 15 29 16 30 77 31 17 32 76 33 18 34
REMARK SMILES IDX 19 35 20 36 70 37 21 38 75 39 69 40 71 41 22 42 74 43 68 44
REMARK SMILES IDX 67 45 23 47 55 48 35 49 54 50 36 51 39 52 53 53 72 54 37 55
REMARK SMILES IDX 38 56 52 58 73 59 40 60 24 61 25 62 33 63 26 64 27 65 31 66
REMARK SMILES IDX 34 67 28 68 29 69 32 70 30 71 56 72 57 73 65 74 58 75 59 76
REMARK SMILES IDX 63 77 66 78 60 79 61 80 64 81 62 82 41 83 42 84 50 85 43 86
REMARK SMILES IDX 44 87 48 88 51 89 45 90 46 91 49 92 47 93
REMARK H PARENT 7 5 12 27 71 46 39 57
REMARK Flexibility Score: inf
ROOT
ATOM      1  C   UNL A   1      35.584  21.902  24.380  1.00  0.00     0.116 C 
ENDROOT
BRANCH   1   2
ATOM      2  N   UNL A   1      34.251  21.317  24.541  1.00  0.00    -0.356 N 
ATOM      3  C   UNL A   1      33.161  21.613  25.310  1.00  0.00     0.224 C 
ATOM      4  O   UNL A   1      32.198  20.846  25.240  1.00  0.00    -0.275 OA
ATOM      5  H   UNL A   1      34.108  20.532  23.964  1.00  0.00     0.163 HD
BRANCH   3   6
ATOM      6  C   UNL A   1      33.069  22.846  26.207  1.00  0.00     0.098 C 
ATOM      7  C   UNL A   1      33.264  22.315  27.644  1.00  0.00     0.020 C 
BRANCH   6   8
ATOM      8  C   UNL A   1      31.946  23.852  25.675  1.00  0.00     0.098 C 
ATOM      9  C   UNL A   1      30.635  23.705  26.483  1.00  0.00     0.032 C 
BRANCH   8  10
ATOM     10  N   UNL A   1      32.246  25.286  25.636  1.00  0.00    -0.323 N 
ATOM     11  C   UNL A   1      32.918  25.748  24.563  1.00  0.00     0.124 A 
ATOM     12  C   UNL A   1      32.338  26.405  26.444  1.00  0.00     0.068 A 
ATOM     13  N   UNL A   1      34.043  26.304  24.942  1.00  0.00    -0.232 NA
ATOM     14  C   UNL A   1      33.582  26.964  26.039  1.00  0.00     0.089 A 
ATOM     15  C   UNL A   1      31.374  27.251  27.008  1.00  0.00     0.028 A 
ATOM     16  C   UNL A   1      34.020  28.229  26.444  1.00  0.00     0.030 A 
ATOM     17  C   UNL A   1      31.733  28.612  27.149  1.00  0.00     0.002 A 
ATOM     18  C   UNL A   1      33.033  29.083  26.923  1.00  0.00     0.002 A 
BRANCH  11  19
ATOM     19  C   UNL A   1      32.125  25.981  23.407  1.00  0.00     0.195 C 
BRANCH  19  20
ATOM     20  C   UNL A   1      32.714  25.752  22.024  1.00  0.00     0.070 C 
ATOM     21  N   UNL A   1      33.204  25.563  20.877  1.00  0.00    -0.198 NA
ENDBRANCH  19  20
ENDBRANCH  11  19
ENDBRANCH   8  10
ENDBRANCH   6   8
ENDBRANCH   3   6
ENDBRANCH   1   2
BRANCH   1  22
ATOM     22  C   UNL A   1      36.546  21.472  25.489  1.00  0.00     0.023 C 
BRANCH  22  23
ATOM     23  C   UNL A   1      37.697  20.596  25.020  1.00  0.00     0.023 C 
BRANCH  23  24
ATOM     24  C   UNL A   1      38.986  20.807  25.794  1.00  0.00     0.116 C 
BRANCH  24  25
ATOM     25  N   UNL A   1      39.845  19.632  25.807  1.00  0.00    -0.352 N 
ATOM     26  C   UNL A   1      41.200  19.550  26.068  1.00  0.00     0.251 C 
ATOM     27  H   UNL A   1      39.401  18.778  25.601  1.00  0.00     0.163 HD
ATOM     28  O   UNL A   1      41.806  18.513  25.923  1.00  0.00    -0.269 OA
BRANCH  26  29
ATOM     29  C   UNL A   1      41.902  20.782  26.496  1.00  0.00     0.039 A 
ATOM     30  C   UNL A   1      42.346  21.680  25.525  1.00  0.00     0.014 A 
ATOM     31  C   UNL A   1      42.041  21.074  27.854  1.00  0.00     0.014 A 
ATOM     32  C   UNL A   1      42.857  22.918  25.921  1.00  0.00     0.010 A 
ATOM     33  C   UNL A   1      42.450  22.341  28.241  1.00  0.00     0.010 A 
ATOM     34  C   UNL A   1      42.871  23.273  27.279  1.00  0.00    -0.014 A 
BRANCH  34  35
ATOM     35  C   UNL A   1      43.351  24.599  27.740  1.00  0.00     0.031 A 
ATOM     36  C   UNL A   1      42.348  25.661  28.094  1.00  0.00     0.074 A 
ATOM     37  C   UNL A   1      44.668  24.880  27.745  1.00  0.00     0.049 A 
ATOM     38  N   UNL A   1      42.539  26.925  28.375  1.00  0.00    -0.248 NA
ATOM     39  C   UNL A   1      40.934  25.254  28.091  1.00  0.00     0.031 C 
ATOM     40  C   UNL A   1      45.737  23.949  27.382  1.00  0.00     0.029 A 
ATOM     41  N   UNL A   1      45.331  26.043  28.051  1.00  0.00    -0.354 N 
ATOM     42  C   UNL A   1      41.272  27.463  28.553  1.00  0.00     0.074 A 
ATOM     43  C   UNL A   1      40.319  26.409  28.286  1.00  0.00     0.031 C 
ATOM     44  C   UNL A   1      46.921  24.570  27.503  1.00  0.00     0.029 A 
ATOM     45  C   UNL A   1      46.694  25.955  27.906  1.00  0.00     0.049 A 
ATOM     46  H   UNL A   1      44.872  26.863  28.347  1.00  0.00     0.167 HD
ATOM     47  C   UNL A   1      40.934  28.718  28.931  1.00  0.00     0.037 A 
ATOM     48  C   UNL A   1      47.649  26.891  28.067  1.00  0.00     0.037 A 
ATOM     49  C   UNL A   1      41.889  29.753  29.226  1.00  0.00     0.049 A 
ATOM     50  C   UNL A   1      47.249  28.283  28.482  1.00  0.00     0.074 A 
ATOM     51  C   UNL A   1      41.654  31.040  29.675  1.00  0.00     0.029 A 
ATOM     52  N   UNL A   1      43.264  29.617  29.099  1.00  0.00    -0.354 N 
ATOM     53  N   UNL A   1      46.053  28.768  28.706  1.00  0.00    -0.248 NA
ATOM     54  C   UNL A   1      48.334  29.255  28.672  1.00  0.00     0.031 C 
ATOM     55  C   UNL A   1      42.884  31.699  29.771  1.00  0.00     0.029 A 
ATOM     56  C   UNL A   1      43.890  30.804  29.441  1.00  0.00     0.049 A 
ATOM     57  H   UNL A   1      43.726  28.797  28.809  1.00  0.00     0.167 HD
ATOM     58  C   UNL A   1      46.241  30.087  29.098  1.00  0.00     0.074 A 
ATOM     59  C   UNL A   1      47.670  30.324  29.085  1.00  0.00     0.031 C 
ATOM     60  C   UNL A   1      45.315  31.017  29.439  1.00  0.00     0.037 A 
BRANCH  47  61
ATOM     61  C   UNL A   1      39.471  29.036  29.041  1.00  0.00     0.064 A 
ATOM     62  C   UNL A   1      38.790  28.972  30.267  1.00  0.00     0.173 A 
ATOM     63  C   UNL A   1      38.739  29.420  27.906  1.00  0.00     0.173 A 
ATOM     64  F   UNL A   1      39.438  28.596  31.380  1.00  0.00    -0.203 F 
ATOM     65  C   UNL A   1      37.426  29.240  30.346  1.00  0.00     0.198 A 
ATOM     66  C   UNL A   1      37.383  29.724  27.996  1.00  0.00     0.198 A 
ATOM     67  F   UNL A   1      39.339  29.503  26.709  1.00  0.00    -0.203 F 
ATOM     68  F   UNL A   1      36.785  29.107  31.516  1.00  0.00    -0.200 F 
ATOM     69  C   UNL A   1      36.725  29.622  29.212  1.00  0.00     0.200 A 
ATOM     70  F   UNL A   1      36.711  30.106  26.901  1.00  0.00    -0.200 F 
ATOM     71  F   UNL A   1      35.413  29.882  29.290  1.00  0.00    -0.200 F 
ENDBRANCH  47  61
BRANCH  48  72
ATOM     72  C   UNL A   1      49.077  26.537  27.859  1.00  0.00     0.064 A 
ATOM     73  C   UNL A   1      49.920  26.280  28.949  1.00  0.00     0.173 A 
ATOM     74  C   UNL A   1      49.629  26.445  26.572  1.00  0.00     0.173 A 
ATOM     75  F   UNL A   1      49.444  26.373  30.199  1.00  0.00    -0.203 F 
ATOM     76  C   UNL A   1      51.264  25.961  28.762  1.00  0.00     0.198 A 
ATOM     77  C   UNL A   1      50.966  26.099  26.385  1.00  0.00     0.198 A 
ATOM     78  F   UNL A   1      48.865  26.677  25.495  1.00  0.00    -0.203 F 
ATOM     79  F   UNL A   1      52.057  25.762  29.823  1.00  0.00    -0.200 F 
ATOM     80  C   UNL A   1      51.784  25.864  27.480  1.00  0.00     0.200 A 
ATOM     81  F   UNL A   1      51.461  25.992  25.144  1.00  0.00    -0.200 F 
ATOM     82  F   UNL A   1      53.075  25.553  27.301  1.00  0.00    -0.200 F 
ENDBRANCH  48  72
BRANCH  60  83
ATOM     83  C   UNL A   1      45.815  32.362  29.883  1.00  0.00     0.064 A 
ATOM     84  C   UNL A   1      45.951  33.433  28.988  1.00  0.00     0.173 A 
ATOM     85  C   UNL A   1      46.103  32.595  31.237  1.00  0.00     0.173 A 
ATOM     86  F   UNL A   1      45.701  33.259  27.682  1.00  0.00    -0.203 F 
ATOM     87  C   UNL A   1      46.381  34.682  29.430  1.00  0.00     0.198 A 
ATOM     88  C   UNL A   1      46.500  33.852  31.680  1.00  0.00     0.198 A 
ATOM     89  F   UNL A   1      45.979  31.606  32.134  1.00  0.00    -0.203 F 
ATOM     90  F   UNL A   1      46.548  35.680  28.552  1.00  0.00    -0.200 F 
ATOM     91  C   UNL A   1      46.645  34.893  30.776  1.00  0.00     0.200 A 
ATOM     92  F   UNL A   1      46.738  34.058  32.982  1.00  0.00    -0.200 F 
ATOM     93  F   UNL A   1      47.045  36.100  31.200  1.00  0.00    -0.200 F 
ENDBRANCH  60  83
ENDBRANCH  34  35
ENDBRANCH  26  29
ENDBRANCH  24  25
ENDBRANCH  23  24
ENDBRANCH  22  23
ENDBRANCH   1  22
TORSDOF 15
ENDMDL
MODEL 3
REMARK VINA RESULT:     -11.9      0.841      7.453
REMARK SMILES C[C@H]([C@@H](C)C(=O)NCCCCNC(=O)c1ccc(-c2c3nc(c(-c4c(F)c(F)c(F)c(F)c4F)c4ccc([nH]4)c(-c4c(F)c(F)c(F)c(F)c4F)c4nc(c(-c5c(F)c(F)c(F)c(F)c5F)c5ccc2[nH]5)C=C4)C=C3)cc1)n1c(CC#N)nc2ccccc21
REMARK SMILES IDX 8 1 7 2 5 3 6 4 3 6 4 7 2 8 1 9 78 10 79 11 89 12 83 13
REMARK SMILES IDX 84 14 88 15 85 16 87 17 86 18 80 19 81 20 82 21 9 22 10 23
REMARK SMILES IDX 11 24 12 25 13 26 14 28 15 29 16 30 77 31 17 32 76 33 18 34
REMARK SMILES IDX 19 35 20 36 70 37 21 38 75 39 69 40 71 41 22 42 74 43 68 44
REMARK SMILES IDX 67 45 23 47 55 48 35 49 54 50 36 51 39 52 53 53 72 54 37 55
REMARK SMILES IDX 38 56 52 58 73 59 40 60 24 61 25 62 33 63 26 64 27 65 31 66
REMARK SMILES IDX 34 67 28 68 29 69 32 70 30 71 56 72 57 73 65 74 58 75 59 76
REMARK SMILES IDX 63 77 66 78 60 79 61 80 64 81 62 82 41 83 42 84 50 85 43 86
REMARK SMILES IDX 44 87 48 88 51 89 45 90 46 91 49 92 47 93
REMARK H PARENT 7 5 12 27 71 46 39 57
REMARK Flexibility Score: inf
ROOT
ATOM      1  C   UNL A   1      32.493  30.052  25.491  1.00  0.00     0.116 C 
ENDROOT
BRANCH   1   2
ATOM      2  N   UNL A   1      31.613  29.703  24.373  1.00  0.00    -0.356 N 
ATOM      3  C   UNL A   1      31.667  28.788  23.359  1.00  0.00     0.224 C 
ATOM      4  O   UNL A   1      30.756  28.814  22.529  1.00  0.00    -0.275 OA
ATOM      5  H   UNL A   1      30.797  30.253  24.346  1.00  0.00     0.163 HD
BRANCH   3   6
ATOM      6  C   UNL A   1      32.764  27.733  23.231  1.00  0.00     0.098 C 
ATOM      7  C   UNL A   1      33.990  28.490  22.678  1.00  0.00     0.020 C 
BRANCH   6   8
ATOM      8  C   UNL A   1      32.156  26.343  22.725  1.00  0.00     0.098 C 
ATOM      9  C   UNL A   1      32.661  25.996  21.304  1.00  0.00     0.032 C 
BRANCH   8  10
ATOM     10  N   UNL A   1      32.366  25.143  23.541  1.00  0.00    -0.323 N 
ATOM     11  C   UNL A   1      32.219  25.270  24.875  1.00  0.00     0.124 A 
ATOM     12  C   UNL A   1      32.943  23.887  23.508  1.00  0.00     0.068 A 
ATOM     13  N   UNL A   1      33.334  24.945  25.483  1.00  0.00    -0.232 NA
ATOM     14  C   UNL A   1      33.661  23.856  24.735  1.00  0.00     0.089 A 
ATOM     15  C   UNL A   1      32.544  22.674  22.932  1.00  0.00     0.028 A 
ATOM     16  C   UNL A   1      34.256  22.696  25.243  1.00  0.00     0.030 A 
ATOM     17  C   UNL A   1      32.912  21.496  23.622  1.00  0.00     0.002 A 
ATOM     18  C   UNL A   1      33.786  21.498  24.719  1.00  0.00     0.002 A 
BRANCH  11  19
ATOM     19  C   UNL A   1      30.878  25.235  25.342  1.00  0.00     0.195 C 
BRANCH  19  20
ATOM     20  C   UNL A   1      30.463  24.211  26.386  1.00  0.00     0.070 C 
ATOM     21  N   UNL A   1      30.120  23.361  27.253  1.00  0.00    -0.198 NA
ENDBRANCH  19  20
ENDBRANCH  11  19
ENDBRANCH   8  10
ENDBRANCH   6   8
ENDBRANCH   3   6
ENDBRANCH   1   2
BRANCH   1  22
ATOM     22  C   UNL A   1      31.717  30.570  26.703  1.00  0.00     0.023 C 
BRANCH  22  23
ATOM     23  C   UNL A   1      31.529  32.078  26.733  1.00  0.00     0.023 C 
BRANCH  23  24
ATOM     24  C   UNL A   1      32.748  32.841  27.219  1.00  0.00     0.116 C 
BRANCH  24  25
ATOM     25  N   UNL A   1      32.449  34.212  27.607  1.00  0.00    -0.352 N 
ATOM     26  C   UNL A   1      33.012  34.971  28.616  1.00  0.00     0.251 C 
ATOM     27  H   UNL A   1      31.749  34.660  27.080  1.00  0.00     0.163 HD
ATOM     28  O   UNL A   1      32.573  36.062  28.900  1.00  0.00    -0.269 OA
BRANCH  26  29
ATOM     29  C   UNL A   1      34.148  34.393  29.370  1.00  0.00     0.039 A 
ATOM     30  C   UNL A   1      33.889  33.668  30.534  1.00  0.00     0.014 A 
ATOM     31  C   UNL A   1      35.448  34.505  28.874  1.00  0.00     0.014 A 
ATOM     32  C   UNL A   1      34.933  32.981  31.159  1.00  0.00     0.010 A 
ATOM     33  C   UNL A   1      36.459  33.739  29.434  1.00  0.00     0.010 A 
ATOM     34  C   UNL A   1      36.215  32.977  30.587  1.00  0.00    -0.014 A 
BRANCH  34  35
ATOM     35  C   UNL A   1      37.339  32.214  31.184  1.00  0.00     0.031 A 
ATOM     36  C   UNL A   1      37.838  32.590  32.551  1.00  0.00     0.074 A 
ATOM     37  C   UNL A   1      37.968  31.262  30.470  1.00  0.00     0.049 A 
ATOM     38  N   UNL A   1      38.892  32.161  33.198  1.00  0.00    -0.248 NA
ATOM     39  C   UNL A   1      37.069  33.619  33.270  1.00  0.00     0.031 C 
ATOM     40  C   UNL A   1      37.606  30.836  29.117  1.00  0.00     0.029 A 
ATOM     41  N   UNL A   1      39.063  30.492  30.778  1.00  0.00    -0.354 N 
ATOM     42  C   UNL A   1      38.923  32.887  34.381  1.00  0.00     0.074 A 
ATOM     43  C   UNL A   1      37.825  33.826  34.335  1.00  0.00     0.031 C 
ATOM     44  C   UNL A   1      38.450  29.870  28.719  1.00  0.00     0.029 A 
ATOM     45  C   UNL A   1      39.440  29.641  29.768  1.00  0.00     0.049 A 
ATOM     46  H   UNL A   1      39.531  30.544  31.642  1.00  0.00     0.167 HD
ATOM     47  C   UNL A   1      39.777  32.764  35.425  1.00  0.00     0.037 A 
ATOM     48  C   UNL A   1      40.477  28.784  29.693  1.00  0.00     0.037 A 
ATOM     49  C   UNL A   1      40.849  31.805  35.477  1.00  0.00     0.049 A 
ATOM     50  C   UNL A   1      41.418  28.668  30.863  1.00  0.00     0.074 A 
ATOM     51  C   UNL A   1      41.733  31.556  36.511  1.00  0.00     0.029 A 
ATOM     52  N   UNL A   1      41.181  30.937  34.447  1.00  0.00    -0.354 N 
ATOM     53  N   UNL A   1      41.406  29.315  32.003  1.00  0.00    -0.248 NA
ATOM     54  C   UNL A   1      42.513  27.696  30.739  1.00  0.00     0.031 C 
ATOM     55  C   UNL A   1      42.633  30.573  36.086  1.00  0.00     0.029 A 
ATOM     56  C   UNL A   1      42.271  30.165  34.812  1.00  0.00     0.049 A 
ATOM     57  H   UNL A   1      40.710  30.878  33.583  1.00  0.00     0.167 HD
ATOM     58  C   UNL A   1      42.464  28.807  32.745  1.00  0.00     0.074 A 
ATOM     59  C   UNL A   1      43.095  27.791  31.926  1.00  0.00     0.031 C 
ATOM     60  C   UNL A   1      42.876  29.147  33.991  1.00  0.00     0.037 A 
BRANCH  47  61
ATOM     61  C   UNL A   1      39.584  33.692  36.589  1.00  0.00     0.064 A 
ATOM     62  C   UNL A   1      40.173  34.965  36.625  1.00  0.00     0.173 A 
ATOM     63  C   UNL A   1      38.791  33.307  37.681  1.00  0.00     0.173 A 
ATOM     64  F   UNL A   1      40.953  35.378  35.615  1.00  0.00    -0.203 F 
ATOM     65  C   UNL A   1      40.010  35.801  37.727  1.00  0.00     0.198 A 
ATOM     66  C   UNL A   1      38.599  34.161  38.765  1.00  0.00     0.198 A 
ATOM     67  F   UNL A   1      38.200  32.103  37.698  1.00  0.00    -0.203 F 
ATOM     68  F   UNL A   1      40.637  36.985  37.767  1.00  0.00    -0.200 F 
ATOM     69  C   UNL A   1      39.217  35.401  38.792  1.00  0.00     0.200 A 
ATOM     70  F   UNL A   1      37.822  33.777  39.787  1.00  0.00    -0.200 F 
ATOM     71  F   UNL A   1      39.059  36.207  39.851  1.00  0.00    -0.200 F 
ENDBRANCH  47  61
BRANCH  48  72
ATOM     72  C   UNL A   1      40.666  27.952  28.476  1.00  0.00     0.064 A 
ATOM     73  C   UNL A   1      40.069  26.689  28.370  1.00  0.00     0.173 A 
ATOM     74  C   UNL A   1      41.440  28.401  27.395  1.00  0.00     0.173 A 
ATOM     75  F   UNL A   1      39.336  26.207  29.384  1.00  0.00    -0.203 F 
ATOM     76  C   UNL A   1      40.253  25.897  27.237  1.00  0.00     0.198 A 
ATOM     77  C   UNL A   1      41.600  27.621  26.251  1.00  0.00     0.198 A 
ATOM     78  F   UNL A   1      42.027  29.605  27.443  1.00  0.00    -0.203 F 
ATOM     79  F   UNL A   1      39.707  24.675  27.181  1.00  0.00    -0.200 F 
ATOM     80  C   UNL A   1      41.013  26.366  26.177  1.00  0.00     0.200 A 
ATOM     81  F   UNL A   1      42.322  28.084  25.222  1.00  0.00    -0.200 F 
ATOM     82  F   UNL A   1      41.185  25.607  25.086  1.00  0.00    -0.200 F 
ENDBRANCH  48  72
BRANCH  60  83
ATOM     83  C   UNL A   1      44.028  28.381  34.574  1.00  0.00     0.064 A 
ATOM     84  C   UNL A   1      45.350  28.834  34.464  1.00  0.00     0.173 A 
ATOM     85  C   UNL A   1      43.794  27.205  35.305  1.00  0.00     0.173 A 
ATOM     86  F   UNL A   1      45.628  29.945  33.765  1.00  0.00    -0.203 F 
ATOM     87  C   UNL A   1      46.399  28.125  35.046  1.00  0.00     0.198 A 
ATOM     88  C   UNL A   1      44.840  26.518  35.912  1.00  0.00     0.198 A 
ATOM     89  F   UNL A   1      42.546  26.734  35.447  1.00  0.00    -0.203 F 
ATOM     90  F   UNL A   1      47.660  28.552  34.892  1.00  0.00    -0.200 F 
ATOM     91  C   UNL A   1      46.142  26.975  35.777  1.00  0.00     0.200 A 
ATOM     92  F   UNL A   1      44.588  25.416  36.632  1.00  0.00    -0.200 F 
ATOM     93  F   UNL A   1      47.152  26.302  36.347  1.00  0.00    -0.200 F 
ENDBRANCH  60  83
ENDBRANCH  34  35
ENDBRANCH  26  29
ENDBRANCH  24  25
ENDBRANCH  23  24
ENDBRANCH  22  23
ENDBRANCH   1  22
TORSDOF 15
ENDMDL
