MODEL 1
REMARK VINA RESULT:     -12.6      0.000      0.000
REMARK SMILES O=C(NCCCCNC(=O)[C@@]1([NH2+]C2CC2)CCC[C@@H](n2cncn2)C1)c1ccc(-c2c3nc(c(-c4c(F)c(F)c(F)c(F)c4F)c4ccc([nH]4)c(-c4c(F)c(F)c(F)c(F)c4F)c4nc(c(-c5c(F)c(F)c(F)c(F)c5F)c5ccc2[nH]5)C=C4)C=C3)cc1
REMARK SMILES IDX 5 1 4 2 3 3 1 4 2 5 26 7 27 8 88 9 28 10 87 11 29 12 30 13
REMARK SMILES IDX 31 14 81 15 32 16 86 17 80 18 82 19 33 20 85 21 79 22 78 23
REMARK SMILES IDX 34 25 66 26 46 27 65 28 47 29 50 30 64 31 83 32 48 33 49 34
REMARK SMILES IDX 63 36 84 37 51 38 35 39 36 40 44 41 37 42 38 43 42 44 45 45
REMARK SMILES IDX 39 46 40 47 43 48 41 49 67 50 68 51 76 52 69 53 70 54 74 55
REMARK SMILES IDX 77 56 71 57 72 58 75 59 73 60 52 61 53 62 61 63 54 64 55 65
REMARK SMILES IDX 59 66 62 67 56 68 57 69 60 70 58 71 6 72 7 73 8 74 9 75
REMARK SMILES IDX 10 77 11 78 16 79 25 80 17 81 19 82 18 83 12 84 13 87 14 88
REMARK SMILES IDX 15 89 20 90 21 91 24 92 22 93 23 94
REMARK H PARENT 3 6 82 24 50 35 8 76 12 85 12 86
REMARK Flexibility Score: inf
ROOT
ATOM      1  C   UNL A   1      38.879  22.181  26.069  1.00  0.00     0.023 C 
ENDROOT
BRANCH   1   2
ATOM      2  C   UNL A   1      40.209  21.572  26.526  1.00  0.00     0.116 C 
BRANCH   2   3
ATOM      3  N   UNL A   1      41.330  21.918  25.672  1.00  0.00    -0.352 N 
ATOM      4  O   UNL A   1      43.035  22.920  24.696  1.00  0.00    -0.269 OA
ATOM      5  C   UNL A   1      42.154  23.004  25.544  1.00  0.00     0.251 C 
ATOM      6  H   UNL A   1      41.551  21.201  25.034  1.00  0.00     0.163 HD
BRANCH   5   7
ATOM      7  C   UNL A   1      42.033  24.261  26.335  1.00  0.00     0.039 A 
ATOM      8  C   UNL A   1      42.601  24.486  27.588  1.00  0.00     0.014 A 
ATOM      9  C   UNL A   1      41.273  25.292  25.751  1.00  0.00     0.014 A 
ATOM     10  C   UNL A   1      42.380  25.678  28.266  1.00  0.00     0.010 A 
ATOM     11  C   UNL A   1      41.068  26.501  26.412  1.00  0.00     0.010 A 
ATOM     12  C   UNL A   1      41.610  26.682  27.682  1.00  0.00    -0.014 A 
BRANCH  12  13
ATOM     13  C   UNL A   1      41.521  27.949  28.400  1.00  0.00     0.031 A 
ATOM     14  C   UNL A   1      42.637  28.915  28.158  1.00  0.00     0.074 A 
ATOM     15  C   UNL A   1      40.456  28.305  29.141  1.00  0.00     0.049 A 
ATOM     16  N   UNL A   1      43.388  29.523  29.021  1.00  0.00    -0.248 NA
ATOM     17  C   UNL A   1      42.988  29.198  26.758  1.00  0.00     0.031 C 
ATOM     18  C   UNL A   1      39.164  27.625  29.243  1.00  0.00     0.029 A 
ATOM     19  N   UNL A   1      40.277  29.435  29.883  1.00  0.00    -0.354 N 
ATOM     20  C   UNL A   1      44.210  30.379  28.285  1.00  0.00     0.074 A 
ATOM     21  C   UNL A   1      43.989  30.067  26.898  1.00  0.00     0.031 C 
ATOM     22  C   UNL A   1      38.272  28.460  29.818  1.00  0.00     0.029 A 
ATOM     23  C   UNL A   1      38.959  29.673  30.231  1.00  0.00     0.049 A 
ATOM     24  H   UNL A   1      41.019  30.028  30.146  1.00  0.00     0.167 HD
ATOM     25  C   UNL A   1      44.886  31.410  28.864  1.00  0.00     0.037 A 
ATOM     26  C   UNL A   1      38.454  30.819  30.743  1.00  0.00     0.037 A 
ATOM     27  C   UNL A   1      45.089  31.190  30.271  1.00  0.00     0.049 A 
ATOM     28  C   UNL A   1      39.573  31.609  31.309  1.00  0.00     0.074 A 
ATOM     29  C   UNL A   1      45.732  30.226  31.024  1.00  0.00     0.029 A 
ATOM     30  N   UNL A   1      44.347  31.911  31.170  1.00  0.00    -0.354 N 
ATOM     31  N   UNL A   1      40.235  31.289  32.386  1.00  0.00    -0.248 NA
ATOM     32  C   UNL A   1      40.214  32.596  30.453  1.00  0.00     0.031 C 
ATOM     33  C   UNL A   1      44.962  30.112  32.220  1.00  0.00     0.029 A 
ATOM     34  C   UNL A   1      43.915  31.027  32.122  1.00  0.00     0.049 A 
ATOM     35  H   UNL A   1      44.161  32.878  31.138  1.00  0.00     0.167 HD
ATOM     36  C   UNL A   1      41.533  31.703  32.136  1.00  0.00     0.074 A 
ATOM     37  C   UNL A   1      41.435  32.601  30.991  1.00  0.00     0.031 C 
ATOM     38  C   UNL A   1      42.597  31.066  32.703  1.00  0.00     0.037 A 
BRANCH  25  39
ATOM     39  C   UNL A   1      45.068  32.772  28.228  1.00  0.00     0.064 A 
ATOM     40  C   UNL A   1      46.370  33.226  27.931  1.00  0.00     0.173 A 
ATOM     41  C   UNL A   1      44.063  33.764  28.198  1.00  0.00     0.173 A 
ATOM     42  F   UNL A   1      47.408  32.375  27.926  1.00  0.00    -0.203 F 
ATOM     43  C   UNL A   1      46.658  34.580  27.738  1.00  0.00     0.198 A 
ATOM     44  C   UNL A   1      44.347  35.107  27.952  1.00  0.00     0.198 A 
ATOM     45  F   UNL A   1      42.789  33.500  28.510  1.00  0.00    -0.203 F 
ATOM     46  F   UNL A   1      47.931  34.977  27.606  1.00  0.00    -0.200 F 
ATOM     47  C   UNL A   1      45.648  35.521  27.762  1.00  0.00     0.200 A 
ATOM     48  F   UNL A   1      43.354  36.007  27.988  1.00  0.00    -0.200 F 
ATOM     49  F   UNL A   1      45.929  36.827  27.654  1.00  0.00    -0.200 F 
ENDBRANCH  25  39
BRANCH  26  50
ATOM     50  C   UNL A   1      37.108  31.394  30.522  1.00  0.00     0.064 A 
ATOM     51  C   UNL A   1      36.227  31.614  31.591  1.00  0.00     0.173 A 
ATOM     52  C   UNL A   1      36.758  31.977  29.288  1.00  0.00     0.173 A 
ATOM     53  F   UNL A   1      36.514  31.138  32.812  1.00  0.00    -0.203 F 
ATOM     54  C   UNL A   1      35.069  32.383  31.437  1.00  0.00     0.198 A 
ATOM     55  C   UNL A   1      35.596  32.732  29.132  1.00  0.00     0.198 A 
ATOM     56  F   UNL A   1      37.582  31.905  28.233  1.00  0.00    -0.203 F 
ATOM     57  F   UNL A   1      34.281  32.622  32.494  1.00  0.00    -0.200 F 
ATOM     58  C   UNL A   1      34.759  32.945  30.210  1.00  0.00     0.200 A 
ATOM     59  F   UNL A   1      35.328  33.299  27.948  1.00  0.00    -0.200 F 
ATOM     60  F   UNL A   1      33.677  33.725  30.074  1.00  0.00    -0.200 F 
ENDBRANCH  26  50
BRANCH  38  61
ATOM     61  C   UNL A   1      42.324  30.113  33.829  1.00  0.00     0.064 A 
ATOM     62  C   UNL A   1      41.898  28.788  33.638  1.00  0.00     0.173 A 
ATOM     63  C   UNL A   1      42.636  30.514  35.135  1.00  0.00     0.173 A 
ATOM     64  F   UNL A   1      41.689  28.301  32.409  1.00  0.00    -0.203 F 
ATOM     65  C   UNL A   1      41.742  27.921  34.717  1.00  0.00     0.198 A 
ATOM     66  C   UNL A   1      42.515  29.633  36.206  1.00  0.00     0.198 A 
ATOM     67  F   UNL A   1      43.108  31.748  35.366  1.00  0.00    -0.203 F 
ATOM     68  F   UNL A   1      41.320  26.664  34.513  1.00  0.00    -0.200 F 
ATOM     69  C   UNL A   1      42.055  28.343  35.999  1.00  0.00     0.200 A 
ATOM     70  F   UNL A   1      42.870  30.027  37.437  1.00  0.00    -0.200 F 
ATOM     71  F   UNL A   1      41.944  27.495  37.032  1.00  0.00    -0.200 F 
ENDBRANCH  38  61
ENDBRANCH  12  13
ENDBRANCH   5   7
ENDBRANCH   2   3
ENDBRANCH   1   2
BRANCH   1  72
ATOM     72  C   UNL A   1      37.975  21.218  25.297  1.00  0.00     0.023 C 
BRANCH  72  73
ATOM     73  C   UNL A   1      36.603  21.787  24.954  1.00  0.00     0.116 C 
BRANCH  73  74
ATOM     74  N   UNL A   1      35.818  22.093  26.135  1.00  0.00    -0.351 N 
ATOM     75  C   UNL A   1      34.511  21.977  26.485  1.00  0.00     0.281 C 
ATOM     76  H   UNL A   1      36.365  22.477  26.857  1.00  0.00     0.163 HD
ATOM     77  O   UNL A   1      34.271  22.342  27.648  1.00  0.00    -0.268 OA
BRANCH  75  78
ATOM     78  C   UNL A   1      33.357  21.415  25.581  1.00  0.00     0.177 C 
ATOM     79  C   UNL A   1      33.327  21.824  24.105  1.00  0.00     0.079 C 
ATOM     80  C   UNL A   1      33.613  19.865  25.598  1.00  0.00     0.106 C 
ATOM     81  C   UNL A   1      32.272  21.098  23.278  1.00  0.00     0.009 C 
ATOM     82  C   UNL A   1      32.677  19.027  24.704  1.00  0.00     0.116 C 
ATOM     83  C   UNL A   1      32.562  19.605  23.281  1.00  0.00     0.028 C 
BRANCH  78  84
ATOM     84  N   UNL A   1      32.045  21.630  26.246  1.00  0.00    -0.331 N 
ATOM     85  H   UNL A   1      32.250  21.643  27.245  1.00  0.00     0.347 HD
ATOM     86  H   UNL A   1      31.502  20.887  25.807  1.00  0.00     0.347 HD
BRANCH  84  87
ATOM     87  C   UNL A   1      31.149  22.765  26.021  1.00  0.00     0.183 C 
ATOM     88  C   UNL A   1      30.013  23.212  26.883  1.00  0.00     0.071 C 
ATOM     89  C   UNL A   1      31.247  24.061  26.772  1.00  0.00     0.071 C 
ENDBRANCH  84  87
ENDBRANCH  78  84
BRANCH  82  90
ATOM     90  N   UNL A   1      33.081  17.620  24.697  1.00  0.00    -0.250 N 
ATOM     91  C   UNL A   1      33.843  16.981  23.764  1.00  0.00     0.220 A 
ATOM     92  N   UNL A   1      32.762  16.781  25.702  1.00  0.00    -0.160 NA
ATOM     93  N   UNL A   1      34.041  15.736  24.133  1.00  0.00    -0.224 NA
ATOM     94  C   UNL A   1      33.372  15.658  25.319  1.00  0.00     0.246 A 
ENDBRANCH  82  90
ENDBRANCH  75  78
ENDBRANCH  73  74
ENDBRANCH  72  73
ENDBRANCH   1  72
TORSDOF 14
ENDMDL
MODEL 2
REMARK VINA RESULT:     -12.5      4.841      9.837
REMARK SMILES O=C(NCCCCNC(=O)[C@@]1([NH2+]C2CC2)CCC[C@@H](n2cncn2)C1)c1ccc(-c2c3nc(c(-c4c(F)c(F)c(F)c(F)c4F)c4ccc([nH]4)c(-c4c(F)c(F)c(F)c(F)c4F)c4nc(c(-c5c(F)c(F)c(F)c(F)c5F)c5ccc2[nH]5)C=C4)C=C3)cc1
REMARK SMILES IDX 5 1 4 2 3 3 1 4 2 5 26 7 27 8 88 9 28 10 87 11 29 12 30 13
REMARK SMILES IDX 31 14 81 15 32 16 86 17 80 18 82 19 33 20 85 21 79 22 78 23
REMARK SMILES IDX 34 25 66 26 46 27 65 28 47 29 50 30 64 31 83 32 48 33 49 34
REMARK SMILES IDX 63 36 84 37 51 38 35 39 36 40 44 41 37 42 38 43 42 44 45 45
REMARK SMILES IDX 39 46 40 47 43 48 41 49 67 50 68 51 76 52 69 53 70 54 74 55
REMARK SMILES IDX 77 56 71 57 72 58 75 59 73 60 52 61 53 62 61 63 54 64 55 65
REMARK SMILES IDX 59 66 62 67 56 68 57 69 60 70 58 71 6 72 7 73 8 74 9 75
REMARK SMILES IDX 10 77 11 78 16 79 25 80 17 81 19 82 18 83 12 84 13 87 14 88
REMARK SMILES IDX 15 89 20 90 21 91 24 92 22 93 23 94
REMARK H PARENT 3 6 82 24 50 35 8 76 12 85 12 86
REMARK Flexibility Score: inf
ROOT
ATOM      1  C   UNL A   1      33.025  30.616  27.231  1.00  0.00     0.023 C 
ENDROOT
BRANCH   1   2
ATOM      2  C   UNL A   1      34.300  31.387  27.590  1.00  0.00     0.116 C 
BRANCH   2   3
ATOM      3  N   UNL A   1      34.294  31.923  28.938  1.00  0.00    -0.352 N 
ATOM      4  O   UNL A   1      34.809  32.497  31.004  1.00  0.00    -0.269 OA
ATOM      5  C   UNL A   1      35.158  31.887  30.000  1.00  0.00     0.251 C 
ATOM      6  H   UNL A   1      33.476  32.433  29.136  1.00  0.00     0.163 HD
BRANCH   5   7
ATOM      7  C   UNL A   1      36.454  31.151  30.019  1.00  0.00     0.039 A 
ATOM      8  C   UNL A   1      37.717  31.736  29.955  1.00  0.00     0.014 A 
ATOM      9  C   UNL A   1      36.370  29.748  30.103  1.00  0.00     0.014 A 
ATOM     10  C   UNL A   1      38.863  30.952  29.923  1.00  0.00     0.010 A 
ATOM     11  C   UNL A   1      37.515  28.956  30.099  1.00  0.00     0.010 A 
ATOM     12  C   UNL A   1      38.763  29.563  29.989  1.00  0.00    -0.014 A 
BRANCH  12  13
ATOM     13  C   UNL A   1      40.012  28.814  30.071  1.00  0.00     0.031 A 
ATOM     14  C   UNL A   1      40.584  28.649  31.443  1.00  0.00     0.074 A 
ATOM     15  C   UNL A   1      40.570  28.192  29.017  1.00  0.00     0.049 A 
ATOM     16  N   UNL A   1      41.780  28.921  31.864  1.00  0.00    -0.248 NA
ATOM     17  C   UNL A   1      39.679  28.161  32.495  1.00  0.00     0.031 C 
ATOM     18  C   UNL A   1      40.000  27.994  27.684  1.00  0.00     0.029 A 
ATOM     19  N   UNL A   1      41.745  27.500  28.965  1.00  0.00    -0.354 N 
ATOM     20  C   UNL A   1      41.827  28.503  33.195  1.00  0.00     0.074 A 
ATOM     21  C   UNL A   1      40.484  28.135  33.556  1.00  0.00     0.031 C 
ATOM     22  C   UNL A   1      40.722  27.057  27.032  1.00  0.00     0.029 A 
ATOM     23  C   UNL A   1      41.865  26.687  27.851  1.00  0.00     0.049 A 
ATOM     24  H   UNL A   1      42.443  27.572  29.656  1.00  0.00     0.167 HD
ATOM     25  C   UNL A   1      43.004  28.319  33.856  1.00  0.00     0.037 A 
ATOM     26  C   UNL A   1      42.790  25.718  27.655  1.00  0.00     0.037 A 
ATOM     27  C   UNL A   1      44.071  29.080  33.263  1.00  0.00     0.049 A 
ATOM     28  C   UNL A   1      43.924  25.963  28.578  1.00  0.00     0.074 A 
ATOM     29  C   UNL A   1      44.302  30.423  33.038  1.00  0.00     0.029 A 
ATOM     30  N   UNL A   1      45.027  28.424  32.532  1.00  0.00    -0.354 N 
ATOM     31  N   UNL A   1      44.769  26.949  28.465  1.00  0.00    -0.248 NA
ATOM     32  C   UNL A   1      43.904  25.302  29.874  1.00  0.00     0.031 C 
ATOM     33  C   UNL A   1      45.041  30.476  31.819  1.00  0.00     0.029 A 
ATOM     34  C   UNL A   1      45.226  29.161  31.395  1.00  0.00     0.049 A 
ATOM     35  H   UNL A   1      45.483  27.586  32.776  1.00  0.00     0.167 HD
ATOM     36  C   UNL A   1      45.077  27.298  29.770  1.00  0.00     0.074 A 
ATOM     37  C   UNL A   1      44.613  26.182  30.585  1.00  0.00     0.031 C 
ATOM     38  C   UNL A   1      45.428  28.576  30.093  1.00  0.00     0.037 A 
BRANCH  25  39
ATOM     39  C   UNL A   1      43.264  27.190  34.831  1.00  0.00     0.064 A 
ATOM     40  C   UNL A   1      43.547  27.496  36.179  1.00  0.00     0.173 A 
ATOM     41  C   UNL A   1      43.565  25.868  34.437  1.00  0.00     0.173 A 
ATOM     42  F   UNL A   1      43.302  28.721  36.670  1.00  0.00    -0.203 F 
ATOM     43  C   UNL A   1      44.186  26.588  37.028  1.00  0.00     0.198 A 
ATOM     44  C   UNL A   1      44.155  24.947  35.304  1.00  0.00     0.198 A 
ATOM     45  F   UNL A   1      43.404  25.443  33.180  1.00  0.00    -0.203 F 
ATOM     46  F   UNL A   1      44.565  26.976  38.253  1.00  0.00    -0.200 F 
ATOM     47  C   UNL A   1      44.502  25.319  36.585  1.00  0.00     0.200 A 
ATOM     48  F   UNL A   1      44.461  23.722  34.853  1.00  0.00    -0.200 F 
ATOM     49  F   UNL A   1      45.182  24.472  37.369  1.00  0.00    -0.200 F 
ENDBRANCH  25  39
BRANCH  26  50
ATOM     50  C   UNL A   1      42.624  24.444  26.921  1.00  0.00     0.064 A 
ATOM     51  C   UNL A   1      43.272  24.221  25.696  1.00  0.00     0.173 A 
ATOM     52  C   UNL A   1      42.032  23.321  27.533  1.00  0.00     0.173 A 
ATOM     53  F   UNL A   1      43.907  25.226  25.076  1.00  0.00    -0.203 F 
ATOM     54  C   UNL A   1      43.333  22.946  25.124  1.00  0.00     0.198 A 
ATOM     55  C   UNL A   1      42.082  22.054  26.954  1.00  0.00     0.198 A 
ATOM     56  F   UNL A   1      41.474  23.414  28.748  1.00  0.00    -0.203 F 
ATOM     57  F   UNL A   1      44.011  22.759  23.984  1.00  0.00    -0.200 F 
ATOM     58  C   UNL A   1      42.743  21.865  25.756  1.00  0.00     0.200 A 
ATOM     59  F   UNL A   1      41.538  21.010  27.596  1.00  0.00    -0.200 F 
ATOM     60  F   UNL A   1      42.846  20.634  25.235  1.00  0.00    -0.200 F 
ENDBRANCH  26  50
BRANCH  38  61
ATOM     61  C   UNL A   1      45.766  29.514  28.973  1.00  0.00     0.064 A 
ATOM     62  C   UNL A   1      44.803  30.242  28.254  1.00  0.00     0.173 A 
ATOM     63  C   UNL A   1      47.115  29.788  28.713  1.00  0.00     0.173 A 
ATOM     64  F   UNL A   1      43.498  30.117  28.525  1.00  0.00    -0.203 F 
ATOM     65  C   UNL A   1      45.179  31.164  27.280  1.00  0.00     0.198 A 
ATOM     66  C   UNL A   1      47.487  30.737  27.766  1.00  0.00     0.198 A 
ATOM     67  F   UNL A   1      48.075  29.168  29.416  1.00  0.00    -0.203 F 
ATOM     68  F   UNL A   1      44.242  31.837  26.595  1.00  0.00    -0.200 F 
ATOM     69  C   UNL A   1      46.521  31.414  27.040  1.00  0.00     0.200 A 
ATOM     70  F   UNL A   1      48.785  31.015  27.574  1.00  0.00    -0.200 F 
ATOM     71  F   UNL A   1      46.882  32.331  26.132  1.00  0.00    -0.200 F 
ENDBRANCH  38  61
ENDBRANCH  12  13
ENDBRANCH   5   7
ENDBRANCH   2   3
ENDBRANCH   1   2
BRANCH   1  72
ATOM     72  C   UNL A   1      33.173  29.094  27.279  1.00  0.00     0.023 C 
BRANCH  72  73
ATOM     73  C   UNL A   1      32.526  28.365  26.106  1.00  0.00     0.116 C 
BRANCH  73  74
ATOM     74  N   UNL A   1      33.099  28.748  24.830  1.00  0.00    -0.351 N 
ATOM     75  C   UNL A   1      32.664  28.780  23.544  1.00  0.00     0.281 C 
ATOM     76  H   UNL A   1      34.028  29.061  24.917  1.00  0.00     0.163 HD
ATOM     77  O   UNL A   1      33.503  29.226  22.744  1.00  0.00    -0.268 OA
BRANCH  75  78
ATOM     78  C   UNL A   1      31.243  28.347  23.037  1.00  0.00     0.177 C 
ATOM     79  C   UNL A   1      30.267  27.735  24.048  1.00  0.00     0.079 C 
ATOM     80  C   UNL A   1      30.599  29.704  22.578  1.00  0.00     0.106 C 
ATOM     81  C   UNL A   1      28.864  27.503  23.499  1.00  0.00     0.009 C 
ATOM     82  C   UNL A   1      29.133  29.618  22.106  1.00  0.00     0.116 C 
ATOM     83  C   UNL A   1      28.250  28.834  23.094  1.00  0.00     0.028 C 
BRANCH  78  84
ATOM     84  N   UNL A   1      31.376  27.511  21.815  1.00  0.00    -0.331 N 
ATOM     85  H   UNL A   1      32.054  27.999  21.229  1.00  0.00     0.347 HD
ATOM     86  H   UNL A   1      30.394  27.421  21.557  1.00  0.00     0.347 HD
BRANCH  84  87
ATOM     87  C   UNL A   1      31.777  26.104  21.781  1.00  0.00     0.183 C 
ATOM     88  C   UNL A   1      32.556  25.406  20.714  1.00  0.00     0.071 C 
ATOM     89  C   UNL A   1      33.175  25.633  22.063  1.00  0.00     0.071 C 
ENDBRANCH  84  87
ENDBRANCH  78  84
BRANCH  82  90
ATOM     90  N   UNL A   1      28.595  30.950  21.822  1.00  0.00    -0.250 N 
ATOM     91  C   UNL A   1      28.617  32.043  22.636  1.00  0.00     0.220 A 
ATOM     92  N   UNL A   1      28.037  31.256  20.634  1.00  0.00    -0.160 NA
ATOM     93  N   UNL A   1      28.091  33.071  22.009  1.00  0.00    -0.224 NA
ATOM     94  C   UNL A   1      27.757  32.550  20.794  1.00  0.00     0.246 A 
ENDBRANCH  82  90
ENDBRANCH  75  78
ENDBRANCH  73  74
ENDBRANCH  72  73
ENDBRANCH   1  72
TORSDOF 14
ENDMDL
MODEL 3
REMARK VINA RESULT:     -12.3      3.233      8.397
REMARK SMILES O=C(NCCCCNC(=O)[C@@]1([NH2+]C2CC2)CCC[C@@H](n2cncn2)C1)c1ccc(-c2c3nc(c(-c4c(F)c(F)c(F)c(F)c4F)c4ccc([nH]4)c(-c4c(F)c(F)c(F)c(F)c4F)c4nc(c(-c5c(F)c(F)c(F)c(F)c5F)c5ccc2[nH]5)C=C4)C=C3)cc1
REMARK SMILES IDX 5 1 4 2 3 3 1 4 2 5 26 7 27 8 88 9 28 10 87 11 29 12 30 13
REMARK SMILES IDX 31 14 81 15 32 16 86 17 80 18 82 19 33 20 85 21 79 22 78 23
REMARK SMILES IDX 34 25 66 26 46 27 65 28 47 29 50 30 64 31 83 32 48 33 49 34
REMARK SMILES IDX 63 36 84 37 51 38 35 39 36 40 44 41 37 42 38 43 42 44 45 45
REMARK SMILES IDX 39 46 40 47 43 48 41 49 67 50 68 51 76 52 69 53 70 54 74 55
REMARK SMILES IDX 77 56 71 57 72 58 75 59 73 60 52 61 53 62 61 63 54 64 55 65
REMARK SMILES IDX 59 66 62 67 56 68 57 69 60 70 58 71 6 72 7 73 8 74 9 75
REMARK SMILES IDX 10 77 11 78 16 79 25 80 17 81 19 82 18 83 12 84 13 87 14 88
REMARK SMILES IDX 15 89 20 90 21 91 24 92 22 93 23 94
REMARK H PARENT 3 6 82 24 50 35 8 76 12 85 12 86
REMARK Flexibility Score: inf
ROOT
ATOM      1  C   UNL A   1      31.890  29.202  26.721  1.00  0.00     0.023 C 
ENDROOT
BRANCH   1   2
ATOM      2  C   UNL A   1      33.372  29.592  26.739  1.00  0.00     0.116 C 
BRANCH   2   3
ATOM      3  N   UNL A   1      33.621  30.902  27.311  1.00  0.00    -0.352 N 
ATOM      4  O   UNL A   1      34.527  32.674  28.262  1.00  0.00    -0.269 OA
ATOM      5  C   UNL A   1      34.688  31.509  27.918  1.00  0.00     0.251 C 
ATOM      6  H   UNL A   1      32.838  31.495  27.247  1.00  0.00     0.163 HD
BRANCH   5   7
ATOM      7  C   UNL A   1      35.994  30.849  28.202  1.00  0.00     0.039 A 
ATOM      8  C   UNL A   1      36.277  29.498  28.010  1.00  0.00     0.014 A 
ATOM      9  C   UNL A   1      37.011  31.678  28.713  1.00  0.00     0.014 A 
ATOM     10  C   UNL A   1      37.513  28.972  28.362  1.00  0.00     0.010 A 
ATOM     11  C   UNL A   1      38.263  31.165  29.042  1.00  0.00     0.010 A 
ATOM     12  C   UNL A   1      38.504  29.803  28.882  1.00  0.00    -0.014 A 
BRANCH  12  13
ATOM     13  C   UNL A   1      39.814  29.204  29.115  1.00  0.00     0.031 A 
ATOM     14  C   UNL A   1      40.220  29.062  30.547  1.00  0.00     0.074 A 
ATOM     15  C   UNL A   1      40.575  28.688  28.133  1.00  0.00     0.049 A 
ATOM     16  N   UNL A   1      41.309  29.459  31.126  1.00  0.00    -0.248 NA
ATOM     17  C   UNL A   1      39.252  28.436  31.461  1.00  0.00     0.031 C 
ATOM     18  C   UNL A   1      40.209  28.469  26.733  1.00  0.00     0.029 A 
ATOM     19  N   UNL A   1      41.821  28.141  28.223  1.00  0.00    -0.354 N 
ATOM     20  C   UNL A   1      41.235  29.005  32.445  1.00  0.00     0.074 A 
ATOM     21  C   UNL A   1      39.911  28.469  32.619  1.00  0.00     0.031 C 
ATOM     22  C   UNL A   1      41.117  27.646  26.165  1.00  0.00     0.029 A 
ATOM     23  C   UNL A   1      42.182  27.386  27.121  1.00  0.00     0.049 A 
ATOM     24  H   UNL A   1      42.410  28.273  29.002  1.00  0.00     0.167 HD
ATOM     25  C   UNL A   1      42.330  28.939  33.251  1.00  0.00     0.037 A 
ATOM     26  C   UNL A   1      43.235  26.540  27.032  1.00  0.00     0.037 A 
ATOM     27  C   UNL A   1      43.365  29.839  32.818  1.00  0.00     0.049 A 
ATOM     28  C   UNL A   1      44.202  26.886  28.100  1.00  0.00     0.074 A 
ATOM     29  C   UNL A   1      43.459  31.208  32.650  1.00  0.00     0.029 A 
ATOM     30  N   UNL A   1      44.480  29.326  32.208  1.00  0.00    -0.354 N 
ATOM     31  N   UNL A   1      44.929  27.968  28.118  1.00  0.00    -0.248 NA
ATOM     32  C   UNL A   1      44.096  26.185  29.370  1.00  0.00     0.031 C 
ATOM     33  C   UNL A   1      44.337  31.389  31.540  1.00  0.00     0.029 A 
ATOM     34  C   UNL A   1      44.733  30.120  31.121  1.00  0.00     0.049 A 
ATOM     35  H   UNL A   1      44.999  28.540  32.495  1.00  0.00     0.167 HD
ATOM     36  C   UNL A   1      45.022  28.307  29.458  1.00  0.00     0.074 A 
ATOM     37  C   UNL A   1      44.595  27.117  30.184  1.00  0.00     0.031 C 
ATOM     38  C   UNL A   1      45.170  29.606  29.847  1.00  0.00     0.037 A 
BRANCH  25  39
ATOM     39  C   UNL A   1      42.598  27.817  34.232  1.00  0.00     0.064 A 
ATOM     40  C   UNL A   1      43.152  26.607  33.761  1.00  0.00     0.173 A 
ATOM     41  C   UNL A   1      42.044  27.760  35.530  1.00  0.00     0.173 A 
ATOM     42  F   UNL A   1      43.710  26.538  32.542  1.00  0.00    -0.203 F 
ATOM     43  C   UNL A   1      43.051  25.414  34.482  1.00  0.00     0.198 A 
ATOM     44  C   UNL A   1      41.993  26.578  36.269  1.00  0.00     0.198 A 
ATOM     45  F   UNL A   1      41.434  28.809  36.092  1.00  0.00    -0.203 F 
ATOM     46  F   UNL A   1      43.461  24.266  33.928  1.00  0.00    -0.200 F 
ATOM     47  C   UNL A   1      42.460  25.398  35.730  1.00  0.00     0.200 A 
ATOM     48  F   UNL A   1      41.408  26.581  37.475  1.00  0.00    -0.200 F 
ATOM     49  F   UNL A   1      42.293  24.245  36.391  1.00  0.00    -0.200 F 
ENDBRANCH  25  39
BRANCH  26  50
ATOM     50  C   UNL A   1      43.321  25.281  26.260  1.00  0.00     0.064 A 
ATOM     51  C   UNL A   1      44.355  25.064  25.336  1.00  0.00     0.173 A 
ATOM     52  C   UNL A   1      42.536  24.161  26.601  1.00  0.00     0.173 A 
ATOM     53  F   UNL A   1      45.180  26.066  24.998  1.00  0.00    -0.203 F 
ATOM     54  C   UNL A   1      44.596  23.797  24.795  1.00  0.00     0.198 A 
ATOM     55  C   UNL A   1      42.770  22.902  26.050  1.00  0.00     0.198 A 
ATOM     56  F   UNL A   1      41.589  24.246  27.545  1.00  0.00    -0.203 F 
ATOM     57  F   UNL A   1      45.629  23.613  23.962  1.00  0.00    -0.200 F 
ATOM     58  C   UNL A   1      43.808  22.718  25.157  1.00  0.00     0.200 A 
ATOM     59  F   UNL A   1      42.022  21.859  26.438  1.00  0.00    -0.200 F 
ATOM     60  F   UNL A   1      44.071  21.493  24.679  1.00  0.00    -0.200 F 
ENDBRANCH  26  50
BRANCH  38  61
ATOM     61  C   UNL A   1      45.533  30.615  28.798  1.00  0.00     0.064 A 
ATOM     62  C   UNL A   1      44.593  31.228  27.953  1.00  0.00     0.173 A 
ATOM     63  C   UNL A   1      46.855  31.075  28.741  1.00  0.00     0.173 A 
ATOM     64  F   UNL A   1      43.292  30.919  28.029  1.00  0.00    -0.203 F 
ATOM     65  C   UNL A   1      44.975  32.221  27.054  1.00  0.00     0.198 A 
ATOM     66  C   UNL A   1      47.225  32.094  27.868  1.00  0.00     0.198 A 
ATOM     67  F   UNL A   1      47.780  30.569  29.571  1.00  0.00    -0.203 F 
ATOM     68  F   UNL A   1      44.062  32.782  26.246  1.00  0.00    -0.200 F 
ATOM     69  C   UNL A   1      46.289  32.657  27.016  1.00  0.00     0.200 A 
ATOM     70  F   UNL A   1      48.486  32.550  27.872  1.00  0.00    -0.200 F 
ATOM     71  F   UNL A   1      46.648  33.641  26.180  1.00  0.00    -0.200 F 
ENDBRANCH  38  61
ENDBRANCH  12  13
ENDBRANCH   5   7
ENDBRANCH   2   3
ENDBRANCH   1   2
BRANCH   1  72
ATOM     72  C   UNL A   1      31.596  27.808  27.279  1.00  0.00     0.023 C 
BRANCH  72  73
ATOM     73  C   UNL A   1      31.909  26.670  26.314  1.00  0.00     0.116 C 
BRANCH  73  74
ATOM     74  N   UNL A   1      31.410  25.392  26.783  1.00  0.00    -0.351 N 
ATOM     75  C   UNL A   1      31.798  24.096  26.656  1.00  0.00     0.281 C 
ATOM     76  H   UNL A   1      30.594  25.485  27.324  1.00  0.00     0.163 HD
ATOM     77  O   UNL A   1      31.074  23.295  27.271  1.00  0.00    -0.268 OA
BRANCH  75  78
ATOM     78  C   UNL A   1      33.047  23.577  25.858  1.00  0.00     0.177 C 
ATOM     79  C   UNL A   1      34.418  23.633  26.540  1.00  0.00     0.079 C 
ATOM     80  C   UNL A   1      32.727  22.054  25.646  1.00  0.00     0.106 C 
ATOM     81  C   UNL A   1      35.534  22.956  25.753  1.00  0.00     0.009 C 
ATOM     82  C   UNL A   1      33.836  21.232  24.958  1.00  0.00     0.116 C 
ATOM     83  C   UNL A   1      35.219  21.477  25.591  1.00  0.00     0.028 C 
BRANCH  78  84
ATOM     84  N   UNL A   1      33.073  24.193  24.506  1.00  0.00    -0.331 N 
ATOM     85  H   UNL A   1      33.967  23.915  24.102  1.00  0.00     0.347 HD
ATOM     86  H   UNL A   1      32.858  25.159  24.749  1.00  0.00     0.347 HD
BRANCH  84  87
ATOM     87  C   UNL A   1      32.086  23.973  23.447  1.00  0.00     0.183 C 
ATOM     88  C   UNL A   1      30.599  24.073  23.554  1.00  0.00     0.071 C 
ATOM     89  C   UNL A   1      31.360  25.083  22.746  1.00  0.00     0.071 C 
ENDBRANCH  84  87
ENDBRANCH  78  84
BRANCH  82  90
ATOM     90  N   UNL A   1      33.490  19.810  24.924  1.00  0.00    -0.250 N 
ATOM     91  C   UNL A   1      34.290  18.771  24.552  1.00  0.00     0.220 A 
ATOM     92  N   UNL A   1      32.287  19.359  25.331  1.00  0.00    -0.160 NA
ATOM     93  N   UNL A   1      33.644  17.638  24.711  1.00  0.00    -0.224 NA
ATOM     94  C   UNL A   1      32.433  18.041  25.192  1.00  0.00     0.246 A 
ENDBRANCH  82  90
ENDBRANCH  75  78
ENDBRANCH  73  74
ENDBRANCH  72  73
ENDBRANCH   1  72
TORSDOF 14
ENDMDL
