MODEL 1
REMARK VINA RESULT:     -12.9      0.000      0.000
REMARK SMILES C[C@]12C[C@@H](O)[C@@H]3[C@@H](CCC4=CC(=O)CC[C@]43C)[C@H]1CC[C@]2(O)C(=O)COC(=O)CCC(=O)NCCCCNC(=O)c1ccc(-c2c3nc(c(-c4c(F)c(F)c(F)c(F)c4F)c4ccc([nH]4)c(-c4c(F)c(F)c(F)c(F)c4F)c4nc(c(-c5c(F)c(F)c(F)c(F)c5F)c5ccc2[nH]5)C=C4)C=C3)cc1
REMARK SMILES IDX 31 1 32 2 33 3 30 5 29 6 27 7 28 8 26 9 25 10 23 11 24 12
REMARK SMILES IDX 21 13 17 14 16 15 15 16 10 17 6 18 14 19 11 20 9 21 7 22
REMARK SMILES IDX 4 23 12 24 8 25 18 26 3 27 13 28 2 29 19 30 1 31 20 32 5 33
REMARK SMILES IDX 22 35 34 37 35 38 36 39 37 40 38 41 39 42 40 44 41 45 42 46
REMARK SMILES IDX 103 47 43 48 102 49 44 50 45 51 46 52 96 53 47 54 101 55
REMARK SMILES IDX 95 56 97 57 48 58 100 59 94 60 93 61 49 63 81 64 61 65 80 66
REMARK SMILES IDX 62 67 65 68 79 69 98 70 63 71 64 72 78 74 99 75 66 76 50 77
REMARK SMILES IDX 51 78 59 79 52 80 53 81 57 82 60 83 54 84 55 85 58 86 56 87
REMARK SMILES IDX 82 88 83 89 91 90 84 91 85 92 89 93 92 94 86 95 87 96 90 97
REMARK SMILES IDX 88 98 67 99 68 100 76 101 69 102 70 103 74 104 77 105 71 106
REMARK SMILES IDX 72 107 75 108 73 109
REMARK H PARENT 33 4 5 34 22 36 38 43 97 62 65 73
REMARK Flexibility Score: inf
ROOT
ATOM      1  C   UNL A   1      35.424  33.577  29.382  1.00  0.00     0.220 C 
ATOM      2  O   UNL A   1      34.447  33.523  30.135  1.00  0.00    -0.275 OA
ATOM      3  N   UNL A   1      36.540  34.174  29.877  1.00  0.00    -0.356 N 
ATOM      4  H   UNL A   1      36.350  34.827  30.589  1.00  0.00     0.163 HD
ENDROOT
BRANCH   1   5
ATOM      5  C   UNL A   1      35.336  32.957  28.005  1.00  0.00     0.111 C 
BRANCH   5   6
ATOM      6  C   UNL A   1      35.237  31.444  27.988  1.00  0.00     0.132 C 
BRANCH   6   7
ATOM      7  C   UNL A   1      33.863  31.073  27.524  1.00  0.00     0.306 C 
ATOM      8  O   UNL A   1      32.912  31.848  27.427  1.00  0.00    -0.252 OA
BRANCH   7   9
ATOM      9  O   UNL A   1      33.778  29.740  27.373  1.00  0.00    -0.458 OA
BRANCH   9  10
ATOM     10  C   UNL A   1      34.054  29.216  26.097  1.00  0.00     0.311 C 
BRANCH  10  11
ATOM     11  C   UNL A   1      32.926  28.788  25.126  1.00  0.00     0.202 C 
ATOM     12  O   UNL A   1      32.304  29.757  24.674  1.00  0.00    -0.293 OA
BRANCH  11  13
ATOM     13  C   UNL A   1      32.293  27.361  25.031  1.00  0.00     0.132 C 
ATOM     14  C   UNL A   1      32.593  21.210  22.729  1.00  0.00     0.016 C 
ATOM     15  C   UNL A   1      32.543  21.956  24.095  1.00  0.00    -0.005 C 
ATOM     16  C   UNL A   1      31.920  20.959  25.114  1.00  0.00     0.020 C 
ATOM     17  C   UNL A   1      33.916  22.221  24.726  1.00  0.00    -0.060 C 
ATOM     18  C   UNL A   1      31.725  23.302  23.888  1.00  0.00     0.031 C 
ATOM     19  C   UNL A   1      32.945  19.889  25.586  1.00  0.00     0.081 C 
ATOM     20  C   UNL A   1      34.892  21.300  24.704  1.00  0.00     0.047 C 
ATOM     21  C   UNL A   1      33.980  23.190  25.874  1.00  0.00     0.032 C 
ATOM     22  C   UNL A   1      31.674  24.113  25.187  1.00  0.00    -0.000 C 
ATOM     23  C   UNL A   1      32.141  24.233  22.680  1.00  0.00     0.119 C 
ATOM     24  C   UNL A   1      34.297  19.944  24.857  1.00  0.00     0.155 C 
ATOM     25  C   UNL A   1      33.101  24.374  25.633  1.00  0.00     0.009 C 
ATOM     26  C   UNL A   1      30.801  25.358  24.944  1.00  0.00     0.002 C 
ATOM     27  C   UNL A   1      32.114  25.787  22.824  1.00  0.00     0.042 C 
ATOM     28  O   UNL A   1      34.943  18.949  24.553  1.00  0.00    -0.295 OA
ATOM     29  C   UNL A   1      31.383  26.466  24.005  1.00  0.00     0.009 C 
ATOM     30  C   UNL A   1      30.434  26.115  26.207  1.00  0.00     0.008 C 
ATOM     31  C   UNL A   1      30.090  27.120  23.426  1.00  0.00     0.015 C 
ATOM     32  C   UNL A   1      31.487  27.196  26.371  1.00  0.00     0.044 C 
BRANCH  23  33
ATOM     33  O   UNL A   1      33.465  23.958  22.221  1.00  0.00    -0.393 OA
ATOM     34  H   UNL A   1      33.794  24.716  21.712  1.00  0.00     0.210 HD
ENDBRANCH  23  33
BRANCH  13  35
ATOM     35  O   UNL A   1      33.591  26.782  25.235  1.00  0.00    -0.381 OA
ATOM     36  H   UNL A   1      33.988  26.568  24.377  1.00  0.00     0.212 HD
ENDBRANCH  13  35
ENDBRANCH  11  13
ENDBRANCH  10  11
ENDBRANCH   9  10
ENDBRANCH   7   9
ENDBRANCH   6   7
ENDBRANCH   5   6
ENDBRANCH   1   5
BRANCH   3  37
ATOM     37  C   UNL A   1      37.954  34.048  29.571  1.00  0.00     0.116 C 
BRANCH  37  38
ATOM     38  C   UNL A   1      38.916  34.602  30.636  1.00  0.00     0.023 C 
BRANCH  38  39
ATOM     39  C   UNL A   1      39.514  33.547  31.590  1.00  0.00     0.023 C 
BRANCH  39  40
ATOM     40  C   UNL A   1      38.814  33.266  32.923  1.00  0.00     0.116 C 
BRANCH  40  41
ATOM     41  N   UNL A   1      37.404  32.927  32.853  1.00  0.00    -0.352 N 
ATOM     42  C   UNL A   1      36.788  31.715  32.586  1.00  0.00     0.251 C 
ATOM     43  H   UNL A   1      36.789  33.677  33.021  1.00  0.00     0.163 HD
ATOM     44  O   UNL A   1      35.585  31.556  32.784  1.00  0.00    -0.269 OA
BRANCH  42  45
ATOM     45  C   UNL A   1      37.516  30.642  31.903  1.00  0.00     0.039 A 
ATOM     46  C   UNL A   1      37.416  30.668  30.512  1.00  0.00     0.014 A 
ATOM     47  C   UNL A   1      38.405  29.782  32.544  1.00  0.00     0.014 A 
ATOM     48  C   UNL A   1      38.369  30.018  29.756  1.00  0.00     0.010 A 
ATOM     49  C   UNL A   1      39.413  29.196  31.795  1.00  0.00     0.010 A 
ATOM     50  C   UNL A   1      39.434  29.385  30.406  1.00  0.00    -0.014 A 
BRANCH  50  51
ATOM     51  C   UNL A   1      40.638  29.044  29.631  1.00  0.00     0.031 A 
ATOM     52  C   UNL A   1      40.776  27.688  29.033  1.00  0.00     0.074 A 
ATOM     53  C   UNL A   1      41.607  29.976  29.525  1.00  0.00     0.049 A 
ATOM     54  N   UNL A   1      41.755  27.207  28.316  1.00  0.00    -0.248 NA
ATOM     55  C   UNL A   1      39.687  26.735  29.297  1.00  0.00     0.031 C 
ATOM     56  C   UNL A   1      41.573  31.306  30.143  1.00  0.00     0.029 A 
ATOM     57  N   UNL A   1      42.805  29.953  28.863  1.00  0.00    -0.354 N 
ATOM     58  C   UNL A   1      41.402  25.896  28.044  1.00  0.00     0.074 A 
ATOM     59  C   UNL A   1      40.150  25.637  28.718  1.00  0.00     0.031 C 
ATOM     60  C   UNL A   1      42.685  31.979  29.808  1.00  0.00     0.029 A 
ATOM     61  C   UNL A   1      43.525  31.117  28.987  1.00  0.00     0.049 A 
ATOM     62  H   UNL A   1      43.121  29.176  28.347  1.00  0.00     0.167 HD
ATOM     63  C   UNL A   1      42.067  25.005  27.276  1.00  0.00     0.037 A 
ATOM     64  C   UNL A   1      44.734  31.442  28.492  1.00  0.00     0.037 A 
ATOM     65  C   UNL A   1      43.305  25.302  26.605  1.00  0.00     0.049 A 
ATOM     66  C   UNL A   1      45.443  30.426  27.637  1.00  0.00     0.074 A 
ATOM     67  C   UNL A   1      44.030  24.501  25.745  1.00  0.00     0.029 A 
ATOM     68  N   UNL A   1      44.004  26.496  26.733  1.00  0.00    -0.354 N 
ATOM     69  N   UNL A   1      45.058  29.218  27.299  1.00  0.00    -0.248 NA
ATOM     70  C   UNL A   1      46.746  30.817  27.088  1.00  0.00     0.031 C 
ATOM     71  C   UNL A   1      45.201  25.184  25.401  1.00  0.00     0.029 A 
ATOM     72  C   UNL A   1      45.173  26.437  25.994  1.00  0.00     0.049 A 
ATOM     73  H   UNL A   1      43.712  27.268  27.270  1.00  0.00     0.167 HD
ATOM     74  C   UNL A   1      46.056  28.714  26.480  1.00  0.00     0.074 A 
ATOM     75  C   UNL A   1      47.054  29.757  26.354  1.00  0.00     0.031 C 
ATOM     76  C   UNL A   1      46.145  27.497  25.888  1.00  0.00     0.037 A 
BRANCH  63  77
ATOM     77  C   UNL A   1      41.478  23.635  27.131  1.00  0.00     0.064 A 
ATOM     78  C   UNL A   1      40.287  23.414  26.422  1.00  0.00     0.173 A 
ATOM     79  C   UNL A   1      42.134  22.522  27.676  1.00  0.00     0.173 A 
ATOM     80  F   UNL A   1      39.609  24.447  25.898  1.00  0.00    -0.203 F 
ATOM     81  C   UNL A   1      39.765  22.131  26.281  1.00  0.00     0.198 A 
ATOM     82  C   UNL A   1      41.627  21.238  27.506  1.00  0.00     0.198 A 
ATOM     83  F   UNL A   1      43.272  22.680  28.369  1.00  0.00    -0.203 F 
ATOM     84  F   UNL A   1      38.603  21.948  25.641  1.00  0.00    -0.200 F 
ATOM     85  C   UNL A   1      40.441  21.043  26.814  1.00  0.00     0.200 A 
ATOM     86  F   UNL A   1      42.286  20.187  28.014  1.00  0.00    -0.200 F 
ATOM     87  F   UNL A   1      39.946  19.807  26.666  1.00  0.00    -0.200 F 
ENDBRANCH  63  77
BRANCH  64  88
ATOM     88  C   UNL A   1      45.339  32.767  28.788  1.00  0.00     0.064 A 
ATOM     89  C   UNL A   1      46.208  32.945  29.875  1.00  0.00     0.173 A 
ATOM     90  C   UNL A   1      45.051  33.891  27.999  1.00  0.00     0.173 A 
ATOM     91  F   UNL A   1      46.508  31.906  30.668  1.00  0.00    -0.203 F 
ATOM     92  C   UNL A   1      46.736  34.199  30.179  1.00  0.00     0.198 A 
ATOM     93  C   UNL A   1      45.606  35.137  28.284  1.00  0.00     0.198 A 
ATOM     94  F   UNL A   1      44.234  33.777  26.941  1.00  0.00    -0.203 F 
ATOM     95  F   UNL A   1      47.517  34.350  31.258  1.00  0.00    -0.200 F 
ATOM     96  C   UNL A   1      46.438  35.292  29.382  1.00  0.00     0.200 A 
ATOM     97  F   UNL A   1      45.329  36.187  27.499  1.00  0.00    -0.200 F 
ATOM     98  F   UNL A   1      46.944  36.498  29.676  1.00  0.00    -0.200 F 
ENDBRANCH  64  88
BRANCH  76  99
ATOM     99  C   UNL A   1      47.351  27.244  25.032  1.00  0.00     0.064 A 
ATOM    100  C   UNL A   1      47.417  27.690  23.704  1.00  0.00     0.173 A 
ATOM    101  C   UNL A   1      48.474  26.593  25.565  1.00  0.00     0.173 A 
ATOM    102  F   UNL A   1      46.363  28.305  23.145  1.00  0.00    -0.203 F 
ATOM    103  C   UNL A   1      48.554  27.469  22.933  1.00  0.00     0.198 A 
ATOM    104  C   UNL A   1      49.621  26.406  24.803  1.00  0.00     0.198 A 
ATOM    105  F   UNL A   1      48.462  26.155  26.834  1.00  0.00    -0.203 F 
ATOM    106  F   UNL A   1      48.576  27.857  21.650  1.00  0.00    -0.200 F 
ATOM    107  C   UNL A   1      49.657  26.837  23.486  1.00  0.00     0.200 A 
ATOM    108  F   UNL A   1      50.694  25.813  25.344  1.00  0.00    -0.200 F 
ATOM    109  F   UNL A   1      50.756  26.637  22.745  1.00  0.00    -0.200 F 
ENDBRANCH  76  99
ENDBRANCH  50  51
ENDBRANCH  42  45
ENDBRANCH  40  41
ENDBRANCH  39  40
ENDBRANCH  38  39
ENDBRANCH  37  38
ENDBRANCH   3  37
TORSDOF 19
ENDMDL
MODEL 2
REMARK VINA RESULT:     -12.4      4.585      9.112
REMARK SMILES C[C@]12C[C@@H](O)[C@@H]3[C@@H](CCC4=CC(=O)CC[C@]43C)[C@H]1CC[C@]2(O)C(=O)COC(=O)CCC(=O)NCCCCNC(=O)c1ccc(-c2c3nc(c(-c4c(F)c(F)c(F)c(F)c4F)c4ccc([nH]4)c(-c4c(F)c(F)c(F)c(F)c4F)c4nc(c(-c5c(F)c(F)c(F)c(F)c5F)c5ccc2[nH]5)C=C4)C=C3)cc1
REMARK SMILES IDX 31 1 32 2 33 3 30 5 29 6 27 7 28 8 26 9 25 10 23 11 24 12
REMARK SMILES IDX 21 13 17 14 16 15 15 16 10 17 6 18 14 19 11 20 9 21 7 22
REMARK SMILES IDX 4 23 12 24 8 25 18 26 3 27 13 28 2 29 19 30 1 31 20 32 5 33
REMARK SMILES IDX 22 35 34 37 35 38 36 39 37 40 38 41 39 42 40 44 41 45 42 46
REMARK SMILES IDX 103 47 43 48 102 49 44 50 45 51 46 52 96 53 47 54 101 55
REMARK SMILES IDX 95 56 97 57 48 58 100 59 94 60 93 61 49 63 81 64 61 65 80 66
REMARK SMILES IDX 62 67 65 68 79 69 98 70 63 71 64 72 78 74 99 75 66 76 50 77
REMARK SMILES IDX 51 78 59 79 52 80 53 81 57 82 60 83 54 84 55 85 58 86 56 87
REMARK SMILES IDX 82 88 83 89 91 90 84 91 85 92 89 93 92 94 86 95 87 96 90 97
REMARK SMILES IDX 88 98 67 99 68 100 76 101 69 102 70 103 74 104 77 105 71 106
REMARK SMILES IDX 72 107 75 108 73 109
REMARK H PARENT 33 4 5 34 22 36 38 43 97 62 65 73
REMARK Flexibility Score: inf
ROOT
ATOM      1  C   UNL A   1      35.327  32.649  28.336  1.00  0.00     0.220 C 
ATOM      2  O   UNL A   1      36.521  32.659  28.020  1.00  0.00    -0.275 OA
ATOM      3  N   UNL A   1      34.848  33.772  28.933  1.00  0.00    -0.356 N 
ATOM      4  H   UNL A   1      35.542  34.293  29.398  1.00  0.00     0.163 HD
ENDROOT
BRANCH   1   5
ATOM      5  C   UNL A   1      34.483  31.437  28.012  1.00  0.00     0.111 C 
BRANCH   5   6
ATOM      6  C   UNL A   1      35.241  30.271  27.408  1.00  0.00     0.132 C 
BRANCH   6   7
ATOM      7  C   UNL A   1      34.241  29.274  26.909  1.00  0.00     0.306 C 
ATOM      8  O   UNL A   1      34.408  28.056  26.874  1.00  0.00    -0.252 OA
BRANCH   7   9
ATOM      9  O   UNL A   1      33.192  29.915  26.365  1.00  0.00    -0.458 OA
BRANCH   9  10
ATOM     10  C   UNL A   1      32.939  29.695  24.998  1.00  0.00     0.311 C 
BRANCH  10  11
ATOM     11  C   UNL A   1      31.690  28.922  24.510  1.00  0.00     0.202 C 
ATOM     12  O   UNL A   1      30.761  29.679  24.204  1.00  0.00    -0.293 OA
BRANCH  11  13
ATOM     13  C   UNL A   1      31.389  27.409  24.772  1.00  0.00     0.132 C 
ATOM     14  C   UNL A   1      32.493  21.106  23.262  1.00  0.00     0.016 C 
ATOM     15  C   UNL A   1      32.610  22.064  24.485  1.00  0.00    -0.005 C 
ATOM     16  C   UNL A   1      32.494  21.168  25.752  1.00  0.00     0.020 C 
ATOM     17  C   UNL A   1      33.999  22.685  24.676  1.00  0.00    -0.060 C 
ATOM     18  C   UNL A   1      31.486  23.177  24.345  1.00  0.00     0.031 C 
ATOM     19  C   UNL A   1      33.816  20.407  26.053  1.00  0.00     0.081 C 
ATOM     20  C   UNL A   1      35.121  21.970  24.501  1.00  0.00     0.047 C 
ATOM     21  C   UNL A   1      34.122  23.839  25.632  1.00  0.00     0.032 C 
ATOM     22  C   UNL A   1      31.571  24.184  25.496  1.00  0.00    -0.000 C 
ATOM     23  C   UNL A   1      31.376  23.936  22.964  1.00  0.00     0.119 C 
ATOM     24  C   UNL A   1      34.902  20.578  24.980  1.00  0.00     0.155 C 
ATOM     25  C   UNL A   1      32.968  24.778  25.496  1.00  0.00     0.009 C 
ATOM     26  C   UNL A   1      30.409  25.184  25.351  1.00  0.00     0.002 C 
ATOM     27  C   UNL A   1      31.036  25.460  22.914  1.00  0.00     0.042 C 
ATOM     28  O   UNL A   1      35.661  19.679  24.636  1.00  0.00    -0.295 OA
ATOM     29  C   UNL A   1      30.482  26.193  24.157  1.00  0.00     0.009 C 
ATOM     30  C   UNL A   1      30.200  26.075  26.561  1.00  0.00     0.008 C 
ATOM     31  C   UNL A   1      28.974  26.485  23.879  1.00  0.00     0.015 C 
ATOM     32  C   UNL A   1      30.991  27.343  26.293  1.00  0.00     0.044 C 
BRANCH  23  33
ATOM     33  O   UNL A   1      32.575  23.832  22.196  1.00  0.00    -0.393 OA
ATOM     34  H   UNL A   1      32.841  24.713  21.889  1.00  0.00     0.210 HD
ENDBRANCH  23  33
BRANCH  13  35
ATOM     35  O   UNL A   1      32.793  27.125  24.682  1.00  0.00    -0.381 OA
ATOM     36  H   UNL A   1      33.007  26.370  25.252  1.00  0.00     0.212 HD
ENDBRANCH  13  35
ENDBRANCH  11  13
ENDBRANCH  10  11
ENDBRANCH   9  10
ENDBRANCH   7   9
ENDBRANCH   6   7
ENDBRANCH   5   6
ENDBRANCH   1   5
BRANCH   3  37
ATOM     37  C   UNL A   1      33.523  34.359  29.028  1.00  0.00     0.116 C 
BRANCH  37  38
ATOM     38  C   UNL A   1      33.441  35.864  28.715  1.00  0.00     0.023 C 
BRANCH  38  39
ATOM     39  C   UNL A   1      32.906  36.743  29.866  1.00  0.00     0.023 C 
BRANCH  39  40
ATOM     40  C   UNL A   1      32.156  36.078  31.023  1.00  0.00     0.116 C 
BRANCH  40  41
ATOM     41  N   UNL A   1      32.526  36.502  32.361  1.00  0.00    -0.352 N 
ATOM     42  C   UNL A   1      33.655  36.215  33.111  1.00  0.00     0.251 C 
ATOM     43  H   UNL A   1      31.870  37.084  32.807  1.00  0.00     0.163 HD
ATOM     44  O   UNL A   1      33.910  36.836  34.141  1.00  0.00    -0.269 OA
BRANCH  42  45
ATOM     45  C   UNL A   1      34.489  35.053  32.789  1.00  0.00     0.039 A 
ATOM     46  C   UNL A   1      35.643  35.352  32.064  1.00  0.00     0.014 A 
ATOM     47  C   UNL A   1      34.283  33.784  33.323  1.00  0.00     0.014 A 
ATOM     48  C   UNL A   1      36.697  34.462  32.079  1.00  0.00     0.010 A 
ATOM     49  C   UNL A   1      35.365  32.922  33.412  1.00  0.00     0.010 A 
ATOM     50  C   UNL A   1      36.595  33.303  32.856  1.00  0.00    -0.014 A 
BRANCH  50  51
ATOM     51  C   UNL A   1      37.822  32.564  33.195  1.00  0.00     0.031 A 
ATOM     52  C   UNL A   1      38.553  32.878  34.452  1.00  0.00     0.074 A 
ATOM     53  C   UNL A   1      38.268  31.643  32.317  1.00  0.00     0.049 A 
ATOM     54  N   UNL A   1      39.641  32.333  34.922  1.00  0.00    -0.248 NA
ATOM     55  C   UNL A   1      38.008  33.965  35.280  1.00  0.00     0.031 C 
ATOM     56  C   UNL A   1      37.642  31.329  31.027  1.00  0.00     0.029 A 
ATOM     57  N   UNL A   1      39.347  30.803  32.370  1.00  0.00    -0.354 N 
ATOM     58  C   UNL A   1      39.914  33.011  36.098  1.00  0.00     0.074 A 
ATOM     59  C   UNL A   1      38.914  34.043  36.244  1.00  0.00     0.031 C 
ATOM     60  C   UNL A   1      38.333  30.347  30.428  1.00  0.00     0.029 A 
ATOM     61  C   UNL A   1      39.468  29.991  31.268  1.00  0.00     0.049 A 
ATOM     62  H   UNL A   1      39.978  30.782  33.126  1.00  0.00     0.167 HD
ATOM     63  C   UNL A   1      40.907  32.765  36.981  1.00  0.00     0.037 A 
ATOM     64  C   UNL A   1      40.402  29.067  30.974  1.00  0.00     0.037 A 
ATOM     65  C   UNL A   1      41.878  31.716  36.813  1.00  0.00     0.049 A 
ATOM     66  C   UNL A   1      41.489  28.815  31.983  1.00  0.00     0.074 A 
ATOM     67  C   UNL A   1      42.884  31.329  37.678  1.00  0.00     0.029 A 
ATOM     68  N   UNL A   1      41.967  30.895  35.696  1.00  0.00    -0.354 N 
ATOM     69  N   UNL A   1      41.687  29.393  33.145  1.00  0.00    -0.248 NA
ATOM     70  C   UNL A   1      42.477  27.782  31.650  1.00  0.00     0.031 C 
ATOM     71  C   UNL A   1      43.622  30.317  37.056  1.00  0.00     0.029 A 
ATOM     72  C   UNL A   1      43.036  30.027  35.834  1.00  0.00     0.049 A 
ATOM     73  H   UNL A   1      41.360  30.928  34.921  1.00  0.00     0.167 HD
ATOM     74  C   UNL A   1      42.803  28.779  33.692  1.00  0.00     0.074 A 
ATOM     75  C   UNL A   1      43.226  27.768  32.743  1.00  0.00     0.031 C 
ATOM     76  C   UNL A   1      43.428  29.029  34.869  1.00  0.00     0.037 A 
BRANCH  63  77
ATOM     77  C   UNL A   1      40.996  33.643  38.192  1.00  0.00     0.064 A 
ATOM     78  C   UNL A   1      41.863  34.745  38.245  1.00  0.00     0.173 A 
ATOM     79  C   UNL A   1      40.173  33.401  39.302  1.00  0.00     0.173 A 
ATOM     80  F   UNL A   1      42.686  35.008  37.217  1.00  0.00    -0.203 F 
ATOM     81  C   UNL A   1      41.917  35.560  39.371  1.00  0.00     0.198 A 
ATOM     82  C   UNL A   1      40.206  34.237  40.414  1.00  0.00     0.198 A 
ATOM     83  F   UNL A   1      39.332  32.356  39.305  1.00  0.00    -0.203 F 
ATOM     84  F   UNL A   1      42.786  36.580  39.418  1.00  0.00    -0.200 F 
ATOM     85  C   UNL A   1      41.081  35.312  40.450  1.00  0.00     0.200 A 
ATOM     86  F   UNL A   1      39.392  34.001  41.451  1.00  0.00    -0.200 F 
ATOM     87  F   UNL A   1      41.124  36.106  41.529  1.00  0.00    -0.200 F 
ENDBRANCH  63  77
BRANCH  64  88
ATOM     88  C   UNL A   1      40.348  28.322  29.688  1.00  0.00     0.064 A 
ATOM     89  C   UNL A   1      39.598  27.144  29.559  1.00  0.00     0.173 A 
ATOM     90  C   UNL A   1      41.056  28.765  28.560  1.00  0.00     0.173 A 
ATOM     91  F   UNL A   1      38.911  26.671  30.609  1.00  0.00    -0.203 F 
ATOM     92  C   UNL A   1      39.587  26.422  28.367  1.00  0.00     0.198 A 
ATOM     93  C   UNL A   1      41.017  28.060  27.359  1.00  0.00     0.198 A 
ATOM     94  F   UNL A   1      41.781  29.892  28.623  1.00  0.00    -0.203 F 
ATOM     95  F   UNL A   1      38.909  25.269  28.292  1.00  0.00    -0.200 F 
ATOM     96  C   UNL A   1      40.293  26.882  27.267  1.00  0.00     0.200 A 
ATOM     97  F   UNL A   1      41.688  28.520  26.293  1.00  0.00    -0.200 F 
ATOM     98  F   UNL A   1      40.284  26.187  26.122  1.00  0.00    -0.200 F 
ENDBRANCH  64  88
BRANCH  76  99
ATOM     99  C   UNL A   1      44.617  28.178  35.203  1.00  0.00     0.064 A 
ATOM    100  C   UNL A   1      45.919  28.561  34.849  1.00  0.00     0.173 A 
ATOM    101  C   UNL A   1      44.455  26.990  35.932  1.00  0.00     0.173 A 
ATOM    102  F   UNL A   1      46.124  29.682  34.139  1.00  0.00    -0.203 F 
ATOM    103  C   UNL A   1      47.013  27.772  35.190  1.00  0.00     0.198 A 
ATOM    104  C   UNL A   1      45.554  26.223  36.303  1.00  0.00     0.198 A 
ATOM    105  F   UNL A   1      43.230  26.586  36.301  1.00  0.00    -0.203 F 
ATOM    106  F   UNL A   1      48.243  28.131  34.797  1.00  0.00    -0.200 F 
ATOM    107  C   UNL A   1      46.830  26.611  35.925  1.00  0.00     0.200 A 
ATOM    108  F   UNL A   1      45.378  25.111  37.030  1.00  0.00    -0.200 F 
ATOM    109  F   UNL A   1      47.886  25.859  36.264  1.00  0.00    -0.200 F 
ENDBRANCH  76  99
ENDBRANCH  50  51
ENDBRANCH  42  45
ENDBRANCH  40  41
ENDBRANCH  39  40
ENDBRANCH  38  39
ENDBRANCH  37  38
ENDBRANCH   3  37
TORSDOF 19
ENDMDL
MODEL 3
REMARK VINA RESULT:     -12.3      1.279      7.088
REMARK SMILES C[C@]12C[C@@H](O)[C@@H]3[C@@H](CCC4=CC(=O)CC[C@]43C)[C@H]1CC[C@]2(O)C(=O)COC(=O)CCC(=O)NCCCCNC(=O)c1ccc(-c2c3nc(c(-c4c(F)c(F)c(F)c(F)c4F)c4ccc([nH]4)c(-c4c(F)c(F)c(F)c(F)c4F)c4nc(c(-c5c(F)c(F)c(F)c(F)c5F)c5ccc2[nH]5)C=C4)C=C3)cc1
REMARK SMILES IDX 31 1 32 2 33 3 30 5 29 6 27 7 28 8 26 9 25 10 23 11 24 12
REMARK SMILES IDX 21 13 17 14 16 15 15 16 10 17 6 18 14 19 11 20 9 21 7 22
REMARK SMILES IDX 4 23 12 24 8 25 18 26 3 27 13 28 2 29 19 30 1 31 20 32 5 33
REMARK SMILES IDX 22 35 34 37 35 38 36 39 37 40 38 41 39 42 40 44 41 45 42 46
REMARK SMILES IDX 103 47 43 48 102 49 44 50 45 51 46 52 96 53 47 54 101 55
REMARK SMILES IDX 95 56 97 57 48 58 100 59 94 60 93 61 49 63 81 64 61 65 80 66
REMARK SMILES IDX 62 67 65 68 79 69 98 70 63 71 64 72 78 74 99 75 66 76 50 77
REMARK SMILES IDX 51 78 59 79 52 80 53 81 57 82 60 83 54 84 55 85 58 86 56 87
REMARK SMILES IDX 82 88 83 89 91 90 84 91 85 92 89 93 92 94 86 95 87 96 90 97
REMARK SMILES IDX 88 98 67 99 68 100 76 101 69 102 70 103 74 104 77 105 71 106
REMARK SMILES IDX 72 107 75 108 73 109
REMARK H PARENT 33 4 5 34 22 36 38 43 97 62 65 73
REMARK Flexibility Score: inf
ROOT
ATOM      1  C   UNL A   1      34.956  33.865  28.846  1.00  0.00     0.220 C 
ATOM      2  O   UNL A   1      35.640  34.057  27.835  1.00  0.00    -0.275 OA
ATOM      3  N   UNL A   1      34.721  34.947  29.634  1.00  0.00    -0.356 N 
ATOM      4  H   UNL A   1      35.409  35.646  29.553  1.00  0.00     0.163 HD
ENDROOT
BRANCH   1   5
ATOM      5  C   UNL A   1      34.403  32.484  29.117  1.00  0.00     0.111 C 
BRANCH   5   6
ATOM      6  C   UNL A   1      34.047  31.682  27.881  1.00  0.00     0.132 C 
BRANCH   6   7
ATOM      7  C   UNL A   1      35.061  30.591  27.725  1.00  0.00     0.306 C 
ATOM      8  O   UNL A   1      36.275  30.759  27.627  1.00  0.00    -0.252 OA
BRANCH   7   9
ATOM      9  O   UNL A   1      34.439  29.411  27.558  1.00  0.00    -0.458 OA
BRANCH   9  10
ATOM     10  C   UNL A   1      33.166  29.431  26.960  1.00  0.00     0.311 C 
BRANCH  10  11
ATOM     11  C   UNL A   1      32.906  28.807  25.567  1.00  0.00     0.202 C 
ATOM     12  O   UNL A   1      32.891  29.657  24.669  1.00  0.00    -0.293 OA
BRANCH  11  13
ATOM     13  C   UNL A   1      32.283  27.398  25.297  1.00  0.00     0.132 C 
ATOM     14  C   UNL A   1      32.851  21.402  22.661  1.00  0.00     0.016 C 
ATOM     15  C   UNL A   1      32.625  22.061  24.054  1.00  0.00    -0.005 C 
ATOM     16  C   UNL A   1      31.866  21.010  24.915  1.00  0.00     0.020 C 
ATOM     17  C   UNL A   1      33.903  22.266  24.876  1.00  0.00    -0.060 C 
ATOM     18  C   UNL A   1      31.849  23.429  23.828  1.00  0.00     0.031 C 
ATOM     19  C   UNL A   1      32.814  19.898  25.447  1.00  0.00     0.081 C 
ATOM     20  C   UNL A   1      34.868  21.334  24.923  1.00  0.00     0.047 C 
ATOM     21  C   UNL A   1      33.819  23.159  26.083  1.00  0.00     0.032 C 
ATOM     22  C   UNL A   1      31.630  24.156  25.159  1.00  0.00    -0.000 C 
ATOM     23  C   UNL A   1      32.427  24.428  22.749  1.00  0.00     0.119 C 
ATOM     24  C   UNL A   1      34.251  19.980  24.909  1.00  0.00     0.155 C 
ATOM     25  C   UNL A   1      32.987  24.368  25.806  1.00  0.00     0.009 C 
ATOM     26  C   UNL A   1      30.804  25.426  24.885  1.00  0.00     0.002 C 
ATOM     27  C   UNL A   1      32.389  25.971  22.988  1.00  0.00     0.042 C 
ATOM     28  O   UNL A   1      34.926  18.997  24.628  1.00  0.00    -0.295 OA
ATOM     29  C   UNL A   1      31.512  26.583  24.104  1.00  0.00     0.009 C 
ATOM     30  C   UNL A   1      30.277  26.106  26.134  1.00  0.00     0.008 C 
ATOM     31  C   UNL A   1      30.311  27.291  23.404  1.00  0.00     0.015 C 
ATOM     32  C   UNL A   1      31.305  27.160  26.506  1.00  0.00     0.044 C 
BRANCH  23  33
ATOM     33  O   UNL A   1      33.798  24.165  22.452  1.00  0.00    -0.393 OA
ATOM     34  H   UNL A   1      33.863  23.720  21.592  1.00  0.00     0.210 HD
ENDBRANCH  23  33
BRANCH  13  35
ATOM     35  O   UNL A   1      33.539  26.790  25.633  1.00  0.00    -0.381 OA
ATOM     36  H   UNL A   1      33.703  26.040  25.040  1.00  0.00     0.212 HD
ENDBRANCH  13  35
ENDBRANCH  11  13
ENDBRANCH  10  11
ENDBRANCH   9  10
ENDBRANCH   7   9
ENDBRANCH   6   7
ENDBRANCH   5   6
ENDBRANCH   1   5
BRANCH   3  37
ATOM     37  C   UNL A   1      33.664  35.282  30.571  1.00  0.00     0.116 C 
BRANCH  37  38
ATOM     38  C   UNL A   1      33.872  34.784  32.012  1.00  0.00     0.023 C 
BRANCH  38  39
ATOM     39  C   UNL A   1      35.334  34.802  32.506  1.00  0.00     0.023 C 
BRANCH  39  40
ATOM     40  C   UNL A   1      35.849  33.631  33.348  1.00  0.00     0.116 C 
BRANCH  40  41
ATOM     41  N   UNL A   1      35.511  32.300  32.878  1.00  0.00    -0.352 N 
ATOM     42  C   UNL A   1      36.318  31.306  32.349  1.00  0.00     0.251 C 
ATOM     43  H   UNL A   1      34.558  32.067  32.946  1.00  0.00     0.163 HD
ATOM     44  O   UNL A   1      35.904  30.157  32.206  1.00  0.00    -0.269 OA
BRANCH  42  45
ATOM     45  C   UNL A   1      37.632  31.633  31.786  1.00  0.00     0.039 A 
ATOM     46  C   UNL A   1      38.713  31.116  32.502  1.00  0.00     0.014 A 
ATOM     47  C   UNL A   1      37.813  32.226  30.540  1.00  0.00     0.014 A 
ATOM     48  C   UNL A   1      39.931  30.971  31.871  1.00  0.00     0.010 A 
ATOM     49  C   UNL A   1      39.009  32.010  29.873  1.00  0.00     0.010 A 
ATOM     50  C   UNL A   1      40.038  31.309  30.518  1.00  0.00    -0.014 A 
BRANCH  50  51
ATOM     51  C   UNL A   1      41.183  30.800  29.746  1.00  0.00     0.031 A 
ATOM     52  C   UNL A   1      42.322  31.702  29.426  1.00  0.00     0.074 A 
ATOM     53  C   UNL A   1      41.137  29.523  29.315  1.00  0.00     0.049 A 
ATOM     54  N   UNL A   1      43.416  31.434  28.766  1.00  0.00    -0.248 NA
ATOM     55  C   UNL A   1      42.209  33.097  29.879  1.00  0.00     0.031 C 
ATOM     56  C   UNL A   1      40.020  28.596  29.532  1.00  0.00     0.029 A 
ATOM     57  N   UNL A   1      42.045  28.781  28.609  1.00  0.00    -0.354 N 
ATOM     58  C   UNL A   1      44.121  32.625  28.724  1.00  0.00     0.074 A 
ATOM     59  C   UNL A   1      43.310  33.630  29.371  1.00  0.00     0.031 C 
ATOM     60  C   UNL A   1      40.323  27.404  28.993  1.00  0.00     0.029 A 
ATOM     61  C   UNL A   1      41.633  27.493  28.363  1.00  0.00     0.049 A 
ATOM     62  H   UNL A   1      42.912  29.136  28.306  1.00  0.00     0.167 HD
ATOM     63  C   UNL A   1      45.350  32.838  28.203  1.00  0.00     0.037 A 
ATOM     64  C   UNL A   1      42.250  26.502  27.694  1.00  0.00     0.037 A 
ATOM     65  C   UNL A   1      46.138  31.809  27.579  1.00  0.00     0.049 A 
ATOM     66  C   UNL A   1      43.620  26.774  27.133  1.00  0.00     0.074 A 
ATOM     67  C   UNL A   1      47.424  31.893  27.082  1.00  0.00     0.029 A 
ATOM     68  N   UNL A   1      45.704  30.508  27.359  1.00  0.00    -0.354 N 
ATOM     69  N   UNL A   1      44.328  27.878  27.182  1.00  0.00    -0.248 NA
ATOM     70  C   UNL A   1      44.282  25.666  26.434  1.00  0.00     0.031 C 
ATOM     71  C   UNL A   1      47.746  30.662  26.503  1.00  0.00     0.029 A 
ATOM     72  C   UNL A   1      46.686  29.790  26.698  1.00  0.00     0.049 A 
ATOM     73  H   UNL A   1      44.828  30.150  27.631  1.00  0.00     0.167 HD
ATOM     74  C   UNL A   1      45.525  27.593  26.543  1.00  0.00     0.074 A 
ATOM     75  C   UNL A   1      45.456  26.204  26.136  1.00  0.00     0.031 C 
ATOM     76  C   UNL A   1      46.585  28.405  26.309  1.00  0.00     0.037 A 
BRANCH  63  77
ATOM     77  C   UNL A   1      45.907  34.227  28.280  1.00  0.00     0.064 A 
ATOM     78  C   UNL A   1      46.676  34.657  29.372  1.00  0.00     0.173 A 
ATOM     79  C   UNL A   1      45.699  35.131  27.227  1.00  0.00     0.173 A 
ATOM     80  F   UNL A   1      46.887  33.838  30.415  1.00  0.00    -0.203 F 
ATOM     81  C   UNL A   1      47.201  35.945  29.416  1.00  0.00     0.198 A 
ATOM     82  C   UNL A   1      46.252  36.407  27.259  1.00  0.00     0.198 A 
ATOM     83  F   UNL A   1      44.964  34.772  26.164  1.00  0.00    -0.203 F 
ATOM     84  F   UNL A   1      47.893  36.349  30.489  1.00  0.00    -0.200 F 
ATOM     85  C   UNL A   1      46.998  36.815  28.355  1.00  0.00     0.200 A 
ATOM     86  F   UNL A   1      46.062  37.243  26.229  1.00  0.00    -0.200 F 
ATOM     87  F   UNL A   1      47.514  38.051  28.392  1.00  0.00    -0.200 F 
ENDBRANCH  63  77
BRANCH  64  88
ATOM     88  C   UNL A   1      41.588  25.181  27.522  1.00  0.00     0.064 A 
ATOM     89  C   UNL A   1      40.493  25.022  26.660  1.00  0.00     0.173 A 
ATOM     90  C   UNL A   1      42.027  24.051  28.229  1.00  0.00     0.173 A 
ATOM     91  F   UNL A   1      40.027  26.073  25.971  1.00  0.00    -0.203 F 
ATOM     92  C   UNL A   1      39.844  23.794  26.538  1.00  0.00     0.198 A 
ATOM     93  C   UNL A   1      41.397  22.816  28.080  1.00  0.00     0.198 A 
ATOM     94  F   UNL A   1      43.076  24.142  29.059  1.00  0.00    -0.203 F 
ATOM     95  F   UNL A   1      38.764  23.686  25.751  1.00  0.00    -0.200 F 
ATOM     96  C   UNL A   1      40.298  22.692  27.244  1.00  0.00     0.200 A 
ATOM     97  F   UNL A   1      41.853  21.749  28.751  1.00  0.00    -0.200 F 
ATOM     98  F   UNL A   1      39.673  21.513  27.127  1.00  0.00    -0.200 F 
ENDBRANCH  64  88
BRANCH  76  99
ATOM     99  C   UNL A   1      47.762  27.800  25.602  1.00  0.00     0.064 A 
ATOM    100  C   UNL A   1      47.820  27.723  24.203  1.00  0.00     0.173 A 
ATOM    101  C   UNL A   1      48.868  27.342  26.334  1.00  0.00     0.173 A 
ATOM    102  F   UNL A   1      46.780  28.135  23.461  1.00  0.00    -0.203 F 
ATOM    103  C   UNL A   1      48.931  27.183  23.563  1.00  0.00     0.198 A 
ATOM    104  C   UNL A   1      49.992  26.837  25.690  1.00  0.00     0.198 A 
ATOM    105  F   UNL A   1      48.865  27.404  27.674  1.00  0.00    -0.203 F 
ATOM    106  F   UNL A   1      48.943  27.070  22.228  1.00  0.00    -0.200 F 
ATOM    107  C   UNL A   1      50.019  26.751  24.306  1.00  0.00     0.200 A 
ATOM    108  F   UNL A   1      51.051  26.438  26.408  1.00  0.00    -0.200 F 
ATOM    109  F   UNL A   1      51.094  26.243  23.688  1.00  0.00    -0.200 F 
ENDBRANCH  76  99
ENDBRANCH  50  51
ENDBRANCH  42  45
ENDBRANCH  40  41
ENDBRANCH  39  40
ENDBRANCH  38  39
ENDBRANCH  37  38
ENDBRANCH   3  37
TORSDOF 19
ENDMDL
