MODEL 1
REMARK VINA RESULT:     -12.4      0.000      0.000
REMARK SMILES O=C(CCCN1C(=O)/C(=C\c2ccc(O)c(O)c2)SC1=S)NCCCCNC(=O)c1ccc(-c2c3nc(c(-c4c(F)c(F)c(F)c(F)c4F)c4ccc([nH]4)c(-c4c(F)c(F)c(F)c(F)c4F)c4nc(c(-c5c(F)c(F)c(F)c(F)c5F)c5ccc2[nH]5)C=C4)C=C3)cc1
REMARK SMILES IDX 23 1 22 2 1 3 2 4 3 6 4 7 5 8 6 9 7 10 20 11 8 12 9 13 19 14
REMARK SMILES IDX 21 15 10 16 11 17 12 18 18 19 13 20 16 21 14 22 17 23 15 25
REMARK SMILES IDX 24 27 25 28 26 29 27 30 28 31 29 33 30 34 31 35 92 36 32 37
REMARK SMILES IDX 91 38 33 39 34 40 35 41 85 42 36 43 90 44 84 45 86 46 37 47
REMARK SMILES IDX 89 48 83 49 82 50 38 52 70 53 50 54 69 55 51 56 54 57 68 58
REMARK SMILES IDX 87 59 52 60 53 61 67 63 88 64 55 65 39 66 40 67 48 68 41 69
REMARK SMILES IDX 42 70 46 71 49 72 43 73 44 74 47 75 45 76 71 77 72 78 80 79
REMARK SMILES IDX 73 80 74 81 78 82 81 83 75 84 76 85 79 86 77 87 56 88 57 89
REMARK SMILES IDX 65 90 58 91 59 92 63 93 66 94 60 95 61 96 64 97 62 98
REMARK H PARENT 22 5 17 24 15 26 27 32 86 51 54 62
REMARK Flexibility Score: inf
ROOT
ATOM      1  C   UNL A   1      34.582  32.004  28.905  1.00  0.00     0.116 C 
ENDROOT
BRANCH   1   2
ATOM      2  N   UNL A   1      34.037  30.826  28.261  1.00  0.00    -0.356 N 
ATOM      3  O   UNL A   1      36.075  29.931  27.694  1.00  0.00    -0.275 OA
ATOM      4  C   UNL A   1      34.850  29.894  27.659  1.00  0.00     0.220 C 
ATOM      5  H   UNL A   1      33.062  30.688  28.254  1.00  0.00     0.163 HD
BRANCH   4   6
ATOM      6  C   UNL A   1      34.103  28.809  26.918  1.00  0.00     0.102 C 
BRANCH   6   7
ATOM      7  C   UNL A   1      33.516  29.286  25.595  1.00  0.00     0.032 C 
BRANCH   7   8
ATOM      8  C   UNL A   1      33.314  28.216  24.516  1.00  0.00     0.128 C 
BRANCH   8   9
ATOM      9  N   UNL A   1      31.961  27.683  24.278  1.00  0.00    -0.293 N 
ATOM     10  C   UNL A   1      31.164  28.366  23.364  1.00  0.00     0.266 C 
ATOM     11  C   UNL A   1      31.320  26.683  24.983  1.00  0.00     0.148 C 
ATOM     12  O   UNL A   1      31.575  29.215  22.581  1.00  0.00    -0.268 OA
ATOM     13  C   UNL A   1      29.754  27.874  23.417  1.00  0.00     0.081 C 
ATOM     14  S   UNL A   1      29.736  26.377  24.270  1.00  0.00    -0.054 SA
ATOM     15  S   UNL A   1      31.834  25.832  26.318  1.00  0.00    -0.052 S 
ATOM     16  C   UNL A   1      28.617  28.485  23.044  1.00  0.00     0.029 C 
BRANCH  16  17
ATOM     17  C   UNL A   1      28.500  29.881  22.614  1.00  0.00    -0.020 A 
ATOM     18  C   UNL A   1      28.681  30.947  23.495  1.00  0.00     0.012 A 
ATOM     19  C   UNL A   1      28.152  30.144  21.280  1.00  0.00     0.058 A 
ATOM     20  C   UNL A   1      28.408  32.251  23.082  1.00  0.00     0.051 A 
ATOM     21  C   UNL A   1      27.904  31.448  20.878  1.00  0.00     0.157 A 
ATOM     22  C   UNL A   1      28.002  32.497  21.780  1.00  0.00     0.157 A 
BRANCH  21  23
ATOM     23  O   UNL A   1      27.538  31.701  19.588  1.00  0.00    -0.504 OA
ATOM     24  H   UNL A   1      26.683  32.032  19.399  1.00  0.00     0.293 HD
ENDBRANCH  21  23
BRANCH  22  25
ATOM     25  O   UNL A   1      27.664  33.741  21.335  1.00  0.00    -0.504 OA
ATOM     26  H   UNL A   1      27.644  33.922  20.416  1.00  0.00     0.293 HD
ENDBRANCH  22  25
ENDBRANCH  16  17
ENDBRANCH   8   9
ENDBRANCH   7   8
ENDBRANCH   6   7
ENDBRANCH   4   6
ENDBRANCH   1   2
BRANCH   1  27
ATOM     27  C   UNL A   1      34.375  33.256  28.057  1.00  0.00     0.023 C 
BRANCH  27  28
ATOM     28  C   UNL A   1      33.228  34.167  28.514  1.00  0.00     0.023 C 
BRANCH  28  29
ATOM     29  C   UNL A   1      33.653  35.544  29.024  1.00  0.00     0.116 C 
BRANCH  29  30
ATOM     30  N   UNL A   1      32.762  36.042  30.064  1.00  0.00    -0.352 N 
ATOM     31  C   UNL A   1      32.753  35.790  31.413  1.00  0.00     0.251 C 
ATOM     32  H   UNL A   1      32.058  36.655  29.750  1.00  0.00     0.163 HD
ATOM     33  O   UNL A   1      31.804  36.151  32.103  1.00  0.00    -0.269 OA
BRANCH  31  34
ATOM     34  C   UNL A   1      33.879  35.072  32.046  1.00  0.00     0.039 A 
ATOM     35  C   UNL A   1      33.737  33.720  32.368  1.00  0.00     0.014 A 
ATOM     36  C   UNL A   1      35.064  35.736  32.353  1.00  0.00     0.014 A 
ATOM     37  C   UNL A   1      34.820  33.008  32.900  1.00  0.00     0.010 A 
ATOM     38  C   UNL A   1      36.150  35.015  32.852  1.00  0.00     0.010 A 
ATOM     39  C   UNL A   1      36.067  33.628  33.083  1.00  0.00    -0.014 A 
BRANCH  39  40
ATOM     40  C   UNL A   1      37.292  32.838  33.439  1.00  0.00     0.031 A 
ATOM     41  C   UNL A   1      38.038  33.092  34.726  1.00  0.00     0.074 A 
ATOM     42  C   UNL A   1      37.828  31.972  32.549  1.00  0.00     0.049 A 
ATOM     43  N   UNL A   1      39.198  32.621  35.115  1.00  0.00    -0.248 NA
ATOM     44  C   UNL A   1      37.449  34.064  35.657  1.00  0.00     0.031 C 
ATOM     45  C   UNL A   1      37.300  31.686  31.212  1.00  0.00     0.029 A 
ATOM     46  N   UNL A   1      38.955  31.183  32.625  1.00  0.00    -0.354 N 
ATOM     47  C   UNL A   1      39.490  33.262  36.312  1.00  0.00     0.074 A 
ATOM     48  C   UNL A   1      38.422  34.211  36.544  1.00  0.00     0.031 C 
ATOM     49  C   UNL A   1      38.067  30.756  30.620  1.00  0.00     0.029 A 
ATOM     50  C   UNL A   1      39.170  30.406  31.508  1.00  0.00     0.049 A 
ATOM     51  H   UNL A   1      39.553  31.175  33.407  1.00  0.00     0.167 HD
ATOM     52  C   UNL A   1      40.527  33.059  37.163  1.00  0.00     0.037 A 
ATOM     53  C   UNL A   1      40.137  29.511  31.224  1.00  0.00     0.037 A 
ATOM     54  C   UNL A   1      41.546  32.055  36.996  1.00  0.00     0.049 A 
ATOM     55  C   UNL A   1      41.235  29.249  32.220  1.00  0.00     0.074 A 
ATOM     56  C   UNL A   1      42.557  31.702  37.874  1.00  0.00     0.029 A 
ATOM     57  N   UNL A   1      41.679  31.234  35.887  1.00  0.00    -0.354 N 
ATOM     58  N   UNL A   1      41.435  29.793  33.394  1.00  0.00    -0.248 NA
ATOM     59  C   UNL A   1      42.240  28.238  31.851  1.00  0.00     0.031 C 
ATOM     60  C   UNL A   1      43.325  30.693  37.282  1.00  0.00     0.029 A 
ATOM     61  C   UNL A   1      42.764  30.385  36.055  1.00  0.00     0.049 A 
ATOM     62  H   UNL A   1      41.092  31.252  35.097  1.00  0.00     0.167 HD
ATOM     63  C   UNL A   1      42.564  29.171  33.914  1.00  0.00     0.074 A 
ATOM     64  C   UNL A   1      42.997  28.197  32.938  1.00  0.00     0.031 C 
ATOM     65  C   UNL A   1      43.183  29.395  35.099  1.00  0.00     0.037 A 
BRANCH  52  66
ATOM     66  C   UNL A   1      40.602  33.926  38.389  1.00  0.00     0.064 A 
ATOM     67  C   UNL A   1      41.341  35.118  38.404  1.00  0.00     0.173 A 
ATOM     68  C   UNL A   1      39.885  33.586  39.546  1.00  0.00     0.173 A 
ATOM     69  F   UNL A   1      42.048  35.488  37.324  1.00  0.00    -0.203 F 
ATOM     70  C   UNL A   1      41.394  35.915  39.544  1.00  0.00     0.198 A 
ATOM     71  C   UNL A   1      39.910  34.404  40.673  1.00  0.00     0.198 A 
ATOM     72  F   UNL A   1      39.149  32.464  39.581  1.00  0.00    -0.203 F 
ATOM     73  F   UNL A   1      42.155  37.019  39.551  1.00  0.00    -0.200 F 
ATOM     74  C   UNL A   1      40.673  35.562  40.674  1.00  0.00     0.200 A 
ATOM     75  F   UNL A   1      39.199  34.071  41.758  1.00  0.00    -0.200 F 
ATOM     76  F   UNL A   1      40.719  36.335  41.768  1.00  0.00    -0.200 F 
ENDBRANCH  52  66
BRANCH  53  77
ATOM     77  C   UNL A   1      40.095  28.741  29.950  1.00  0.00     0.064 A 
ATOM     78  C   UNL A   1      39.480  27.480  29.903  1.00  0.00     0.173 A 
ATOM     79  C   UNL A   1      40.689  29.221  28.776  1.00  0.00     0.173 A 
ATOM     80  F   UNL A   1      38.919  26.968  31.008  1.00  0.00    -0.203 F 
ATOM     81  C   UNL A   1      39.484  26.718  28.737  1.00  0.00     0.198 A 
ATOM     82  C   UNL A   1      40.669  28.469  27.602  1.00  0.00     0.198 A 
ATOM     83  F   UNL A   1      41.286  30.420  28.766  1.00  0.00    -0.203 F 
ATOM     84  F   UNL A   1      38.936  25.495  28.736  1.00  0.00    -0.200 F 
ATOM     85  C   UNL A   1      40.076  27.215  27.586  1.00  0.00     0.200 A 
ATOM     86  F   UNL A   1      41.231  28.956  26.487  1.00  0.00    -0.200 F 
ATOM     87  F   UNL A   1      40.083  26.481  26.465  1.00  0.00    -0.200 F 
ENDBRANCH  53  77
BRANCH  65  88
ATOM     88  C   UNL A   1      44.368  28.537  35.440  1.00  0.00     0.064 A 
ATOM     89  C   UNL A   1      44.231  27.336  36.151  1.00  0.00     0.173 A 
ATOM     90  C   UNL A   1      45.653  28.902  35.010  1.00  0.00     0.173 A 
ATOM     91  F   UNL A   1      43.027  26.949  36.597  1.00  0.00    -0.203 F 
ATOM     92  C   UNL A   1      45.341  26.543  36.437  1.00  0.00     0.198 A 
ATOM     93  C   UNL A   1      46.755  28.094  35.274  1.00  0.00     0.198 A 
ATOM     94  F   UNL A   1      45.839  30.039  34.324  1.00  0.00    -0.203 F 
ATOM     95  F   UNL A   1      45.192  25.421  37.155  1.00  0.00    -0.200 F 
ATOM     96  C   UNL A   1      46.599  26.918  35.993  1.00  0.00     0.200 A 
ATOM     97  F   UNL A   1      47.969  28.452  34.834  1.00  0.00    -0.200 F 
ATOM     98  F   UNL A   1      47.663  26.149  36.262  1.00  0.00    -0.200 F 
ENDBRANCH  65  88
ENDBRANCH  39  40
ENDBRANCH  31  34
ENDBRANCH  29  30
ENDBRANCH  28  29
ENDBRANCH  27  28
ENDBRANCH   1  27
TORSDOF 17
ENDMDL
MODEL 2
REMARK VINA RESULT:     -12.3      0.228      1.583
REMARK SMILES O=C(CCCN1C(=O)/C(=C\c2ccc(O)c(O)c2)SC1=S)NCCCCNC(=O)c1ccc(-c2c3nc(c(-c4c(F)c(F)c(F)c(F)c4F)c4ccc([nH]4)c(-c4c(F)c(F)c(F)c(F)c4F)c4nc(c(-c5c(F)c(F)c(F)c(F)c5F)c5ccc2[nH]5)C=C4)C=C3)cc1
REMARK SMILES IDX 23 1 22 2 1 3 2 4 3 6 4 7 5 8 6 9 7 10 20 11 8 12 9 13 19 14
REMARK SMILES IDX 21 15 10 16 11 17 12 18 18 19 13 20 16 21 14 22 17 23 15 25
REMARK SMILES IDX 24 27 25 28 26 29 27 30 28 31 29 33 30 34 31 35 92 36 32 37
REMARK SMILES IDX 91 38 33 39 34 40 35 41 85 42 36 43 90 44 84 45 86 46 37 47
REMARK SMILES IDX 89 48 83 49 82 50 38 52 70 53 50 54 69 55 51 56 54 57 68 58
REMARK SMILES IDX 87 59 52 60 53 61 67 63 88 64 55 65 39 66 40 67 48 68 41 69
REMARK SMILES IDX 42 70 46 71 49 72 43 73 44 74 47 75 45 76 71 77 72 78 80 79
REMARK SMILES IDX 73 80 74 81 78 82 81 83 75 84 76 85 79 86 77 87 56 88 57 89
REMARK SMILES IDX 65 90 58 91 59 92 63 93 66 94 60 95 61 96 64 97 62 98
REMARK H PARENT 22 5 17 24 15 26 27 32 86 51 54 62
REMARK Flexibility Score: inf
ROOT
ATOM      1  C   UNL A   1      34.709  32.063  28.689  1.00  0.00     0.116 C 
ENDROOT
BRANCH   1   2
ATOM      2  N   UNL A   1      33.861  31.084  28.041  1.00  0.00    -0.356 N 
ATOM      3  O   UNL A   1      35.582  29.714  27.382  1.00  0.00    -0.275 OA
ATOM      4  C   UNL A   1      34.388  29.993  27.390  1.00  0.00     0.220 C 
ATOM      5  H   UNL A   1      32.883  31.201  28.066  1.00  0.00     0.163 HD
BRANCH   4   6
ATOM      6  C   UNL A   1      33.366  29.158  26.654  1.00  0.00     0.102 C 
BRANCH   6   7
ATOM      7  C   UNL A   1      33.502  29.248  25.140  1.00  0.00     0.032 C 
BRANCH   7   8
ATOM      8  C   UNL A   1      33.262  27.952  24.357  1.00  0.00     0.128 C 
BRANCH   8   9
ATOM      9  N   UNL A   1      31.881  27.476  24.162  1.00  0.00    -0.293 N 
ATOM     10  C   UNL A   1      31.081  28.199  23.283  1.00  0.00     0.266 C 
ATOM     11  C   UNL A   1      31.226  26.495  24.880  1.00  0.00     0.148 C 
ATOM     12  O   UNL A   1      31.498  29.039  22.494  1.00  0.00    -0.268 OA
ATOM     13  C   UNL A   1      29.655  27.764  23.381  1.00  0.00     0.081 C 
ATOM     14  S   UNL A   1      29.607  26.260  24.221  1.00  0.00    -0.054 SA
ATOM     15  S   UNL A   1      31.751  25.610  26.188  1.00  0.00    -0.052 S 
ATOM     16  C   UNL A   1      28.531  28.423  23.055  1.00  0.00     0.029 C 
BRANCH  16  17
ATOM     17  C   UNL A   1      28.455  29.827  22.643  1.00  0.00    -0.020 A 
ATOM     18  C   UNL A   1      28.673  30.876  23.535  1.00  0.00     0.012 A 
ATOM     19  C   UNL A   1      28.110  30.117  21.313  1.00  0.00     0.058 A 
ATOM     20  C   UNL A   1      28.438  32.193  23.139  1.00  0.00     0.051 A 
ATOM     21  C   UNL A   1      27.901  31.433  20.928  1.00  0.00     0.157 A 
ATOM     22  C   UNL A   1      28.034  32.467  21.842  1.00  0.00     0.157 A 
BRANCH  21  23
ATOM     23  O   UNL A   1      27.537  31.713  19.643  1.00  0.00    -0.504 OA
ATOM     24  H   UNL A   1      27.024  32.474  19.455  1.00  0.00     0.293 HD
ENDBRANCH  21  23
BRANCH  22  25
ATOM     25  O   UNL A   1      27.733  33.727  21.414  1.00  0.00    -0.504 OA
ATOM     26  H   UNL A   1      26.919  34.123  21.657  1.00  0.00     0.293 HD
ENDBRANCH  22  25
ENDBRANCH  16  17
ENDBRANCH   8   9
ENDBRANCH   7   8
ENDBRANCH   6   7
ENDBRANCH   4   6
ENDBRANCH   1   2
BRANCH   1  27
ATOM     27  C   UNL A   1      34.479  33.465  28.130  1.00  0.00     0.023 C 
BRANCH  27  28
ATOM     28  C   UNL A   1      33.285  34.216  28.733  1.00  0.00     0.023 C 
BRANCH  28  29
ATOM     29  C   UNL A   1      33.590  35.626  29.239  1.00  0.00     0.116 C 
BRANCH  29  30
ATOM     30  N   UNL A   1      32.670  36.043  30.290  1.00  0.00    -0.352 N 
ATOM     31  C   UNL A   1      32.667  35.745  31.630  1.00  0.00     0.251 C 
ATOM     32  H   UNL A   1      31.937  36.628  29.992  1.00  0.00     0.163 HD
ATOM     33  O   UNL A   1      31.698  36.033  32.325  1.00  0.00    -0.269 OA
BRANCH  31  34
ATOM     34  C   UNL A   1      33.826  35.066  32.246  1.00  0.00     0.039 A 
ATOM     35  C   UNL A   1      33.674  33.774  32.753  1.00  0.00     0.014 A 
ATOM     36  C   UNL A   1      35.056  35.712  32.354  1.00  0.00     0.014 A 
ATOM     37  C   UNL A   1      34.781  33.089  33.272  1.00  0.00     0.010 A 
ATOM     38  C   UNL A   1      36.161  35.014  32.842  1.00  0.00     0.010 A 
ATOM     39  C   UNL A   1      36.058  33.673  33.259  1.00  0.00    -0.014 A 
BRANCH  39  40
ATOM     40  C   UNL A   1      37.286  32.882  33.602  1.00  0.00     0.031 A 
ATOM     41  C   UNL A   1      38.045  33.135  34.881  1.00  0.00     0.074 A 
ATOM     42  C   UNL A   1      37.814  32.018  32.705  1.00  0.00     0.049 A 
ATOM     43  N   UNL A   1      39.208  32.663  35.259  1.00  0.00    -0.248 NA
ATOM     44  C   UNL A   1      37.465  34.106  35.819  1.00  0.00     0.031 C 
ATOM     45  C   UNL A   1      37.273  31.733  31.373  1.00  0.00     0.029 A 
ATOM     46  N   UNL A   1      38.942  31.229  32.770  1.00  0.00    -0.354 N 
ATOM     47  C   UNL A   1      39.512  33.302  36.454  1.00  0.00     0.074 A 
ATOM     48  C   UNL A   1      38.447  34.251  36.697  1.00  0.00     0.031 C 
ATOM     49  C   UNL A   1      38.034  30.804  30.773  1.00  0.00     0.029 A 
ATOM     50  C   UNL A   1      39.145  30.453  31.649  1.00  0.00     0.049 A 
ATOM     51  H   UNL A   1      39.547  31.219  33.545  1.00  0.00     0.167 HD
ATOM     52  C   UNL A   1      40.558  33.099  37.295  1.00  0.00     0.037 A 
ATOM     53  C   UNL A   1      40.110  29.558  31.354  1.00  0.00     0.037 A 
ATOM     54  C   UNL A   1      41.575  32.095  37.116  1.00  0.00     0.049 A 
ATOM     55  C   UNL A   1      41.217  29.295  32.340  1.00  0.00     0.074 A 
ATOM     56  C   UNL A   1      42.595  31.741  37.984  1.00  0.00     0.029 A 
ATOM     57  N   UNL A   1      41.698  31.276  36.005  1.00  0.00    -0.354 N 
ATOM     58  N   UNL A   1      41.429  29.837  33.513  1.00  0.00    -0.248 NA
ATOM     59  C   UNL A   1      42.219  28.285  31.960  1.00  0.00     0.031 C 
ATOM     60  C   UNL A   1      43.357  30.732  37.383  1.00  0.00     0.029 A 
ATOM     61  C   UNL A   1      42.784  30.427  36.161  1.00  0.00     0.049 A 
ATOM     62  H   UNL A   1      41.103  31.294  35.220  1.00  0.00     0.167 HD
ATOM     63  C   UNL A   1      42.563  29.215  34.021  1.00  0.00     0.074 A 
ATOM     64  C   UNL A   1      42.987  28.242  33.039  1.00  0.00     0.031 C 
ATOM     65  C   UNL A   1      43.194  29.437  35.199  1.00  0.00     0.037 A 
BRANCH  52  66
ATOM     66  C   UNL A   1      40.644  33.964  38.520  1.00  0.00     0.064 A 
ATOM     67  C   UNL A   1      39.977  33.630  39.707  1.00  0.00     0.173 A 
ATOM     68  C   UNL A   1      41.444  35.117  38.522  1.00  0.00     0.173 A 
ATOM     69  F   UNL A   1      39.196  32.539  39.758  1.00  0.00    -0.203 F 
ATOM     70  C   UNL A   1      40.073  34.437  40.837  1.00  0.00     0.198 A 
ATOM     71  C   UNL A   1      41.568  35.904  39.664  1.00  0.00     0.198 A 
ATOM     72  F   UNL A   1      42.117  35.476  37.417  1.00  0.00    -0.203 F 
ATOM     73  F   UNL A   1      39.378  34.126  41.940  1.00  0.00    -0.200 F 
ATOM     74  C   UNL A   1      40.874  35.568  40.817  1.00  0.00     0.200 A 
ATOM     75  F   UNL A   1      42.357  36.987  39.650  1.00  0.00    -0.200 F 
ATOM     76  F   UNL A   1      40.971  36.341  41.909  1.00  0.00    -0.200 F 
ENDBRANCH  52  66
BRANCH  53  77
ATOM     77  C   UNL A   1      40.055  28.790  30.081  1.00  0.00     0.064 A 
ATOM     78  C   UNL A   1      39.428  27.535  30.035  1.00  0.00     0.173 A 
ATOM     79  C   UNL A   1      40.649  29.266  28.904  1.00  0.00     0.173 A 
ATOM     80  F   UNL A   1      38.868  27.027  31.142  1.00  0.00    -0.203 F 
ATOM     81  C   UNL A   1      39.421  26.774  28.868  1.00  0.00     0.198 A 
ATOM     82  C   UNL A   1      40.617  28.515  27.729  1.00  0.00     0.198 A 
ATOM     83  F   UNL A   1      41.257  30.459  28.893  1.00  0.00    -0.203 F 
ATOM     84  F   UNL A   1      38.862  25.556  28.868  1.00  0.00    -0.200 F 
ATOM     85  C   UNL A   1      40.013  27.266  27.714  1.00  0.00     0.200 A 
ATOM     86  F   UNL A   1      41.179  28.998  26.613  1.00  0.00    -0.200 F 
ATOM     87  F   UNL A   1      40.008  26.533  26.593  1.00  0.00    -0.200 F 
ENDBRANCH  53  77
BRANCH  65  88
ATOM     88  C   UNL A   1      44.381  28.579  35.528  1.00  0.00     0.064 A 
ATOM     89  C   UNL A   1      45.687  28.961  35.189  1.00  0.00     0.173 A 
ATOM     90  C   UNL A   1      44.212  27.378  36.234  1.00  0.00     0.173 A 
ATOM     91  F   UNL A   1      45.902  30.092  34.501  1.00  0.00    -0.203 F 
ATOM     92  C   UNL A   1      46.778  28.161  35.525  1.00  0.00     0.198 A 
ATOM     93  C   UNL A   1      45.306  26.595  36.592  1.00  0.00     0.198 A 
ATOM     94  F   UNL A   1      42.985  26.968  36.587  1.00  0.00    -0.203 F 
ATOM     95  F   UNL A   1      48.013  28.525  35.152  1.00  0.00    -0.200 F 
ATOM     96  C   UNL A   1      46.587  26.983  36.232  1.00  0.00     0.200 A 
ATOM     97  F   UNL A   1      45.121  25.463  37.286  1.00  0.00    -0.200 F 
ATOM     98  F   UNL A   1      47.639  26.221  36.561  1.00  0.00    -0.200 F 
ENDBRANCH  65  88
ENDBRANCH  39  40
ENDBRANCH  31  34
ENDBRANCH  29  30
ENDBRANCH  28  29
ENDBRANCH  27  28
ENDBRANCH   1  27
TORSDOF 17
ENDMDL
MODEL 3
REMARK VINA RESULT:     -12.3      2.845      8.490
REMARK SMILES O=C(CCCN1C(=O)/C(=C\c2ccc(O)c(O)c2)SC1=S)NCCCCNC(=O)c1ccc(-c2c3nc(c(-c4c(F)c(F)c(F)c(F)c4F)c4ccc([nH]4)c(-c4c(F)c(F)c(F)c(F)c4F)c4nc(c(-c5c(F)c(F)c(F)c(F)c5F)c5ccc2[nH]5)C=C4)C=C3)cc1
REMARK SMILES IDX 23 1 22 2 1 3 2 4 3 6 4 7 5 8 6 9 7 10 20 11 8 12 9 13 19 14
REMARK SMILES IDX 21 15 10 16 11 17 12 18 18 19 13 20 16 21 14 22 17 23 15 25
REMARK SMILES IDX 24 27 25 28 26 29 27 30 28 31 29 33 30 34 31 35 92 36 32 37
REMARK SMILES IDX 91 38 33 39 34 40 35 41 85 42 36 43 90 44 84 45 86 46 37 47
REMARK SMILES IDX 89 48 83 49 82 50 38 52 70 53 50 54 69 55 51 56 54 57 68 58
REMARK SMILES IDX 87 59 52 60 53 61 67 63 88 64 55 65 39 66 40 67 48 68 41 69
REMARK SMILES IDX 42 70 46 71 49 72 43 73 44 74 47 75 45 76 71 77 72 78 80 79
REMARK SMILES IDX 73 80 74 81 78 82 81 83 75 84 76 85 79 86 77 87 56 88 57 89
REMARK SMILES IDX 65 90 58 91 59 92 63 93 66 94 60 95 61 96 64 97 62 98
REMARK H PARENT 22 5 17 24 15 26 27 32 86 51 54 62
REMARK Flexibility Score: inf
ROOT
ATOM      1  C   UNL A   1      32.439  29.693  27.192  1.00  0.00     0.116 C 
ENDROOT
BRANCH   1   2
ATOM      2  N   UNL A   1      31.938  28.338  27.087  1.00  0.00    -0.356 N 
ATOM      3  O   UNL A   1      33.868  27.467  26.198  1.00  0.00    -0.275 OA
ATOM      4  C   UNL A   1      32.700  27.330  26.545  1.00  0.00     0.220 C 
ATOM      5  H   UNL A   1      31.031  28.133  27.412  1.00  0.00     0.163 HD
BRANCH   4   6
ATOM      6  C   UNL A   1      31.967  26.018  26.387  1.00  0.00     0.102 C 
BRANCH   6   7
ATOM      7  C   UNL A   1      30.483  26.197  26.088  1.00  0.00     0.032 C 
BRANCH   7   8
ATOM      8  C   UNL A   1      30.067  26.085  24.616  1.00  0.00     0.128 C 
BRANCH   8   9
ATOM      9  N   UNL A   1      31.058  25.637  23.622  1.00  0.00    -0.293 N 
ATOM     10  C   UNL A   1      31.307  24.270  23.547  1.00  0.00     0.266 C 
ATOM     11  C   UNL A   1      31.903  26.429  22.869  1.00  0.00     0.148 C 
ATOM     12  O   UNL A   1      30.606  23.407  24.065  1.00  0.00    -0.268 OA
ATOM     13  C   UNL A   1      32.500  23.993  22.693  1.00  0.00     0.081 C 
ATOM     14  S   UNL A   1      32.859  25.414  21.788  1.00  0.00    -0.054 SA
ATOM     15  S   UNL A   1      32.103  28.081  22.888  1.00  0.00    -0.052 S 
ATOM     16  C   UNL A   1      33.316  22.925  22.676  1.00  0.00     0.029 C 
BRANCH  16  17
ATOM     17  C   UNL A   1      33.286  21.814  23.632  1.00  0.00    -0.020 A 
ATOM     18  C   UNL A   1      32.580  20.638  23.383  1.00  0.00     0.012 A 
ATOM     19  C   UNL A   1      33.960  21.965  24.854  1.00  0.00     0.058 A 
ATOM     20  C   UNL A   1      32.451  19.674  24.382  1.00  0.00     0.051 A 
ATOM     21  C   UNL A   1      33.840  20.987  25.830  1.00  0.00     0.157 A 
ATOM     22  C   UNL A   1      33.065  19.858  25.610  1.00  0.00     0.157 A 
BRANCH  21  23
ATOM     23  O   UNL A   1      34.472  21.146  27.030  1.00  0.00    -0.504 OA
ATOM     24  H   UNL A   1      34.689  22.004  27.336  1.00  0.00     0.293 HD
ENDBRANCH  21  23
BRANCH  22  25
ATOM     25  O   UNL A   1      32.926  18.980  26.645  1.00  0.00    -0.504 OA
ATOM     26  H   UNL A   1      32.072  18.737  26.943  1.00  0.00     0.293 HD
ENDBRANCH  22  25
ENDBRANCH  16  17
ENDBRANCH   8   9
ENDBRANCH   7   8
ENDBRANCH   6   7
ENDBRANCH   4   6
ENDBRANCH   1   2
BRANCH   1  27
ATOM     27  C   UNL A   1      31.816  30.607  26.140  1.00  0.00     0.023 C 
BRANCH  27  28
ATOM     28  C   UNL A   1      31.529  32.038  26.612  1.00  0.00     0.023 C 
BRANCH  28  29
ATOM     29  C   UNL A   1      32.655  32.703  27.404  1.00  0.00     0.116 C 
BRANCH  29  30
ATOM     30  N   UNL A   1      32.395  34.115  27.649  1.00  0.00    -0.352 N 
ATOM     31  C   UNL A   1      32.962  34.972  28.559  1.00  0.00     0.251 C 
ATOM     32  H   UNL A   1      31.705  34.517  27.072  1.00  0.00     0.163 HD
ATOM     33  O   UNL A   1      32.476  36.083  28.747  1.00  0.00    -0.269 OA
BRANCH  31  34
ATOM     34  C   UNL A   1      34.156  34.562  29.328  1.00  0.00     0.039 A 
ATOM     35  C   UNL A   1      34.013  34.183  30.664  1.00  0.00     0.014 A 
ATOM     36  C   UNL A   1      35.420  34.581  28.743  1.00  0.00     0.014 A 
ATOM     37  C   UNL A   1      35.124  33.720  31.384  1.00  0.00     0.010 A 
ATOM     38  C   UNL A   1      36.516  34.089  29.454  1.00  0.00     0.010 A 
ATOM     39  C   UNL A   1      36.379  33.599  30.767  1.00  0.00    -0.014 A 
BRANCH  39  40
ATOM     40  C   UNL A   1      37.523  32.903  31.446  1.00  0.00     0.031 A 
ATOM     41  C   UNL A   1      38.234  31.746  30.789  1.00  0.00     0.074 A 
ATOM     42  C   UNL A   1      37.851  33.215  32.721  1.00  0.00     0.049 A 
ATOM     43  N   UNL A   1      39.127  30.930  31.294  1.00  0.00    -0.248 NA
ATOM     44  C   UNL A   1      37.830  31.409  29.417  1.00  0.00     0.031 C 
ATOM     45  C   UNL A   1      37.195  34.232  33.547  1.00  0.00     0.029 A 
ATOM     46  N   UNL A   1      38.813  32.691  33.558  1.00  0.00    -0.354 N 
ATOM     47  C   UNL A   1      39.364  29.970  30.320  1.00  0.00     0.074 A 
ATOM     48  C   UNL A   1      38.464  30.261  29.225  1.00  0.00     0.031 C 
ATOM     49  C   UNL A   1      37.801  34.292  34.744  1.00  0.00     0.029 A 
ATOM     50  C   UNL A   1      38.861  33.291  34.797  1.00  0.00     0.049 A 
ATOM     51  H   UNL A   1      39.411  31.956  33.295  1.00  0.00     0.167 HD
ATOM     52  C   UNL A   1      40.270  28.959  30.313  1.00  0.00     0.037 A 
ATOM     53  C   UNL A   1      39.663  33.070  35.858  1.00  0.00     0.037 A 
ATOM     54  C   UNL A   1      41.237  28.713  31.352  1.00  0.00     0.049 A 
ATOM     55  C   UNL A   1      40.713  31.993  35.795  1.00  0.00     0.074 A 
ATOM     56  C   UNL A   1      42.270  27.790  31.363  1.00  0.00     0.029 A 
ATOM     57  N   UNL A   1      41.303  29.396  32.555  1.00  0.00    -0.354 N 
ATOM     58  N   UNL A   1      40.989  31.162  34.822  1.00  0.00    -0.248 NA
ATOM     59  C   UNL A   1      41.569  31.829  36.981  1.00  0.00     0.031 C 
ATOM     60  C   UNL A   1      42.938  27.889  32.588  1.00  0.00     0.029 A 
ATOM     61  C   UNL A   1      42.350  28.906  33.321  1.00  0.00     0.049 A 
ATOM     62  H   UNL A   1      40.695  30.122  32.827  1.00  0.00     0.167 HD
ATOM     63  C   UNL A   1      42.065  30.402  35.264  1.00  0.00     0.074 A 
ATOM     64  C   UNL A   1      42.405  30.880  36.586  1.00  0.00     0.031 C 
ATOM     65  C   UNL A   1      42.710  29.396  34.625  1.00  0.00     0.037 A 
BRANCH  52  66
ATOM     66  C   UNL A   1      40.287  28.048  29.118  1.00  0.00     0.064 A 
ATOM     67  C   UNL A   1      39.556  26.851  29.093  1.00  0.00     0.173 A 
ATOM     68  C   UNL A   1      41.005  28.400  27.964  1.00  0.00     0.173 A 
ATOM     69  F   UNL A   1      38.855  26.466  30.172  1.00  0.00    -0.203 F 
ATOM     70  C   UNL A   1      39.575  26.021  27.976  1.00  0.00     0.198 A 
ATOM     71  C   UNL A   1      40.993  27.586  26.835  1.00  0.00     0.198 A 
ATOM     72  F   UNL A   1      41.710  29.541  27.928  1.00  0.00    -0.203 F 
ATOM     73  F   UNL A   1      38.914  24.855  28.000  1.00  0.00    -0.200 F 
ATOM     74  C   UNL A   1      40.286  26.392  26.846  1.00  0.00     0.200 A 
ATOM     75  F   UNL A   1      41.666  27.954  25.737  1.00  0.00    -0.200 F 
ATOM     76  F   UNL A   1      40.297  25.595  25.768  1.00  0.00    -0.200 F 
ENDBRANCH  52  66
BRANCH  53  77
ATOM     77  C   UNL A   1      39.551  33.924  37.073  1.00  0.00     0.064 A 
ATOM     78  C   UNL A   1      38.781  33.503  38.169  1.00  0.00     0.173 A 
ATOM     79  C   UNL A   1      40.171  35.178  37.155  1.00  0.00     0.173 A 
ATOM     80  F   UNL A   1      38.149  32.322  38.126  1.00  0.00    -0.203 F 
ATOM     81  C   UNL A   1      38.615  34.315  39.288  1.00  0.00     0.198 A 
ATOM     82  C   UNL A   1      40.026  35.977  38.288  1.00  0.00     0.198 A 
ATOM     83  F   UNL A   1      40.920  35.625  36.138  1.00  0.00    -0.203 F 
ATOM     84  F   UNL A   1      37.831  33.910  40.296  1.00  0.00    -0.200 F 
ATOM     85  C   UNL A   1      39.241  35.551  39.348  1.00  0.00     0.200 A 
ATOM     86  F   UNL A   1      40.642  37.166  38.349  1.00  0.00    -0.200 F 
ATOM     87  F   UNL A   1      39.079  36.333  40.424  1.00  0.00    -0.200 F 
ENDBRANCH  53  77
BRANCH  65  88
ATOM     88  C   UNL A   1      43.888  28.772  35.317  1.00  0.00     0.064 A 
ATOM     89  C   UNL A   1      45.192  29.256  35.141  1.00  0.00     0.173 A 
ATOM     90  C   UNL A   1      43.701  27.700  36.203  1.00  0.00     0.173 A 
ATOM     91  F   UNL A   1      45.427  30.270  34.293  1.00  0.00    -0.203 F 
ATOM     92  C   UNL A   1      46.268  28.677  35.810  1.00  0.00     0.198 A 
ATOM     93  C   UNL A   1      44.775  27.141  36.892  1.00  0.00     0.198 A 
ATOM     94  F   UNL A   1      42.474  27.200  36.411  1.00  0.00    -0.203 F 
ATOM     95  F   UNL A   1      47.511  29.129  35.593  1.00  0.00    -0.200 F 
ATOM     96  C   UNL A   1      46.058  27.626  36.690  1.00  0.00     0.200 A 
ATOM     97  F   UNL A   1      44.569  26.133  37.750  1.00  0.00    -0.200 F 
ATOM     98  F   UNL A   1      47.094  27.077  37.339  1.00  0.00    -0.200 F 
ENDBRANCH  65  88
ENDBRANCH  39  40
ENDBRANCH  31  34
ENDBRANCH  29  30
ENDBRANCH  28  29
ENDBRANCH  27  28
ENDBRANCH   1  27
TORSDOF 17
ENDMDL
