MODEL 1
REMARK VINA RESULT:     -12.3      0.000      0.000
REMARK SMILES Cc1cnn([C@H]2CC[C@@]([NH3+])(C(=O)NCCCCNC(=O)c3ccc(-c4c5nc(c(-c6c(F)c(F)c(F)c(F)c6F)c6ccc([nH]6)c(-c6c(F)c(F)c(F)c(F)c6F)c6nc(c(-c7c(F)c(F)c(F)c(F)c7F)c7ccc4[nH]7)C=C6)C=C5)cc3)C2)c1
REMARK SMILES IDX 16 1 15 2 14 3 13 4 11 5 12 6 9 8 6 9 7 10 84 11 8 12 5 13
REMARK SMILES IDX 1 14 2 15 3 16 85 17 4 18 10 19 17 23 18 24 19 25 20 27
REMARK SMILES IDX 21 28 22 29 83 30 23 31 82 32 24 33 25 34 26 35 76 36 27 37
REMARK SMILES IDX 81 38 75 39 77 40 28 41 80 42 74 43 73 44 29 46 61 47 41 48
REMARK SMILES IDX 60 49 42 50 45 51 59 52 78 53 43 54 44 55 58 57 79 58 46 59
REMARK SMILES IDX 30 60 31 61 39 62 32 63 33 64 37 65 40 66 34 67 35 68 38 69
REMARK SMILES IDX 36 70 62 71 63 72 71 73 64 74 65 75 69 76 72 77 66 78 67 79
REMARK SMILES IDX 70 80 68 81 47 82 48 83 56 84 49 85 50 86 54 87 57 88 51 89
REMARK SMILES IDX 52 90 55 91 53 92
REMARK H PARENT 13 7 10 20 10 21 10 22 18 26 77 45 45 56
REMARK Flexibility Score: inf
ROOT
ATOM      1  C   UNL A   1      34.205  29.878  27.530  1.00  0.00     0.023 C 
ENDROOT
BRANCH   1   2
ATOM      2  C   UNL A   1      32.724  29.946  27.131  1.00  0.00     0.023 C 
BRANCH   2   3
ATOM      3  C   UNL A   1      32.405  30.113  25.640  1.00  0.00     0.116 C 
BRANCH   3   4
ATOM      4  N   UNL A   1      33.363  29.468  24.760  1.00  0.00    -0.351 N 
ATOM      5  C   UNL A   1      33.176  28.920  23.520  1.00  0.00     0.281 C 
ATOM      6  O   UNL A   1      34.186  28.799  22.820  1.00  0.00    -0.268 OA
ATOM      7  H   UNL A   1      34.282  29.416  25.107  1.00  0.00     0.163 HD
BRANCH   5   8
ATOM      8  C   UNL A   1      31.745  28.604  22.957  1.00  0.00     0.176 C 
ATOM      9  C   UNL A   1      31.267  26.250  23.481  1.00  0.00     0.114 C 
ATOM     10  C   UNL A   1      30.305  27.114  24.313  1.00  0.00     0.034 C 
ATOM     11  C   UNL A   1      31.643  27.196  22.328  1.00  0.00     0.106 C 
ATOM     12  C   UNL A   1      30.650  28.579  24.030  1.00  0.00     0.081 C 
BRANCH   9  13
ATOM     13  N   UNL A   1      32.369  25.696  24.253  1.00  0.00    -0.269 N 
ATOM     14  C   UNL A   1      35.567  24.071  24.817  1.00  0.00     0.048 C 
ATOM     15  C   UNL A   1      34.246  24.730  24.861  1.00  0.00    -0.013 A 
ATOM     16  C   UNL A   1      33.657  25.459  25.912  1.00  0.00     0.138 A 
ATOM     17  C   UNL A   1      33.311  24.794  23.852  1.00  0.00     0.112 A 
ATOM     18  N   UNL A   1      32.494  26.011  25.560  1.00  0.00    -0.181 NA
ENDBRANCH   9  13
BRANCH   8  19
ATOM     19  N   UNL A   1      31.480  29.618  21.911  1.00  0.00    -0.345 N 
ATOM     20  H   UNL A   1      31.208  30.498  22.352  1.00  0.00     0.345 HD
ATOM     21  H   UNL A   1      30.725  29.295  21.307  1.00  0.00     0.345 HD
ATOM     22  H   UNL A   1      32.323  29.763  21.355  1.00  0.00     0.345 HD
ENDBRANCH   8  19
ENDBRANCH   5   8
ENDBRANCH   3   4
ENDBRANCH   2   3
ENDBRANCH   1   2
BRANCH   1  23
ATOM     23  C   UNL A   1      34.928  31.214  27.531  1.00  0.00     0.116 C 
BRANCH  23  24
ATOM     24  N   UNL A   1      34.648  32.034  28.716  1.00  0.00    -0.352 N 
ATOM     25  C   UNL A   1      35.152  31.891  30.004  1.00  0.00     0.251 C 
ATOM     26  H   UNL A   1      34.022  32.782  28.582  1.00  0.00     0.163 HD
ATOM     27  O   UNL A   1      34.599  32.387  30.967  1.00  0.00    -0.269 OA
BRANCH  25  28
ATOM     28  C   UNL A   1      36.404  31.133  30.172  1.00  0.00     0.039 A 
ATOM     29  C   UNL A   1      36.444  29.764  30.459  1.00  0.00     0.014 A 
ATOM     30  C   UNL A   1      37.576  31.850  29.987  1.00  0.00     0.014 A 
ATOM     31  C   UNL A   1      37.684  29.125  30.492  1.00  0.00     0.010 A 
ATOM     32  C   UNL A   1      38.735  31.185  29.746  1.00  0.00     0.010 A 
ATOM     33  C   UNL A   1      38.822  29.855  30.131  1.00  0.00    -0.014 A 
BRANCH  33  34
ATOM     34  C   UNL A   1      40.164  29.298  30.107  1.00  0.00     0.031 A 
ATOM     35  C   UNL A   1      40.793  29.124  31.441  1.00  0.00     0.074 A 
ATOM     36  C   UNL A   1      40.612  28.671  28.993  1.00  0.00     0.049 A 
ATOM     37  N   UNL A   1      41.865  29.681  31.896  1.00  0.00    -0.248 NA
ATOM     38  C   UNL A   1      40.063  28.332  32.447  1.00  0.00     0.031 C 
ATOM     39  C   UNL A   1      39.896  28.435  27.728  1.00  0.00     0.029 A 
ATOM     40  N   UNL A   1      41.761  27.972  28.808  1.00  0.00    -0.354 N 
ATOM     41  C   UNL A   1      42.056  29.156  33.174  1.00  0.00     0.074 A 
ATOM     42  C   UNL A   1      40.816  28.522  33.531  1.00  0.00     0.031 C 
ATOM     43  C   UNL A   1      40.516  27.460  27.027  1.00  0.00     0.029 A 
ATOM     44  C   UNL A   1      41.755  27.131  27.700  1.00  0.00     0.049 A 
ATOM     45  H   UNL A   1      42.535  28.054  29.410  1.00  0.00     0.167 HD
ATOM     46  C   UNL A   1      43.306  29.056  33.712  1.00  0.00     0.037 A 
ATOM     47  C   UNL A   1      42.692  26.194  27.409  1.00  0.00     0.037 A 
ATOM     48  C   UNL A   1      44.240  29.872  32.970  1.00  0.00     0.049 A 
ATOM     49  C   UNL A   1      43.895  26.522  28.220  1.00  0.00     0.074 A 
ATOM     50  C   UNL A   1      44.327  31.218  32.671  1.00  0.00     0.029 A 
ATOM     51  N   UNL A   1      45.069  29.241  32.073  1.00  0.00    -0.354 N 
ATOM     52  N   UNL A   1      44.614  27.598  28.048  1.00  0.00    -0.248 NA
ATOM     53  C   UNL A   1      43.994  25.907  29.537  1.00  0.00     0.031 C 
ATOM     54  C   UNL A   1      44.784  31.264  31.320  1.00  0.00     0.029 A 
ATOM     55  C   UNL A   1      45.025  29.953  30.904  1.00  0.00     0.049 A 
ATOM     56  H   UNL A   1      45.599  28.428  32.241  1.00  0.00     0.167 HD
ATOM     57  C   UNL A   1      44.923  28.029  29.331  1.00  0.00     0.074 A 
ATOM     58  C   UNL A   1      44.568  26.912  30.205  1.00  0.00     0.031 C 
ATOM     59  C   UNL A   1      45.147  29.349  29.598  1.00  0.00     0.037 A 
BRANCH  46  60
ATOM     60  C   UNL A   1      43.781  27.940  34.625  1.00  0.00     0.064 A 
ATOM     61  C   UNL A   1      43.631  26.606  34.183  1.00  0.00     0.173 A 
ATOM     62  C   UNL A   1      44.073  28.082  35.999  1.00  0.00     0.173 A 
ATOM     63  F   UNL A   1      43.380  26.336  32.893  1.00  0.00    -0.203 F 
ATOM     64  C   UNL A   1      43.629  25.525  35.067  1.00  0.00     0.198 A 
ATOM     65  C   UNL A   1      44.121  26.993  36.870  1.00  0.00     0.198 A 
ATOM     66  F   UNL A   1      44.225  29.269  36.590  1.00  0.00    -0.203 F 
ATOM     67  F   UNL A   1      43.328  24.300  34.616  1.00  0.00    -0.200 F 
ATOM     68  C   UNL A   1      43.855  25.722  36.414  1.00  0.00     0.200 A 
ATOM     69  F   UNL A   1      44.343  27.207  38.175  1.00  0.00    -0.200 F 
ATOM     70  F   UNL A   1      43.776  24.700  37.276  1.00  0.00    -0.200 F 
ENDBRANCH  46  60
BRANCH  47  71
ATOM     71  C   UNL A   1      42.497  24.875  26.759  1.00  0.00     0.064 A 
ATOM     72  C   UNL A   1      43.120  24.568  25.539  1.00  0.00     0.173 A 
ATOM     73  C   UNL A   1      41.913  23.795  27.451  1.00  0.00     0.173 A 
ATOM     74  F   UNL A   1      43.739  25.529  24.839  1.00  0.00    -0.203 F 
ATOM     75  C   UNL A   1      43.174  23.255  25.052  1.00  0.00     0.198 A 
ATOM     76  C   UNL A   1      41.962  22.488  26.962  1.00  0.00     0.198 A 
ATOM     77  F   UNL A   1      41.364  23.972  28.662  1.00  0.00    -0.203 F 
ATOM     78  F   UNL A   1      43.827  22.992  23.912  1.00  0.00    -0.200 F 
ATOM     79  C   UNL A   1      42.604  22.216  25.768  1.00  0.00     0.200 A 
ATOM     80  F   UNL A   1      41.437  21.487  27.683  1.00  0.00    -0.200 F 
ATOM     81  F   UNL A   1      42.707  20.953  25.332  1.00  0.00    -0.200 F 
ENDBRANCH  47  71
BRANCH  59  82
ATOM     82  C   UNL A   1      45.293  30.299  28.443  1.00  0.00     0.064 A 
ATOM     83  C   UNL A   1      44.238  31.065  27.916  1.00  0.00     0.173 A 
ATOM     84  C   UNL A   1      46.586  30.588  27.990  1.00  0.00     0.173 A 
ATOM     85  F   UNL A   1      42.987  30.915  28.363  1.00  0.00    -0.203 F 
ATOM     86  C   UNL A   1      44.469  32.058  26.965  1.00  0.00     0.198 A 
ATOM     87  C   UNL A   1      46.819  31.603  27.067  1.00  0.00     0.198 A 
ATOM     88  F   UNL A   1      47.638  29.926  28.498  1.00  0.00    -0.203 F 
ATOM     89  F   UNL A   1      43.445  32.779  26.484  1.00  0.00    -0.200 F 
ATOM     90  C   UNL A   1      45.761  32.334  26.550  1.00  0.00     0.200 A 
ATOM     91  F   UNL A   1      48.075  31.900  26.707  1.00  0.00    -0.200 F 
ATOM     92  F   UNL A   1      45.991  33.325  25.678  1.00  0.00    -0.200 F 
ENDBRANCH  59  82
ENDBRANCH  33  34
ENDBRANCH  25  28
ENDBRANCH  23  24
ENDBRANCH   1  23
TORSDOF 13
ENDMDL
MODEL 2
REMARK VINA RESULT:     -12.2      4.831     10.770
REMARK SMILES Cc1cnn([C@H]2CC[C@@]([NH3+])(C(=O)NCCCCNC(=O)c3ccc(-c4c5nc(c(-c6c(F)c(F)c(F)c(F)c6F)c6ccc([nH]6)c(-c6c(F)c(F)c(F)c(F)c6F)c6nc(c(-c7c(F)c(F)c(F)c(F)c7F)c7ccc4[nH]7)C=C6)C=C5)cc3)C2)c1
REMARK SMILES IDX 16 1 15 2 14 3 13 4 11 5 12 6 9 8 6 9 7 10 84 11 8 12 5 13
REMARK SMILES IDX 1 14 2 15 3 16 85 17 4 18 10 19 17 23 18 24 19 25 20 27
REMARK SMILES IDX 21 28 22 29 83 30 23 31 82 32 24 33 25 34 26 35 76 36 27 37
REMARK SMILES IDX 81 38 75 39 77 40 28 41 80 42 74 43 73 44 29 46 61 47 41 48
REMARK SMILES IDX 60 49 42 50 45 51 59 52 78 53 43 54 44 55 58 57 79 58 46 59
REMARK SMILES IDX 30 60 31 61 39 62 32 63 33 64 37 65 40 66 34 67 35 68 38 69
REMARK SMILES IDX 36 70 62 71 63 72 71 73 64 74 65 75 69 76 72 77 66 78 67 79
REMARK SMILES IDX 70 80 68 81 47 82 48 83 56 84 49 85 50 86 54 87 57 88 51 89
REMARK SMILES IDX 52 90 55 91 53 92
REMARK H PARENT 13 7 10 20 10 21 10 22 18 26 77 45 45 56
REMARK Flexibility Score: inf
ROOT
ATOM      1  C   UNL A   1      44.144  22.002  25.267  1.00  0.00     0.023 C 
ENDROOT
BRANCH   1   2
ATOM      2  C   UNL A   1      45.410  22.600  25.897  1.00  0.00     0.023 C 
BRANCH   2   3
ATOM      3  C   UNL A   1      45.241  23.385  27.204  1.00  0.00     0.116 C 
BRANCH   3   4
ATOM      4  N   UNL A   1      46.425  24.123  27.602  1.00  0.00    -0.351 N 
ATOM      5  C   UNL A   1      46.548  25.427  27.997  1.00  0.00     0.281 C 
ATOM      6  O   UNL A   1      47.555  25.706  28.654  1.00  0.00    -0.268 OA
ATOM      7  H   UNL A   1      47.265  23.610  27.586  1.00  0.00     0.163 HD
BRANCH   5   8
ATOM      8  C   UNL A   1      45.406  26.478  27.762  1.00  0.00     0.176 C 
ATOM      9  C   UNL A   1      45.917  27.644  25.659  1.00  0.00     0.114 C 
ATOM     10  C   UNL A   1      44.644  26.813  25.430  1.00  0.00     0.034 C 
ATOM     11  C   UNL A   1      45.925  27.815  27.188  1.00  0.00     0.106 C 
ATOM     12  C   UNL A   1      44.366  26.041  26.723  1.00  0.00     0.081 C 
BRANCH   9  13
ATOM     13  N   UNL A   1      47.110  27.061  25.064  1.00  0.00    -0.269 N 
ATOM     14  C   UNL A   1      50.650  26.706  24.340  1.00  0.00     0.048 C 
ATOM     15  C   UNL A   1      49.180  26.639  24.462  1.00  0.00    -0.013 A 
ATOM     16  C   UNL A   1      48.321  25.551  24.217  1.00  0.00     0.138 A 
ATOM     17  C   UNL A   1      48.330  27.640  24.877  1.00  0.00     0.112 A 
ATOM     18  N   UNL A   1      47.054  25.817  24.539  1.00  0.00    -0.181 NA
ENDBRANCH   9  13
BRANCH   8  19
ATOM     19  N   UNL A   1      44.798  26.729  29.089  1.00  0.00    -0.345 N 
ATOM     20  H   UNL A   1      45.356  26.272  29.811  1.00  0.00     0.345 HD
ATOM     21  H   UNL A   1      43.850  26.354  29.106  1.00  0.00     0.345 HD
ATOM     22  H   UNL A   1      44.770  27.734  29.267  1.00  0.00     0.345 HD
ENDBRANCH   8  19
ENDBRANCH   5   8
ENDBRANCH   3   4
ENDBRANCH   2   3
ENDBRANCH   1   2
BRANCH   1  23
ATOM     23  C   UNL A   1      42.987  22.973  25.113  1.00  0.00     0.116 C 
BRANCH  23  24
ATOM     24  N   UNL A   1      41.692  22.416  25.521  1.00  0.00    -0.352 N 
ATOM     25  C   UNL A   1      40.815  22.888  26.492  1.00  0.00     0.251 C 
ATOM     26  H   UNL A   1      41.407  21.602  25.046  1.00  0.00     0.163 HD
ATOM     27  O   UNL A   1      39.964  22.175  26.987  1.00  0.00    -0.269 OA
BRANCH  25  28
ATOM     28  C   UNL A   1      40.930  24.301  26.892  1.00  0.00     0.039 A 
ATOM     29  C   UNL A   1      40.433  25.362  26.127  1.00  0.00     0.014 A 
ATOM     30  C   UNL A   1      41.533  24.536  28.118  1.00  0.00     0.014 A 
ATOM     31  C   UNL A   1      40.502  26.653  26.652  1.00  0.00     0.010 A 
ATOM     32  C   UNL A   1      41.347  25.732  28.736  1.00  0.00     0.010 A 
ATOM     33  C   UNL A   1      40.963  26.818  27.963  1.00  0.00    -0.014 A 
BRANCH  33  34
ATOM     34  C   UNL A   1      41.062  28.107  28.627  1.00  0.00     0.031 A 
ATOM     35  C   UNL A   1      42.097  29.018  28.075  1.00  0.00     0.074 A 
ATOM     36  C   UNL A   1      40.050  28.535  29.419  1.00  0.00     0.049 A 
ATOM     37  N   UNL A   1      43.137  29.498  28.670  1.00  0.00    -0.248 NA
ATOM     38  C   UNL A   1      42.042  29.327  26.635  1.00  0.00     0.031 C 
ATOM     39  C   UNL A   1      38.774  27.862  29.713  1.00  0.00     0.029 A 
ATOM     40  N   UNL A   1      39.881  29.744  30.012  1.00  0.00    -0.354 N 
ATOM     41  C   UNL A   1      43.759  30.331  27.741  1.00  0.00     0.074 A 
ATOM     42  C   UNL A   1      43.176  30.008  26.467  1.00  0.00     0.031 C 
ATOM     43  C   UNL A   1      37.889  28.756  30.207  1.00  0.00     0.029 A 
ATOM     44  C   UNL A   1      38.580  30.009  30.427  1.00  0.00     0.049 A 
ATOM     45  H   UNL A   1      40.620  30.382  30.138  1.00  0.00     0.167 HD
ATOM     46  C   UNL A   1      44.505  31.400  28.145  1.00  0.00     0.037 A 
ATOM     47  C   UNL A   1      38.113  31.204  30.866  1.00  0.00     0.037 A 
ATOM     48  C   UNL A   1      44.829  31.285  29.548  1.00  0.00     0.049 A 
ATOM     49  C   UNL A   1      39.301  32.026  31.220  1.00  0.00     0.074 A 
ATOM     50  C   UNL A   1      45.501  30.353  30.315  1.00  0.00     0.029 A 
ATOM     51  N   UNL A   1      44.097  32.036  30.438  1.00  0.00    -0.354 N 
ATOM     52  N   UNL A   1      40.110  31.743  32.205  1.00  0.00    -0.248 NA
ATOM     53  C   UNL A   1      39.862  32.867  30.172  1.00  0.00     0.031 C 
ATOM     54  C   UNL A   1      44.750  30.267  31.527  1.00  0.00     0.029 A 
ATOM     55  C   UNL A   1      43.720  31.207  31.460  1.00  0.00     0.049 A 
ATOM     56  H   UNL A   1      43.885  32.995  30.356  1.00  0.00     0.167 HD
ATOM     57  C   UNL A   1      41.379  32.012  31.711  1.00  0.00     0.074 A 
ATOM     58  C   UNL A   1      41.158  32.762  30.476  1.00  0.00     0.031 C 
ATOM     59  C   UNL A   1      42.475  31.344  32.179  1.00  0.00     0.037 A 
BRANCH  46  60
ATOM     60  C   UNL A   1      44.599  32.729  27.416  1.00  0.00     0.064 A 
ATOM     61  C   UNL A   1      45.728  32.963  26.600  1.00  0.00     0.173 A 
ATOM     62  C   UNL A   1      43.831  33.875  27.714  1.00  0.00     0.173 A 
ATOM     63  F   UNL A   1      46.524  31.951  26.222  1.00  0.00    -0.203 F 
ATOM     64  C   UNL A   1      46.130  34.251  26.237  1.00  0.00     0.198 A 
ATOM     65  C   UNL A   1      44.208  35.155  27.305  1.00  0.00     0.198 A 
ATOM     66  F   UNL A   1      42.745  33.841  28.489  1.00  0.00    -0.203 F 
ATOM     67  F   UNL A   1      47.291  34.427  25.594  1.00  0.00    -0.200 F 
ATOM     68  C   UNL A   1      45.379  35.349  26.607  1.00  0.00     0.200 A 
ATOM     69  F   UNL A   1      43.464  36.207  27.675  1.00  0.00    -0.200 F 
ATOM     70  F   UNL A   1      45.801  36.589  26.331  1.00  0.00    -0.200 F 
ENDBRANCH  46  60
BRANCH  47  71
ATOM     71  C   UNL A   1      36.762  31.787  30.673  1.00  0.00     0.064 A 
ATOM     72  C   UNL A   1      35.922  32.051  31.766  1.00  0.00     0.173 A 
ATOM     73  C   UNL A   1      36.374  32.344  29.438  1.00  0.00     0.173 A 
ATOM     74  F   UNL A   1      36.243  31.596  32.985  1.00  0.00    -0.203 F 
ATOM     75  C   UNL A   1      34.774  32.843  31.636  1.00  0.00     0.198 A 
ATOM     76  C   UNL A   1      35.225  33.128  29.308  1.00  0.00     0.198 A 
ATOM     77  F   UNL A   1      37.150  32.217  28.352  1.00  0.00    -0.203 F 
ATOM     78  F   UNL A   1      34.028  33.120  32.714  1.00  0.00    -0.200 F 
ATOM     79  C   UNL A   1      34.432  33.389  30.409  1.00  0.00     0.200 A 
ATOM     80  F   UNL A   1      34.927  33.679  28.123  1.00  0.00    -0.200 F 
ATOM     81  F   UNL A   1      33.367  34.194  30.297  1.00  0.00    -0.200 F 
ENDBRANCH  47  71
BRANCH  59  82
ATOM     82  C   UNL A   1      42.323  30.487  33.405  1.00  0.00     0.064 A 
ATOM     83  C   UNL A   1      42.309  30.989  34.718  1.00  0.00     0.173 A 
ATOM     84  C   UNL A   1      41.979  29.141  33.226  1.00  0.00     0.173 A 
ATOM     85  F   UNL A   1      42.535  32.284  34.963  1.00  0.00    -0.203 F 
ATOM     86  C   UNL A   1      41.986  30.174  35.801  1.00  0.00     0.198 A 
ATOM     87  C   UNL A   1      41.623  28.338  34.305  1.00  0.00     0.198 A 
ATOM     88  F   UNL A   1      41.923  28.622  31.990  1.00  0.00    -0.203 F 
ATOM     89  F   UNL A   1      41.973  30.680  37.043  1.00  0.00    -0.200 F 
ATOM     90  C   UNL A   1      41.632  28.852  35.592  1.00  0.00     0.200 A 
ATOM     91  F   UNL A   1      41.232  27.074  34.092  1.00  0.00    -0.200 F 
ATOM     92  F   UNL A   1      41.267  28.080  36.627  1.00  0.00    -0.200 F 
ENDBRANCH  59  82
ENDBRANCH  33  34
ENDBRANCH  25  28
ENDBRANCH  23  24
ENDBRANCH   1  23
TORSDOF 13
ENDMDL
MODEL 3
REMARK VINA RESULT:     -12.2      0.531      1.264
REMARK SMILES Cc1cnn([C@H]2CC[C@@]([NH3+])(C(=O)NCCCCNC(=O)c3ccc(-c4c5nc(c(-c6c(F)c(F)c(F)c(F)c6F)c6ccc([nH]6)c(-c6c(F)c(F)c(F)c(F)c6F)c6nc(c(-c7c(F)c(F)c(F)c(F)c7F)c7ccc4[nH]7)C=C6)C=C5)cc3)C2)c1
REMARK SMILES IDX 16 1 15 2 14 3 13 4 11 5 12 6 9 8 6 9 7 10 84 11 8 12 5 13
REMARK SMILES IDX 1 14 2 15 3 16 85 17 4 18 10 19 17 23 18 24 19 25 20 27
REMARK SMILES IDX 21 28 22 29 83 30 23 31 82 32 24 33 25 34 26 35 76 36 27 37
REMARK SMILES IDX 81 38 75 39 77 40 28 41 80 42 74 43 73 44 29 46 61 47 41 48
REMARK SMILES IDX 60 49 42 50 45 51 59 52 78 53 43 54 44 55 58 57 79 58 46 59
REMARK SMILES IDX 30 60 31 61 39 62 32 63 33 64 37 65 40 66 34 67 35 68 38 69
REMARK SMILES IDX 36 70 62 71 63 72 71 73 64 74 65 75 69 76 72 77 66 78 67 79
REMARK SMILES IDX 70 80 68 81 47 82 48 83 56 84 49 85 50 86 54 87 57 88 51 89
REMARK SMILES IDX 52 90 55 91 53 92
REMARK H PARENT 13 7 10 20 10 21 10 22 18 26 77 45 45 56
REMARK Flexibility Score: inf
ROOT
ATOM      1  C   UNL A   1      34.120  30.421  27.399  1.00  0.00     0.023 C 
ENDROOT
BRANCH   1   2
ATOM      2  C   UNL A   1      32.664  30.723  27.015  1.00  0.00     0.023 C 
BRANCH   2   3
ATOM      3  C   UNL A   1      32.172  30.198  25.660  1.00  0.00     0.116 C 
BRANCH   3   4
ATOM      4  N   UNL A   1      33.193  29.510  24.892  1.00  0.00    -0.351 N 
ATOM      5  C   UNL A   1      33.113  28.936  23.652  1.00  0.00     0.281 C 
ATOM      6  O   UNL A   1      34.182  28.775  23.055  1.00  0.00    -0.268 OA
ATOM      7  H   UNL A   1      34.074  29.446  25.327  1.00  0.00     0.163 HD
BRANCH   5   8
ATOM      8  C   UNL A   1      31.736  28.637  22.962  1.00  0.00     0.176 C 
ATOM      9  C   UNL A   1      31.205  26.277  23.399  1.00  0.00     0.114 C 
ATOM     10  C   UNL A   1      30.178  27.130  24.160  1.00  0.00     0.034 C 
ATOM     11  C   UNL A   1      31.683  27.241  22.300  1.00  0.00     0.106 C 
ATOM     12  C   UNL A   1      30.551  28.599  23.935  1.00  0.00     0.081 C 
BRANCH   9  13
ATOM     13  N   UNL A   1      32.234  25.703  24.253  1.00  0.00    -0.269 N 
ATOM     14  C   UNL A   1      35.492  24.348  25.108  1.00  0.00     0.048 C 
ATOM     15  C   UNL A   1      34.103  24.842  25.021  1.00  0.00    -0.013 A 
ATOM     16  C   UNL A   1      33.256  25.285  26.054  1.00  0.00     0.138 A 
ATOM     17  C   UNL A   1      33.344  25.002  23.883  1.00  0.00     0.112 A 
ATOM     18  N   UNL A   1      32.100  25.768  25.595  1.00  0.00    -0.181 NA
ENDBRANCH   9  13
BRANCH   8  19
ATOM     19  N   UNL A   1      31.566  29.671  21.915  1.00  0.00    -0.345 N 
ATOM     20  H   UNL A   1      30.721  30.212  22.105  1.00  0.00     0.345 HD
ATOM     21  H   UNL A   1      31.483  29.223  21.003  1.00  0.00     0.345 HD
ATOM     22  H   UNL A   1      32.375  30.293  21.917  1.00  0.00     0.345 HD
ENDBRANCH   8  19
ENDBRANCH   5   8
ENDBRANCH   3   4
ENDBRANCH   2   3
ENDBRANCH   1   2
BRANCH   1  23
ATOM     23  C   UNL A   1      34.980  31.646  27.657  1.00  0.00     0.116 C 
BRANCH  23  24
ATOM     24  N   UNL A   1      34.678  32.321  28.925  1.00  0.00    -0.352 N 
ATOM     25  C   UNL A   1      35.147  32.018  30.198  1.00  0.00     0.251 C 
ATOM     26  H   UNL A   1      34.062  33.087  28.867  1.00  0.00     0.163 HD
ATOM     27  O   UNL A   1      34.575  32.401  31.200  1.00  0.00    -0.269 OA
BRANCH  25  28
ATOM     28  C   UNL A   1      36.388  31.231  30.304  1.00  0.00     0.039 A 
ATOM     29  C   UNL A   1      36.412  29.833  30.363  1.00  0.00     0.014 A 
ATOM     30  C   UNL A   1      37.569  31.958  30.300  1.00  0.00     0.014 A 
ATOM     31  C   UNL A   1      37.648  29.186  30.354  1.00  0.00     0.010 A 
ATOM     32  C   UNL A   1      38.739  31.330  30.012  1.00  0.00     0.010 A 
ATOM     33  C   UNL A   1      38.804  29.955  30.177  1.00  0.00    -0.014 A 
BRANCH  33  34
ATOM     34  C   UNL A   1      40.145  29.396  30.131  1.00  0.00     0.031 A 
ATOM     35  C   UNL A   1      40.791  29.210  31.455  1.00  0.00     0.074 A 
ATOM     36  C   UNL A   1      40.578  28.778  29.006  1.00  0.00     0.049 A 
ATOM     37  N   UNL A   1      41.870  29.763  31.901  1.00  0.00    -0.248 NA
ATOM     38  C   UNL A   1      40.074  28.411  32.464  1.00  0.00     0.031 C 
ATOM     39  C   UNL A   1      39.846  28.553  27.749  1.00  0.00     0.029 A 
ATOM     40  N   UNL A   1      41.723  28.080  28.801  1.00  0.00    -0.354 N 
ATOM     41  C   UNL A   1      42.077  29.227  33.172  1.00  0.00     0.074 A 
ATOM     42  C   UNL A   1      40.841  28.591  33.540  1.00  0.00     0.031 C 
ATOM     43  C   UNL A   1      40.455  27.584  27.032  1.00  0.00     0.029 A 
ATOM     44  C   UNL A   1      41.703  27.248  27.686  1.00  0.00     0.049 A 
ATOM     45  H   UNL A   1      42.506  28.156  29.393  1.00  0.00     0.167 HD
ATOM     46  C   UNL A   1      43.333  29.121  33.693  1.00  0.00     0.037 A 
ATOM     47  C   UNL A   1      42.634  26.313  27.374  1.00  0.00     0.037 A 
ATOM     48  C   UNL A   1      44.258  29.942  32.946  1.00  0.00     0.049 A 
ATOM     49  C   UNL A   1      43.848  26.632  28.173  1.00  0.00     0.074 A 
ATOM     50  C   UNL A   1      44.344  31.291  32.657  1.00  0.00     0.029 A 
ATOM     51  N   UNL A   1      45.075  29.318  32.033  1.00  0.00    -0.354 N 
ATOM     52  N   UNL A   1      44.566  27.709  28.000  1.00  0.00    -0.248 NA
ATOM     53  C   UNL A   1      43.964  26.007  29.483  1.00  0.00     0.031 C 
ATOM     54  C   UNL A   1      44.782  31.347  31.300  1.00  0.00     0.029 A 
ATOM     55  C   UNL A   1      45.017  30.040  30.871  1.00  0.00     0.049 A 
ATOM     56  H   UNL A   1      45.606  28.503  32.187  1.00  0.00     0.167 HD
ATOM     57  C   UNL A   1      44.892  28.129  29.283  1.00  0.00     0.074 A 
ATOM     58  C   UNL A   1      44.547  27.005  30.152  1.00  0.00     0.031 C 
ATOM     59  C   UNL A   1      45.121  29.447  29.558  1.00  0.00     0.037 A 
BRANCH  46  60
ATOM     60  C   UNL A   1      43.819  27.996  34.590  1.00  0.00     0.064 A 
ATOM     61  C   UNL A   1      44.466  28.338  35.798  1.00  0.00     0.173 A 
ATOM     62  C   UNL A   1      43.969  26.649  34.195  1.00  0.00     0.173 A 
ATOM     63  F   UNL A   1      44.376  29.580  36.296  1.00  0.00    -0.203 F 
ATOM     64  C   UNL A   1      45.305  27.447  36.472  1.00  0.00     0.198 A 
ATOM     65  C   UNL A   1      44.767  25.747  34.899  1.00  0.00     0.198 A 
ATOM     66  F   UNL A   1      43.444  26.159  33.069  1.00  0.00    -0.203 F 
ATOM     67  F   UNL A   1      46.014  27.871  37.525  1.00  0.00    -0.200 F 
ATOM     68  C   UNL A   1      45.470  26.157  36.010  1.00  0.00     0.200 A 
ATOM     69  F   UNL A   1      44.914  24.498  34.434  1.00  0.00    -0.200 F 
ATOM     70  F   UNL A   1      46.334  25.324  36.605  1.00  0.00    -0.200 F 
ENDBRANCH  46  60
BRANCH  47  71
ATOM     71  C   UNL A   1      42.430  25.000  26.715  1.00  0.00     0.064 A 
ATOM     72  C   UNL A   1      43.119  24.662  25.540  1.00  0.00     0.173 A 
ATOM     73  C   UNL A   1      41.759  23.947  27.371  1.00  0.00     0.173 A 
ATOM     74  F   UNL A   1      43.820  25.594  24.880  1.00  0.00    -0.203 F 
ATOM     75  C   UNL A   1      43.152  23.346  25.060  1.00  0.00     0.198 A 
ATOM     76  C   UNL A   1      41.787  22.637  26.888  1.00  0.00     0.198 A 
ATOM     77  F   UNL A   1      41.139  24.152  28.543  1.00  0.00    -0.203 F 
ATOM     78  F   UNL A   1      43.867  23.051  23.966  1.00  0.00    -0.200 F 
ATOM     79  C   UNL A   1      42.494  22.334  25.740  1.00  0.00     0.200 A 
ATOM     80  F   UNL A   1      41.176  21.662  27.576  1.00  0.00    -0.200 F 
ATOM     81  F   UNL A   1      42.575  21.066  25.314  1.00  0.00    -0.200 F 
ENDBRANCH  47  71
BRANCH  59  82
ATOM     82  C   UNL A   1      45.253  30.407  28.409  1.00  0.00     0.064 A 
ATOM     83  C   UNL A   1      44.192  31.178  27.903  1.00  0.00     0.173 A 
ATOM     84  C   UNL A   1      46.541  30.698  27.942  1.00  0.00     0.173 A 
ATOM     85  F   UNL A   1      42.947  31.025  28.365  1.00  0.00    -0.203 F 
ATOM     86  C   UNL A   1      44.412  32.178  26.957  1.00  0.00     0.198 A 
ATOM     87  C   UNL A   1      46.762  31.721  27.025  1.00  0.00     0.198 A 
ATOM     88  F   UNL A   1      47.598  30.031  28.431  1.00  0.00    -0.203 F 
ATOM     89  F   UNL A   1      43.383  32.905  26.496  1.00  0.00    -0.200 F 
ATOM     90  C   UNL A   1      45.698  32.457  26.528  1.00  0.00     0.200 A 
ATOM     91  F   UNL A   1      48.015  32.019  26.651  1.00  0.00    -0.200 F 
ATOM     92  F   UNL A   1      45.918  33.455  25.661  1.00  0.00    -0.200 F 
ENDBRANCH  59  82
ENDBRANCH  33  34
ENDBRANCH  25  28
ENDBRANCH  23  24
ENDBRANCH   1  23
TORSDOF 13
ENDMDL
