MODEL 1
REMARK VINA RESULT:     -13.7      0.000      0.000
REMARK SMILES N#C/C(=C/c1ccc(-c2cccc(C(=O)NCCCCNC(=O)c3ccc(-c4c5nc(c(-c6c(F)c(F)c(F)c(F)c6F)c6ccc([nH]6)c(-c6c(F)c(F)c(F)c(F)c6F)c6nc(c(-c7c(F)c(F)c(F)c(F)c7F)c7ccc4[nH]7)C=C6)C=C5)cc3)c2)o1)c1ccc(F)cc1
REMARK SMILES IDX 18 1 17 2 16 3 14 4 15 5 13 7 9 8 10 9 87 10 11 11 12 12
REMARK SMILES IDX 8 13 5 14 6 15 88 16 7 17 4 18 3 19 2 20 1 21 89 22 90 23
REMARK SMILES IDX 95 24 91 25 94 26 92 27 93 28 19 29 20 30 21 31 22 32 23 34
REMARK SMILES IDX 24 35 25 36 86 37 26 38 85 39 27 40 28 41 29 42 79 43 30 44
REMARK SMILES IDX 84 45 78 46 80 47 31 48 83 49 77 50 76 51 32 53 64 54 44 55
REMARK SMILES IDX 63 56 45 57 48 58 62 59 81 60 46 61 47 62 61 64 82 65 49 66
REMARK SMILES IDX 33 67 34 68 42 69 35 70 36 71 40 72 43 73 37 74 38 75 41 76
REMARK SMILES IDX 39 77 65 78 66 79 74 80 67 81 68 82 72 83 75 84 69 85 70 86
REMARK SMILES IDX 73 87 71 88 50 89 51 90 59 91 52 92 53 93 57 94 60 95 54 96
REMARK SMILES IDX 55 97 58 98 56 99
REMARK H PARENT 16 6 21 33 80 52 48 63
REMARK Flexibility Score: inf
ROOT
ATOM      1  C   UNL A   1      31.759  30.426  26.836  1.00  0.00     0.023 C 
ENDROOT
BRANCH   1   2
ATOM      2  C   UNL A   1      33.089  29.752  26.531  1.00  0.00     0.116 C 
BRANCH   2   3
ATOM      3  N   UNL A   1      33.442  29.674  25.118  1.00  0.00    -0.352 N 
ATOM      4  C   UNL A   1      32.827  29.010  24.069  1.00  0.00     0.251 C 
ATOM      5  O   UNL A   1      33.317  29.082  22.945  1.00  0.00    -0.269 OA
ATOM      6  H   UNL A   1      34.252  30.175  24.869  1.00  0.00     0.163 HD
BRANCH   4   7
ATOM      7  C   UNL A   1      31.627  28.161  24.291  1.00  0.00     0.040 A 
ATOM      8  C   UNL A   1      30.733  26.064  25.106  1.00  0.00     0.018 A 
ATOM      9  C   UNL A   1      29.607  26.234  24.296  1.00  0.00     0.012 A 
ATOM     10  C   UNL A   1      31.655  27.111  25.201  1.00  0.00     0.025 A 
ATOM     11  C   UNL A   1      29.460  27.402  23.538  1.00  0.00     0.002 A 
ATOM     12  C   UNL A   1      30.490  28.347  23.501  1.00  0.00     0.014 A 
BRANCH   8  13
ATOM     13  C   UNL A   1      31.106  24.792  25.712  1.00  0.00     0.134 A 
ATOM     14  C   UNL A   1      31.662  22.640  25.593  1.00  0.00     0.128 A 
ATOM     15  C   UNL A   1      32.082  23.129  26.828  1.00  0.00     0.051 A 
ATOM     16  O   UNL A   1      31.093  23.690  24.904  1.00  0.00    -0.457 OA
ATOM     17  C   UNL A   1      31.673  24.472  26.925  1.00  0.00     0.051 A 
BRANCH  14  18
ATOM     18  C   UNL A   1      31.724  21.300  25.104  1.00  0.00     0.067 C 
ATOM     19  C   UNL A   1      32.873  20.799  24.609  1.00  0.00     0.063 C 
BRANCH  19  20
ATOM     20  C   UNL A   1      32.942  19.419  23.975  1.00  0.00     0.100 C 
ATOM     21  N   UNL A   1      32.999  18.274  23.450  1.00  0.00    -0.192 NA
ENDBRANCH  19  20
BRANCH  19  22
ATOM     22  C   UNL A   1      34.171  21.541  24.633  1.00  0.00    -0.007 A 
ATOM     23  C   UNL A   1      35.142  21.269  25.615  1.00  0.00     0.012 A 
ATOM     24  C   UNL A   1      34.428  22.557  23.696  1.00  0.00     0.012 A 
ATOM     25  C   UNL A   1      36.300  22.045  25.711  1.00  0.00     0.040 A 
ATOM     26  C   UNL A   1      35.599  23.316  23.779  1.00  0.00     0.040 A 
ATOM     27  C   UNL A   1      36.513  23.065  24.795  1.00  0.00     0.123 A 
ATOM     28  F   UNL A   1      37.613  23.823  24.897  1.00  0.00    -0.207 F 
ENDBRANCH  19  22
ENDBRANCH  14  18
ENDBRANCH   8  13
ENDBRANCH   4   7
ENDBRANCH   2   3
ENDBRANCH   1   2
BRANCH   1  29
ATOM     29  C   UNL A   1      31.699  31.934  26.644  1.00  0.00     0.023 C 
BRANCH  29  30
ATOM     30  C   UNL A   1      32.792  32.746  27.329  1.00  0.00     0.116 C 
BRANCH  30  31
ATOM     31  N   UNL A   1      32.400  34.104  27.680  1.00  0.00    -0.352 N 
ATOM     32  C   UNL A   1      32.964  34.981  28.581  1.00  0.00     0.251 C 
ATOM     33  H   UNL A   1      31.613  34.447  27.202  1.00  0.00     0.163 HD
ATOM     34  O   UNL A   1      32.450  36.076  28.773  1.00  0.00    -0.269 OA
BRANCH  32  35
ATOM     35  C   UNL A   1      34.159  34.584  29.358  1.00  0.00     0.039 A 
ATOM     36  C   UNL A   1      33.986  34.130  30.669  1.00  0.00     0.014 A 
ATOM     37  C   UNL A   1      35.435  34.618  28.791  1.00  0.00     0.014 A 
ATOM     38  C   UNL A   1      35.078  33.616  31.373  1.00  0.00     0.010 A 
ATOM     39  C   UNL A   1      36.503  34.028  29.461  1.00  0.00     0.010 A 
ATOM     40  C   UNL A   1      36.334  33.509  30.754  1.00  0.00    -0.014 A 
BRANCH  40  41
ATOM     41  C   UNL A   1      37.472  32.833  31.427  1.00  0.00     0.031 A 
ATOM     42  C   UNL A   1      38.153  31.662  30.777  1.00  0.00     0.074 A 
ATOM     43  C   UNL A   1      37.829  33.212  32.670  1.00  0.00     0.049 A 
ATOM     44  N   UNL A   1      39.106  30.894  31.243  1.00  0.00    -0.248 NA
ATOM     45  C   UNL A   1      37.675  31.282  29.440  1.00  0.00     0.031 C 
ATOM     46  C   UNL A   1      37.196  34.283  33.441  1.00  0.00     0.029 A 
ATOM     47  N   UNL A   1      38.797  32.725  33.511  1.00  0.00    -0.354 N 
ATOM     48  C   UNL A   1      39.321  29.929  30.270  1.00  0.00     0.074 A 
ATOM     49  C   UNL A   1      38.367  30.177  29.211  1.00  0.00     0.031 C 
ATOM     50  C   UNL A   1      37.803  34.383  34.634  1.00  0.00     0.029 A 
ATOM     51  C   UNL A   1      38.844  33.363  34.726  1.00  0.00     0.049 A 
ATOM     52  H   UNL A   1      39.402  31.986  33.268  1.00  0.00     0.167 HD
ATOM     53  C   UNL A   1      40.246  28.938  30.251  1.00  0.00     0.037 A 
ATOM     54  C   UNL A   1      39.631  33.150  35.797  1.00  0.00     0.037 A 
ATOM     55  C   UNL A   1      41.217  28.717  31.290  1.00  0.00     0.049 A 
ATOM     56  C   UNL A   1      40.675  32.069  35.740  1.00  0.00     0.074 A 
ATOM     57  C   UNL A   1      42.258  27.806  31.320  1.00  0.00     0.029 A 
ATOM     58  N   UNL A   1      41.263  29.415  32.489  1.00  0.00    -0.354 N 
ATOM     59  N   UNL A   1      40.934  31.222  34.774  1.00  0.00    -0.248 NA
ATOM     60  C   UNL A   1      41.542  31.922  36.917  1.00  0.00     0.031 C 
ATOM     61  C   UNL A   1      42.905  27.920  32.555  1.00  0.00     0.029 A 
ATOM     62  C   UNL A   1      42.297  28.935  33.277  1.00  0.00     0.049 A 
ATOM     63  H   UNL A   1      40.650  30.143  32.742  1.00  0.00     0.167 HD
ATOM     64  C   UNL A   1      42.001  30.453  35.217  1.00  0.00     0.074 A 
ATOM     65  C   UNL A   1      42.354  30.947  36.532  1.00  0.00     0.031 C 
ATOM     66  C   UNL A   1      42.632  29.431  34.588  1.00  0.00     0.037 A 
BRANCH  53  67
ATOM     67  C   UNL A   1      40.246  28.018  29.065  1.00  0.00     0.064 A 
ATOM     68  C   UNL A   1      40.957  28.323  27.894  1.00  0.00     0.173 A 
ATOM     69  C   UNL A   1      39.535  26.809  29.104  1.00  0.00     0.173 A 
ATOM     70  F   UNL A   1      41.644  29.472  27.800  1.00  0.00    -0.203 F 
ATOM     71  C   UNL A   1      40.922  27.472  26.792  1.00  0.00     0.198 A 
ATOM     72  C   UNL A   1      39.530  25.945  28.011  1.00  0.00     0.198 A 
ATOM     73  F   UNL A   1      38.844  26.465  30.201  1.00  0.00    -0.203 F 
ATOM     74  F   UNL A   1      41.559  27.816  25.663  1.00  0.00    -0.200 F 
ATOM     75  C   UNL A   1      40.213  26.282  26.854  1.00  0.00     0.200 A 
ATOM     76  F   UNL A   1      38.853  24.790  28.076  1.00  0.00    -0.200 F 
ATOM     77  F   UNL A   1      40.180  25.466  25.791  1.00  0.00    -0.200 F 
ENDBRANCH  53  67
BRANCH  54  78
ATOM     78  C   UNL A   1      39.477  34.005  37.002  1.00  0.00     0.064 A 
ATOM     79  C   UNL A   1      38.744  33.557  38.110  1.00  0.00     0.173 A 
ATOM     80  C   UNL A   1      40.081  35.267  37.083  1.00  0.00     0.173 A 
ATOM     81  F   UNL A   1      38.133  32.364  38.071  1.00  0.00    -0.203 F 
ATOM     82  C   UNL A   1      38.615  34.345  39.252  1.00  0.00     0.198 A 
ATOM     83  C   UNL A   1      39.971  36.044  38.235  1.00  0.00     0.198 A 
ATOM     84  F   UNL A   1      40.798  35.736  36.051  1.00  0.00    -0.203 F 
ATOM     85  F   UNL A   1      37.884  33.906  40.286  1.00  0.00    -0.200 F 
ATOM     86  C   UNL A   1      39.235  35.584  39.316  1.00  0.00     0.200 A 
ATOM     87  F   UNL A   1      40.583  37.234  38.299  1.00  0.00    -0.200 F 
ATOM     88  F   UNL A   1      39.121  36.336  40.419  1.00  0.00    -0.200 F 
ENDBRANCH  54  78
BRANCH  66  89
ATOM     89  C   UNL A   1      43.780  28.786  35.309  1.00  0.00     0.064 A 
ATOM     90  C   UNL A   1      45.098  29.231  35.133  1.00  0.00     0.173 A 
ATOM     91  C   UNL A   1      43.553  27.741  36.217  1.00  0.00     0.173 A 
ATOM     92  F   UNL A   1      45.369  30.217  34.264  1.00  0.00    -0.203 F 
ATOM     93  C   UNL A   1      46.151  28.635  35.824  1.00  0.00     0.198 A 
ATOM     94  C   UNL A   1      44.604  27.168  36.926  1.00  0.00     0.198 A 
ATOM     95  F   UNL A   1      42.309  27.284  36.424  1.00  0.00    -0.203 F 
ATOM     96  F   UNL A   1      47.409  29.046  35.609  1.00  0.00    -0.200 F 
ATOM     97  C   UNL A   1      45.903  27.611  36.725  1.00  0.00     0.200 A 
ATOM     98  F   UNL A   1      44.361  26.186  37.805  1.00  0.00    -0.200 F 
ATOM     99  F   UNL A   1      46.916  27.045  37.394  1.00  0.00    -0.200 F 
ENDBRANCH  66  89
ENDBRANCH  40  41
ENDBRANCH  32  35
ENDBRANCH  30  31
ENDBRANCH  29  30
ENDBRANCH   1  29
TORSDOF 15
ENDMDL
MODEL 2
REMARK VINA RESULT:     -13.6      0.609      7.172
REMARK SMILES N#C/C(=C/c1ccc(-c2cccc(C(=O)NCCCCNC(=O)c3ccc(-c4c5nc(c(-c6c(F)c(F)c(F)c(F)c6F)c6ccc([nH]6)c(-c6c(F)c(F)c(F)c(F)c6F)c6nc(c(-c7c(F)c(F)c(F)c(F)c7F)c7ccc4[nH]7)C=C6)C=C5)cc3)c2)o1)c1ccc(F)cc1
REMARK SMILES IDX 18 1 17 2 16 3 14 4 15 5 13 7 9 8 10 9 87 10 11 11 12 12
REMARK SMILES IDX 8 13 5 14 6 15 88 16 7 17 4 18 3 19 2 20 1 21 89 22 90 23
REMARK SMILES IDX 95 24 91 25 94 26 92 27 93 28 19 29 20 30 21 31 22 32 23 34
REMARK SMILES IDX 24 35 25 36 86 37 26 38 85 39 27 40 28 41 29 42 79 43 30 44
REMARK SMILES IDX 84 45 78 46 80 47 31 48 83 49 77 50 76 51 32 53 64 54 44 55
REMARK SMILES IDX 63 56 45 57 48 58 62 59 81 60 46 61 47 62 61 64 82 65 49 66
REMARK SMILES IDX 33 67 34 68 42 69 35 70 36 71 40 72 43 73 37 74 38 75 41 76
REMARK SMILES IDX 39 77 65 78 66 79 74 80 67 81 68 82 72 83 75 84 69 85 70 86
REMARK SMILES IDX 73 87 71 88 50 89 51 90 59 91 52 92 53 93 57 94 60 95 54 96
REMARK SMILES IDX 55 97 58 98 56 99
REMARK H PARENT 16 6 21 33 80 52 48 63
REMARK Flexibility Score: inf
ROOT
ATOM      1  C   UNL A   1      31.508  30.615  26.373  1.00  0.00     0.023 C 
ENDROOT
BRANCH   1   2
ATOM      2  C   UNL A   1      32.900  30.028  26.185  1.00  0.00     0.116 C 
BRANCH   2   3
ATOM      3  N   UNL A   1      33.289  29.767  24.804  1.00  0.00    -0.352 N 
ATOM      4  C   UNL A   1      32.710  28.958  23.840  1.00  0.00     0.251 C 
ATOM      5  O   UNL A   1      33.227  28.887  22.728  1.00  0.00    -0.269 OA
ATOM      6  H   UNL A   1      34.097  30.245  24.508  1.00  0.00     0.163 HD
BRANCH   4   7
ATOM      7  C   UNL A   1      31.518  28.124  24.148  1.00  0.00     0.040 A 
ATOM      8  C   UNL A   1      30.655  26.052  25.056  1.00  0.00     0.018 A 
ATOM      9  C   UNL A   1      29.487  26.216  24.307  1.00  0.00     0.012 A 
ATOM     10  C   UNL A   1      31.589  27.092  25.077  1.00  0.00     0.025 A 
ATOM     11  C   UNL A   1      29.306  27.369  23.534  1.00  0.00     0.002 A 
ATOM     12  C   UNL A   1      30.340  28.304  23.420  1.00  0.00     0.014 A 
BRANCH   8  13
ATOM     13  C   UNL A   1      31.052  24.790  25.666  1.00  0.00     0.134 A 
ATOM     14  C   UNL A   1      31.629  22.643  25.556  1.00  0.00     0.128 A 
ATOM     15  C   UNL A   1      32.064  23.147  26.779  1.00  0.00     0.051 A 
ATOM     16  O   UNL A   1      31.036  23.680  24.868  1.00  0.00    -0.457 OA
ATOM     17  C   UNL A   1      31.643  24.487  26.872  1.00  0.00     0.051 A 
BRANCH  14  18
ATOM     18  C   UNL A   1      31.696  21.299  25.079  1.00  0.00     0.067 C 
ATOM     19  C   UNL A   1      32.845  20.800  24.582  1.00  0.00     0.063 C 
BRANCH  19  20
ATOM     20  C   UNL A   1      32.920  19.415  23.960  1.00  0.00     0.100 C 
ATOM     21  N   UNL A   1      32.981  18.267  23.444  1.00  0.00    -0.192 NA
ENDBRANCH  19  20
BRANCH  19  22
ATOM     22  C   UNL A   1      34.139  21.550  24.595  1.00  0.00    -0.007 A 
ATOM     23  C   UNL A   1      35.117  21.291  25.575  1.00  0.00     0.012 A 
ATOM     24  C   UNL A   1      34.387  22.560  23.649  1.00  0.00     0.012 A 
ATOM     25  C   UNL A   1      36.270  22.074  25.659  1.00  0.00     0.040 A 
ATOM     26  C   UNL A   1      35.554  23.325  23.721  1.00  0.00     0.040 A 
ATOM     27  C   UNL A   1      36.474  23.088  24.734  1.00  0.00     0.123 A 
ATOM     28  F   UNL A   1      37.570  23.854  24.825  1.00  0.00    -0.207 F 
ENDBRANCH  19  22
ENDBRANCH  14  18
ENDBRANCH   8  13
ENDBRANCH   4   7
ENDBRANCH   2   3
ENDBRANCH   1   2
BRANCH   1  29
ATOM     29  C   UNL A   1      31.419  32.127  26.516  1.00  0.00     0.023 C 
BRANCH  29  30
ATOM     30  C   UNL A   1      32.567  32.804  27.256  1.00  0.00     0.116 C 
BRANCH  30  31
ATOM     31  N   UNL A   1      32.308  34.187  27.628  1.00  0.00    -0.352 N 
ATOM     32  C   UNL A   1      32.961  34.997  28.532  1.00  0.00     0.251 C 
ATOM     33  H   UNL A   1      31.551  34.609  27.163  1.00  0.00     0.163 HD
ATOM     34  O   UNL A   1      32.554  36.133  28.742  1.00  0.00    -0.269 OA
BRANCH  32  35
ATOM     35  C   UNL A   1      34.124  34.479  29.288  1.00  0.00     0.039 A 
ATOM     36  C   UNL A   1      33.896  33.835  30.508  1.00  0.00     0.014 A 
ATOM     37  C   UNL A   1      35.422  34.591  28.787  1.00  0.00     0.014 A 
ATOM     38  C   UNL A   1      34.957  33.213  31.171  1.00  0.00     0.010 A 
ATOM     39  C   UNL A   1      36.461  33.900  29.403  1.00  0.00     0.010 A 
ATOM     40  C   UNL A   1      36.237  33.194  30.595  1.00  0.00    -0.014 A 
BRANCH  40  41
ATOM     41  C   UNL A   1      37.347  32.416  31.205  1.00  0.00     0.031 A 
ATOM     42  C   UNL A   1      37.867  32.774  32.568  1.00  0.00     0.074 A 
ATOM     43  C   UNL A   1      37.951  31.448  30.489  1.00  0.00     0.049 A 
ATOM     44  N   UNL A   1      38.877  32.268  33.229  1.00  0.00    -0.248 NA
ATOM     45  C   UNL A   1      37.183  33.872  33.266  1.00  0.00     0.031 C 
ATOM     46  C   UNL A   1      37.592  31.056  29.125  1.00  0.00     0.029 A 
ATOM     47  N   UNL A   1      39.010  30.632  30.800  1.00  0.00    -0.354 N 
ATOM     48  C   UNL A   1      38.965  33.000  34.404  1.00  0.00     0.074 A 
ATOM     49  C   UNL A   1      37.938  34.018  34.344  1.00  0.00     0.031 C 
ATOM     50  C   UNL A   1      38.403  30.065  28.724  1.00  0.00     0.029 A 
ATOM     51  C   UNL A   1      39.361  29.775  29.786  1.00  0.00     0.049 A 
ATOM     52  H   UNL A   1      39.475  30.659  31.667  1.00  0.00     0.167 HD
ATOM     53  C   UNL A   1      39.810  32.826  35.449  1.00  0.00     0.037 A 
ATOM     54  C   UNL A   1      40.346  28.860  29.717  1.00  0.00     0.037 A 
ATOM     55  C   UNL A   1      40.806  31.790  35.520  1.00  0.00     0.049 A 
ATOM     56  C   UNL A   1      41.250  28.659  30.902  1.00  0.00     0.074 A 
ATOM     57  C   UNL A   1      41.643  31.468  36.574  1.00  0.00     0.029 A 
ATOM     58  N   UNL A   1      41.104  30.909  34.490  1.00  0.00    -0.354 N 
ATOM     59  N   UNL A   1      41.261  29.294  32.048  1.00  0.00    -0.248 NA
ATOM     60  C   UNL A   1      42.270  27.607  30.787  1.00  0.00     0.031 C 
ATOM     61  C   UNL A   1      42.479  30.423  36.166  1.00  0.00     0.029 A 
ATOM     62  C   UNL A   1      42.131  30.061  34.874  1.00  0.00     0.049 A 
ATOM     63  H   UNL A   1      40.652  30.890  33.616  1.00  0.00     0.167 HD
ATOM     64  C   UNL A   1      42.274  28.711  32.797  1.00  0.00     0.074 A 
ATOM     65  C   UNL A   1      42.843  27.658  31.982  1.00  0.00     0.031 C 
ATOM     66  C   UNL A   1      42.693  29.021  34.049  1.00  0.00     0.037 A 
BRANCH  53  67
ATOM     67  C   UNL A   1      39.691  33.783  36.599  1.00  0.00     0.064 A 
ATOM     68  C   UNL A   1      38.896  33.495  37.719  1.00  0.00     0.173 A 
ATOM     69  C   UNL A   1      40.389  35.000  36.586  1.00  0.00     0.173 A 
ATOM     70  F   UNL A   1      38.199  32.351  37.777  1.00  0.00    -0.203 F 
ATOM     71  C   UNL A   1      38.773  34.408  38.764  1.00  0.00     0.198 A 
ATOM     72  C   UNL A   1      40.289  35.896  37.648  1.00  0.00     0.198 A 
ATOM     73  F   UNL A   1      41.168  35.322  35.542  1.00  0.00    -0.203 F 
ATOM     74  F   UNL A   1      37.960  34.136  39.795  1.00  0.00    -0.200 F 
ATOM     75  C   UNL A   1      39.473  35.604  38.730  1.00  0.00     0.200 A 
ATOM     76  F   UNL A   1      40.974  37.047  37.619  1.00  0.00    -0.200 F 
ATOM     77  F   UNL A   1      39.352  36.481  39.736  1.00  0.00    -0.200 F 
ENDBRANCH  53  67
BRANCH  54  78
ATOM     78  C   UNL A   1      40.504  28.045  28.485  1.00  0.00     0.064 A 
ATOM     79  C   UNL A   1      41.288  28.504  27.417  1.00  0.00     0.173 A 
ATOM     80  C   UNL A   1      39.903  26.784  28.362  1.00  0.00     0.173 A 
ATOM     81  F   UNL A   1      41.866  29.712  27.481  1.00  0.00    -0.203 F 
ATOM     82  C   UNL A   1      41.457  27.734  26.268  1.00  0.00     0.198 A 
ATOM     83  C   UNL A   1      40.094  26.006  27.222  1.00  0.00     0.198 A 
ATOM     84  F   UNL A   1      39.150  26.300  29.360  1.00  0.00    -0.203 F 
ATOM     85  F   UNL A   1      42.187  28.208  25.249  1.00  0.00    -0.200 F 
ATOM     86  C   UNL A   1      40.867  26.482  26.175  1.00  0.00     0.200 A 
ATOM     87  F   UNL A   1      39.534  24.790  27.143  1.00  0.00    -0.200 F 
ATOM     88  F   UNL A   1      41.042  25.737  25.075  1.00  0.00    -0.200 F 
ENDBRANCH  54  78
BRANCH  66  89
ATOM     89  C   UNL A   1      43.812  28.201  34.621  1.00  0.00     0.064 A 
ATOM     90  C   UNL A   1      45.154  28.574  34.453  1.00  0.00     0.173 A 
ATOM     91  C   UNL A   1      43.538  27.055  35.382  1.00  0.00     0.173 A 
ATOM     92  F   UNL A   1      45.469  29.654  33.721  1.00  0.00    -0.203 F 
ATOM     93  C   UNL A   1      46.181  27.814  35.006  1.00  0.00     0.198 A 
ATOM     94  C   UNL A   1      44.565  26.314  35.956  1.00  0.00     0.198 A 
ATOM     95  F   UNL A   1      42.270  26.661  35.576  1.00  0.00    -0.203 F 
ATOM     96  F   UNL A   1      47.458  28.163  34.797  1.00  0.00    -0.200 F 
ATOM     97  C   UNL A   1      45.887  26.690  35.764  1.00  0.00     0.200 A 
ATOM     98  F   UNL A   1      44.278  25.235  36.698  1.00  0.00    -0.200 F 
ATOM     99  F   UNL A   1      46.876  25.964  36.302  1.00  0.00    -0.200 F 
ENDBRANCH  66  89
ENDBRANCH  40  41
ENDBRANCH  32  35
ENDBRANCH  30  31
ENDBRANCH  29  30
ENDBRANCH   1  29
TORSDOF 15
ENDMDL
MODEL 3
REMARK VINA RESULT:     -13.3      5.589     11.139
REMARK SMILES N#C/C(=C/c1ccc(-c2cccc(C(=O)NCCCCNC(=O)c3ccc(-c4c5nc(c(-c6c(F)c(F)c(F)c(F)c6F)c6ccc([nH]6)c(-c6c(F)c(F)c(F)c(F)c6F)c6nc(c(-c7c(F)c(F)c(F)c(F)c7F)c7ccc4[nH]7)C=C6)C=C5)cc3)c2)o1)c1ccc(F)cc1
REMARK SMILES IDX 18 1 17 2 16 3 14 4 15 5 13 7 9 8 10 9 87 10 11 11 12 12
REMARK SMILES IDX 8 13 5 14 6 15 88 16 7 17 4 18 3 19 2 20 1 21 89 22 90 23
REMARK SMILES IDX 95 24 91 25 94 26 92 27 93 28 19 29 20 30 21 31 22 32 23 34
REMARK SMILES IDX 24 35 25 36 86 37 26 38 85 39 27 40 28 41 29 42 79 43 30 44
REMARK SMILES IDX 84 45 78 46 80 47 31 48 83 49 77 50 76 51 32 53 64 54 44 55
REMARK SMILES IDX 63 56 45 57 48 58 62 59 81 60 46 61 47 62 61 64 82 65 49 66
REMARK SMILES IDX 33 67 34 68 42 69 35 70 36 71 40 72 43 73 37 74 38 75 41 76
REMARK SMILES IDX 39 77 65 78 66 79 74 80 67 81 68 82 72 83 75 84 69 85 70 86
REMARK SMILES IDX 73 87 71 88 50 89 51 90 59 91 52 92 53 93 57 94 60 95 54 96
REMARK SMILES IDX 55 97 58 98 56 99
REMARK H PARENT 16 6 21 33 80 52 48 63
REMARK Flexibility Score: inf
ROOT
ATOM      1  C   UNL A   1      38.902  22.787  26.273  1.00  0.00     0.023 C 
ENDROOT
BRANCH   1   2
ATOM      2  C   UNL A   1      37.619  23.444  25.786  1.00  0.00     0.116 C 
BRANCH   2   3
ATOM      3  N   UNL A   1      37.403  23.404  24.344  1.00  0.00    -0.352 N 
ATOM      4  C   UNL A   1      36.359  22.876  23.601  1.00  0.00     0.251 C 
ATOM      5  O   UNL A   1      36.397  22.953  22.376  1.00  0.00    -0.269 OA
ATOM      6  H   UNL A   1      38.118  23.821  23.810  1.00  0.00     0.163 HD
BRANCH   4   7
ATOM      7  C   UNL A   1      35.232  22.161  24.256  1.00  0.00     0.040 A 
ATOM      8  C   UNL A   1      33.103  22.317  25.397  1.00  0.00     0.018 A 
ATOM      9  C   UNL A   1      33.321  21.061  25.968  1.00  0.00     0.012 A 
ATOM     10  C   UNL A   1      33.999  22.779  24.428  1.00  0.00     0.025 A 
ATOM     11  C   UNL A   1      34.463  20.325  25.626  1.00  0.00     0.002 A 
ATOM     12  C   UNL A   1      35.440  20.893  24.803  1.00  0.00     0.014 A 
BRANCH   8  13
ATOM     13  C   UNL A   1      32.105  23.262  25.884  1.00  0.00     0.134 A 
ATOM     14  C   UNL A   1      31.333  25.325  26.197  1.00  0.00     0.128 A 
ATOM     15  C   UNL A   1      30.261  24.441  26.299  1.00  0.00     0.051 A 
ATOM     16  O   UNL A   1      32.457  24.582  25.906  1.00  0.00    -0.457 OA
ATOM     17  C   UNL A   1      30.763  23.133  26.162  1.00  0.00     0.051 A 
BRANCH  14  18
ATOM     18  C   UNL A   1      31.337  26.737  26.409  1.00  0.00     0.067 C 
ATOM     19  C   UNL A   1      31.710  27.581  25.426  1.00  0.00     0.063 C 
BRANCH  19  20
ATOM     20  C   UNL A   1      31.838  29.078  25.657  1.00  0.00     0.100 C 
ATOM     21  N   UNL A   1      31.944  30.320  25.847  1.00  0.00    -0.192 NA
ENDBRANCH  19  20
BRANCH  19  22
ATOM     22  C   UNL A   1      32.029  27.133  24.036  1.00  0.00    -0.007 A 
ATOM     23  C   UNL A   1      31.004  26.871  23.106  1.00  0.00     0.012 A 
ATOM     24  C   UNL A   1      33.362  26.925  23.643  1.00  0.00     0.012 A 
ATOM     25  C   UNL A   1      31.298  26.337  21.850  1.00  0.00     0.040 A 
ATOM     26  C   UNL A   1      33.654  26.413  22.375  1.00  0.00     0.040 A 
ATOM     27  C   UNL A   1      32.620  26.107  21.499  1.00  0.00     0.123 A 
ATOM     28  F   UNL A   1      32.903  25.577  20.302  1.00  0.00    -0.207 F 
ENDBRANCH  19  22
ENDBRANCH  14  18
ENDBRANCH   8  13
ENDBRANCH   4   7
ENDBRANCH   2   3
ENDBRANCH   1   2
BRANCH   1  29
ATOM     29  C   UNL A   1      39.286  21.469  25.616  1.00  0.00     0.023 C 
BRANCH  29  30
ATOM     30  C   UNL A   1      39.224  20.230  26.501  1.00  0.00     0.116 C 
BRANCH  30  31
ATOM     31  N   UNL A   1      40.197  19.201  26.163  1.00  0.00    -0.352 N 
ATOM     32  C   UNL A   1      41.572  19.269  26.111  1.00  0.00     0.251 C 
ATOM     33  H   UNL A   1      39.815  18.324  25.937  1.00  0.00     0.163 HD
ATOM     34  O   UNL A   1      42.220  18.294  25.751  1.00  0.00    -0.269 OA
BRANCH  32  35
ATOM     35  C   UNL A   1      42.267  20.534  26.438  1.00  0.00     0.039 A 
ATOM     36  C   UNL A   1      42.870  21.255  25.403  1.00  0.00     0.014 A 
ATOM     37  C   UNL A   1      42.295  21.028  27.743  1.00  0.00     0.014 A 
ATOM     38  C   UNL A   1      43.407  22.519  25.660  1.00  0.00     0.010 A 
ATOM     39  C   UNL A   1      42.752  22.321  27.982  1.00  0.00     0.010 A 
ATOM     40  C   UNL A   1      43.303  23.085  26.941  1.00  0.00    -0.014 A 
BRANCH  40  41
ATOM     41  C   UNL A   1      43.732  24.482  27.205  1.00  0.00     0.031 A 
ATOM     42  C   UNL A   1      42.745  25.501  27.698  1.00  0.00     0.074 A 
ATOM     43  C   UNL A   1      44.992  24.856  26.909  1.00  0.00     0.049 A 
ATOM     44  N   UNL A   1      42.911  26.783  27.906  1.00  0.00    -0.248 NA
ATOM     45  C   UNL A   1      41.379  25.023  27.955  1.00  0.00     0.031 C 
ATOM     46  C   UNL A   1      46.025  23.981  26.352  1.00  0.00     0.029 A 
ATOM     47  N   UNL A   1      45.612  26.076  27.012  1.00  0.00    -0.354 N 
ATOM     48  C   UNL A   1      41.670  27.266  28.293  1.00  0.00     0.074 A 
ATOM     49  C   UNL A   1      40.748  26.152  28.242  1.00  0.00     0.031 C 
ATOM     50  C   UNL A   1      47.154  24.687  26.180  1.00  0.00     0.029 A 
ATOM     51  C   UNL A   1      46.915  26.071  26.581  1.00  0.00     0.049 A 
ATOM     52  H   UNL A   1      45.164  26.881  27.362  1.00  0.00     0.167 HD
ATOM     53  C   UNL A   1      41.332  28.521  28.678  1.00  0.00     0.037 A 
ATOM     54  C   UNL A   1      47.818  27.068  26.510  1.00  0.00     0.037 A 
ATOM     55  C   UNL A   1      42.259  29.619  28.762  1.00  0.00     0.049 A 
ATOM     56  C   UNL A   1      47.432  28.444  26.976  1.00  0.00     0.074 A 
ATOM     57  C   UNL A   1      42.040  30.901  29.234  1.00  0.00     0.029 A 
ATOM     58  N   UNL A   1      43.586  29.564  28.358  1.00  0.00    -0.354 N 
ATOM     59  N   UNL A   1      46.280  28.869  27.432  1.00  0.00    -0.248 NA
ATOM     60  C   UNL A   1      48.477  29.477  26.929  1.00  0.00     0.031 C 
ATOM     61  C   UNL A   1      43.219  31.636  29.073  1.00  0.00     0.029 A 
ATOM     62  C   UNL A   1      44.190  30.798  28.545  1.00  0.00     0.049 A 
ATOM     63  H   UNL A   1      44.032  28.766  27.993  1.00  0.00     0.167 HD
ATOM     64  C   UNL A   1      46.461  30.210  27.740  1.00  0.00     0.074 A 
ATOM     65  C   UNL A   1      47.842  30.524  27.437  1.00  0.00     0.031 C 
ATOM     66  C   UNL A   1      45.563  31.099  28.231  1.00  0.00     0.037 A 
BRANCH  53  67
ATOM     67  C   UNL A   1      39.896  28.770  29.034  1.00  0.00     0.064 A 
ATOM     68  C   UNL A   1      39.422  28.605  30.345  1.00  0.00     0.173 A 
ATOM     69  C   UNL A   1      38.983  29.190  28.056  1.00  0.00     0.173 A 
ATOM     70  F   UNL A   1      40.250  28.195  31.317  1.00  0.00    -0.203 F 
ATOM     71  C   UNL A   1      38.079  28.812  30.653  1.00  0.00     0.198 A 
ATOM     72  C   UNL A   1      37.648  29.427  28.375  1.00  0.00     0.198 A 
ATOM     73  F   UNL A   1      39.384  29.369  26.788  1.00  0.00    -0.203 F 
ATOM     74  F   UNL A   1      37.638  28.589  31.900  1.00  0.00    -0.200 F 
ATOM     75  C   UNL A   1      37.195  29.227  29.669  1.00  0.00     0.200 A 
ATOM     76  F   UNL A   1      36.796  29.839  27.425  1.00  0.00    -0.200 F 
ATOM     77  F   UNL A   1      35.903  29.424  29.968  1.00  0.00    -0.200 F 
ENDBRANCH  53  67
BRANCH  54  78
ATOM     78  C   UNL A   1      49.185  26.784  26.004  1.00  0.00     0.064 A 
ATOM     79  C   UNL A   1      49.515  27.015  24.661  1.00  0.00     0.173 A 
ATOM     80  C   UNL A   1      50.194  26.307  26.853  1.00  0.00     0.173 A 
ATOM     81  F   UNL A   1      48.578  27.454  23.807  1.00  0.00    -0.203 F 
ATOM     82  C   UNL A   1      50.802  26.772  24.185  1.00  0.00     0.198 A 
ATOM     83  C   UNL A   1      51.486  26.087  26.381  1.00  0.00     0.198 A 
ATOM     84  F   UNL A   1      49.928  26.076  28.147  1.00  0.00    -0.203 F 
ATOM     85  F   UNL A   1      51.084  26.974  22.891  1.00  0.00    -0.200 F 
ATOM     86  C   UNL A   1      51.788  26.316  25.047  1.00  0.00     0.200 A 
ATOM     87  F   UNL A   1      52.440  25.660  27.220  1.00  0.00    -0.200 F 
ATOM     88  F   UNL A   1      53.028  26.095  24.592  1.00  0.00    -0.200 F 
ENDBRANCH  54  78
BRANCH  66  89
ATOM     89  C   UNL A   1      46.050  32.495  28.487  1.00  0.00     0.064 A 
ATOM     90  C   UNL A   1      46.627  32.858  29.713  1.00  0.00     0.173 A 
ATOM     91  C   UNL A   1      45.979  33.470  27.479  1.00  0.00     0.173 A 
ATOM     92  F   UNL A   1      46.704  31.967  30.713  1.00  0.00    -0.203 F 
ATOM     93  C   UNL A   1      47.092  34.153  29.929  1.00  0.00     0.198 A 
ATOM     94  C   UNL A   1      46.471  34.754  27.689  1.00  0.00     0.198 A 
ATOM     95  F   UNL A   1      45.442  33.170  26.288  1.00  0.00    -0.203 F 
ATOM     96  F   UNL A   1      47.600  34.490  31.123  1.00  0.00    -0.200 F 
ATOM     97  C   UNL A   1      47.022  35.097  28.915  1.00  0.00     0.200 A 
ATOM     98  F   UNL A   1      46.413  35.662  26.705  1.00  0.00    -0.200 F 
ATOM     99  F   UNL A   1      47.478  36.340  29.122  1.00  0.00    -0.200 F 
ENDBRANCH  66  89
ENDBRANCH  40  41
ENDBRANCH  32  35
ENDBRANCH  30  31
ENDBRANCH  29  30
ENDBRANCH   1  29
TORSDOF 15
ENDMDL
