MODEL 1
REMARK VINA RESULT:     -11.0      0.000      0.000
REMARK SMILES C[N@H+]1CC[C@H](C[N@@H+](CC(=O)NCCCCNC(=O)c2ccc(-c3c4nc(c(-c5c(F)c(F)c(F)c(F)c5F)c5ccc([nH]5)c(-c5c(F)c(F)c(F)c(F)c5F)c5nc(c(-c6c(F)c(F)c(F)c(F)c6F)c6ccc3[nH]6)C=C5)C=C4)cc2)C2CC2)C1
REMARK SMILES IDX 13 1 12 2 11 3 9 4 10 5 8 7 7 8 6 10 5 11 1 12 2 13 3 14
REMARK SMILES IDX 85 15 4 17 82 18 83 19 84 20 14 21 15 22 16 23 17 24 18 26
REMARK SMILES IDX 19 27 20 28 81 29 21 30 80 31 22 32 23 33 24 34 74 35 25 36
REMARK SMILES IDX 79 37 73 38 75 39 26 40 78 41 72 42 71 43 27 45 59 46 39 47
REMARK SMILES IDX 58 48 40 49 43 50 57 51 76 52 41 53 42 54 56 56 77 57 44 58
REMARK SMILES IDX 28 59 29 60 37 61 30 62 31 63 35 64 38 65 32 66 33 67 36 68
REMARK SMILES IDX 34 69 60 70 61 71 69 72 62 73 63 74 67 75 70 76 64 77 65 78
REMARK SMILES IDX 68 79 66 80 45 81 46 82 54 83 47 84 48 85 52 86 55 87 49 88
REMARK SMILES IDX 50 89 53 90 51 91
REMARK H PARENT 11 6 7 9 2 16 16 25 75 44 43 55
REMARK Flexibility Score: inf
ROOT
ATOM      1  C   UNL A   1      31.897  30.532  26.561  1.00  0.00     0.023 C 
ENDROOT
BRANCH   1   2
ATOM      2  C   UNL A   1      33.359  30.105  26.682  1.00  0.00     0.116 C 
BRANCH   2   3
ATOM      3  N   UNL A   1      33.715  29.182  25.624  1.00  0.00    -0.351 N 
ATOM      4  C   UNL A   1      33.377  27.871  25.435  1.00  0.00     0.275 C 
ATOM      5  O   UNL A   1      33.911  27.300  24.477  1.00  0.00    -0.269 OA
ATOM      6  H   UNL A   1      34.297  29.561  24.925  1.00  0.00     0.163 HD
BRANCH   4   7
ATOM      7  C   UNL A   1      32.358  27.139  26.334  1.00  0.00     0.363 C 
BRANCH   7   8
ATOM      8  N   UNL A   1      31.826  25.844  25.798  1.00  0.00    -0.324 N 
ATOM      9  H   UNL A   1      32.298  25.648  24.916  1.00  0.00     0.348 HD
BRANCH   8  10
ATOM     10  C   UNL A   1      30.387  25.950  25.522  1.00  0.00     0.272 C 
BRANCH  10  11
ATOM     11  C   UNL A   1      29.898  25.949  24.065  1.00  0.00     0.105 C 
ATOM     12  C   UNL A   1      32.467  25.736  21.448  1.00  0.00     0.332 C 
ATOM     13  N   UNL A   1      31.753  26.172  22.643  1.00  0.00    -0.337 N 
ATOM     14  C   UNL A   1      30.959  27.372  22.382  1.00  0.00     0.262 C 
ATOM     15  C   UNL A   1      30.794  25.164  23.114  1.00  0.00     0.271 C 
ATOM     16  H   UNL A   1      32.478  26.342  23.339  1.00  0.00     0.347 HD
ATOM     17  C   UNL A   1      29.946  27.391  23.514  1.00  0.00     0.076 C 
ENDBRANCH  10  11
ENDBRANCH   8  10
BRANCH   8  18
ATOM     18  C   UNL A   1      32.126  24.715  26.713  1.00  0.00     0.184 C 
ATOM     19  C   UNL A   1      31.431  23.391  26.563  1.00  0.00     0.071 C 
ATOM     20  C   UNL A   1      32.880  23.521  26.200  1.00  0.00     0.071 C 
ENDBRANCH   8  18
ENDBRANCH   7   8
ENDBRANCH   4   7
ENDBRANCH   2   3
ENDBRANCH   1   2
BRANCH   1  21
ATOM     21  C   UNL A   1      31.587  31.995  26.797  1.00  0.00     0.023 C 
BRANCH  21  22
ATOM     22  C   UNL A   1      32.771  32.822  27.243  1.00  0.00     0.116 C 
BRANCH  22  23
ATOM     23  N   UNL A   1      32.428  34.177  27.656  1.00  0.00    -0.352 N 
ATOM     24  C   UNL A   1      33.013  34.962  28.626  1.00  0.00     0.251 C 
ATOM     25  H   UNL A   1      31.674  34.589  27.176  1.00  0.00     0.163 HD
ATOM     26  O   UNL A   1      32.550  36.059  28.904  1.00  0.00    -0.269 OA
BRANCH  24  27
ATOM     27  C   UNL A   1      34.181  34.435  29.364  1.00  0.00     0.039 A 
ATOM     28  C   UNL A   1      33.969  33.628  30.484  1.00  0.00     0.014 A 
ATOM     29  C   UNL A   1      35.475  34.669  28.901  1.00  0.00     0.014 A 
ATOM     30  C   UNL A   1      35.055  32.985  31.079  1.00  0.00     0.010 A 
ATOM     31  C   UNL A   1      36.528  33.921  29.401  1.00  0.00     0.010 A 
ATOM     32  C   UNL A   1      36.336  33.089  30.512  1.00  0.00    -0.014 A 
BRANCH  32  33
ATOM     33  C   UNL A   1      37.500  32.370  31.085  1.00  0.00     0.031 A 
ATOM     34  C   UNL A   1      37.981  32.719  32.468  1.00  0.00     0.074 A 
ATOM     35  C   UNL A   1      38.157  31.459  30.343  1.00  0.00     0.049 A 
ATOM     36  N   UNL A   1      39.003  32.244  33.135  1.00  0.00    -0.248 NA
ATOM     37  C   UNL A   1      37.248  33.779  33.181  1.00  0.00     0.031 C 
ATOM     38  C   UNL A   1      37.840  31.101  28.959  1.00  0.00     0.029 A 
ATOM     39  N   UNL A   1      39.233  30.665  30.651  1.00  0.00    -0.354 N 
ATOM     40  C   UNL A   1      39.042  32.963  34.322  1.00  0.00     0.074 A 
ATOM     41  C   UNL A   1      37.999  33.960  34.254  1.00  0.00     0.031 C 
ATOM     42  C   UNL A   1      38.670  30.126  28.554  1.00  0.00     0.029 A 
ATOM     43  C   UNL A   1      39.595  29.811  29.638  1.00  0.00     0.049 A 
ATOM     44  H   UNL A   1      39.701  30.703  31.516  1.00  0.00     0.167 HD
ATOM     45  C   UNL A   1      39.848  32.782  35.394  1.00  0.00     0.037 A 
ATOM     46  C   UNL A   1      40.557  28.870  29.599  1.00  0.00     0.037 A 
ATOM     47  C   UNL A   1      40.848  31.753  35.477  1.00  0.00     0.049 A 
ATOM     48  C   UNL A   1      41.398  28.645  30.827  1.00  0.00     0.074 A 
ATOM     49  C   UNL A   1      41.674  31.432  36.538  1.00  0.00     0.029 A 
ATOM     50  N   UNL A   1      41.147  30.868  34.451  1.00  0.00    -0.354 N 
ATOM     51  N   UNL A   1      41.373  29.275  31.976  1.00  0.00    -0.248 NA
ATOM     52  C   UNL A   1      42.390  27.563  30.757  1.00  0.00     0.031 C 
ATOM     53  C   UNL A   1      42.497  30.372  36.143  1.00  0.00     0.029 A 
ATOM     54  C   UNL A   1      42.151  30.003  34.852  1.00  0.00     0.049 A 
ATOM     55  H   UNL A   1      40.710  30.856  33.569  1.00  0.00     0.167 HD
ATOM     56  C   UNL A   1      42.321  28.651  32.776  1.00  0.00     0.074 A 
ATOM     57  C   UNL A   1      42.889  27.578  31.984  1.00  0.00     0.031 C 
ATOM     58  C   UNL A   1      42.690  28.937  34.048  1.00  0.00     0.037 A 
BRANCH  45  59
ATOM     59  C   UNL A   1      39.658  33.702  36.565  1.00  0.00     0.064 A 
ATOM     60  C   UNL A   1      38.854  33.345  37.660  1.00  0.00     0.173 A 
ATOM     61  C   UNL A   1      40.289  34.955  36.600  1.00  0.00     0.173 A 
ATOM     62  F   UNL A   1      38.212  32.166  37.670  1.00  0.00    -0.203 F 
ATOM     63  C   UNL A   1      38.662  34.220  38.726  1.00  0.00     0.198 A 
ATOM     64  C   UNL A   1      40.121  35.813  37.684  1.00  0.00     0.198 A 
ATOM     65  F   UNL A   1      41.068  35.348  35.581  1.00  0.00    -0.203 F 
ATOM     66  F   UNL A   1      37.839  33.879  39.729  1.00  0.00    -0.200 F 
ATOM     67  C   UNL A   1      39.301  35.449  38.740  1.00  0.00     0.200 A 
ATOM     68  F   UNL A   1      40.747  36.998  37.701  1.00  0.00    -0.200 F 
ATOM     69  F   UNL A   1      39.117  36.289  39.768  1.00  0.00    -0.200 F 
ENDBRANCH  45  59
BRANCH  46  70
ATOM     70  C   UNL A   1      40.728  28.028  28.387  1.00  0.00     0.064 A 
ATOM     71  C   UNL A   1      41.548  28.449  27.330  1.00  0.00     0.173 A 
ATOM     72  C   UNL A   1      40.080  26.792  28.256  1.00  0.00     0.173 A 
ATOM     73  F   UNL A   1      42.176  29.632  27.402  1.00  0.00    -0.203 F 
ATOM     74  C   UNL A   1      41.693  27.679  26.179  1.00  0.00     0.198 A 
ATOM     75  C   UNL A   1      40.248  26.009  27.115  1.00  0.00     0.198 A 
ATOM     76  F   UNL A   1      39.293  26.338  29.242  1.00  0.00    -0.203 F 
ATOM     77  F   UNL A   1      42.445  28.129  25.165  1.00  0.00    -0.200 F 
ATOM     78  C   UNL A   1      41.047  26.458  26.074  1.00  0.00     0.200 A 
ATOM     79  F   UNL A   1      39.634  24.821  27.023  1.00  0.00    -0.200 F 
ATOM     80  F   UNL A   1      41.188  25.715  24.967  1.00  0.00    -0.200 F 
ENDBRANCH  46  70
BRANCH  58  81
ATOM     81  C   UNL A   1      43.729  28.052  34.671  1.00  0.00     0.064 A 
ATOM     82  C   UNL A   1      45.093  28.376  34.631  1.00  0.00     0.173 A 
ATOM     83  C   UNL A   1      43.349  26.878  35.338  1.00  0.00     0.173 A 
ATOM     84  F   UNL A   1      45.506  29.483  33.994  1.00  0.00    -0.203 F 
ATOM     85  C   UNL A   1      46.043  27.536  35.205  1.00  0.00     0.198 A 
ATOM     86  C   UNL A   1      44.299  26.057  35.938  1.00  0.00     0.198 A 
ATOM     87  F   UNL A   1      42.056  26.530  35.412  1.00  0.00    -0.203 F 
ATOM     88  F   UNL A   1      47.345  27.835  35.105  1.00  0.00    -0.200 F 
ATOM     89  C   UNL A   1      45.645  26.381  35.862  1.00  0.00     0.200 A 
ATOM     90  F   UNL A   1      43.913  24.950  36.585  1.00  0.00    -0.200 F 
ATOM     91  F   UNL A   1      46.562  25.575  36.415  1.00  0.00    -0.200 F 
ENDBRANCH  58  81
ENDBRANCH  32  33
ENDBRANCH  24  27
ENDBRANCH  22  23
ENDBRANCH  21  22
ENDBRANCH   1  21
TORSDOF 15
ENDMDL
MODEL 2
REMARK VINA RESULT:     -11.0      1.395      2.219
REMARK SMILES C[N@H+]1CC[C@H](C[N@@H+](CC(=O)NCCCCNC(=O)c2ccc(-c3c4nc(c(-c5c(F)c(F)c(F)c(F)c5F)c5ccc([nH]5)c(-c5c(F)c(F)c(F)c(F)c5F)c5nc(c(-c6c(F)c(F)c(F)c(F)c6F)c6ccc3[nH]6)C=C5)C=C4)cc2)C2CC2)C1
REMARK SMILES IDX 13 1 12 2 11 3 9 4 10 5 8 7 7 8 6 10 5 11 1 12 2 13 3 14
REMARK SMILES IDX 85 15 4 17 82 18 83 19 84 20 14 21 15 22 16 23 17 24 18 26
REMARK SMILES IDX 19 27 20 28 81 29 21 30 80 31 22 32 23 33 24 34 74 35 25 36
REMARK SMILES IDX 79 37 73 38 75 39 26 40 78 41 72 42 71 43 27 45 59 46 39 47
REMARK SMILES IDX 58 48 40 49 43 50 57 51 76 52 41 53 42 54 56 56 77 57 44 58
REMARK SMILES IDX 28 59 29 60 37 61 30 62 31 63 35 64 38 65 32 66 33 67 36 68
REMARK SMILES IDX 34 69 60 70 61 71 69 72 62 73 63 74 67 75 70 76 64 77 65 78
REMARK SMILES IDX 68 79 66 80 45 81 46 82 54 83 47 84 48 85 52 86 55 87 49 88
REMARK SMILES IDX 50 89 53 90 51 91
REMARK H PARENT 11 6 7 9 2 16 16 25 75 44 43 55
REMARK Flexibility Score: inf
ROOT
ATOM      1  C   UNL A   1      31.815  30.178  26.720  1.00  0.00     0.023 C 
ENDROOT
BRANCH   1   2
ATOM      2  C   UNL A   1      33.118  29.499  26.302  1.00  0.00     0.116 C 
BRANCH   2   3
ATOM      3  N   UNL A   1      33.374  29.702  24.890  1.00  0.00    -0.351 N 
ATOM      4  C   UNL A   1      33.043  28.937  23.807  1.00  0.00     0.275 C 
ATOM      5  O   UNL A   1      33.479  29.316  22.714  1.00  0.00    -0.269 OA
ATOM      6  H   UNL A   1      33.867  30.527  24.675  1.00  0.00     0.163 HD
BRANCH   4   7
ATOM      7  C   UNL A   1      32.145  27.686  23.917  1.00  0.00     0.363 C 
BRANCH   7   8
ATOM      8  N   UNL A   1      30.763  27.822  23.350  1.00  0.00    -0.324 N 
ATOM      9  H   UNL A   1      30.689  27.203  22.543  1.00  0.00     0.348 HD
BRANCH   8  10
ATOM     10  C   UNL A   1      30.526  29.194  22.885  1.00  0.00     0.272 C 
BRANCH  10  11
ATOM     11  C   UNL A   1      29.129  29.812  23.044  1.00  0.00     0.105 C 
ATOM     12  C   UNL A   1      28.048  32.171  20.443  1.00  0.00     0.332 C 
ATOM     13  N   UNL A   1      28.873  31.525  21.458  1.00  0.00    -0.337 N 
ATOM     14  C   UNL A   1      28.775  32.215  22.744  1.00  0.00     0.262 C 
ATOM     15  C   UNL A   1      28.447  30.144  21.722  1.00  0.00     0.271 C 
ATOM     16  H   UNL A   1      29.822  31.551  21.085  1.00  0.00     0.347 HD
ATOM     17  C   UNL A   1      29.258  31.181  23.747  1.00  0.00     0.076 C 
ENDBRANCH  10  11
ENDBRANCH   8  10
BRANCH   8  18
ATOM     18  C   UNL A   1      29.733  27.389  24.326  1.00  0.00     0.184 C 
ATOM     19  C   UNL A   1      28.614  26.474  23.917  1.00  0.00     0.071 C 
ATOM     20  C   UNL A   1      29.710  25.965  24.803  1.00  0.00     0.071 C 
ENDBRANCH   8  18
ENDBRANCH   7   8
ENDBRANCH   4   7
ENDBRANCH   2   3
ENDBRANCH   1   2
BRANCH   1  21
ATOM     21  C   UNL A   1      31.735  31.680  26.540  1.00  0.00     0.023 C 
BRANCH  21  22
ATOM     22  C   UNL A   1      32.868  32.449  27.180  1.00  0.00     0.116 C 
BRANCH  22  23
ATOM     23  N   UNL A   1      32.530  33.822  27.534  1.00  0.00    -0.352 N 
ATOM     24  C   UNL A   1      33.111  34.643  28.476  1.00  0.00     0.251 C 
ATOM     25  H   UNL A   1      31.782  34.218  27.032  1.00  0.00     0.163 HD
ATOM     26  O   UNL A   1      32.653  35.752  28.705  1.00  0.00    -0.269 OA
BRANCH  24  27
ATOM     27  C   UNL A   1      34.271  34.140  29.245  1.00  0.00     0.039 A 
ATOM     28  C   UNL A   1      34.055  33.230  30.282  1.00  0.00     0.014 A 
ATOM     29  C   UNL A   1      35.569  34.501  28.884  1.00  0.00     0.014 A 
ATOM     30  C   UNL A   1      35.149  32.618  30.894  1.00  0.00     0.010 A 
ATOM     31  C   UNL A   1      36.644  33.790  29.392  1.00  0.00     0.010 A 
ATOM     32  C   UNL A   1      36.450  32.858  30.420  1.00  0.00    -0.014 A 
BRANCH  32  33
ATOM     33  C   UNL A   1      37.629  32.178  31.009  1.00  0.00     0.031 A 
ATOM     34  C   UNL A   1      38.092  32.557  32.391  1.00  0.00     0.074 A 
ATOM     35  C   UNL A   1      38.315  31.276  30.283  1.00  0.00     0.049 A 
ATOM     36  N   UNL A   1      39.122  32.118  33.069  1.00  0.00    -0.248 NA
ATOM     37  C   UNL A   1      37.326  33.606  33.086  1.00  0.00     0.031 C 
ATOM     38  C   UNL A   1      38.016  30.892  28.901  1.00  0.00     0.029 A 
ATOM     39  N   UNL A   1      39.410  30.515  30.607  1.00  0.00    -0.354 N 
ATOM     40  C   UNL A   1      39.135  32.852  34.248  1.00  0.00     0.074 A 
ATOM     41  C   UNL A   1      38.065  33.820  34.161  1.00  0.00     0.031 C 
ATOM     42  C   UNL A   1      38.875  29.935  28.514  1.00  0.00     0.029 A 
ATOM     43  C   UNL A   1      39.800  29.658  29.607  1.00  0.00     0.049 A 
ATOM     44  H   UNL A   1      39.871  30.576  31.475  1.00  0.00     0.167 HD
ATOM     45  C   UNL A   1      39.938  32.706  35.327  1.00  0.00     0.037 A 
ATOM     46  C   UNL A   1      40.788  28.743  29.586  1.00  0.00     0.037 A 
ATOM     47  C   UNL A   1      40.964  31.705  35.428  1.00  0.00     0.049 A 
ATOM     48  C   UNL A   1      41.627  28.556  30.821  1.00  0.00     0.074 A 
ATOM     49  C   UNL A   1      41.792  31.420  36.499  1.00  0.00     0.029 A 
ATOM     50  N   UNL A   1      41.294  30.816  34.416  1.00  0.00    -0.354 N 
ATOM     51  N   UNL A   1      41.577  29.199  31.963  1.00  0.00    -0.248 NA
ATOM     52  C   UNL A   1      42.648  27.500  30.771  1.00  0.00     0.031 C 
ATOM     53  C   UNL A   1      42.646  30.377  36.122  1.00  0.00     0.029 A 
ATOM     54  C   UNL A   1      42.318  29.984  34.834  1.00  0.00     0.049 A 
ATOM     55  H   UNL A   1      40.863  30.781  33.531  1.00  0.00     0.167 HD
ATOM     56  C   UNL A   1      42.537  28.611  32.775  1.00  0.00     0.074 A 
ATOM     57  C   UNL A   1      43.138  27.543  32.001  1.00  0.00     0.031 C 
ATOM     58  C   UNL A   1      42.891  28.923  34.046  1.00  0.00     0.037 A 
BRANCH  45  59
ATOM     59  C   UNL A   1      39.716  33.636  36.485  1.00  0.00     0.064 A 
ATOM     60  C   UNL A   1      40.345  34.890  36.553  1.00  0.00     0.173 A 
ATOM     61  C   UNL A   1      38.861  33.276  37.537  1.00  0.00     0.173 A 
ATOM     62  F   UNL A   1      41.187  35.277  35.582  1.00  0.00    -0.203 F 
ATOM     63  C   UNL A   1      40.155  35.730  37.647  1.00  0.00     0.198 A 
ATOM     64  C   UNL A   1      38.647  34.134  38.613  1.00  0.00     0.198 A 
ATOM     65  F   UNL A   1      38.234  32.089  37.524  1.00  0.00    -0.203 F 
ATOM     66  F   UNL A   1      40.816  36.895  37.717  1.00  0.00    -0.200 F 
ATOM     67  C   UNL A   1      39.301  35.355  38.671  1.00  0.00     0.200 A 
ATOM     68  F   UNL A   1      37.813  33.775  39.599  1.00  0.00    -0.200 F 
ATOM     69  F   UNL A   1      39.117  36.166  39.722  1.00  0.00    -0.200 F 
ENDBRANCH  45  59
BRANCH  46  70
ATOM     70  C   UNL A   1      40.989  27.891  28.386  1.00  0.00     0.064 A 
ATOM     71  C   UNL A   1      41.814  28.315  27.334  1.00  0.00     0.173 A 
ATOM     72  C   UNL A   1      40.366  26.642  28.261  1.00  0.00     0.173 A 
ATOM     73  F   UNL A   1      42.419  29.510  27.399  1.00  0.00    -0.203 F 
ATOM     74  C   UNL A   1      41.987  27.535  26.193  1.00  0.00     0.198 A 
ATOM     75  C   UNL A   1      40.562  25.849  27.131  1.00  0.00     0.198 A 
ATOM     76  F   UNL A   1      39.575  26.184  29.243  1.00  0.00    -0.203 F 
ATOM     77  F   UNL A   1      42.743  27.988  25.183  1.00  0.00    -0.200 F 
ATOM     78  C   UNL A   1      41.365  26.301  26.094  1.00  0.00     0.200 A 
ATOM     79  F   UNL A   1      39.971  24.649  27.046  1.00  0.00    -0.200 F 
ATOM     80  F   UNL A   1      41.533  25.549  24.998  1.00  0.00    -0.200 F 
ENDBRANCH  46  70
BRANCH  58  81
ATOM     81  C   UNL A   1      43.948  28.074  34.687  1.00  0.00     0.064 A 
ATOM     82  C   UNL A   1      45.307  28.418  34.624  1.00  0.00     0.173 A 
ATOM     83  C   UNL A   1      43.593  26.915  35.393  1.00  0.00     0.173 A 
ATOM     84  F   UNL A   1      45.696  29.510  33.949  1.00  0.00    -0.203 F 
ATOM     85  C   UNL A   1      46.275  27.611  35.215  1.00  0.00     0.198 A 
ATOM     86  C   UNL A   1      44.561  26.128  36.009  1.00  0.00     0.198 A 
ATOM     87  F   UNL A   1      42.307  26.549  35.490  1.00  0.00    -0.203 F 
ATOM     88  F   UNL A   1      47.571  27.926  35.093  1.00  0.00    -0.200 F 
ATOM     89  C   UNL A   1      45.901  26.470  35.911  1.00  0.00     0.200 A 
ATOM     90  F   UNL A   1      44.198  25.035  36.693  1.00  0.00    -0.200 F 
ATOM     91  F   UNL A   1      46.835  25.696  36.480  1.00  0.00    -0.200 F 
ENDBRANCH  58  81
ENDBRANCH  32  33
ENDBRANCH  24  27
ENDBRANCH  22  23
ENDBRANCH  21  22
ENDBRANCH   1  21
TORSDOF 15
ENDMDL
MODEL 3
REMARK VINA RESULT:     -10.9      2.102      3.367
REMARK SMILES C[N@H+]1CC[C@H](C[N@@H+](CC(=O)NCCCCNC(=O)c2ccc(-c3c4nc(c(-c5c(F)c(F)c(F)c(F)c5F)c5ccc([nH]5)c(-c5c(F)c(F)c(F)c(F)c5F)c5nc(c(-c6c(F)c(F)c(F)c(F)c6F)c6ccc3[nH]6)C=C5)C=C4)cc2)C2CC2)C1
REMARK SMILES IDX 13 1 12 2 11 3 9 4 10 5 8 7 7 8 6 10 5 11 1 12 2 13 3 14
REMARK SMILES IDX 85 15 4 17 82 18 83 19 84 20 14 21 15 22 16 23 17 24 18 26
REMARK SMILES IDX 19 27 20 28 81 29 21 30 80 31 22 32 23 33 24 34 74 35 25 36
REMARK SMILES IDX 79 37 73 38 75 39 26 40 78 41 72 42 71 43 27 45 59 46 39 47
REMARK SMILES IDX 58 48 40 49 43 50 57 51 76 52 41 53 42 54 56 56 77 57 44 58
REMARK SMILES IDX 28 59 29 60 37 61 30 62 31 63 35 64 38 65 32 66 33 67 36 68
REMARK SMILES IDX 34 69 60 70 61 71 69 72 62 73 63 74 67 75 70 76 64 77 65 78
REMARK SMILES IDX 68 79 66 80 45 81 46 82 54 83 47 84 48 85 52 86 55 87 49 88
REMARK SMILES IDX 50 89 53 90 51 91
REMARK H PARENT 11 6 7 9 2 16 16 25 75 44 43 55
REMARK Flexibility Score: inf
ROOT
ATOM      1  C   UNL A   1      32.210  27.236  25.777  1.00  0.00     0.023 C 
ENDROOT
BRANCH   1   2
ATOM      2  C   UNL A   1      31.563  26.771  24.474  1.00  0.00     0.116 C 
BRANCH   2   3
ATOM      3  N   UNL A   1      32.461  26.968  23.354  1.00  0.00    -0.351 N 
ATOM      4  C   UNL A   1      32.942  26.082  22.432  1.00  0.00     0.275 C 
ATOM      5  O   UNL A   1      33.778  26.520  21.634  1.00  0.00    -0.269 OA
ATOM      6  H   UNL A   1      32.776  27.894  23.237  1.00  0.00     0.163 HD
BRANCH   4   7
ATOM      7  C   UNL A   1      32.454  24.619  22.354  1.00  0.00     0.363 C 
BRANCH   7   8
ATOM      8  N   UNL A   1      32.918  23.716  23.458  1.00  0.00    -0.324 N 
ATOM      9  H   UNL A   1      33.074  24.285  24.289  1.00  0.00     0.348 HD
BRANCH   8  10
ATOM     10  C   UNL A   1      34.194  23.080  23.105  1.00  0.00     0.272 C 
BRANCH  10  11
ATOM     11  C   UNL A   1      35.503  23.656  23.665  1.00  0.00     0.105 C 
ATOM     12  C   UNL A   1      37.856  21.274  25.176  1.00  0.00     0.332 C 
ATOM     13  N   UNL A   1      36.615  21.977  24.872  1.00  0.00    -0.337 N 
ATOM     14  C   UNL A   1      36.322  23.000  25.876  1.00  0.00     0.262 C 
ATOM     15  C   UNL A   1      36.682  22.693  23.592  1.00  0.00     0.271 C 
ATOM     16  H   UNL A   1      35.898  21.252  24.850  1.00  0.00     0.347 HD
ATOM     17  C   UNL A   1      35.334  23.920  25.177  1.00  0.00     0.076 C 
ENDBRANCH  10  11
ENDBRANCH   8  10
BRANCH   8  18
ATOM     18  C   UNL A   1      31.883  22.711  23.805  1.00  0.00     0.184 C 
ATOM     19  C   UNL A   1      32.254  21.415  24.468  1.00  0.00     0.071 C 
ATOM     20  C   UNL A   1      31.532  22.472  25.246  1.00  0.00     0.071 C 
ENDBRANCH   8  18
ENDBRANCH   7   8
ENDBRANCH   4   7
ENDBRANCH   2   3
ENDBRANCH   1   2
BRANCH   1  21
ATOM     21  C   UNL A   1      31.871  28.633  26.252  1.00  0.00     0.023 C 
BRANCH  21  22
ATOM     22  C   UNL A   1      32.887  29.687  25.875  1.00  0.00     0.116 C 
BRANCH  22  23
ATOM     23  N   UNL A   1      32.568  31.023  26.364  1.00  0.00    -0.352 N 
ATOM     24  C   UNL A   1      33.290  31.830  27.216  1.00  0.00     0.251 C 
ATOM     25  H   UNL A   1      31.719  31.401  26.042  1.00  0.00     0.163 HD
ATOM     26  O   UNL A   1      32.840  32.902  27.592  1.00  0.00    -0.269 OA
BRANCH  24  27
ATOM     27  C   UNL A   1      34.600  31.354  27.713  1.00  0.00     0.039 A 
ATOM     28  C   UNL A   1      35.620  32.281  27.934  1.00  0.00     0.014 A 
ATOM     29  C   UNL A   1      34.787  30.010  28.038  1.00  0.00     0.014 A 
ATOM     30  C   UNL A   1      36.794  31.869  28.565  1.00  0.00     0.010 A 
ATOM     31  C   UNL A   1      35.888  29.635  28.791  1.00  0.00     0.010 A 
ATOM     32  C   UNL A   1      36.917  30.553  29.041  1.00  0.00    -0.014 A 
BRANCH  32  33
ATOM     33  C   UNL A   1      38.127  30.100  29.770  1.00  0.00     0.031 A 
ATOM     34  C   UNL A   1      38.366  30.574  31.178  1.00  0.00     0.074 A 
ATOM     35  C   UNL A   1      39.034  29.325  29.147  1.00  0.00     0.049 A 
ATOM     36  N   UNL A   1      39.379  30.334  31.973  1.00  0.00    -0.248 NA
ATOM     37  C   UNL A   1      37.359  31.479  31.757  1.00  0.00     0.031 C 
ATOM     38  C   UNL A   1      38.956  28.876  27.754  1.00  0.00     0.029 A 
ATOM     39  N   UNL A   1      40.204  28.775  29.606  1.00  0.00    -0.354 N 
ATOM     40  C   UNL A   1      39.137  31.075  33.122  1.00  0.00     0.074 A 
ATOM     41  C   UNL A   1      37.930  31.836  32.895  1.00  0.00     0.031 C 
ATOM     42  C   UNL A   1      40.006  28.082  27.488  1.00  0.00     0.029 A 
ATOM     43  C   UNL A   1      40.843  27.988  28.679  1.00  0.00     0.049 A 
ATOM     44  H   UNL A   1      40.552  28.929  30.514  1.00  0.00     0.167 HD
ATOM     45  C   UNL A   1      39.834  31.088  34.282  1.00  0.00     0.037 A 
ATOM     46  C   UNL A   1      41.972  27.263  28.788  1.00  0.00     0.037 A 
ATOM     47  C   UNL A   1      41.003  30.287  34.520  1.00  0.00     0.049 A 
ATOM     48  C   UNL A   1      42.695  27.244  30.108  1.00  0.00     0.074 A 
ATOM     49  C   UNL A   1      41.749  30.167  35.678  1.00  0.00     0.029 A 
ATOM     50  N   UNL A   1      41.589  29.457  33.576  1.00  0.00    -0.354 N 
ATOM     51  N   UNL A   1      42.412  27.884  31.218  1.00  0.00    -0.248 NA
ATOM     52  C   UNL A   1      43.885  26.386  30.197  1.00  0.00     0.031 C 
ATOM     53  C   UNL A   1      42.808  29.288  35.425  1.00  0.00     0.029 A 
ATOM     54  C   UNL A   1      42.693  28.825  34.123  1.00  0.00     0.049 A 
ATOM     55  H   UNL A   1      41.268  29.334  32.653  1.00  0.00     0.167 HD
ATOM     56  C   UNL A   1      43.368  27.486  32.143  1.00  0.00     0.074 A 
ATOM     57  C   UNL A   1      44.226  26.532  31.468  1.00  0.00     0.031 C 
ATOM     58  C   UNL A   1      43.524  27.873  33.433  1.00  0.00     0.037 A 
BRANCH  45  59
ATOM     59  C   UNL A   1      39.330  31.979  35.381  1.00  0.00     0.064 A 
ATOM     60  C   UNL A   1      39.710  33.328  35.467  1.00  0.00     0.173 A 
ATOM     61  C   UNL A   1      38.453  31.484  36.357  1.00  0.00     0.173 A 
ATOM     62  F   UNL A   1      40.562  33.848  34.570  1.00  0.00    -0.203 F 
ATOM     63  C   UNL A   1      39.260  34.136  36.508  1.00  0.00     0.198 A 
ATOM     64  C   UNL A   1      37.978  32.304  37.378  1.00  0.00     0.198 A 
ATOM     65  F   UNL A   1      38.057  30.202  36.324  1.00  0.00    -0.203 F 
ATOM     66  F   UNL A   1      39.688  35.403  36.602  1.00  0.00    -0.200 F 
ATOM     67  C   UNL A   1      38.389  33.626  37.457  1.00  0.00     0.200 A 
ATOM     68  F   UNL A   1      37.128  31.812  38.290  1.00  0.00    -0.200 F 
ATOM     69  F   UNL A   1      37.955  34.405  38.457  1.00  0.00    -0.200 F 
ENDBRANCH  45  59
BRANCH  46  70
ATOM     70  C   UNL A   1      42.447  26.444  27.643  1.00  0.00     0.064 A 
ATOM     71  C   UNL A   1      43.408  26.944  26.752  1.00  0.00     0.173 A 
ATOM     72  C   UNL A   1      41.954  25.153  27.411  1.00  0.00     0.173 A 
ATOM     73  F   UNL A   1      43.897  28.181  26.922  1.00  0.00    -0.203 F 
ATOM     74  C   UNL A   1      43.839  26.194  25.660  1.00  0.00     0.198 A 
ATOM     75  C   UNL A   1      42.406  24.392  26.334  1.00  0.00     0.198 A 
ATOM     76  F   UNL A   1      41.041  24.623  28.239  1.00  0.00    -0.203 F 
ATOM     77  F   UNL A   1      44.723  26.717  24.799  1.00  0.00    -0.200 F 
ATOM     78  C   UNL A   1      43.341  24.918  25.454  1.00  0.00     0.200 A 
ATOM     79  F   UNL A   1      41.935  23.152  26.147  1.00  0.00    -0.200 F 
ATOM     80  F   UNL A   1      43.757  24.194  24.405  1.00  0.00    -0.200 F 
ENDBRANCH  46  70
BRANCH  58  81
ATOM     81  C   UNL A   1      44.639  27.234  34.205  1.00  0.00     0.064 A 
ATOM     82  C   UNL A   1      45.918  27.807  34.263  1.00  0.00     0.173 A 
ATOM     83  C   UNL A   1      44.417  26.046  34.916  1.00  0.00     0.173 A 
ATOM     84  F   UNL A   1      46.182  28.937  33.588  1.00  0.00    -0.203 F 
ATOM     85  C   UNL A   1      46.944  27.193  34.975  1.00  0.00     0.198 A 
ATOM     86  C   UNL A   1      45.437  25.452  35.654  1.00  0.00     0.198 A 
ATOM     87  F   UNL A   1      43.209  25.464  34.901  1.00  0.00    -0.203 F 
ATOM     88  F   UNL A   1      48.173  27.727  34.969  1.00  0.00    -0.200 F 
ATOM     89  C   UNL A   1      46.701  26.020  35.674  1.00  0.00     0.200 A 
ATOM     90  F   UNL A   1      45.197  24.326  36.340  1.00  0.00    -0.200 F 
ATOM     91  F   UNL A   1      47.691  25.431  36.360  1.00  0.00    -0.200 F 
ENDBRANCH  58  81
ENDBRANCH  32  33
ENDBRANCH  24  27
ENDBRANCH  22  23
ENDBRANCH  21  22
ENDBRANCH   1  21
TORSDOF 15
ENDMDL
