MODEL 1
REMARK VINA RESULT:     -11.4      0.000      0.000
REMARK SMILES Cc1c(CC(=O)NCCCCNC(=O)c2ccc(-c3c4nc(c(-c5c(F)c(F)c(F)c(F)c5F)c5ccc([nH]5)c(-c5c(F)c(F)c(F)c(F)c5F)c5nc(c(-c6c(F)c(F)c(F)c(F)c6F)c6ccc3[nH]6)C=C5)C=C4)cc2)cc(-c2ccc(S(C)(=O)=O)cc2)n1-c1ccccc1
REMARK SMILES IDX 9 1 8 2 7 3 5 4 6 5 4 7 3 8 1 9 2 10 90 11 78 12 79 13 91 14
REMARK SMILES IDX 92 15 96 16 93 17 95 18 94 19 80 20 81 21 89 22 82 23 88 24
REMARK SMILES IDX 83 25 84 26 85 27 86 28 87 29 10 30 11 31 12 32 13 33 14 35
REMARK SMILES IDX 15 36 16 37 77 38 17 39 76 40 18 41 19 42 20 43 70 44 21 45
REMARK SMILES IDX 75 46 69 47 71 48 22 49 74 50 68 51 67 52 23 54 55 55 35 56
REMARK SMILES IDX 54 57 36 58 39 59 53 60 72 61 37 62 38 63 52 65 73 66 40 67
REMARK SMILES IDX 24 68 25 69 33 70 26 71 27 72 31 73 34 74 28 75 29 76 32 77
REMARK SMILES IDX 30 78 56 79 57 80 65 81 58 82 59 83 63 84 66 85 60 86 61 87
REMARK SMILES IDX 64 88 62 89 41 90 42 91 50 92 43 93 44 94 48 95 51 96 45 97
REMARK SMILES IDX 46 98 49 99 47 100
REMARK H PARENT 7 6 12 34 71 53 39 64
REMARK Flexibility Score: inf
ROOT
ATOM      1  C   UNL A   1      41.691  27.600  36.371  1.00  0.00     0.023 C 
ENDROOT
BRANCH   1   2
ATOM      2  C   UNL A   1      41.540  28.419  35.089  1.00  0.00     0.116 C 
BRANCH   2   3
ATOM      3  N   UNL A   1      41.646  29.848  35.325  1.00  0.00    -0.356 N 
ATOM      4  C   UNL A   1      40.678  30.775  35.571  1.00  0.00     0.224 C 
ATOM      5  O   UNL A   1      41.038  31.932  35.798  1.00  0.00    -0.275 OA
ATOM      6  H   UNL A   1      42.564  30.204  35.305  1.00  0.00     0.163 HD
BRANCH   4   7
ATOM      7  C   UNL A   1      39.215  30.379  35.597  1.00  0.00     0.137 C 
BRANCH   7   8
ATOM      8  C   UNL A   1      38.426  30.966  34.467  1.00  0.00    -0.017 A 
ATOM      9  C   UNL A   1      39.070  29.353  32.552  1.00  0.00     0.065 C 
ATOM     10  C   UNL A   1      38.333  30.505  33.159  1.00  0.00     0.024 A 
ATOM     11  N   UNL A   1      37.485  31.355  32.456  1.00  0.00    -0.314 N 
ATOM     12  C   UNL A   1      37.638  32.140  34.546  1.00  0.00     0.033 A 
ATOM     13  C   UNL A   1      37.020  32.341  33.327  1.00  0.00     0.053 A 
BRANCH  11  14
ATOM     14  C   UNL A   1      37.166  31.271  31.073  1.00  0.00     0.046 A 
ATOM     15  C   UNL A   1      36.237  30.316  30.641  1.00  0.00     0.026 A 
ATOM     16  C   UNL A   1      37.799  32.113  30.152  1.00  0.00     0.026 A 
ATOM     17  C   UNL A   1      35.936  30.209  29.285  1.00  0.00     0.002 A 
ATOM     18  C   UNL A   1      37.504  31.986  28.794  1.00  0.00     0.002 A 
ATOM     19  C   UNL A   1      36.572  31.039  28.362  1.00  0.00     0.000 A 
ENDBRANCH  11  14
BRANCH  13  20
ATOM     20  C   UNL A   1      35.984  33.333  33.018  1.00  0.00    -0.001 A 
ATOM     21  C   UNL A   1      36.317  34.684  32.833  1.00  0.00     0.011 A 
ATOM     22  C   UNL A   1      34.650  32.931  32.864  1.00  0.00     0.011 A 
ATOM     23  C   UNL A   1      35.332  35.626  32.527  1.00  0.00     0.021 A 
ATOM     24  C   UNL A   1      33.658  33.867  32.563  1.00  0.00     0.021 A 
ATOM     25  C   UNL A   1      34.003  35.210  32.406  1.00  0.00     0.067 A 
BRANCH  25  26
ATOM     26  S   UNL A   1      32.764  36.413  31.989  1.00  0.00     0.175 S 
ATOM     27  C   UNL A   1      31.290  35.809  32.770  1.00  0.00     0.163 C 
ATOM     28  O   UNL A   1      33.141  37.650  32.611  1.00  0.00    -0.224 OA
ATOM     29  O   UNL A   1      32.547  36.331  30.544  1.00  0.00    -0.224 OA
ENDBRANCH  25  26
ENDBRANCH  13  20
ENDBRANCH   7   8
ENDBRANCH   4   7
ENDBRANCH   2   3
ENDBRANCH   1   2
BRANCH   1  30
ATOM     30  C   UNL A   1      41.837  26.073  36.208  1.00  0.00     0.023 C 
BRANCH  30  31
ATOM     31  C   UNL A   1      43.028  25.358  36.876  1.00  0.00     0.116 C 
BRANCH  31  32
ATOM     32  N   UNL A   1      43.917  26.196  37.644  1.00  0.00    -0.352 N 
ATOM     33  C   UNL A   1      45.054  26.841  37.182  1.00  0.00     0.251 C 
ATOM     34  H   UNL A   1      43.693  26.323  38.594  1.00  0.00     0.163 HD
ATOM     35  O   UNL A   1      45.720  27.508  37.974  1.00  0.00    -0.269 OA
BRANCH  33  36
ATOM     36  C   UNL A   1      45.551  26.663  35.767  1.00  0.00     0.039 A 
ATOM     37  C   UNL A   1      45.019  27.486  34.790  1.00  0.00     0.014 A 
ATOM     38  C   UNL A   1      46.342  25.589  35.317  1.00  0.00     0.014 A 
ATOM     39  C   UNL A   1      45.314  27.258  33.414  1.00  0.00     0.010 A 
ATOM     40  C   UNL A   1      46.561  25.309  33.897  1.00  0.00     0.010 A 
ATOM     41  C   UNL A   1      46.031  26.123  32.878  1.00  0.00    -0.014 A 
BRANCH  41  42
ATOM     42  C   UNL A   1      45.671  25.712  31.350  1.00  0.00     0.031 A 
ATOM     43  C   UNL A   1      46.330  26.805  30.572  1.00  0.00     0.074 A 
ATOM     44  C   UNL A   1      44.948  24.828  30.543  1.00  0.00     0.049 A 
ATOM     45  N   UNL A   1      46.033  28.053  30.815  1.00  0.00    -0.248 NA
ATOM     46  C   UNL A   1      47.590  26.600  29.853  1.00  0.00     0.031 C 
ATOM     47  C   UNL A   1      44.060  23.728  30.952  1.00  0.00     0.029 A 
ATOM     48  N   UNL A   1      44.839  24.696  29.113  1.00  0.00    -0.354 N 
ATOM     49  C   UNL A   1      46.898  28.803  30.060  1.00  0.00     0.074 A 
ATOM     50  C   UNL A   1      47.958  27.876  29.689  1.00  0.00     0.031 C 
ATOM     51  C   UNL A   1      43.619  22.999  29.881  1.00  0.00     0.029 A 
ATOM     52  C   UNL A   1      44.098  23.558  28.616  1.00  0.00     0.049 A 
ATOM     53  H   UNL A   1      45.249  25.350  28.502  1.00  0.00     0.167 HD
ATOM     54  C   UNL A   1      46.321  29.781  29.307  1.00  0.00     0.037 A 
ATOM     55  C   UNL A   1      43.806  23.134  27.317  1.00  0.00     0.037 A 
ATOM     56  C   UNL A   1      46.196  29.394  27.930  1.00  0.00     0.049 A 
ATOM     57  C   UNL A   1      43.952  24.291  26.426  1.00  0.00     0.074 A 
ATOM     58  C   UNL A   1      47.040  28.725  27.064  1.00  0.00     0.029 A 
ATOM     59  N   UNL A   1      44.919  29.216  27.439  1.00  0.00    -0.354 N 
ATOM     60  N   UNL A   1      43.015  25.183  26.322  1.00  0.00    -0.248 NA
ATOM     61  C   UNL A   1      45.067  24.448  25.497  1.00  0.00     0.031 C 
ATOM     62  C   UNL A   1      46.224  27.710  26.520  1.00  0.00     0.029 A 
ATOM     63  C   UNL A   1      44.891  28.041  26.729  1.00  0.00     0.049 A 
ATOM     64  H   UNL A   1      44.159  29.828  27.574  1.00  0.00     0.167 HD
ATOM     65  C   UNL A   1      43.672  26.237  25.786  1.00  0.00     0.074 A 
ATOM     66  C   UNL A   1      44.769  25.665  25.031  1.00  0.00     0.031 C 
ATOM     67  C   UNL A   1      43.635  27.371  26.526  1.00  0.00     0.037 A 
BRANCH  54  68
ATOM     68  C   UNL A   1      45.286  30.576  30.051  1.00  0.00     0.064 A 
ATOM     69  C   UNL A   1      45.574  31.892  30.417  1.00  0.00     0.173 A 
ATOM     70  C   UNL A   1      44.077  30.020  30.520  1.00  0.00     0.173 A 
ATOM     71  F   UNL A   1      46.673  32.497  29.939  1.00  0.00    -0.203 F 
ATOM     72  C   UNL A   1      44.728  32.597  31.271  1.00  0.00     0.198 A 
ATOM     73  C   UNL A   1      43.273  30.696  31.427  1.00  0.00     0.198 A 
ATOM     74  F   UNL A   1      43.657  28.820  30.084  1.00  0.00    -0.203 F 
ATOM     75  F   UNL A   1      45.002  33.871  31.579  1.00  0.00    -0.200 F 
ATOM     76  C   UNL A   1      43.602  31.985  31.808  1.00  0.00     0.200 A 
ATOM     77  F   UNL A   1      42.179  30.102  31.922  1.00  0.00    -0.200 F 
ATOM     78  F   UNL A   1      42.816  32.649  32.666  1.00  0.00    -0.200 F 
ENDBRANCH  54  68
BRANCH  55  79
ATOM     79  C   UNL A   1      43.219  21.976  26.459  1.00  0.00     0.064 A 
ATOM     80  C   UNL A   1      44.079  20.990  25.857  1.00  0.00     0.173 A 
ATOM     81  C   UNL A   1      41.899  21.533  26.627  1.00  0.00     0.173 A 
ATOM     82  F   UNL A   1      45.362  21.264  25.579  1.00  0.00    -0.203 F 
ATOM     83  C   UNL A   1      43.691  19.666  25.588  1.00  0.00     0.198 A 
ATOM     84  C   UNL A   1      41.496  20.209  26.303  1.00  0.00     0.198 A 
ATOM     85  F   UNL A   1      40.996  22.335  27.205  1.00  0.00    -0.203 F 
ATOM     86  F   UNL A   1      44.597  18.765  25.169  1.00  0.00    -0.200 F 
ATOM     87  C   UNL A   1      42.397  19.270  25.825  1.00  0.00     0.200 A 
ATOM     88  F   UNL A   1      40.233  19.821  26.535  1.00  0.00    -0.200 F 
ATOM     89  F   UNL A   1      42.032  17.992  25.628  1.00  0.00    -0.200 F 
ENDBRANCH  55  79
BRANCH  67  90
ATOM     90  C   UNL A   1      42.314  27.672  27.221  1.00  0.00     0.064 A 
ATOM     91  C   UNL A   1      41.828  27.069  28.410  1.00  0.00     0.173 A 
ATOM     92  C   UNL A   1      41.420  28.527  26.566  1.00  0.00     0.173 A 
ATOM     93  F   UNL A   1      42.614  26.330  29.201  1.00  0.00    -0.203 F 
ATOM     94  C   UNL A   1      40.504  27.213  28.830  1.00  0.00     0.198 A 
ATOM     95  C   UNL A   1      40.113  28.716  27.020  1.00  0.00     0.198 A 
ATOM     96  F   UNL A   1      41.818  29.195  25.474  1.00  0.00    -0.203 F 
ATOM     97  F   UNL A   1      40.061  26.549  29.909  1.00  0.00    -0.200 F 
ATOM     98  C   UNL A   1      39.644  28.033  28.129  1.00  0.00     0.200 A 
ATOM     99  F   UNL A   1      39.302  29.558  26.364  1.00  0.00    -0.200 F 
ATOM    100  F   UNL A   1      38.372  28.180  28.527  1.00  0.00    -0.200 F 
ENDBRANCH  67  90
ENDBRANCH  41  42
ENDBRANCH  33  36
ENDBRANCH  31  32
ENDBRANCH  30  31
ENDBRANCH   1  30
TORSDOF 15
ENDMDL
MODEL 2
REMARK VINA RESULT:     -11.2      9.231     13.855
REMARK SMILES Cc1c(CC(=O)NCCCCNC(=O)c2ccc(-c3c4nc(c(-c5c(F)c(F)c(F)c(F)c5F)c5ccc([nH]5)c(-c5c(F)c(F)c(F)c(F)c5F)c5nc(c(-c6c(F)c(F)c(F)c(F)c6F)c6ccc3[nH]6)C=C5)C=C4)cc2)cc(-c2ccc(S(C)(=O)=O)cc2)n1-c1ccccc1
REMARK SMILES IDX 9 1 8 2 7 3 5 4 6 5 4 7 3 8 1 9 2 10 90 11 78 12 79 13 91 14
REMARK SMILES IDX 92 15 96 16 93 17 95 18 94 19 80 20 81 21 89 22 82 23 88 24
REMARK SMILES IDX 83 25 84 26 85 27 86 28 87 29 10 30 11 31 12 32 13 33 14 35
REMARK SMILES IDX 15 36 16 37 77 38 17 39 76 40 18 41 19 42 20 43 70 44 21 45
REMARK SMILES IDX 75 46 69 47 71 48 22 49 74 50 68 51 67 52 23 54 55 55 35 56
REMARK SMILES IDX 54 57 36 58 39 59 53 60 72 61 37 62 38 63 52 65 73 66 40 67
REMARK SMILES IDX 24 68 25 69 33 70 26 71 27 72 31 73 34 74 28 75 29 76 32 77
REMARK SMILES IDX 30 78 56 79 57 80 65 81 58 82 59 83 63 84 66 85 60 86 61 87
REMARK SMILES IDX 64 88 62 89 41 90 42 91 50 92 43 93 44 94 48 95 51 96 45 97
REMARK SMILES IDX 46 98 49 99 47 100
REMARK H PARENT 7 6 12 34 71 53 39 64
REMARK Flexibility Score: inf
ROOT
ATOM      1  C   UNL A   1      41.882  39.254  27.236  1.00  0.00     0.023 C 
ENDROOT
BRANCH   1   2
ATOM      2  C   UNL A   1      41.904  40.736  26.867  1.00  0.00     0.116 C 
BRANCH   2   3
ATOM      3  N   UNL A   1      41.776  40.957  25.437  1.00  0.00    -0.356 N 
ATOM      4  C   UNL A   1      42.515  41.732  24.595  1.00  0.00     0.224 C 
ATOM      5  O   UNL A   1      42.235  41.702  23.395  1.00  0.00    -0.275 OA
ATOM      6  H   UNL A   1      41.038  40.467  25.007  1.00  0.00     0.163 HD
BRANCH   4   7
ATOM      7  C   UNL A   1      43.662  42.571  25.122  1.00  0.00     0.137 C 
BRANCH   7   8
ATOM      8  C   UNL A   1      44.511  43.157  24.035  1.00  0.00    -0.017 A 
ATOM      9  C   UNL A   1      46.649  41.725  24.279  1.00  0.00     0.065 C 
ATOM     10  C   UNL A   1      45.787  42.771  23.644  1.00  0.00     0.024 A 
ATOM     11  N   UNL A   1      46.188  43.588  22.591  1.00  0.00    -0.314 N 
ATOM     12  C   UNL A   1      44.145  44.253  23.216  1.00  0.00     0.033 A 
ATOM     13  C   UNL A   1      45.152  44.475  22.297  1.00  0.00     0.053 A 
BRANCH  11  14
ATOM     14  C   UNL A   1      47.450  43.562  21.939  1.00  0.00     0.046 A 
ATOM     15  C   UNL A   1      48.504  44.326  22.457  1.00  0.00     0.026 A 
ATOM     16  C   UNL A   1      47.627  42.807  20.775  1.00  0.00     0.026 A 
ATOM     17  C   UNL A   1      49.739  44.327  21.811  1.00  0.00     0.002 A 
ATOM     18  C   UNL A   1      48.862  42.828  20.125  1.00  0.00     0.002 A 
ATOM     19  C   UNL A   1      49.916  43.583  20.644  1.00  0.00     0.000 A 
ENDBRANCH  11  14
BRANCH  13  20
ATOM     20  C   UNL A   1      45.113  45.393  21.153  1.00  0.00    -0.001 A 
ATOM     21  C   UNL A   1      45.656  46.684  21.250  1.00  0.00     0.011 A 
ATOM     22  C   UNL A   1      44.568  44.971  19.932  1.00  0.00     0.011 A 
ATOM     23  C   UNL A   1      45.629  47.553  20.157  1.00  0.00     0.021 A 
ATOM     24  C   UNL A   1      44.535  45.836  18.836  1.00  0.00     0.021 A 
ATOM     25  C   UNL A   1      45.056  47.124  18.957  1.00  0.00     0.067 A 
BRANCH  25  26
ATOM     26  S   UNL A   1      45.054  48.228  17.565  1.00  0.00     0.175 S 
ATOM     27  C   UNL A   1      43.491  47.935  16.778  1.00  0.00     0.163 C 
ATOM     28  O   UNL A   1      45.066  49.568  18.082  1.00  0.00    -0.224 OA
ATOM     29  O   UNL A   1      46.092  47.767  16.642  1.00  0.00    -0.224 OA
ENDBRANCH  25  26
ENDBRANCH  13  20
ENDBRANCH   7   8
ENDBRANCH   4   7
ENDBRANCH   2   3
ENDBRANCH   1   2
BRANCH   1  30
ATOM     30  C   UNL A   1      43.083  38.404  26.773  1.00  0.00     0.023 C 
BRANCH  30  31
ATOM     31  C   UNL A   1      44.511  38.869  27.122  1.00  0.00     0.116 C 
BRANCH  31  32
ATOM     32  N   UNL A   1      45.584  38.135  26.497  1.00  0.00    -0.352 N 
ATOM     33  C   UNL A   1      45.965  36.830  26.769  1.00  0.00     0.251 C 
ATOM     34  H   UNL A   1      46.100  38.609  25.806  1.00  0.00     0.163 HD
ATOM     35  O   UNL A   1      46.920  36.352  26.159  1.00  0.00    -0.269 OA
BRANCH  33  36
ATOM     36  C   UNL A   1      45.308  36.021  27.863  1.00  0.00     0.039 A 
ATOM     37  C   UNL A   1      44.410  35.039  27.486  1.00  0.00     0.014 A 
ATOM     38  C   UNL A   1      45.361  36.325  29.236  1.00  0.00     0.014 A 
ATOM     39  C   UNL A   1      43.629  34.358  28.465  1.00  0.00     0.010 A 
ATOM     40  C   UNL A   1      44.488  35.687  30.222  1.00  0.00     0.010 A 
ATOM     41  C   UNL A   1      43.560  34.687  29.871  1.00  0.00    -0.014 A 
BRANCH  41  42
ATOM     42  C   UNL A   1      42.181  34.286  30.628  1.00  0.00     0.031 A 
ATOM     43  C   UNL A   1      42.687  33.524  31.810  1.00  0.00     0.074 A 
ATOM     44  C   UNL A   1      40.786  34.307  30.549  1.00  0.00     0.049 A 
ATOM     45  N   UNL A   1      43.460  32.486  31.638  1.00  0.00    -0.248 NA
ATOM     46  C   UNL A   1      42.727  34.106  33.154  1.00  0.00     0.031 C 
ATOM     47  C   UNL A   1      39.934  34.825  29.465  1.00  0.00     0.029 A 
ATOM     48  N   UNL A   1      39.761  33.857  31.456  1.00  0.00    -0.354 N 
ATOM     49  C   UNL A   1      43.869  32.107  32.890  1.00  0.00     0.074 A 
ATOM     50  C   UNL A   1      43.586  33.259  33.734  1.00  0.00     0.031 C 
ATOM     51  C   UNL A   1      38.606  34.784  29.792  1.00  0.00     0.029 A 
ATOM     52  C   UNL A   1      38.394  34.171  31.104  1.00  0.00     0.049 A 
ATOM     53  H   UNL A   1      39.980  33.360  32.276  1.00  0.00     0.167 HD
ATOM     54  C   UNL A   1      43.719  30.783  33.180  1.00  0.00     0.037 A 
ATOM     55  C   UNL A   1      37.183  33.895  31.744  1.00  0.00     0.037 A 
ATOM     56  C   UNL A   1      42.563  30.541  33.998  1.00  0.00     0.049 A 
ATOM     57  C   UNL A   1      37.408  32.771  32.662  1.00  0.00     0.074 A 
ATOM     58  C   UNL A   1      42.025  31.209  35.080  1.00  0.00     0.029 A 
ATOM     59  N   UNL A   1      41.528  29.829  33.428  1.00  0.00    -0.354 N 
ATOM     60  N   UNL A   1      37.434  31.547  32.232  1.00  0.00    -0.248 NA
ATOM     61  C   UNL A   1      37.468  32.924  34.112  1.00  0.00     0.031 C 
ATOM     62  C   UNL A   1      40.667  31.371  34.731  1.00  0.00     0.029 A 
ATOM     63  C   UNL A   1      40.351  30.477  33.715  1.00  0.00     0.049 A 
ATOM     64  H   UNL A   1      41.617  28.998  32.907  1.00  0.00     0.167 HD
ATOM     65  C   UNL A   1      38.066  30.897  33.236  1.00  0.00     0.074 A 
ATOM     66  C   UNL A   1      37.778  31.664  34.433  1.00  0.00     0.031 C 
ATOM     67  C   UNL A   1      39.204  30.257  32.877  1.00  0.00     0.037 A 
BRANCH  54  68
ATOM     68  C   UNL A   1      44.167  29.874  32.071  1.00  0.00     0.064 A 
ATOM     69  C   UNL A   1      45.373  29.185  32.204  1.00  0.00     0.173 A 
ATOM     70  C   UNL A   1      43.493  29.777  30.834  1.00  0.00     0.173 A 
ATOM     71  F   UNL A   1      46.019  29.179  33.380  1.00  0.00    -0.203 F 
ATOM     72  C   UNL A   1      45.919  28.488  31.126  1.00  0.00     0.198 A 
ATOM     73  C   UNL A   1      44.073  29.145  29.743  1.00  0.00     0.198 A 
ATOM     74  F   UNL A   1      42.257  30.282  30.683  1.00  0.00    -0.203 F 
ATOM     75  F   UNL A   1      47.058  27.800  31.285  1.00  0.00    -0.200 F 
ATOM     76  C   UNL A   1      45.290  28.503  29.888  1.00  0.00     0.200 A 
ATOM     77  F   UNL A   1      43.446  29.151  28.559  1.00  0.00    -0.200 F 
ATOM     78  F   UNL A   1      45.841  27.872  28.842  1.00  0.00    -0.200 F 
ENDBRANCH  54  68
BRANCH  55  79
ATOM     79  C   UNL A   1      35.653  34.182  31.751  1.00  0.00     0.064 A 
ATOM     80  C   UNL A   1      35.073  35.088  32.708  1.00  0.00     0.173 A 
ATOM     81  C   UNL A   1      34.869  34.012  30.601  1.00  0.00     0.173 A 
ATOM     82  F   UNL A   1      35.666  35.328  33.885  1.00  0.00    -0.203 F 
ATOM     83  C   UNL A   1      33.911  35.844  32.472  1.00  0.00     0.198 A 
ATOM     84  C   UNL A   1      33.666  34.737  30.388  1.00  0.00     0.198 A 
ATOM     85  F   UNL A   1      35.302  33.220  29.611  1.00  0.00    -0.203 F 
ATOM     86  F   UNL A   1      33.521  36.782  33.352  1.00  0.00    -0.200 F 
ATOM     87  C   UNL A   1      33.212  35.678  31.301  1.00  0.00     0.200 A 
ATOM     88  F   UNL A   1      32.982  34.576  29.245  1.00  0.00    -0.200 F 
ATOM     89  F   UNL A   1      32.135  36.438  31.039  1.00  0.00    -0.200 F 
ENDBRANCH  55  79
BRANCH  67  90
ATOM     90  C   UNL A   1      39.179  29.559  31.523  1.00  0.00     0.064 A 
ATOM     91  C   UNL A   1      39.226  30.185  30.251  1.00  0.00     0.173 A 
ATOM     92  C   UNL A   1      38.955  28.179  31.512  1.00  0.00     0.173 A 
ATOM     93  F   UNL A   1      39.555  31.474  30.106  1.00  0.00    -0.203 F 
ATOM     94  C   UNL A   1      38.937  29.494  29.071  1.00  0.00     0.198 A 
ATOM     95  C   UNL A   1      38.723  27.478  30.326  1.00  0.00     0.198 A 
ATOM     96  F   UNL A   1      38.965  27.494  32.665  1.00  0.00    -0.203 F 
ATOM     97  F   UNL A   1      38.900  30.146  27.899  1.00  0.00    -0.200 F 
ATOM     98  C   UNL A   1      38.679  28.139  29.112  1.00  0.00     0.200 A 
ATOM     99  F   UNL A   1      38.528  26.152  30.371  1.00  0.00    -0.200 F 
ATOM    100  F   UNL A   1      38.404  27.468  27.984  1.00  0.00    -0.200 F 
ENDBRANCH  67  90
ENDBRANCH  41  42
ENDBRANCH  33  36
ENDBRANCH  31  32
ENDBRANCH  30  31
ENDBRANCH   1  30
TORSDOF 15
ENDMDL
MODEL 3
REMARK VINA RESULT:     -10.9      5.496     10.877
REMARK SMILES Cc1c(CC(=O)NCCCCNC(=O)c2ccc(-c3c4nc(c(-c5c(F)c(F)c(F)c(F)c5F)c5ccc([nH]5)c(-c5c(F)c(F)c(F)c(F)c5F)c5nc(c(-c6c(F)c(F)c(F)c(F)c6F)c6ccc3[nH]6)C=C5)C=C4)cc2)cc(-c2ccc(S(C)(=O)=O)cc2)n1-c1ccccc1
REMARK SMILES IDX 9 1 8 2 7 3 5 4 6 5 4 7 3 8 1 9 2 10 90 11 78 12 79 13 91 14
REMARK SMILES IDX 92 15 96 16 93 17 95 18 94 19 80 20 81 21 89 22 82 23 88 24
REMARK SMILES IDX 83 25 84 26 85 27 86 28 87 29 10 30 11 31 12 32 13 33 14 35
REMARK SMILES IDX 15 36 16 37 77 38 17 39 76 40 18 41 19 42 20 43 70 44 21 45
REMARK SMILES IDX 75 46 69 47 71 48 22 49 74 50 68 51 67 52 23 54 55 55 35 56
REMARK SMILES IDX 54 57 36 58 39 59 53 60 72 61 37 62 38 63 52 65 73 66 40 67
REMARK SMILES IDX 24 68 25 69 33 70 26 71 27 72 31 73 34 74 28 75 29 76 32 77
REMARK SMILES IDX 30 78 56 79 57 80 65 81 58 82 59 83 63 84 66 85 60 86 61 87
REMARK SMILES IDX 64 88 62 89 41 90 42 91 50 92 43 93 44 94 48 95 51 96 45 97
REMARK SMILES IDX 46 98 49 99 47 100
REMARK H PARENT 7 6 12 34 71 53 39 64
REMARK Flexibility Score: inf
ROOT
ATOM      1  C   UNL A   1      47.152  38.238  33.455  1.00  0.00     0.023 C 
ENDROOT
BRANCH   1   2
ATOM      2  C   UNL A   1      46.189  39.294  33.998  1.00  0.00     0.116 C 
BRANCH   2   3
ATOM      3  N   UNL A   1      44.876  38.750  34.297  1.00  0.00    -0.356 N 
ATOM      4  C   UNL A   1      43.645  39.125  33.852  1.00  0.00     0.224 C 
ATOM      5  O   UNL A   1      42.676  38.454  34.216  1.00  0.00    -0.275 OA
ATOM      6  H   UNL A   1      44.876  37.987  34.920  1.00  0.00     0.163 HD
BRANCH   4   7
ATOM      7  C   UNL A   1      43.486  40.306  32.915  1.00  0.00     0.137 C 
BRANCH   7   8
ATOM      8  C   UNL A   1      43.404  39.907  31.473  1.00  0.00    -0.017 A 
ATOM      9  C   UNL A   1      42.673  42.143  30.403  1.00  0.00     0.065 C 
ATOM     10  C   UNL A   1      43.088  40.705  30.381  1.00  0.00     0.024 A 
ATOM     11  N   UNL A   1      43.137  39.918  29.235  1.00  0.00    -0.314 N 
ATOM     12  C   UNL A   1      43.621  38.598  30.976  1.00  0.00     0.033 A 
ATOM     13  C   UNL A   1      43.512  38.624  29.599  1.00  0.00     0.053 A 
BRANCH  11  14
ATOM     14  C   UNL A   1      42.824  40.336  27.912  1.00  0.00     0.046 A 
ATOM     15  C   UNL A   1      43.828  40.905  27.119  1.00  0.00     0.026 A 
ATOM     16  C   UNL A   1      41.520  40.208  27.423  1.00  0.00     0.026 A 
ATOM     17  C   UNL A   1      43.526  41.341  25.830  1.00  0.00     0.002 A 
ATOM     18  C   UNL A   1      41.223  40.663  26.138  1.00  0.00     0.002 A 
ATOM     19  C   UNL A   1      42.224  41.224  25.342  1.00  0.00     0.000 A 
ENDBRANCH  11  14
BRANCH  13  20
ATOM     20  C   UNL A   1      43.831  37.535  28.669  1.00  0.00    -0.001 A 
ATOM     21  C   UNL A   1      42.810  36.767  28.086  1.00  0.00     0.011 A 
ATOM     22  C   UNL A   1      45.163  37.276  28.321  1.00  0.00     0.011 A 
ATOM     23  C   UNL A   1      43.114  35.738  27.192  1.00  0.00     0.021 A 
ATOM     24  C   UNL A   1      45.476  36.246  27.431  1.00  0.00     0.021 A 
ATOM     25  C   UNL A   1      44.451  35.476  26.880  1.00  0.00     0.067 A 
BRANCH  25  26
ATOM     26  S   UNL A   1      44.823  34.183  25.720  1.00  0.00     0.175 S 
ATOM     27  C   UNL A   1      43.421  34.157  24.633  1.00  0.00     0.163 C 
ATOM     28  O   UNL A   1      45.978  34.596  24.974  1.00  0.00    -0.224 OA
ATOM     29  O   UNL A   1      44.815  32.920  26.461  1.00  0.00    -0.224 OA
ENDBRANCH  25  26
ENDBRANCH  13  20
ENDBRANCH   7   8
ENDBRANCH   4   7
ENDBRANCH   2   3
ENDBRANCH   1   2
BRANCH   1  30
ATOM     30  C   UNL A   1      47.790  38.520  32.079  1.00  0.00     0.023 C 
BRANCH  30  31
ATOM     31  C   UNL A   1      48.112  37.337  31.145  1.00  0.00     0.116 C 
BRANCH  31  32
ATOM     32  N   UNL A   1      48.466  36.099  31.795  1.00  0.00    -0.352 N 
ATOM     33  C   UNL A   1      47.661  34.980  31.945  1.00  0.00     0.251 C 
ATOM     34  H   UNL A   1      49.373  36.042  32.174  1.00  0.00     0.163 HD
ATOM     35  O   UNL A   1      48.107  34.005  32.547  1.00  0.00    -0.269 OA
BRANCH  33  36
ATOM     36  C   UNL A   1      46.223  34.967  31.481  1.00  0.00     0.039 A 
ATOM     37  C   UNL A   1      45.291  35.636  32.255  1.00  0.00     0.014 A 
ATOM     38  C   UNL A   1      45.713  34.152  30.453  1.00  0.00     0.014 A 
ATOM     39  C   UNL A   1      43.899  35.520  31.971  1.00  0.00     0.010 A 
ATOM     40  C   UNL A   1      44.279  33.966  30.230  1.00  0.00     0.010 A 
ATOM     41  C   UNL A   1      43.304  34.627  31.002  1.00  0.00    -0.014 A 
BRANCH  41  42
ATOM     42  C   UNL A   1      41.779  34.164  31.306  1.00  0.00     0.031 A 
ATOM     43  C   UNL A   1      41.938  33.384  32.571  1.00  0.00     0.074 A 
ATOM     44  C   UNL A   1      40.470  34.144  30.814  1.00  0.00     0.049 A 
ATOM     45  N   UNL A   1      42.764  32.375  32.619  1.00  0.00    -0.248 NA
ATOM     46  C   UNL A   1      41.553  33.928  33.875  1.00  0.00     0.031 C 
ATOM     47  C   UNL A   1      39.961  34.667  29.535  1.00  0.00     0.029 A 
ATOM     48  N   UNL A   1      39.239  33.639  31.365  1.00  0.00    -0.354 N 
ATOM     49  C   UNL A   1      42.796  31.973  33.929  1.00  0.00     0.074 A 
ATOM     50  C   UNL A   1      42.232  33.092  34.670  1.00  0.00     0.031 C 
ATOM     51  C   UNL A   1      38.598  34.577  29.449  1.00  0.00     0.029 A 
ATOM     52  C   UNL A   1      38.028  33.920  30.627  1.00  0.00     0.049 A 
ATOM     53  H   UNL A   1      39.223  33.125  32.204  1.00  0.00     0.167 HD
ATOM     54  C   UNL A   1      42.616  30.638  34.137  1.00  0.00     0.037 A 
ATOM     55  C   UNL A   1      36.692  33.590  30.871  1.00  0.00     0.037 A 
ATOM     56  C   UNL A   1      41.279  30.338  34.568  1.00  0.00     0.049 A 
ATOM     57  C   UNL A   1      36.676  32.448  31.794  1.00  0.00     0.074 A 
ATOM     58  C   UNL A   1      40.418  30.959  35.452  1.00  0.00     0.029 A 
ATOM     59  N   UNL A   1      40.488  29.611  33.702  1.00  0.00    -0.354 N 
ATOM     60  N   UNL A   1      36.875  31.238  31.369  1.00  0.00    -0.248 NA
ATOM     61  C   UNL A   1      36.296  32.561  33.199  1.00  0.00     0.031 C 
ATOM     62  C   UNL A   1      39.221  31.090  34.716  1.00  0.00     0.029 A 
ATOM     63  C   UNL A   1      39.256  30.215  33.636  1.00  0.00     0.049 A 
ATOM     64  H   UNL A   1      40.759  28.798  33.217  1.00  0.00     0.167 HD
ATOM     65  C   UNL A   1      37.202  30.579  32.505  1.00  0.00     0.074 A 
ATOM     66  C   UNL A   1      36.543  31.303  33.575  1.00  0.00     0.031 C 
ATOM     67  C   UNL A   1      38.419  29.984  32.491  1.00  0.00     0.037 A 
BRANCH  54  68
ATOM     68  C   UNL A   1      43.407  29.774  33.196  1.00  0.00     0.064 A 
ATOM     69  C   UNL A   1      44.539  29.111  33.673  1.00  0.00     0.173 A 
ATOM     70  C   UNL A   1      43.142  29.699  31.812  1.00  0.00     0.173 A 
ATOM     71  F   UNL A   1      44.799  29.085  34.989  1.00  0.00    -0.203 F 
ATOM     72  C   UNL A   1      45.407  28.461  32.796  1.00  0.00     0.198 A 
ATOM     73  C   UNL A   1      44.045  29.115  30.934  1.00  0.00     0.198 A 
ATOM     74  F   UNL A   1      41.994  30.178  31.304  1.00  0.00    -0.203 F 
ATOM     75  F   UNL A   1      46.467  27.797  33.278  1.00  0.00    -0.200 F 
ATOM     76  C   UNL A   1      45.181  28.499  31.426  1.00  0.00     0.200 A 
ATOM     77  F   UNL A   1      43.805  29.141  29.616  1.00  0.00    -0.200 F 
ATOM     78  F   UNL A   1      46.043  27.914  30.583  1.00  0.00    -0.200 F 
ENDBRANCH  54  68
BRANCH  55  79
ATOM     79  C   UNL A   1      35.221  33.830  30.426  1.00  0.00     0.064 A 
ATOM     80  C   UNL A   1      34.415  34.849  31.048  1.00  0.00     0.173 A 
ATOM     81  C   UNL A   1      34.772  33.471  29.147  1.00  0.00     0.173 A 
ATOM     82  F   UNL A   1      34.673  35.276  32.292  1.00  0.00    -0.203 F 
ATOM     83  C   UNL A   1      33.368  35.528  30.400  1.00  0.00     0.198 A 
ATOM     84  C   UNL A   1      33.679  34.122  28.515  1.00  0.00     0.198 A 
ATOM     85  F   UNL A   1      35.446  32.557  28.437  1.00  0.00    -0.203 F 
ATOM     86  F   UNL A   1      32.766  36.573  30.995  1.00  0.00    -0.200 F 
ATOM     87  C   UNL A   1      33.008  35.173  29.123  1.00  0.00     0.200 A 
ATOM     88  F   UNL A   1      33.326  33.777  27.268  1.00  0.00    -0.200 F 
ATOM     89  F   UNL A   1      32.049  35.855  28.474  1.00  0.00    -0.200 F 
ENDBRANCH  55  79
BRANCH  67  90
ATOM     90  C   UNL A   1      38.825  29.325  31.179  1.00  0.00     0.064 A 
ATOM     91  C   UNL A   1      39.166  29.987  29.972  1.00  0.00     0.173 A 
ATOM     92  C   UNL A   1      38.727  27.931  31.099  1.00  0.00     0.173 A 
ATOM     93  F   UNL A   1      39.414  31.301  29.930  1.00  0.00    -0.203 F 
ATOM     94  C   UNL A   1      39.270  29.308  28.755  1.00  0.00     0.198 A 
ATOM     95  C   UNL A   1      38.888  27.248  29.892  1.00  0.00     0.198 A 
ATOM     96  F   UNL A   1      38.477  27.218  32.207  1.00  0.00    -0.203 F 
ATOM     97  F   UNL A   1      39.503  29.988  27.621  1.00  0.00    -0.200 F 
ATOM     98  C   UNL A   1      39.124  27.937  28.715  1.00  0.00     0.200 A 
ATOM     99  F   UNL A   1      38.799  25.910  29.874  1.00  0.00    -0.200 F 
ATOM    100  F   UNL A   1      39.226  27.278  27.552  1.00  0.00    -0.200 F 
ENDBRANCH  67  90
ENDBRANCH  41  42
ENDBRANCH  33  36
ENDBRANCH  31  32
ENDBRANCH  30  31
ENDBRANCH   1  30
TORSDOF 15
ENDMDL
