MODEL 1
REMARK VINA RESULT:     -13.3      0.000      0.000
REMARK SMILES Cc1cc(C)c2c(c1)C=C(C(=O)NCCCCNC(=O)c1ccc(-c3c4nc(c(-c5c(F)c(F)c(F)c(F)c5F)c5ccc([nH]5)c(-c5c(F)c(F)c(F)c(F)c5F)c5nc(c(-c6c(F)c(F)c(F)c(F)c6F)c6ccc3[nH]6)C=C5)C=C4)cc1)[C@@H](C(F)(F)F)O2
REMARK SMILES IDX 16 1 15 2 14 3 13 4 11 5 12 6 10 8 1 9 2 10 3 11 8 12 4 13
REMARK SMILES IDX 7 14 5 15 6 16 9 17 89 18 84 19 85 20 86 21 87 22 88 23
REMARK SMILES IDX 17 24 18 25 19 26 20 28 21 29 22 30 83 31 23 32 82 33 24 34
REMARK SMILES IDX 25 35 26 36 76 37 27 38 81 39 75 40 77 41 28 42 80 43 74 44
REMARK SMILES IDX 73 45 29 47 61 48 41 49 60 50 42 51 45 52 59 53 78 54 43 55
REMARK SMILES IDX 44 56 58 58 79 59 46 60 30 61 31 62 39 63 32 64 33 65 37 66
REMARK SMILES IDX 40 67 34 68 35 69 38 70 36 71 62 72 63 73 71 74 64 75 65 76
REMARK SMILES IDX 69 77 72 78 66 79 67 80 70 81 68 82 47 83 48 84 56 85 49 86
REMARK SMILES IDX 50 87 54 88 57 89 51 90 52 91 55 92 53 93
REMARK H PARENT 13 7 18 27 77 46 45 57
REMARK Flexibility Score: inf
ROOT
ATOM      1  C   UNL A   1      31.597  31.928  26.804  1.00  0.00     0.023 C 
ENDROOT
BRANCH   1   2
ATOM      2  C   UNL A   1      31.869  30.428  26.679  1.00  0.00     0.023 C 
BRANCH   2   3
ATOM      3  C   UNL A   1      33.273  30.091  26.187  1.00  0.00     0.116 C 
BRANCH   3   4
ATOM      4  N   UNL A   1      33.278  29.702  24.789  1.00  0.00    -0.352 N 
ATOM      5  C   UNL A   1      33.037  28.577  24.075  1.00  0.00     0.251 C 
ATOM      6  O   UNL A   1      33.169  28.695  22.853  1.00  0.00    -0.270 OA
ATOM      7  H   UNL A   1      33.523  30.456  24.204  1.00  0.00     0.163 HD
BRANCH   5   8
ATOM      8  C   UNL A   1      32.637  27.259  24.652  1.00  0.00     0.067 C 
ATOM      9  C   UNL A   1      35.099  21.898  26.501  1.00  0.00     0.044 C 
ATOM     10  C   UNL A   1      34.024  22.930  26.320  1.00  0.00    -0.050 A 
ATOM     11  C   UNL A   1      32.697  22.646  26.672  1.00  0.00     0.010 A 
ATOM     12  C   UNL A   1      34.333  24.175  25.758  1.00  0.00     0.015 A 
ATOM     13  C   UNL A   1      31.686  23.596  26.489  1.00  0.00    -0.008 A 
ATOM     14  C   UNL A   1      33.334  25.132  25.562  1.00  0.00     0.018 A 
ATOM     15  C   UNL A   1      30.269  23.286  26.876  1.00  0.00     0.048 C 
ATOM     16  C   UNL A   1      32.018  24.835  25.925  1.00  0.00     0.130 A 
ATOM     17  C   UNL A   1      33.647  26.448  25.016  1.00  0.00     0.025 C 
ATOM     18  O   UNL A   1      31.010  25.749  25.790  1.00  0.00    -0.475 OA
ATOM     19  C   UNL A   1      31.217  26.794  24.804  1.00  0.00     0.314 C 
BRANCH  19  20
ATOM     20  C   UNL A   1      30.585  26.364  23.466  1.00  0.00     0.429 C 
ATOM     21  F   UNL A   1      29.518  25.553  23.687  1.00  0.00    -0.167 F 
ATOM     22  F   UNL A   1      30.119  27.416  22.751  1.00  0.00    -0.167 F 
ATOM     23  F   UNL A   1      31.444  25.695  22.667  1.00  0.00    -0.167 F 
ENDBRANCH  19  20
ENDBRANCH   5   8
ENDBRANCH   3   4
ENDBRANCH   2   3
ENDBRANCH   1   2
BRANCH   1  24
ATOM     24  C   UNL A   1      32.766  32.762  27.326  1.00  0.00     0.116 C 
BRANCH  24  25
ATOM     25  N   UNL A   1      32.415  34.143  27.626  1.00  0.00    -0.352 N 
ATOM     26  C   UNL A   1      32.987  34.981  28.551  1.00  0.00     0.251 C 
ATOM     27  H   UNL A   1      31.676  34.524  27.098  1.00  0.00     0.163 HD
ATOM     28  O   UNL A   1      32.535  36.103  28.752  1.00  0.00    -0.269 OA
BRANCH  26  29
ATOM     29  C   UNL A   1      34.135  34.491  29.335  1.00  0.00     0.039 A 
ATOM     30  C   UNL A   1      33.896  33.876  30.564  1.00  0.00     0.014 A 
ATOM     31  C   UNL A   1      35.431  34.587  28.820  1.00  0.00     0.014 A 
ATOM     32  C   UNL A   1      34.957  33.289  31.253  1.00  0.00     0.010 A 
ATOM     33  C   UNL A   1      36.476  33.949  29.478  1.00  0.00     0.010 A 
ATOM     34  C   UNL A   1      36.246  33.292  30.697  1.00  0.00    -0.014 A 
BRANCH  34  35
ATOM     35  C   UNL A   1      37.377  32.625  31.382  1.00  0.00     0.031 A 
ATOM     36  C   UNL A   1      38.078  31.480  30.714  1.00  0.00     0.074 A 
ATOM     37  C   UNL A   1      37.727  33.010  32.623  1.00  0.00     0.049 A 
ATOM     38  N   UNL A   1      39.031  30.711  31.174  1.00  0.00    -0.248 NA
ATOM     39  C   UNL A   1      37.633  31.140  29.353  1.00  0.00     0.031 C 
ATOM     40  C   UNL A   1      37.095  34.088  33.384  1.00  0.00     0.029 A 
ATOM     41  N   UNL A   1      38.700  32.534  33.465  1.00  0.00    -0.354 N 
ATOM     42  C   UNL A   1      39.290  29.792  30.167  1.00  0.00     0.074 A 
ATOM     43  C   UNL A   1      38.362  30.064  29.092  1.00  0.00     0.031 C 
ATOM     44  C   UNL A   1      37.714  34.209  34.570  1.00  0.00     0.029 A 
ATOM     45  C   UNL A   1      38.762  33.197  34.665  1.00  0.00     0.049 A 
ATOM     46  H   UNL A   1      39.298  31.789  33.230  1.00  0.00     0.167 HD
ATOM     47  C   UNL A   1      40.236  28.826  30.133  1.00  0.00     0.037 A 
ATOM     48  C   UNL A   1      39.573  33.005  35.723  1.00  0.00     0.037 A 
ATOM     49  C   UNL A   1      41.174  28.576  31.194  1.00  0.00     0.049 A 
ATOM     50  C   UNL A   1      40.608  31.916  35.665  1.00  0.00     0.074 A 
ATOM     51  C   UNL A   1      42.196  27.645  31.240  1.00  0.00     0.029 A 
ATOM     52  N   UNL A   1      41.205  29.267  32.396  1.00  0.00    -0.354 N 
ATOM     53  N   UNL A   1      40.868  31.074  34.694  1.00  0.00    -0.248 NA
ATOM     54  C   UNL A   1      41.462  31.749  36.849  1.00  0.00     0.031 C 
ATOM     55  C   UNL A   1      42.827  27.752  32.484  1.00  0.00     0.029 A 
ATOM     56  C   UNL A   1      42.223  28.775  33.197  1.00  0.00     0.049 A 
ATOM     57  H   UNL A   1      40.595  29.998  32.643  1.00  0.00     0.167 HD
ATOM     58  C   UNL A   1      41.922  30.291  35.140  1.00  0.00     0.074 A 
ATOM     59  C   UNL A   1      42.267  30.768  36.464  1.00  0.00     0.031 C 
ATOM     60  C   UNL A   1      42.548  29.265  34.512  1.00  0.00     0.037 A 
BRANCH  47  61
ATOM     61  C   UNL A   1      40.310  27.976  28.900  1.00  0.00     0.064 A 
ATOM     62  C   UNL A   1      41.070  28.369  27.789  1.00  0.00     0.173 A 
ATOM     63  C   UNL A   1      39.643  26.745  28.839  1.00  0.00     0.173 A 
ATOM     64  F   UNL A   1      41.713  29.547  27.793  1.00  0.00    -0.203 F 
ATOM     65  C   UNL A   1      41.141  27.570  26.651  1.00  0.00     0.198 A 
ATOM     66  C   UNL A   1      39.738  25.935  27.710  1.00  0.00     0.198 A 
ATOM     67  F   UNL A   1      38.903  26.323  29.876  1.00  0.00    -0.203 F 
ATOM     68  F   UNL A   1      41.840  27.986  25.586  1.00  0.00    -0.200 F 
ATOM     69  C   UNL A   1      40.482  26.351  26.616  1.00  0.00     0.200 A 
ATOM     70  F   UNL A   1      39.108  24.753  27.680  1.00  0.00    -0.200 F 
ATOM     71  F   UNL A   1      40.558  25.579  25.523  1.00  0.00    -0.200 F 
ENDBRANCH  47  61
BRANCH  48  72
ATOM     72  C   UNL A   1      39.462  33.892  36.909  1.00  0.00     0.064 A 
ATOM     73  C   UNL A   1      38.713  33.497  38.026  1.00  0.00     0.173 A 
ATOM     74  C   UNL A   1      40.110  35.133  36.961  1.00  0.00     0.173 A 
ATOM     75  F   UNL A   1      38.058  32.327  38.013  1.00  0.00    -0.203 F 
ATOM     76  C   UNL A   1      38.609  34.317  39.148  1.00  0.00     0.198 A 
ATOM     77  C   UNL A   1      40.024  35.942  38.092  1.00  0.00     0.198 A 
ATOM     78  F   UNL A   1      40.842  35.553  35.917  1.00  0.00    -0.203 F 
ATOM     79  F   UNL A   1      37.862  33.930  40.191  1.00  0.00    -0.200 F 
ATOM     80  C   UNL A   1      39.271  35.535  39.183  1.00  0.00     0.200 A 
ATOM     81  F   UNL A   1      40.674  37.114  38.127  1.00  0.00    -0.200 F 
ATOM     82  F   UNL A   1      39.177  36.319  40.265  1.00  0.00    -0.200 F 
ENDBRANCH  48  72
BRANCH  60  83
ATOM     83  C   UNL A   1      43.674  28.596  35.240  1.00  0.00     0.064 A 
ATOM     84  C   UNL A   1      43.445  27.519  36.107  1.00  0.00     0.173 A 
ATOM     85  C   UNL A   1      45.000  28.996  35.021  1.00  0.00     0.173 A 
ATOM     86  F   UNL A   1      42.191  27.111  36.359  1.00  0.00    -0.203 F 
ATOM     87  C   UNL A   1      44.503  26.874  36.741  1.00  0.00     0.198 A 
ATOM     88  C   UNL A   1      46.058  28.332  35.636  1.00  0.00     0.198 A 
ATOM     89  F   UNL A   1      45.271  30.018  34.193  1.00  0.00    -0.203 F 
ATOM     90  F   UNL A   1      44.260  25.868  37.592  1.00  0.00    -0.200 F 
ATOM     91  C   UNL A   1      45.808  27.276  36.499  1.00  0.00     0.200 A 
ATOM     92  F   UNL A   1      47.319  28.714  35.391  1.00  0.00    -0.200 F 
ATOM     93  F   UNL A   1      46.827  26.646  37.099  1.00  0.00    -0.200 F 
ENDBRANCH  60  83
ENDBRANCH  34  35
ENDBRANCH  26  29
ENDBRANCH  24  25
ENDBRANCH   1  24
TORSDOF 12
ENDMDL
MODEL 2
REMARK VINA RESULT:     -13.3      0.240      1.662
REMARK SMILES Cc1cc(C)c2c(c1)C=C(C(=O)NCCCCNC(=O)c1ccc(-c3c4nc(c(-c5c(F)c(F)c(F)c(F)c5F)c5ccc([nH]5)c(-c5c(F)c(F)c(F)c(F)c5F)c5nc(c(-c6c(F)c(F)c(F)c(F)c6F)c6ccc3[nH]6)C=C5)C=C4)cc1)[C@@H](C(F)(F)F)O2
REMARK SMILES IDX 16 1 15 2 14 3 13 4 11 5 12 6 10 8 1 9 2 10 3 11 8 12 4 13
REMARK SMILES IDX 7 14 5 15 6 16 9 17 89 18 84 19 85 20 86 21 87 22 88 23
REMARK SMILES IDX 17 24 18 25 19 26 20 28 21 29 22 30 83 31 23 32 82 33 24 34
REMARK SMILES IDX 25 35 26 36 76 37 27 38 81 39 75 40 77 41 28 42 80 43 74 44
REMARK SMILES IDX 73 45 29 47 61 48 41 49 60 50 42 51 45 52 59 53 78 54 43 55
REMARK SMILES IDX 44 56 58 58 79 59 46 60 30 61 31 62 39 63 32 64 33 65 37 66
REMARK SMILES IDX 40 67 34 68 35 69 38 70 36 71 62 72 63 73 71 74 64 75 65 76
REMARK SMILES IDX 69 77 72 78 66 79 67 80 70 81 68 82 47 83 48 84 56 85 49 86
REMARK SMILES IDX 50 87 54 88 57 89 51 90 52 91 55 92 53 93
REMARK H PARENT 13 7 18 27 77 46 45 57
REMARK Flexibility Score: inf
ROOT
ATOM      1  C   UNL A   1      31.557  31.947  26.831  1.00  0.00     0.023 C 
ENDROOT
BRANCH   1   2
ATOM      2  C   UNL A   1      31.818  30.443  26.727  1.00  0.00     0.023 C 
BRANCH   2   3
ATOM      3  C   UNL A   1      33.294  30.076  26.611  1.00  0.00     0.116 C 
BRANCH   3   4
ATOM      4  N   UNL A   1      33.648  29.674  25.262  1.00  0.00    -0.352 N 
ATOM      5  C   UNL A   1      33.591  28.542  24.522  1.00  0.00     0.251 C 
ATOM      6  O   UNL A   1      34.024  28.649  23.370  1.00  0.00    -0.270 OA
ATOM      7  H   UNL A   1      34.033  30.423  24.750  1.00  0.00     0.163 HD
BRANCH   5   8
ATOM      8  C   UNL A   1      33.056  27.230  24.992  1.00  0.00     0.067 C 
ATOM      9  C   UNL A   1      34.966  21.541  26.479  1.00  0.00     0.044 C 
ATOM     10  C   UNL A   1      33.996  22.679  26.357  1.00  0.00    -0.050 A 
ATOM     11  C   UNL A   1      32.641  22.497  26.665  1.00  0.00     0.010 A 
ATOM     12  C   UNL A   1      34.433  23.928  25.894  1.00  0.00     0.015 A 
ATOM     13  C   UNL A   1      31.726  23.550  26.537  1.00  0.00    -0.008 A 
ATOM     14  C   UNL A   1      33.531  24.986  25.753  1.00  0.00     0.018 A 
ATOM     15  C   UNL A   1      30.278  23.348  26.876  1.00  0.00     0.048 C 
ATOM     16  C   UNL A   1      32.185  24.789  26.071  1.00  0.00     0.130 A 
ATOM     17  C   UNL A   1      33.978  26.303  25.312  1.00  0.00     0.025 C 
ATOM     18  O   UNL A   1      31.270  25.802  25.988  1.00  0.00    -0.475 OA
ATOM     19  C   UNL A   1      31.596  26.891  25.085  1.00  0.00     0.314 C 
BRANCH  19  20
ATOM     20  C   UNL A   1      30.958  26.620  23.709  1.00  0.00     0.429 C 
ATOM     21  F   UNL A   1      31.892  26.156  22.839  1.00  0.00    -0.167 F 
ATOM     22  F   UNL A   1      29.990  25.674  23.764  1.00  0.00    -0.167 F 
ATOM     23  F   UNL A   1      30.402  27.721  23.159  1.00  0.00    -0.167 F 
ENDBRANCH  19  20
ENDBRANCH   5   8
ENDBRANCH   3   4
ENDBRANCH   2   3
ENDBRANCH   1   2
BRANCH   1  24
ATOM     24  C   UNL A   1      32.736  32.781  27.329  1.00  0.00     0.116 C 
BRANCH  24  25
ATOM     25  N   UNL A   1      32.392  34.164  27.629  1.00  0.00    -0.352 N 
ATOM     26  C   UNL A   1      32.975  35.002  28.548  1.00  0.00     0.251 C 
ATOM     27  H   UNL A   1      31.649  34.546  27.108  1.00  0.00     0.163 HD
ATOM     28  O   UNL A   1      32.528  36.125  28.751  1.00  0.00    -0.269 OA
BRANCH  26  29
ATOM     29  C   UNL A   1      34.129  34.510  29.322  1.00  0.00     0.039 A 
ATOM     30  C   UNL A   1      33.901  33.920  30.566  1.00  0.00     0.014 A 
ATOM     31  C   UNL A   1      35.418  34.578  28.785  1.00  0.00     0.014 A 
ATOM     32  C   UNL A   1      34.964  33.331  31.248  1.00  0.00     0.010 A 
ATOM     33  C   UNL A   1      36.464  33.937  29.437  1.00  0.00     0.010 A 
ATOM     34  C   UNL A   1      36.245  33.306  30.672  1.00  0.00    -0.014 A 
BRANCH  34  35
ATOM     35  C   UNL A   1      37.377  32.635  31.351  1.00  0.00     0.031 A 
ATOM     36  C   UNL A   1      38.076  31.494  30.675  1.00  0.00     0.074 A 
ATOM     37  C   UNL A   1      37.730  33.014  32.593  1.00  0.00     0.049 A 
ATOM     38  N   UNL A   1      39.030  30.722  31.129  1.00  0.00    -0.248 NA
ATOM     39  C   UNL A   1      37.628  31.160  29.313  1.00  0.00     0.031 C 
ATOM     40  C   UNL A   1      37.099  34.088  33.361  1.00  0.00     0.029 A 
ATOM     41  N   UNL A   1      38.705  32.534  33.430  1.00  0.00    -0.354 N 
ATOM     42  C   UNL A   1      39.286  29.808  30.117  1.00  0.00     0.074 A 
ATOM     43  C   UNL A   1      38.356  30.086  29.045  1.00  0.00     0.031 C 
ATOM     44  C   UNL A   1      37.721  34.203  34.546  1.00  0.00     0.029 A 
ATOM     45  C   UNL A   1      38.770  33.190  34.633  1.00  0.00     0.049 A 
ATOM     46  H   UNL A   1      39.302  31.789  33.190  1.00  0.00     0.167 HD
ATOM     47  C   UNL A   1      40.232  28.841  30.077  1.00  0.00     0.037 A 
ATOM     48  C   UNL A   1      39.583  32.993  35.688  1.00  0.00     0.037 A 
ATOM     49  C   UNL A   1      41.172  28.586  31.134  1.00  0.00     0.049 A 
ATOM     50  C   UNL A   1      40.618  31.904  35.622  1.00  0.00     0.074 A 
ATOM     51  C   UNL A   1      42.195  27.655  31.173  1.00  0.00     0.029 A 
ATOM     52  N   UNL A   1      41.207  29.271  32.339  1.00  0.00    -0.354 N 
ATOM     53  N   UNL A   1      40.876  31.067  34.647  1.00  0.00    -0.248 NA
ATOM     54  C   UNL A   1      41.475  31.731  36.804  1.00  0.00     0.031 C 
ATOM     55  C   UNL A   1      42.829  27.756  32.416  1.00  0.00     0.029 A 
ATOM     56  C   UNL A   1      42.227  28.775  33.135  1.00  0.00     0.049 A 
ATOM     57  H   UNL A   1      40.597  30.001  32.591  1.00  0.00     0.167 HD
ATOM     58  C   UNL A   1      41.931  30.281  35.086  1.00  0.00     0.074 A 
ATOM     59  C   UNL A   1      42.278  30.752  36.412  1.00  0.00     0.031 C 
ATOM     60  C   UNL A   1      42.554  29.258  34.452  1.00  0.00     0.037 A 
BRANCH  47  61
ATOM     61  C   UNL A   1      40.303  27.998  28.839  1.00  0.00     0.064 A 
ATOM     62  C   UNL A   1      41.059  28.398  27.727  1.00  0.00     0.173 A 
ATOM     63  C   UNL A   1      39.638  26.766  28.774  1.00  0.00     0.173 A 
ATOM     64  F   UNL A   1      41.699  29.577  27.735  1.00  0.00    -0.203 F 
ATOM     65  C   UNL A   1      41.127  27.604  26.585  1.00  0.00     0.198 A 
ATOM     66  C   UNL A   1      39.730  25.962  27.641  1.00  0.00     0.198 A 
ATOM     67  F   UNL A   1      38.903  26.337  29.811  1.00  0.00    -0.203 F 
ATOM     68  F   UNL A   1      41.821  28.027  25.519  1.00  0.00    -0.200 F 
ATOM     69  C   UNL A   1      40.470  26.384  26.546  1.00  0.00     0.200 A 
ATOM     70  F   UNL A   1      39.102  24.779  27.607  1.00  0.00    -0.200 F 
ATOM     71  F   UNL A   1      40.543  25.618  25.449  1.00  0.00    -0.200 F 
ENDBRANCH  47  61
BRANCH  48  72
ATOM     72  C   UNL A   1      39.475  33.874  36.879  1.00  0.00     0.064 A 
ATOM     73  C   UNL A   1      40.135  35.110  36.914  1.00  0.00     0.173 A 
ATOM     74  C   UNL A   1      38.702  33.513  37.991  1.00  0.00     0.173 A 
ATOM     75  F   UNL A   1      40.903  35.487  35.881  1.00  0.00    -0.203 F 
ATOM     76  C   UNL A   1      40.033  35.949  38.021  1.00  0.00     0.198 A 
ATOM     77  C   UNL A   1      38.583  34.363  39.088  1.00  0.00     0.198 A 
ATOM     78  F   UNL A   1      38.048  32.341  38.003  1.00  0.00    -0.203 F 
ATOM     79  F   UNL A   1      40.698  37.111  38.042  1.00  0.00    -0.200 F 
ATOM     80  C   UNL A   1      39.252  35.577  39.105  1.00  0.00     0.200 A 
ATOM     81  F   UNL A   1      37.817  34.006  40.129  1.00  0.00    -0.200 F 
ATOM     82  F   UNL A   1      39.147  36.388  40.167  1.00  0.00    -0.200 F 
ENDBRANCH  48  72
BRANCH  60  83
ATOM     83  C   UNL A   1      43.683  28.586  35.174  1.00  0.00     0.064 A 
ATOM     84  C   UNL A   1      45.008  29.013  35.015  1.00  0.00     0.173 A 
ATOM     85  C   UNL A   1      43.429  27.544  36.078  1.00  0.00     0.173 A 
ATOM     86  F   UNL A   1      45.301  29.996  34.149  1.00  0.00    -0.203 F 
ATOM     87  C   UNL A   1      46.042  28.413  35.726  1.00  0.00     0.198 A 
ATOM     88  C   UNL A   1      44.462  26.964  36.808  1.00  0.00     0.198 A 
ATOM     89  F   UNL A   1      42.175  27.105  36.270  1.00  0.00    -0.203 F 
ATOM     90  F   UNL A   1      47.307  28.814  35.536  1.00  0.00    -0.200 F 
ATOM     91  C   UNL A   1      45.768  27.394  36.627  1.00  0.00     0.200 A 
ATOM     92  F   UNL A   1      44.193  25.988  37.687  1.00  0.00    -0.200 F 
ATOM     93  F   UNL A   1      46.762  26.826  37.322  1.00  0.00    -0.200 F 
ENDBRANCH  60  83
ENDBRANCH  34  35
ENDBRANCH  26  29
ENDBRANCH  24  25
ENDBRANCH   1  24
TORSDOF 12
ENDMDL
MODEL 3
REMARK VINA RESULT:     -13.3      0.104      1.989
REMARK SMILES Cc1cc(C)c2c(c1)C=C(C(=O)NCCCCNC(=O)c1ccc(-c3c4nc(c(-c5c(F)c(F)c(F)c(F)c5F)c5ccc([nH]5)c(-c5c(F)c(F)c(F)c(F)c5F)c5nc(c(-c6c(F)c(F)c(F)c(F)c6F)c6ccc3[nH]6)C=C5)C=C4)cc1)[C@@H](C(F)(F)F)O2
REMARK SMILES IDX 16 1 15 2 14 3 13 4 11 5 12 6 10 8 1 9 2 10 3 11 8 12 4 13
REMARK SMILES IDX 7 14 5 15 6 16 9 17 89 18 84 19 85 20 86 21 87 22 88 23
REMARK SMILES IDX 17 24 18 25 19 26 20 28 21 29 22 30 83 31 23 32 82 33 24 34
REMARK SMILES IDX 25 35 26 36 76 37 27 38 81 39 75 40 77 41 28 42 80 43 74 44
REMARK SMILES IDX 73 45 29 47 61 48 41 49 60 50 42 51 45 52 59 53 78 54 43 55
REMARK SMILES IDX 44 56 58 58 79 59 46 60 30 61 31 62 39 63 32 64 33 65 37 66
REMARK SMILES IDX 40 67 34 68 35 69 38 70 36 71 62 72 63 73 71 74 64 75 65 76
REMARK SMILES IDX 69 77 72 78 66 79 67 80 70 81 68 82 47 83 48 84 56 85 49 86
REMARK SMILES IDX 50 87 54 88 57 89 51 90 52 91 55 92 53 93
REMARK H PARENT 13 7 18 27 77 46 45 57
REMARK Flexibility Score: inf
ROOT
ATOM      1  C   UNL A   1      31.627  31.917  26.876  1.00  0.00     0.023 C 
ENDROOT
BRANCH   1   2
ATOM      2  C   UNL A   1      31.901  30.415  26.780  1.00  0.00     0.023 C 
BRANCH   2   3
ATOM      3  C   UNL A   1      33.295  30.071  26.265  1.00  0.00     0.116 C 
BRANCH   3   4
ATOM      4  N   UNL A   1      33.278  29.703  24.861  1.00  0.00    -0.352 N 
ATOM      5  C   UNL A   1      33.024  28.589  24.134  1.00  0.00     0.251 C 
ATOM      6  O   UNL A   1      33.138  28.726  22.912  1.00  0.00    -0.270 OA
ATOM      7  H   UNL A   1      33.516  30.466  24.284  1.00  0.00     0.163 HD
BRANCH   5   8
ATOM      8  C   UNL A   1      32.630  27.263  24.697  1.00  0.00     0.067 C 
ATOM      9  C   UNL A   1      35.117  21.899  26.501  1.00  0.00     0.044 C 
ATOM     10  C   UNL A   1      34.037  22.926  26.327  1.00  0.00    -0.050 A 
ATOM     11  C   UNL A   1      32.710  22.631  26.673  1.00  0.00     0.010 A 
ATOM     12  C   UNL A   1      34.340  24.179  25.778  1.00  0.00     0.015 A 
ATOM     13  C   UNL A   1      31.694  23.578  26.496  1.00  0.00    -0.008 A 
ATOM     14  C   UNL A   1      33.336  25.132  25.588  1.00  0.00     0.018 A 
ATOM     15  C   UNL A   1      30.278  23.256  26.876  1.00  0.00     0.048 C 
ATOM     16  C   UNL A   1      32.021  24.824  25.945  1.00  0.00     0.130 A 
ATOM     17  C   UNL A   1      33.643  26.455  25.056  1.00  0.00     0.025 C 
ATOM     18  O   UNL A   1      31.008  25.734  25.816  1.00  0.00    -0.475 OA
ATOM     19  C   UNL A   1      31.212  26.789  24.840  1.00  0.00     0.314 C 
BRANCH  19  20
ATOM     20  C   UNL A   1      30.586  26.368  23.497  1.00  0.00     0.429 C 
ATOM     21  F   UNL A   1      29.989  27.432  22.901  1.00  0.00    -0.167 F 
ATOM     22  F   UNL A   1      31.509  25.910  22.617  1.00  0.00    -0.167 F 
ATOM     23  F   UNL A   1      29.654  25.400  23.629  1.00  0.00    -0.167 F 
ENDBRANCH  19  20
ENDBRANCH   5   8
ENDBRANCH   3   4
ENDBRANCH   2   3
ENDBRANCH   1   2
BRANCH   1  24
ATOM     24  C   UNL A   1      32.810  32.769  27.329  1.00  0.00     0.116 C 
BRANCH  24  25
ATOM     25  N   UNL A   1      32.460  34.151  27.626  1.00  0.00    -0.352 N 
ATOM     26  C   UNL A   1      33.031  34.990  28.552  1.00  0.00     0.251 C 
ATOM     27  H   UNL A   1      31.722  34.531  27.097  1.00  0.00     0.163 HD
ATOM     28  O   UNL A   1      32.579  36.112  28.751  1.00  0.00    -0.269 OA
BRANCH  26  29
ATOM     29  C   UNL A   1      34.177  34.500  29.339  1.00  0.00     0.039 A 
ATOM     30  C   UNL A   1      33.936  33.899  30.575  1.00  0.00     0.014 A 
ATOM     31  C   UNL A   1      35.473  34.580  28.820  1.00  0.00     0.014 A 
ATOM     32  C   UNL A   1      34.994  33.312  31.268  1.00  0.00     0.010 A 
ATOM     33  C   UNL A   1      36.514  33.941  29.482  1.00  0.00     0.010 A 
ATOM     34  C   UNL A   1      36.282  33.300  30.709  1.00  0.00    -0.014 A 
BRANCH  34  35
ATOM     35  C   UNL A   1      37.409  32.631  31.400  1.00  0.00     0.031 A 
ATOM     36  C   UNL A   1      38.111  31.485  30.735  1.00  0.00     0.074 A 
ATOM     37  C   UNL A   1      37.756  33.018  32.641  1.00  0.00     0.049 A 
ATOM     38  N   UNL A   1      39.060  30.714  31.199  1.00  0.00    -0.248 NA
ATOM     39  C   UNL A   1      37.669  31.143  29.373  1.00  0.00     0.031 C 
ATOM     40  C   UNL A   1      37.123  34.098  33.398  1.00  0.00     0.029 A 
ATOM     41  N   UNL A   1      38.725  32.541  33.487  1.00  0.00    -0.354 N 
ATOM     42  C   UNL A   1      39.321  29.793  30.195  1.00  0.00     0.074 A 
ATOM     43  C   UNL A   1      38.397  30.065  29.116  1.00  0.00     0.031 C 
ATOM     44  C   UNL A   1      37.738  34.220  34.586  1.00  0.00     0.029 A 
ATOM     45  C   UNL A   1      38.784  33.206  34.686  1.00  0.00     0.049 A 
ATOM     46  H   UNL A   1      39.322  31.794  33.255  1.00  0.00     0.167 HD
ATOM     47  C   UNL A   1      40.265  28.825  30.166  1.00  0.00     0.037 A 
ATOM     48  C   UNL A   1      39.591  33.014  35.747  1.00  0.00     0.037 A 
ATOM     49  C   UNL A   1      41.199  28.575  31.231  1.00  0.00     0.049 A 
ATOM     50  C   UNL A   1      40.624  31.923  35.694  1.00  0.00     0.074 A 
ATOM     51  C   UNL A   1      42.220  27.643  31.282  1.00  0.00     0.029 A 
ATOM     52  N   UNL A   1      41.228  29.268  32.432  1.00  0.00    -0.354 N 
ATOM     53  N   UNL A   1      40.886  31.079  34.725  1.00  0.00    -0.248 NA
ATOM     54  C   UNL A   1      41.474  31.757  36.882  1.00  0.00     0.031 C 
ATOM     55  C   UNL A   1      42.847  27.751  32.527  1.00  0.00     0.029 A 
ATOM     56  C   UNL A   1      42.242  28.775  33.237  1.00  0.00     0.049 A 
ATOM     57  H   UNL A   1      40.618  30.001  32.675  1.00  0.00     0.167 HD
ATOM     58  C   UNL A   1      41.937  30.295  35.176  1.00  0.00     0.074 A 
ATOM     59  C   UNL A   1      42.278  30.774  36.501  1.00  0.00     0.031 C 
ATOM     60  C   UNL A   1      42.563  29.267  34.552  1.00  0.00     0.037 A 
BRANCH  47  61
ATOM     61  C   UNL A   1      40.342  27.973  28.935  1.00  0.00     0.064 A 
ATOM     62  C   UNL A   1      39.633  26.767  28.838  1.00  0.00     0.173 A 
ATOM     63  C   UNL A   1      41.103  28.379  27.830  1.00  0.00     0.173 A 
ATOM     64  F   UNL A   1      38.903  26.327  29.875  1.00  0.00    -0.203 F 
ATOM     65  C   UNL A   1      39.702  25.986  27.687  1.00  0.00     0.198 A 
ATOM     66  C   UNL A   1      41.149  27.609  26.670  1.00  0.00     0.198 A 
ATOM     67  F   UNL A   1      41.799  29.526  27.872  1.00  0.00    -0.203 F 
ATOM     68  F   UNL A   1      39.049  24.816  27.634  1.00  0.00    -0.200 F 
ATOM     69  C   UNL A   1      40.453  26.412  26.603  1.00  0.00     0.200 A 
ATOM     70  F   UNL A   1      41.868  28.026  25.619  1.00  0.00    -0.200 F 
ATOM     71  F   UNL A   1      40.512  25.663  25.493  1.00  0.00    -0.200 F 
ENDBRANCH  47  61
BRANCH  48  72
ATOM     72  C   UNL A   1      39.477  33.903  36.931  1.00  0.00     0.064 A 
ATOM     73  C   UNL A   1      40.127  35.145  36.955  1.00  0.00     0.173 A 
ATOM     74  C   UNL A   1      38.710  33.544  38.047  1.00  0.00     0.173 A 
ATOM     75  F   UNL A   1      40.889  35.521  35.919  1.00  0.00    -0.203 F 
ATOM     76  C   UNL A   1      40.020  35.991  38.057  1.00  0.00     0.198 A 
ATOM     77  C   UNL A   1      38.585  34.401  39.139  1.00  0.00     0.198 A 
ATOM     78  F   UNL A   1      38.066  32.367  38.070  1.00  0.00    -0.203 F 
ATOM     79  F   UNL A   1      40.675  37.160  38.068  1.00  0.00    -0.200 F 
ATOM     80  C   UNL A   1      39.243  35.621  39.145  1.00  0.00     0.200 A 
ATOM     81  F   UNL A   1      37.824  34.045  40.184  1.00  0.00    -0.200 F 
ATOM     82  F   UNL A   1      39.134  36.438  40.201  1.00  0.00    -0.200 F 
ENDBRANCH  48  72
BRANCH  60  83
ATOM     83  C   UNL A   1      43.686  28.597  35.285  1.00  0.00     0.064 A 
ATOM     84  C   UNL A   1      45.016  29.002  35.108  1.00  0.00     0.173 A 
ATOM     85  C   UNL A   1      43.423  27.583  36.217  1.00  0.00     0.173 A 
ATOM     86  F   UNL A   1      45.318  29.958  34.216  1.00  0.00    -0.203 F 
ATOM     87  C   UNL A   1      46.046  28.405  35.829  1.00  0.00     0.198 A 
ATOM     88  C   UNL A   1      44.452  27.006  36.955  1.00  0.00     0.198 A 
ATOM     89  F   UNL A   1      42.164  27.165  36.426  1.00  0.00    -0.203 F 
ATOM     90  F   UNL A   1      47.315  28.784  35.622  1.00  0.00    -0.200 F 
ATOM     91  C   UNL A   1      45.762  27.414  36.757  1.00  0.00     0.200 A 
ATOM     92  F   UNL A   1      44.175  26.057  37.860  1.00  0.00    -0.200 F 
ATOM     93  F   UNL A   1      46.753  26.849  37.460  1.00  0.00    -0.200 F 
ENDBRANCH  60  83
ENDBRANCH  34  35
ENDBRANCH  26  29
ENDBRANCH  24  25
ENDBRANCH   1  24
TORSDOF 12
ENDMDL
