MODEL 1
REMARK VINA RESULT:     -14.1      0.000      0.000
REMARK SMILES O=C(NCCCCNC(=O)c1cc2c(c(S(=O)(=O)Nc3cc(C(F)(F)F)ccc3-n3cccn3)c1)CCC2)c1ccc(-c2c3nc(c(-c4c(F)c(F)c(F)c(F)c4F)c4ccc([nH]4)c(-c4c(F)c(F)c(F)c(F)c4F)c4nc(c(-c5c(F)c(F)c(F)c(F)c5F)c5ccc2[nH]5)C=C4)C=C3)cc1
REMARK SMILES IDX 6 1 5 2 4 3 3 4 1 5 2 6 39 8 40 9 101 10 41 11 100 12 42 13
REMARK SMILES IDX 43 14 44 15 94 16 45 17 99 18 93 19 95 20 46 21 98 22 92 23
REMARK SMILES IDX 91 24 47 26 79 27 59 28 78 29 60 30 63 31 77 32 96 33 61 34
REMARK SMILES IDX 62 35 76 37 97 38 64 39 48 40 49 41 57 42 50 43 51 44 55 45
REMARK SMILES IDX 58 46 52 47 53 48 56 49 54 50 80 51 81 52 89 53 82 54 83 55
REMARK SMILES IDX 87 56 90 57 84 58 85 59 88 60 86 61 65 62 66 63 74 64 67 65
REMARK SMILES IDX 68 66 72 67 75 68 69 69 70 70 73 71 71 72 7 73 8 74 9 75
REMARK SMILES IDX 10 77 11 78 12 79 35 80 13 81 15 82 14 83 38 84 36 85 37 86
REMARK SMILES IDX 16 87 17 88 18 89 19 90 20 92 21 93 29 94 22 95 28 96 27 97
REMARK SMILES IDX 30 98 31 99 34 100 32 101 33 102 23 103 24 104 25 105 26 106
REMARK H PARENT 3 7 95 25 63 36 8 76 19 91
REMARK Flexibility Score: inf
ROOT
ATOM      1  C   UNL A   1      38.994  23.527  26.542  1.00  0.00     0.023 C 
ENDROOT
BRANCH   1   2
ATOM      2  C   UNL A   1      39.478  22.083  26.387  1.00  0.00     0.023 C 
BRANCH   2   3
ATOM      3  C   UNL A   1      40.945  21.827  26.744  1.00  0.00     0.116 C 
BRANCH   3   4
ATOM      4  N   UNL A   1      41.899  22.315  25.766  1.00  0.00    -0.352 N 
ATOM      5  O   UNL A   1      43.456  23.445  24.692  1.00  0.00    -0.269 OA
ATOM      6  C   UNL A   1      42.599  23.475  25.580  1.00  0.00     0.251 C 
ATOM      7  H   UNL A   1      42.089  21.649  25.067  1.00  0.00     0.163 HD
BRANCH   6   8
ATOM      8  C   UNL A   1      42.393  24.755  26.321  1.00  0.00     0.039 A 
ATOM      9  C   UNL A   1      42.648  24.966  27.674  1.00  0.00     0.014 A 
ATOM     10  C   UNL A   1      41.863  25.827  25.571  1.00  0.00     0.014 A 
ATOM     11  C   UNL A   1      42.340  26.191  28.272  1.00  0.00     0.010 A 
ATOM     12  C   UNL A   1      41.565  27.056  26.162  1.00  0.00     0.010 A 
ATOM     13  C   UNL A   1      41.781  27.234  27.523  1.00  0.00    -0.014 A 
BRANCH  13  14
ATOM     14  C   UNL A   1      41.545  28.513  28.198  1.00  0.00     0.031 A 
ATOM     15  C   UNL A   1      42.591  29.565  28.008  1.00  0.00     0.074 A 
ATOM     16  C   UNL A   1      40.414  28.845  28.853  1.00  0.00     0.049 A 
ATOM     17  N   UNL A   1      43.288  30.185  28.908  1.00  0.00    -0.248 NA
ATOM     18  C   UNL A   1      42.916  29.953  26.627  1.00  0.00     0.031 C 
ATOM     19  C   UNL A   1      39.141  28.124  28.896  1.00  0.00     0.029 A 
ATOM     20  N   UNL A   1      40.155  29.981  29.567  1.00  0.00    -0.354 N 
ATOM     21  C   UNL A   1      44.047  31.137  28.227  1.00  0.00     0.074 A 
ATOM     22  C   UNL A   1      43.834  30.901  26.821  1.00  0.00     0.031 C 
ATOM     23  C   UNL A   1      38.192  28.929  29.431  1.00  0.00     0.029 A 
ATOM     24  C   UNL A   1      38.820  30.157  29.894  1.00  0.00     0.049 A 
ATOM     25  H   UNL A   1      40.856  30.620  29.828  1.00  0.00     0.167 HD
ATOM     26  C   UNL A   1      44.692  32.154  28.865  1.00  0.00     0.037 A 
ATOM     27  C   UNL A   1      38.260  31.254  30.459  1.00  0.00     0.037 A 
ATOM     28  C   UNL A   1      44.875  31.884  30.263  1.00  0.00     0.049 A 
ATOM     29  C   UNL A   1      39.333  32.036  31.115  1.00  0.00     0.074 A 
ATOM     30  C   UNL A   1      45.537  30.913  30.988  1.00  0.00     0.029 A 
ATOM     31  N   UNL A   1      44.084  32.537  31.172  1.00  0.00    -0.354 N 
ATOM     32  N   UNL A   1      39.966  31.669  32.193  1.00  0.00    -0.248 NA
ATOM     33  C   UNL A   1      39.959  33.108  30.356  1.00  0.00     0.031 C 
ATOM     34  C   UNL A   1      44.739  30.710  32.152  1.00  0.00     0.029 A 
ATOM     35  C   UNL A   1      43.659  31.589  32.067  1.00  0.00     0.049 A 
ATOM     36  H   UNL A   1      43.864  33.497  31.183  1.00  0.00     0.167 HD
ATOM     37  C   UNL A   1      41.250  32.160  32.030  1.00  0.00     0.074 A 
ATOM     38  C   UNL A   1      41.154  33.132  30.949  1.00  0.00     0.031 C 
ATOM     39  C   UNL A   1      42.321  31.534  32.599  1.00  0.00     0.037 A 
BRANCH  26  40
ATOM     40  C   UNL A   1      44.932  33.522  28.280  1.00  0.00     0.064 A 
ATOM     41  C   UNL A   1      46.250  33.990  28.100  1.00  0.00     0.173 A 
ATOM     42  C   UNL A   1      43.917  34.497  28.162  1.00  0.00     0.173 A 
ATOM     43  F   UNL A   1      47.294  33.156  28.220  1.00  0.00    -0.203 F 
ATOM     44  C   UNL A   1      46.532  35.342  27.881  1.00  0.00     0.198 A 
ATOM     45  C   UNL A   1      44.200  35.835  27.891  1.00  0.00     0.198 A 
ATOM     46  F   UNL A   1      42.634  34.210  28.410  1.00  0.00    -0.203 F 
ATOM     47  F   UNL A   1      47.806  35.758  27.833  1.00  0.00    -0.200 F 
ATOM     48  C   UNL A   1      45.507  36.264  27.780  1.00  0.00     0.200 A 
ATOM     49  F   UNL A   1      43.195  36.719  27.816  1.00  0.00    -0.200 F 
ATOM     50  F   UNL A   1      45.777  37.566  27.626  1.00  0.00    -0.200 F 
ENDBRANCH  26  40
BRANCH  27  51
ATOM     51  C   UNL A   1      36.902  31.806  30.264  1.00  0.00     0.064 A 
ATOM     52  C   UNL A   1      35.993  31.902  31.329  1.00  0.00     0.173 A 
ATOM     53  C   UNL A   1      36.573  32.513  29.091  1.00  0.00     0.173 A 
ATOM     54  F   UNL A   1      36.254  31.297  32.497  1.00  0.00    -0.203 F 
ATOM     55  C   UNL A   1      34.833  32.679  31.235  1.00  0.00     0.198 A 
ATOM     56  C   UNL A   1      35.412  33.281  28.996  1.00  0.00     0.198 A 
ATOM     57  F   UNL A   1      37.420  32.550  28.053  1.00  0.00    -0.203 F 
ATOM     58  F   UNL A   1      34.021  32.798  32.294  1.00  0.00    -0.200 F 
ATOM     59  C   UNL A   1      34.551  33.376  30.072  1.00  0.00     0.200 A 
ATOM     60  F   UNL A   1      35.169  33.980  27.878  1.00  0.00    -0.200 F 
ATOM     61  F   UNL A   1      33.474  34.170  30.003  1.00  0.00    -0.200 F 
ENDBRANCH  27  51
BRANCH  39  62
ATOM     62  C   UNL A   1      42.054  30.497  33.650  1.00  0.00     0.064 A 
ATOM     63  C   UNL A   1      41.702  29.167  33.362  1.00  0.00     0.173 A 
ATOM     64  C   UNL A   1      42.316  30.823  34.988  1.00  0.00     0.173 A 
ATOM     65  F   UNL A   1      41.538  28.755  32.099  1.00  0.00    -0.203 F 
ATOM     66  C   UNL A   1      41.576  28.220  34.377  1.00  0.00     0.198 A 
ATOM     67  C   UNL A   1      42.227  29.865  35.995  1.00  0.00     0.198 A 
ATOM     68  F   UNL A   1      42.713  32.064  35.313  1.00  0.00    -0.203 F 
ATOM     69  F   UNL A   1      41.232  26.959  34.079  1.00  0.00    -0.200 F 
ATOM     70  C   UNL A   1      41.848  28.568  35.690  1.00  0.00     0.200 A 
ATOM     71  F   UNL A   1      42.540  30.192  37.256  1.00  0.00    -0.200 F 
ATOM     72  F   UNL A   1      41.774  27.644  36.659  1.00  0.00    -0.200 F 
ENDBRANCH  39  62
ENDBRANCH  13  14
ENDBRANCH   6   8
ENDBRANCH   3   4
ENDBRANCH   2   3
ENDBRANCH   1   2
BRANCH   1  73
ATOM     73  C   UNL A   1      37.516  23.789  26.264  1.00  0.00     0.116 C 
BRANCH  73  74
ATOM     74  N   UNL A   1      37.122  23.597  24.870  1.00  0.00    -0.352 N 
ATOM     75  C   UNL A   1      35.859  23.657  24.297  1.00  0.00     0.251 C 
ATOM     76  H   UNL A   1      37.857  23.397  24.248  1.00  0.00     0.163 HD
ATOM     77  O   UNL A   1      35.701  23.407  23.111  1.00  0.00    -0.269 OA
BRANCH  75  78
ATOM     78  C   UNL A   1      34.688  23.990  25.147  1.00  0.00     0.041 A 
ATOM     79  C   UNL A   1      33.792  22.976  25.479  1.00  0.00     0.018 A 
ATOM     80  C   UNL A   1      34.418  25.340  25.478  1.00  0.00     0.036 A 
ATOM     81  C   UNL A   1      32.530  23.355  25.884  1.00  0.00    -0.043 A 
ATOM     82  C   UNL A   1      33.146  25.710  25.963  1.00  0.00     0.092 A 
ATOM     83  C   UNL A   1      32.181  24.710  26.038  1.00  0.00    -0.024 A 
ATOM     84  C   UNL A   1      31.340  22.455  26.019  1.00  0.00     0.036 C 
ATOM     85  C   UNL A   1      30.687  24.793  26.078  1.00  0.00     0.037 C 
ATOM     86  C   UNL A   1      30.330  23.416  26.642  1.00  0.00     0.010 C 
BRANCH  82  87
ATOM     87  S   UNL A   1      32.752  27.441  26.150  1.00  0.00     0.262 S 
ATOM     88  O   UNL A   1      31.390  27.527  26.616  1.00  0.00    -0.201 OA
ATOM     89  O   UNL A   1      33.820  28.051  26.930  1.00  0.00    -0.201 OA
BRANCH  87  90
ATOM     90  N   UNL A   1      32.726  28.248  24.641  1.00  0.00    -0.277 N 
ATOM     91  H   UNL A   1      33.579  28.504  24.221  1.00  0.00     0.180 HD
BRANCH  90  92
ATOM     92  C   UNL A   1      31.495  28.561  23.973  1.00  0.00     0.075 A 
ATOM     93  C   UNL A   1      30.798  29.727  24.333  1.00  0.00     0.042 A 
ATOM     94  C   UNL A   1      31.051  27.807  22.874  1.00  0.00     0.089 A 
ATOM     95  C   UNL A   1      29.702  30.180  23.567  1.00  0.00     0.058 A 
ATOM     96  C   UNL A   1      29.943  28.238  22.128  1.00  0.00     0.031 A 
ATOM     97  C   UNL A   1      29.270  29.412  22.477  1.00  0.00     0.015 A 
BRANCH  94  98
ATOM     98  N   UNL A   1      31.735  26.639  22.456  1.00  0.00    -0.239 N 
ATOM     99  C   UNL A   1      31.324  25.329  22.558  1.00  0.00     0.115 A 
ATOM    100  N   UNL A   1      32.998  26.720  21.964  1.00  0.00    -0.177 NA
ATOM    101  C   UNL A   1      32.425  24.545  22.326  1.00  0.00     0.042 A 
ATOM    102  C   UNL A   1      33.437  25.458  21.996  1.00  0.00     0.135 A 
ENDBRANCH  94  98
BRANCH  95 103
ATOM    103  C   UNL A   1      29.055  31.514  23.869  1.00  0.00     0.416 C 
ATOM    104  F   UNL A   1      27.750  31.397  24.227  1.00  0.00    -0.166 F 
ATOM    105  F   UNL A   1      29.672  32.168  24.894  1.00  0.00    -0.166 F 
ATOM    106  F   UNL A   1      29.083  32.379  22.816  1.00  0.00    -0.166 F 
ENDBRANCH  95 103
ENDBRANCH  90  92
ENDBRANCH  87  90
ENDBRANCH  82  87
ENDBRANCH  75  78
ENDBRANCH  73  74
ENDBRANCH   1  73
TORSDOF 16
ENDMDL
MODEL 2
REMARK VINA RESULT:     -13.8      1.586      2.276
REMARK SMILES O=C(NCCCCNC(=O)c1cc2c(c(S(=O)(=O)Nc3cc(C(F)(F)F)ccc3-n3cccn3)c1)CCC2)c1ccc(-c2c3nc(c(-c4c(F)c(F)c(F)c(F)c4F)c4ccc([nH]4)c(-c4c(F)c(F)c(F)c(F)c4F)c4nc(c(-c5c(F)c(F)c(F)c(F)c5F)c5ccc2[nH]5)C=C4)C=C3)cc1
REMARK SMILES IDX 6 1 5 2 4 3 3 4 1 5 2 6 39 8 40 9 101 10 41 11 100 12 42 13
REMARK SMILES IDX 43 14 44 15 94 16 45 17 99 18 93 19 95 20 46 21 98 22 92 23
REMARK SMILES IDX 91 24 47 26 79 27 59 28 78 29 60 30 63 31 77 32 96 33 61 34
REMARK SMILES IDX 62 35 76 37 97 38 64 39 48 40 49 41 57 42 50 43 51 44 55 45
REMARK SMILES IDX 58 46 52 47 53 48 56 49 54 50 80 51 81 52 89 53 82 54 83 55
REMARK SMILES IDX 87 56 90 57 84 58 85 59 88 60 86 61 65 62 66 63 74 64 67 65
REMARK SMILES IDX 68 66 72 67 75 68 69 69 70 70 73 71 71 72 7 73 8 74 9 75
REMARK SMILES IDX 10 77 11 78 12 79 35 80 13 81 15 82 14 83 38 84 36 85 37 86
REMARK SMILES IDX 16 87 17 88 18 89 19 90 20 92 21 93 29 94 22 95 28 96 27 97
REMARK SMILES IDX 30 98 31 99 34 100 32 101 33 102 23 103 24 104 25 105 26 106
REMARK H PARENT 3 7 95 25 63 36 8 76 19 91
REMARK Flexibility Score: inf
ROOT
ATOM      1  C   UNL A   1      38.907  23.467  26.819  1.00  0.00     0.023 C 
ENDROOT
BRANCH   1   2
ATOM      2  C   UNL A   1      39.513  22.124  26.405  1.00  0.00     0.023 C 
BRANCH   2   3
ATOM      3  C   UNL A   1      40.982  21.910  26.777  1.00  0.00     0.116 C 
BRANCH   3   4
ATOM      4  N   UNL A   1      41.932  22.377  25.785  1.00  0.00    -0.352 N 
ATOM      5  O   UNL A   1      43.482  23.485  24.678  1.00  0.00    -0.269 OA
ATOM      6  C   UNL A   1      42.628  23.535  25.568  1.00  0.00     0.251 C 
ATOM      7  H   UNL A   1      42.120  21.695  25.100  1.00  0.00     0.163 HD
BRANCH   6   8
ATOM      8  C   UNL A   1      42.423  24.831  26.280  1.00  0.00     0.039 A 
ATOM      9  C   UNL A   1      42.999  25.197  27.494  1.00  0.00     0.014 A 
ATOM     10  C   UNL A   1      41.538  25.742  25.666  1.00  0.00     0.014 A 
ATOM     11  C   UNL A   1      42.667  26.411  28.101  1.00  0.00     0.010 A 
ATOM     12  C   UNL A   1      41.212  26.961  26.262  1.00  0.00     0.010 A 
ATOM     13  C   UNL A   1      41.759  27.290  27.497  1.00  0.00    -0.014 A 
BRANCH  13  14
ATOM     14  C   UNL A   1      41.507  28.575  28.153  1.00  0.00     0.031 A 
ATOM     15  C   UNL A   1      42.544  29.634  27.957  1.00  0.00     0.074 A 
ATOM     16  C   UNL A   1      40.368  28.904  28.797  1.00  0.00     0.049 A 
ATOM     17  N   UNL A   1      43.229  30.272  28.854  1.00  0.00    -0.248 NA
ATOM     18  C   UNL A   1      42.874  30.008  26.574  1.00  0.00     0.031 C 
ATOM     19  C   UNL A   1      39.101  28.172  28.841  1.00  0.00     0.029 A 
ATOM     20  N   UNL A   1      40.093  30.047  29.495  1.00  0.00    -0.354 N 
ATOM     21  C   UNL A   1      43.983  31.222  28.166  1.00  0.00     0.074 A 
ATOM     22  C   UNL A   1      43.782  30.967  26.761  1.00  0.00     0.031 C 
ATOM     23  C   UNL A   1      38.142  28.975  29.359  1.00  0.00     0.029 A 
ATOM     24  C   UNL A   1      38.755  30.214  29.811  1.00  0.00     0.049 A 
ATOM     25  H   UNL A   1      40.787  30.696  29.753  1.00  0.00     0.167 HD
ATOM     26  C   UNL A   1      44.615  32.253  28.795  1.00  0.00     0.037 A 
ATOM     27  C   UNL A   1      38.182  31.313  30.359  1.00  0.00     0.037 A 
ATOM     28  C   UNL A   1      44.791  32.003  30.197  1.00  0.00     0.049 A 
ATOM     29  C   UNL A   1      39.243  32.113  31.012  1.00  0.00     0.074 A 
ATOM     30  C   UNL A   1      45.457  31.046  30.939  1.00  0.00     0.029 A 
ATOM     31  N   UNL A   1      43.988  32.660  31.093  1.00  0.00    -0.354 N 
ATOM     32  N   UNL A   1      39.871  31.766  32.098  1.00  0.00    -0.248 NA
ATOM     33  C   UNL A   1      39.864  33.181  30.244  1.00  0.00     0.031 C 
ATOM     34  C   UNL A   1      44.654  30.851  32.100  1.00  0.00     0.029 A 
ATOM     35  C   UNL A   1      43.566  31.719  31.997  1.00  0.00     0.049 A 
ATOM     36  H   UNL A   1      43.760  33.617  31.090  1.00  0.00     0.167 HD
ATOM     37  C   UNL A   1      41.152  32.267  31.938  1.00  0.00     0.074 A 
ATOM     38  C   UNL A   1      41.054  33.224  30.844  1.00  0.00     0.031 C 
ATOM     39  C   UNL A   1      42.225  31.658  32.521  1.00  0.00     0.037 A 
BRANCH  26  40
ATOM     40  C   UNL A   1      44.846  33.616  28.194  1.00  0.00     0.064 A 
ATOM     41  C   UNL A   1      46.158  34.115  28.062  1.00  0.00     0.173 A 
ATOM     42  C   UNL A   1      43.814  34.562  28.014  1.00  0.00     0.173 A 
ATOM     43  F   UNL A   1      47.217  33.309  28.242  1.00  0.00    -0.203 F 
ATOM     44  C   UNL A   1      46.416  35.468  27.829  1.00  0.00     0.198 A 
ATOM     45  C   UNL A   1      44.074  35.902  27.730  1.00  0.00     0.198 A 
ATOM     46  F   UNL A   1      42.528  34.247  28.213  1.00  0.00    -0.203 F 
ATOM     47  F   UNL A   1      47.680  35.916  27.828  1.00  0.00    -0.200 F 
ATOM     48  C   UNL A   1      45.374  36.362  27.667  1.00  0.00     0.200 A 
ATOM     49  F   UNL A   1      43.052  36.759  27.595  1.00  0.00    -0.200 F 
ATOM     50  F   UNL A   1      45.618  37.668  27.499  1.00  0.00    -0.200 F 
ENDBRANCH  26  40
BRANCH  27  51
ATOM     51  C   UNL A   1      36.819  31.850  30.147  1.00  0.00     0.064 A 
ATOM     52  C   UNL A   1      35.936  32.043  31.221  1.00  0.00     0.173 A 
ATOM     53  C   UNL A   1      36.463  32.450  28.925  1.00  0.00     0.173 A 
ATOM     54  F   UNL A   1      36.225  31.544  32.432  1.00  0.00    -0.203 F 
ATOM     55  C   UNL A   1      34.776  32.812  31.087  1.00  0.00     0.198 A 
ATOM     56  C   UNL A   1      35.301  33.211  28.789  1.00  0.00     0.198 A 
ATOM     57  F   UNL A   1      37.284  32.391  27.867  1.00  0.00    -0.203 F 
ATOM     58  F   UNL A   1      33.989  33.028  32.150  1.00  0.00    -0.200 F 
ATOM     59  C   UNL A   1      34.466  33.404  29.873  1.00  0.00     0.200 A 
ATOM     60  F   UNL A   1      35.032  33.808  27.620  1.00  0.00    -0.200 F 
ATOM     61  F   UNL A   1      33.388  34.192  29.759  1.00  0.00    -0.200 F 
ENDBRANCH  27  51
BRANCH  39  62
ATOM     62  C   UNL A   1      41.960  30.631  33.584  1.00  0.00     0.064 A 
ATOM     63  C   UNL A   1      41.626  29.294  33.310  1.00  0.00     0.173 A 
ATOM     64  C   UNL A   1      42.208  30.978  34.919  1.00  0.00     0.173 A 
ATOM     65  F   UNL A   1      41.477  28.864  32.051  1.00  0.00    -0.203 F 
ATOM     66  C   UNL A   1      41.502  28.359  34.336  1.00  0.00     0.198 A 
ATOM     67  C   UNL A   1      42.121  30.032  35.937  1.00  0.00     0.198 A 
ATOM     68  F   UNL A   1      42.589  32.227  35.231  1.00  0.00    -0.203 F 
ATOM     69  F   UNL A   1      41.174  27.090  34.052  1.00  0.00    -0.200 F 
ATOM     70  C   UNL A   1      41.759  28.727  35.646  1.00  0.00     0.200 A 
ATOM     71  F   UNL A   1      42.420  30.379  37.197  1.00  0.00    -0.200 F 
ATOM     72  F   UNL A   1      41.687  27.815  36.627  1.00  0.00    -0.200 F 
ENDBRANCH  39  62
ENDBRANCH  13  14
ENDBRANCH   6   8
ENDBRANCH   3   4
ENDBRANCH   2   3
ENDBRANCH   1   2
BRANCH   1  73
ATOM     73  C   UNL A   1      37.690  23.943  26.028  1.00  0.00     0.116 C 
BRANCH  73  74
ATOM     74  N   UNL A   1      37.610  23.414  24.668  1.00  0.00    -0.352 N 
ATOM     75  C   UNL A   1      36.508  23.300  23.833  1.00  0.00     0.251 C 
ATOM     76  H   UNL A   1      38.459  23.091  24.291  1.00  0.00     0.163 HD
ATOM     77  O   UNL A   1      36.610  22.770  22.736  1.00  0.00    -0.269 OA
BRANCH  75  78
ATOM     78  C   UNL A   1      35.187  23.795  24.297  1.00  0.00     0.041 A 
ATOM     79  C   UNL A   1      34.542  23.115  25.329  1.00  0.00     0.018 A 
ATOM     80  C   UNL A   1      34.540  24.841  23.597  1.00  0.00     0.036 A 
ATOM     81  C   UNL A   1      33.183  23.303  25.457  1.00  0.00    -0.043 A 
ATOM     82  C   UNL A   1      33.162  25.077  23.788  1.00  0.00     0.092 A 
ATOM     83  C   UNL A   1      32.483  24.207  24.636  1.00  0.00    -0.024 A 
ATOM     84  C   UNL A   1      32.255  22.479  26.296  1.00  0.00     0.036 C 
ATOM     85  C   UNL A   1      31.026  23.881  24.740  1.00  0.00     0.037 C 
ATOM     86  C   UNL A   1      30.959  23.272  26.142  1.00  0.00     0.010 C 
BRANCH  82  87
ATOM     87  S   UNL A   1      32.319  26.240  22.729  1.00  0.00     0.262 S 
ATOM     88  O   UNL A   1      33.240  27.312  22.444  1.00  0.00    -0.201 OA
ATOM     89  O   UNL A   1      31.730  25.485  21.632  1.00  0.00    -0.201 OA
BRANCH  87  90
ATOM     90  N   UNL A   1      31.025  27.010  23.543  1.00  0.00    -0.277 N 
ATOM     91  H   UNL A   1      30.110  26.666  23.419  1.00  0.00     0.180 HD
BRANCH  90  92
ATOM     92  C   UNL A   1      31.237  28.142  24.399  1.00  0.00     0.075 A 
ATOM     93  C   UNL A   1      32.223  28.070  25.397  1.00  0.00     0.042 A 
ATOM     94  C   UNL A   1      30.582  29.362  24.167  1.00  0.00     0.089 A 
ATOM     95  C   UNL A   1      32.606  29.220  26.120  1.00  0.00     0.058 A 
ATOM     96  C   UNL A   1      30.938  30.502  24.905  1.00  0.00     0.031 A 
ATOM     97  C   UNL A   1      31.938  30.429  25.878  1.00  0.00     0.015 A 
BRANCH  94  98
ATOM     98  N   UNL A   1      29.599  29.492  23.155  1.00  0.00    -0.239 N 
ATOM     99  C   UNL A   1      29.525  30.438  22.157  1.00  0.00     0.115 A 
ATOM    100  N   UNL A   1      28.511  28.679  23.143  1.00  0.00    -0.177 NA
ATOM    101  C   UNL A   1      28.261  30.364  21.630  1.00  0.00     0.042 A 
ATOM    102  C   UNL A   1      27.670  29.282  22.298  1.00  0.00     0.135 A 
ENDBRANCH  94  98
BRANCH  95 103
ATOM    103  C   UNL A   1      33.773  29.168  27.082  1.00  0.00     0.416 C 
ATOM    104  F   UNL A   1      34.395  30.369  27.219  1.00  0.00    -0.166 F 
ATOM    105  F   UNL A   1      33.394  28.792  28.336  1.00  0.00    -0.166 F 
ATOM    106  F   UNL A   1      34.740  28.281  26.711  1.00  0.00    -0.166 F 
ENDBRANCH  95 103
ENDBRANCH  90  92
ENDBRANCH  87  90
ENDBRANCH  82  87
ENDBRANCH  75  78
ENDBRANCH  73  74
ENDBRANCH   1  73
TORSDOF 16
ENDMDL
MODEL 3
REMARK VINA RESULT:     -13.7      4.066      9.123
REMARK SMILES O=C(NCCCCNC(=O)c1cc2c(c(S(=O)(=O)Nc3cc(C(F)(F)F)ccc3-n3cccn3)c1)CCC2)c1ccc(-c2c3nc(c(-c4c(F)c(F)c(F)c(F)c4F)c4ccc([nH]4)c(-c4c(F)c(F)c(F)c(F)c4F)c4nc(c(-c5c(F)c(F)c(F)c(F)c5F)c5ccc2[nH]5)C=C4)C=C3)cc1
REMARK SMILES IDX 6 1 5 2 4 3 3 4 1 5 2 6 39 8 40 9 101 10 41 11 100 12 42 13
REMARK SMILES IDX 43 14 44 15 94 16 45 17 99 18 93 19 95 20 46 21 98 22 92 23
REMARK SMILES IDX 91 24 47 26 79 27 59 28 78 29 60 30 63 31 77 32 96 33 61 34
REMARK SMILES IDX 62 35 76 37 97 38 64 39 48 40 49 41 57 42 50 43 51 44 55 45
REMARK SMILES IDX 58 46 52 47 53 48 56 49 54 50 80 51 81 52 89 53 82 54 83 55
REMARK SMILES IDX 87 56 90 57 84 58 85 59 88 60 86 61 65 62 66 63 74 64 67 65
REMARK SMILES IDX 68 66 72 67 75 68 69 69 70 70 73 71 71 72 7 73 8 74 9 75
REMARK SMILES IDX 10 77 11 78 12 79 35 80 13 81 15 82 14 83 38 84 36 85 37 86
REMARK SMILES IDX 16 87 17 88 18 89 19 90 20 92 21 93 29 94 22 95 28 96 27 97
REMARK SMILES IDX 30 98 31 99 34 100 32 101 33 102 23 103 24 104 25 105 26 106
REMARK H PARENT 3 7 95 25 63 36 8 76 19 91
REMARK Flexibility Score: inf
ROOT
ATOM      1  C   UNL A   1      33.984  29.232  27.519  1.00  0.00     0.023 C 
ENDROOT
BRANCH   1   2
ATOM      2  C   UNL A   1      33.477  30.669  27.374  1.00  0.00     0.023 C 
BRANCH   2   3
ATOM      3  C   UNL A   1      34.424  31.766  27.868  1.00  0.00     0.116 C 
BRANCH   3   4
ATOM      4  N   UNL A   1      34.355  32.026  29.293  1.00  0.00    -0.352 N 
ATOM      5  O   UNL A   1      34.822  32.376  31.418  1.00  0.00    -0.269 OA
ATOM      6  C   UNL A   1      35.203  31.876  30.356  1.00  0.00     0.251 C 
ATOM      7  H   UNL A   1      33.485  32.403  29.561  1.00  0.00     0.163 HD
BRANCH   6   8
ATOM      8  C   UNL A   1      36.505  31.145  30.345  1.00  0.00     0.039 A 
ATOM      9  C   UNL A   1      37.769  31.728  30.286  1.00  0.00     0.014 A 
ATOM     10  C   UNL A   1      36.426  29.736  30.366  1.00  0.00     0.014 A 
ATOM     11  C   UNL A   1      38.915  30.933  30.202  1.00  0.00     0.010 A 
ATOM     12  C   UNL A   1      37.568  28.937  30.295  1.00  0.00     0.010 A 
ATOM     13  C   UNL A   1      38.818  29.536  30.188  1.00  0.00    -0.014 A 
BRANCH  13  14
ATOM     14  C   UNL A   1      40.063  28.762  30.166  1.00  0.00     0.031 A 
ATOM     15  C   UNL A   1      40.773  28.613  31.473  1.00  0.00     0.074 A 
ATOM     16  C   UNL A   1      40.530  28.079  29.101  1.00  0.00     0.049 A 
ATOM     17  N   UNL A   1      41.985  28.956  31.779  1.00  0.00    -0.248 NA
ATOM     18  C   UNL A   1      40.017  28.027  32.591  1.00  0.00     0.031 C 
ATOM     19  C   UNL A   1      39.860  27.803  27.830  1.00  0.00     0.029 A 
ATOM     20  N   UNL A   1      41.713  27.404  28.985  1.00  0.00    -0.354 N 
ATOM     21  C   UNL A   1      42.199  28.514  33.085  1.00  0.00     0.074 A 
ATOM     22  C   UNL A   1      40.932  28.016  33.561  1.00  0.00     0.031 C 
ATOM     23  C   UNL A   1      40.561  26.862  27.153  1.00  0.00     0.029 A 
ATOM     24  C   UNL A   1      41.792  26.579  27.874  1.00  0.00     0.049 A 
ATOM     25  H   UNL A   1      42.448  27.497  29.634  1.00  0.00     0.167 HD
ATOM     26  C   UNL A   1      43.440  28.453  33.645  1.00  0.00     0.037 A 
ATOM     27  C   UNL A   1      42.774  25.690  27.592  1.00  0.00     0.037 A 
ATOM     28  C   UNL A   1      44.387  29.278  32.950  1.00  0.00     0.049 A 
ATOM     29  C   UNL A   1      43.976  26.062  28.374  1.00  0.00     0.074 A 
ATOM     30  C   UNL A   1      44.492  30.631  32.689  1.00  0.00     0.029 A 
ATOM     31  N   UNL A   1      45.315  28.681  32.138  1.00  0.00    -0.354 N 
ATOM     32  N   UNL A   1      44.712  27.112  28.147  1.00  0.00    -0.248 NA
ATOM     33  C   UNL A   1      44.175  25.425  29.667  1.00  0.00     0.031 C 
ATOM     34  C   UNL A   1      45.095  30.714  31.401  1.00  0.00     0.029 A 
ATOM     35  C   UNL A   1      45.338  29.407  30.976  1.00  0.00     0.049 A 
ATOM     36  H   UNL A   1      45.860  27.887  32.347  1.00  0.00     0.167 HD
ATOM     37  C   UNL A   1      45.153  27.508  29.398  1.00  0.00     0.074 A 
ATOM     38  C   UNL A   1      44.893  26.372  30.273  1.00  0.00     0.031 C 
ATOM     39  C   UNL A   1      45.433  28.817  29.665  1.00  0.00     0.037 A 
BRANCH  26  40
ATOM     40  C   UNL A   1      43.871  27.438  34.673  1.00  0.00     0.064 A 
ATOM     41  C   UNL A   1      43.858  26.065  34.354  1.00  0.00     0.173 A 
ATOM     42  C   UNL A   1      44.015  27.744  36.043  1.00  0.00     0.173 A 
ATOM     43  F   UNL A   1      43.697  25.659  33.085  1.00  0.00    -0.203 F 
ATOM     44  C   UNL A   1      43.923  25.075  35.339  1.00  0.00     0.198 A 
ATOM     45  C   UNL A   1      44.132  26.754  37.019  1.00  0.00     0.198 A 
ATOM     46  F   UNL A   1      43.939  29.002  36.495  1.00  0.00    -0.203 F 
ATOM     47  F   UNL A   1      43.790  23.785  34.998  1.00  0.00    -0.200 F 
ATOM     48  C   UNL A   1      44.056  25.420  36.671  1.00  0.00     0.200 A 
ATOM     49  F   UNL A   1      44.240  27.106  38.307  1.00  0.00    -0.200 F 
ATOM     50  F   UNL A   1      44.062  24.477  37.621  1.00  0.00    -0.200 F 
ENDBRANCH  26  40
BRANCH  27  51
ATOM     51  C   UNL A   1      42.675  24.394  26.885  1.00  0.00     0.064 A 
ATOM     52  C   UNL A   1      43.210  24.223  25.598  1.00  0.00     0.173 A 
ATOM     53  C   UNL A   1      42.308  23.223  27.574  1.00  0.00     0.173 A 
ATOM     54  F   UNL A   1      43.628  25.284  24.893  1.00  0.00    -0.203 F 
ATOM     55  C   UNL A   1      43.389  22.952  25.042  1.00  0.00     0.198 A 
ATOM     56  C   UNL A   1      42.479  21.956  27.015  1.00  0.00     0.198 A 
ATOM     57  F   UNL A   1      41.867  23.281  28.839  1.00  0.00    -0.203 F 
ATOM     58  F   UNL A   1      43.961  22.823  23.837  1.00  0.00    -0.200 F 
ATOM     59  C   UNL A   1      43.033  21.819  25.757  1.00  0.00     0.200 A 
ATOM     60  F   UNL A   1      42.165  20.867  27.731  1.00  0.00    -0.200 F 
ATOM     61  F   UNL A   1      43.261  20.600  25.251  1.00  0.00    -0.200 F 
ENDBRANCH  27  51
BRANCH  39  62
ATOM     62  C   UNL A   1      45.555  29.762  28.505  1.00  0.00     0.064 A 
ATOM     63  C   UNL A   1      44.456  30.383  27.888  1.00  0.00     0.173 A 
ATOM     64  C   UNL A   1      46.837  30.169  28.111  1.00  0.00     0.173 A 
ATOM     65  F   UNL A   1      43.204  30.124  28.284  1.00  0.00    -0.203 F 
ATOM     66  C   UNL A   1      44.638  31.338  26.888  1.00  0.00     0.198 A 
ATOM     67  C   UNL A   1      47.014  31.150  27.139  1.00  0.00     0.198 A 
ATOM     68  F   UNL A   1      47.921  29.651  28.709  1.00  0.00    -0.203 F 
ATOM     69  F   UNL A   1      43.574  31.912  26.307  1.00  0.00    -0.200 F 
ATOM     70  C   UNL A   1      45.916  31.726  26.522  1.00  0.00     0.200 A 
ATOM     71  F   UNL A   1      48.251  31.560  26.824  1.00  0.00    -0.200 F 
ATOM     72  F   UNL A   1      46.089  32.680  25.595  1.00  0.00    -0.200 F 
ENDBRANCH  39  62
ENDBRANCH  13  14
ENDBRANCH   6   8
ENDBRANCH   3   4
ENDBRANCH   2   3
ENDBRANCH   1   2
BRANCH   1  73
ATOM     73  C   UNL A   1      32.969  28.118  27.273  1.00  0.00     0.116 C 
BRANCH  73  74
ATOM     74  N   UNL A   1      31.905  28.468  26.335  1.00  0.00    -0.352 N 
ATOM     75  C   UNL A   1      31.437  27.766  25.233  1.00  0.00     0.251 C 
ATOM     76  H   UNL A   1      31.455  29.326  26.509  1.00  0.00     0.163 HD
ATOM     77  O   UNL A   1      30.571  28.241  24.513  1.00  0.00    -0.269 OA
BRANCH  75  78
ATOM     78  C   UNL A   1      32.026  26.441  24.909  1.00  0.00     0.041 A 
ATOM     79  C   UNL A   1      32.629  26.263  23.666  1.00  0.00     0.018 A 
ATOM     80  C   UNL A   1      31.837  25.351  25.791  1.00  0.00     0.036 A 
ATOM     81  C   UNL A   1      32.780  24.969  23.216  1.00  0.00    -0.043 A 
ATOM     82  C   UNL A   1      32.066  24.031  25.347  1.00  0.00     0.092 A 
ATOM     83  C   UNL A   1      32.419  23.866  24.011  1.00  0.00    -0.024 A 
ATOM     84  C   UNL A   1      33.138  24.557  21.820  1.00  0.00     0.036 C 
ATOM     85  C   UNL A   1      32.318  22.672  23.113  1.00  0.00     0.037 C 
ATOM     86  C   UNL A   1      33.305  23.051  22.007  1.00  0.00     0.010 C 
BRANCH  82  87
ATOM     87  S   UNL A   1      31.599  22.663  26.394  1.00  0.00     0.262 S 
ATOM     88  O   UNL A   1      31.034  23.215  27.600  1.00  0.00    -0.201 OA
ATOM     89  O   UNL A   1      30.812  21.742  25.586  1.00  0.00    -0.201 OA
BRANCH  87  90
ATOM     90  N   UNL A   1      32.967  21.791  26.938  1.00  0.00    -0.277 N 
ATOM     91  H   UNL A   1      32.930  21.340  27.812  1.00  0.00     0.180 HD
BRANCH  90  92
ATOM     92  C   UNL A   1      34.166  21.700  26.154  1.00  0.00     0.075 A 
ATOM     93  C   UNL A   1      35.175  22.662  26.333  1.00  0.00     0.042 A 
ATOM     94  C   UNL A   1      34.411  20.595  25.323  1.00  0.00     0.089 A 
ATOM     95  C   UNL A   1      36.446  22.497  25.740  1.00  0.00     0.058 A 
ATOM     96  C   UNL A   1      35.663  20.442  24.707  1.00  0.00     0.031 A 
ATOM     97  C   UNL A   1      36.670  21.390  24.910  1.00  0.00     0.015 A 
BRANCH  94  98
ATOM     98  N   UNL A   1      33.436  19.585  25.132  1.00  0.00    -0.239 N 
ATOM     99  C   UNL A   1      33.046  18.602  26.013  1.00  0.00     0.115 A 
ATOM    100  N   UNL A   1      32.822  19.438  23.930  1.00  0.00    -0.177 NA
ATOM    101  C   UNL A   1      32.329  17.681  25.292  1.00  0.00     0.042 A 
ATOM    102  C   UNL A   1      32.250  18.233  24.006  1.00  0.00     0.135 A 
ENDBRANCH  94  98
BRANCH  95 103
ATOM    103  C   UNL A   1      37.572  23.455  26.062  1.00  0.00     0.416 C 
ATOM    104  F   UNL A   1      37.233  24.365  27.013  1.00  0.00    -0.166 F 
ATOM    105  F   UNL A   1      38.679  22.813  26.529  1.00  0.00    -0.166 F 
ATOM    106  F   UNL A   1      37.994  24.174  24.984  1.00  0.00    -0.166 F 
ENDBRANCH  95 103
ENDBRANCH  90  92
ENDBRANCH  87  90
ENDBRANCH  82  87
ENDBRANCH  75  78
ENDBRANCH  73  74
ENDBRANCH   1  73
TORSDOF 16
ENDMDL
