MODEL 1
REMARK VINA RESULT:     -14.9      0.000      0.000
REMARK SMILES COc1cc([C@@H]2CC(=O)Nc3c(C(=O)NCCCCNC(=O)c4ccc(-c5c6nc(c(-c7c(F)c(F)c(F)c(F)c7F)c7ccc([nH]7)c(-c7c(F)c(F)c(F)c(F)c7F)c7nc(c(-c8c(F)c(F)c(F)c(F)c8F)c8ccc5[nH]8)C=C7)C=C6)cc4)cn(-c4ccc(F)cc4)c32)c(OC)c2c1OCO2
REMARK SMILES IDX 17 1 16 2 15 3 13 4 14 5 12 7 6 8 7 9 95 10 8 11 11 12 87 13
REMARK SMILES IDX 9 14 10 15 86 16 5 18 3 19 4 20 100 21 99 22 101 23 96 24
REMARK SMILES IDX 103 25 102 26 2 27 1 28 97 29 98 30 88 31 89 32 94 33 90 34
REMARK SMILES IDX 93 35 91 36 92 37 18 38 19 39 20 40 21 41 22 43 23 44 24 45
REMARK SMILES IDX 85 46 25 47 84 48 26 49 27 50 28 51 78 52 29 53 83 54 77 55
REMARK SMILES IDX 79 56 30 57 82 58 76 59 75 60 31 62 63 63 43 64 62 65 44 66
REMARK SMILES IDX 47 67 61 68 80 69 45 70 46 71 60 73 81 74 48 75 32 76 33 77
REMARK SMILES IDX 41 78 34 79 35 80 39 81 42 82 36 83 37 84 40 85 38 86 64 87
REMARK SMILES IDX 65 88 73 89 66 90 67 91 71 92 74 93 68 94 69 95 72 96 70 97
REMARK SMILES IDX 49 98 50 99 58 100 51 101 52 102 56 103 59 104 53 105 54 106
REMARK SMILES IDX 57 107 55 108
REMARK H PARENT 15 6 10 17 20 42 79 61 47 72
REMARK Flexibility Score: inf
ROOT
ATOM      1  C   UNL A   1      36.986  22.699  23.916  1.00  0.00     0.023 C 
ENDROOT
BRANCH   1   2
ATOM      2  C   UNL A   1      35.470  22.666  23.665  1.00  0.00     0.116 C 
BRANCH   2   3
ATOM      3  N   UNL A   1      34.720  22.646  24.896  1.00  0.00    -0.352 N 
ATOM      4  C   UNL A   1      33.938  23.558  25.556  1.00  0.00     0.254 C 
ATOM      5  O   UNL A   1      33.426  23.121  26.593  1.00  0.00    -0.269 OA
ATOM      6  H   UNL A   1      34.784  21.785  25.369  1.00  0.00     0.163 HD
BRANCH   4   7
ATOM      7  C   UNL A   1      33.651  24.932  25.114  1.00  0.00     0.081 A 
ATOM      8  C   UNL A   1      32.643  27.958  23.161  1.00  0.00     0.082 C 
ATOM      9  C   UNL A   1      33.158  27.543  21.780  1.00  0.00     0.115 C 
ATOM     10  C   UNL A   1      33.054  26.938  24.186  1.00  0.00     0.055 A 
ATOM     11  C   UNL A   1      33.039  26.060  21.528  1.00  0.00     0.225 C 
ATOM     12  C   UNL A   1      33.345  25.617  23.900  1.00  0.00     0.076 A 
ATOM     13  N   UNL A   1      33.307  27.158  25.519  1.00  0.00    -0.317 N 
ATOM     14  O   UNL A   1      32.881  25.596  20.399  1.00  0.00    -0.275 OA
ATOM     15  N   UNL A   1      33.258  25.219  22.586  1.00  0.00    -0.324 N 
ATOM     16  C   UNL A   1      33.710  25.963  26.060  1.00  0.00     0.107 A 
ATOM     17  H   UNL A   1      33.360  24.259  22.392  1.00  0.00     0.170 HD
BRANCH   8  18
ATOM     18  C   UNL A   1      31.146  28.280  23.114  1.00  0.00     0.012 A 
ATOM     19  C   UNL A   1      29.479  30.011  22.589  1.00  0.00     0.165 A 
ATOM     20  C   UNL A   1      30.798  29.560  22.609  1.00  0.00     0.059 A 
ATOM     21  C   UNL A   1      28.498  29.136  23.008  1.00  0.00     0.211 A 
ATOM     22  C   UNL A   1      28.808  27.864  23.458  1.00  0.00     0.211 A 
ATOM     23  O   UNL A   1      27.157  29.372  23.022  1.00  0.00    -0.449 OA
ATOM     24  C   UNL A   1      30.117  27.400  23.524  1.00  0.00     0.168 A 
ATOM     25  O   UNL A   1      27.683  27.178  23.818  1.00  0.00    -0.449 OA
ATOM     26  C   UNL A   1      26.648  28.100  23.448  1.00  0.00     0.468 C 
BRANCH  19  27
ATOM     27  O   UNL A   1      29.296  31.274  22.110  1.00  0.00    -0.493 OA
ATOM     28  C   UNL A   1      28.504  31.348  20.928  1.00  0.00     0.278 C 
ENDBRANCH  19  27
BRANCH  24  29
ATOM     29  O   UNL A   1      30.500  26.170  23.967  1.00  0.00    -0.492 OA
ATOM     30  C   UNL A   1      29.976  25.674  25.188  1.00  0.00     0.278 C 
ENDBRANCH  24  29
ENDBRANCH   8  18
BRANCH  13  31
ATOM     31  C   UNL A   1      33.266  28.393  26.206  1.00  0.00     0.046 A 
ATOM     32  C   UNL A   1      32.062  29.095  26.313  1.00  0.00     0.029 A 
ATOM     33  C   UNL A   1      34.451  28.932  26.721  1.00  0.00     0.029 A 
ATOM     34  C   UNL A   1      32.052  30.376  26.864  1.00  0.00     0.041 A 
ATOM     35  C   UNL A   1      34.435  30.217  27.265  1.00  0.00     0.041 A 
ATOM     36  C   UNL A   1      33.241  30.932  27.318  1.00  0.00     0.123 A 
ATOM     37  F   UNL A   1      33.236  32.175  27.815  1.00  0.00    -0.207 F 
ENDBRANCH  13  31
ENDBRANCH   4   7
ENDBRANCH   2   3
ENDBRANCH   1   2
BRANCH   1  38
ATOM     38  C   UNL A   1      37.494  21.889  25.114  1.00  0.00     0.023 C 
BRANCH  38  39
ATOM     39  C   UNL A   1      38.226  22.700  26.181  1.00  0.00     0.116 C 
BRANCH  39  40
ATOM     40  N   UNL A   1      39.461  22.062  26.666  1.00  0.00    -0.352 N 
ATOM     41  C   UNL A   1      40.704  22.637  26.909  1.00  0.00     0.251 C 
ATOM     42  H   UNL A   1      39.399  21.097  26.843  1.00  0.00     0.163 HD
ATOM     43  O   UNL A   1      41.728  21.979  26.921  1.00  0.00    -0.269 OA
BRANCH  41  44
ATOM     44  C   UNL A   1      40.743  24.081  27.197  1.00  0.00     0.039 A 
ATOM     45  C   UNL A   1      39.958  25.029  26.534  1.00  0.00     0.014 A 
ATOM     46  C   UNL A   1      41.577  24.449  28.240  1.00  0.00     0.014 A 
ATOM     47  C   UNL A   1      39.986  26.346  26.989  1.00  0.00     0.010 A 
ATOM     48  C   UNL A   1      41.374  25.643  28.856  1.00  0.00     0.010 A 
ATOM     49  C   UNL A   1      40.702  26.633  28.160  1.00  0.00    -0.014 A 
BRANCH  49  50
ATOM     50  C   UNL A   1      40.823  27.960  28.730  1.00  0.00     0.031 A 
ATOM     51  C   UNL A   1      41.912  28.804  28.190  1.00  0.00     0.074 A 
ATOM     52  C   UNL A   1      39.820  28.479  29.472  1.00  0.00     0.049 A 
ATOM     53  N   UNL A   1      42.944  29.247  28.825  1.00  0.00    -0.248 NA
ATOM     54  C   UNL A   1      41.913  29.118  26.755  1.00  0.00     0.031 C 
ATOM     55  C   UNL A   1      38.508  27.902  29.802  1.00  0.00     0.029 A 
ATOM     56  N   UNL A   1      39.736  29.722  30.006  1.00  0.00    -0.354 N 
ATOM     57  C   UNL A   1      43.660  30.024  27.919  1.00  0.00     0.074 A 
ATOM     58  C   UNL A   1      43.069  29.774  26.628  1.00  0.00     0.031 C 
ATOM     59  C   UNL A   1      37.694  28.868  30.284  1.00  0.00     0.029 A 
ATOM     60  C   UNL A   1      38.474  30.077  30.456  1.00  0.00     0.049 A 
ATOM     61  H   UNL A   1      40.511  30.325  30.069  1.00  0.00     0.167 HD
ATOM     62  C   UNL A   1      44.557  30.956  28.348  1.00  0.00     0.037 A 
ATOM     63  C   UNL A   1      38.107  31.300  30.913  1.00  0.00     0.037 A 
ATOM     64  C   UNL A   1      44.841  30.782  29.752  1.00  0.00     0.049 A 
ATOM     65  C   UNL A   1      39.359  32.001  31.310  1.00  0.00     0.074 A 
ATOM     66  C   UNL A   1      45.396  29.761  30.501  1.00  0.00     0.029 A 
ATOM     67  N   UNL A   1      44.168  31.576  30.652  1.00  0.00    -0.354 N 
ATOM     68  N   UNL A   1      40.110  31.619  32.309  1.00  0.00    -0.248 NA
ATOM     69  C   UNL A   1      40.031  32.807  30.299  1.00  0.00     0.031 C 
ATOM     70  C   UNL A   1      44.610  29.712  31.691  1.00  0.00     0.029 A 
ATOM     71  C   UNL A   1      43.678  30.751  31.635  1.00  0.00     0.049 A 
ATOM     72  H   UNL A   1      44.059  32.553  30.602  1.00  0.00     0.167 HD
ATOM     73  C   UNL A   1      41.414  31.764  31.852  1.00  0.00     0.074 A 
ATOM     74  C   UNL A   1      41.304  32.575  30.640  1.00  0.00     0.031 C 
ATOM     75  C   UNL A   1      42.425  30.972  32.321  1.00  0.00     0.037 A 
BRANCH  62  76
ATOM     76  C   UNL A   1      44.952  32.208  27.608  1.00  0.00     0.064 A 
ATOM     77  C   UNL A   1      46.194  32.245  26.938  1.00  0.00     0.173 A 
ATOM     78  C   UNL A   1      44.306  33.453  27.752  1.00  0.00     0.173 A 
ATOM     79  F   UNL A   1      46.900  31.121  26.744  1.00  0.00    -0.203 F 
ATOM     80  C   UNL A   1      46.779  33.444  26.526  1.00  0.00     0.198 A 
ATOM     81  C   UNL A   1      44.868  34.643  27.289  1.00  0.00     0.198 A 
ATOM     82  F   UNL A   1      43.166  33.590  28.438  1.00  0.00    -0.203 F 
ATOM     83  F   UNL A   1      48.015  33.439  26.011  1.00  0.00    -0.200 F 
ATOM     84  C   UNL A   1      46.119  34.644  26.710  1.00  0.00     0.200 A 
ATOM     85  F   UNL A   1      44.217  35.798  27.487  1.00  0.00    -0.200 F 
ATOM     86  F   UNL A   1      46.703  35.802  26.374  1.00  0.00    -0.200 F 
ENDBRANCH  62  76
BRANCH  63  87
ATOM     87  C   UNL A   1      36.803  31.979  30.736  1.00  0.00     0.064 A 
ATOM     88  C   UNL A   1      35.887  32.083  31.794  1.00  0.00     0.173 A 
ATOM     89  C   UNL A   1      36.536  32.770  29.600  1.00  0.00     0.173 A 
ATOM     90  F   UNL A   1      36.087  31.397  32.929  1.00  0.00    -0.203 F 
ATOM     91  C   UNL A   1      34.785  32.945  31.729  1.00  0.00     0.198 A 
ATOM     92  C   UNL A   1      35.434  33.624  29.533  1.00  0.00     0.198 A 
ATOM     93  F   UNL A   1      37.390  32.800  28.565  1.00  0.00    -0.203 F 
ATOM     94  F   UNL A   1      33.964  33.062  32.782  1.00  0.00    -0.200 F 
ATOM     95  C   UNL A   1      34.566  33.722  30.603  1.00  0.00     0.200 A 
ATOM     96  F   UNL A   1      35.255  34.394  28.450  1.00  0.00    -0.200 F 
ATOM     97  F   UNL A   1      33.547  34.591  30.565  1.00  0.00    -0.200 F 
ENDBRANCH  63  87
BRANCH  75  98
ATOM     98  C   UNL A   1      42.133  30.077  33.497  1.00  0.00     0.064 A 
ATOM     99  C   UNL A   1      41.711  28.740  33.381  1.00  0.00     0.173 A 
ATOM    100  C   UNL A   1      42.451  30.532  34.783  1.00  0.00     0.173 A 
ATOM    101  F   UNL A   1      41.490  28.188  32.185  1.00  0.00    -0.203 F 
ATOM    102  C   UNL A   1      41.571  27.918  34.497  1.00  0.00     0.198 A 
ATOM    103  C   UNL A   1      42.347  29.698  35.894  1.00  0.00     0.198 A 
ATOM    104  F   UNL A   1      42.920  31.777  34.957  1.00  0.00    -0.203 F 
ATOM    105  F   UNL A   1      41.158  26.649  34.349  1.00  0.00    -0.200 F 
ATOM    106  C   UNL A   1      41.897  28.394  35.752  1.00  0.00     0.200 A 
ATOM    107  F   UNL A   1      42.713  30.149  37.102  1.00  0.00    -0.200 F 
ATOM    108  F   UNL A   1      41.804  27.592  36.822  1.00  0.00    -0.200 F 
ENDBRANCH  75  98
ENDBRANCH  49  50
ENDBRANCH  41  44
ENDBRANCH  39  40
ENDBRANCH  38  39
ENDBRANCH   1  38
TORSDOF 15
ENDMDL
MODEL 2
REMARK VINA RESULT:     -14.3      3.440      9.170
REMARK SMILES COc1cc([C@@H]2CC(=O)Nc3c(C(=O)NCCCCNC(=O)c4ccc(-c5c6nc(c(-c7c(F)c(F)c(F)c(F)c7F)c7ccc([nH]7)c(-c7c(F)c(F)c(F)c(F)c7F)c7nc(c(-c8c(F)c(F)c(F)c(F)c8F)c8ccc5[nH]8)C=C7)C=C6)cc4)cn(-c4ccc(F)cc4)c32)c(OC)c2c1OCO2
REMARK SMILES IDX 17 1 16 2 15 3 13 4 14 5 12 7 6 8 7 9 95 10 8 11 11 12 87 13
REMARK SMILES IDX 9 14 10 15 86 16 5 18 3 19 4 20 100 21 99 22 101 23 96 24
REMARK SMILES IDX 103 25 102 26 2 27 1 28 97 29 98 30 88 31 89 32 94 33 90 34
REMARK SMILES IDX 93 35 91 36 92 37 18 38 19 39 20 40 21 41 22 43 23 44 24 45
REMARK SMILES IDX 85 46 25 47 84 48 26 49 27 50 28 51 78 52 29 53 83 54 77 55
REMARK SMILES IDX 79 56 30 57 82 58 76 59 75 60 31 62 63 63 43 64 62 65 44 66
REMARK SMILES IDX 47 67 61 68 80 69 45 70 46 71 60 73 81 74 48 75 32 76 33 77
REMARK SMILES IDX 41 78 34 79 35 80 39 81 42 82 36 83 37 84 40 85 38 86 64 87
REMARK SMILES IDX 65 88 73 89 66 90 67 91 71 92 74 93 68 94 69 95 72 96 70 97
REMARK SMILES IDX 49 98 50 99 58 100 51 101 52 102 56 103 59 104 53 105 54 106
REMARK SMILES IDX 57 107 55 108
REMARK H PARENT 15 6 10 17 20 42 79 61 47 72
REMARK Flexibility Score: inf
ROOT
ATOM      1  C   UNL A   1      31.728  28.564  27.351  1.00  0.00     0.023 C 
ENDROOT
BRANCH   1   2
ATOM      2  C   UNL A   1      31.252  27.642  26.218  1.00  0.00     0.116 C 
BRANCH   2   3
ATOM      3  N   UNL A   1      32.115  27.716  25.065  1.00  0.00    -0.352 N 
ATOM      4  C   UNL A   1      33.042  26.876  24.506  1.00  0.00     0.254 C 
ATOM      5  O   UNL A   1      33.549  27.310  23.466  1.00  0.00    -0.269 OA
ATOM      6  H   UNL A   1      32.018  28.561  24.568  1.00  0.00     0.163 HD
BRANCH   4   7
ATOM      7  C   UNL A   1      33.420  25.546  25.012  1.00  0.00     0.081 A 
ATOM      8  C   UNL A   1      33.400  22.064  26.375  1.00  0.00     0.082 C 
ATOM      9  C   UNL A   1      32.246  22.196  27.373  1.00  0.00     0.115 C 
ATOM     10  C   UNL A   1      33.707  23.405  25.770  1.00  0.00     0.055 A 
ATOM     11  C   UNL A   1      31.160  23.129  26.897  1.00  0.00     0.225 C 
ATOM     12  C   UNL A   1      32.803  24.447  25.682  1.00  0.00     0.076 A 
ATOM     13  N   UNL A   1      34.925  23.849  25.315  1.00  0.00    -0.317 N 
ATOM     14  O   UNL A   1      29.983  22.990  27.228  1.00  0.00    -0.275 OA
ATOM     15  N   UNL A   1      31.542  24.238  26.191  1.00  0.00    -0.324 N 
ATOM     16  C   UNL A   1      34.759  25.149  24.906  1.00  0.00     0.107 A 
ATOM     17  H   UNL A   1      30.866  24.936  26.036  1.00  0.00     0.170 HD
BRANCH   8  18
ATOM     18  C   UNL A   1      33.133  20.935  25.375  1.00  0.00     0.012 A 
ATOM     19  C   UNL A   1      33.282  18.508  24.998  1.00  0.00     0.165 A 
ATOM     20  C   UNL A   1      33.403  19.618  25.832  1.00  0.00     0.059 A 
ATOM     21  C   UNL A   1      32.812  18.720  23.718  1.00  0.00     0.211 A 
ATOM     22  C   UNL A   1      32.494  19.988  23.265  1.00  0.00     0.211 A 
ATOM     23  O   UNL A   1      32.585  17.766  22.772  1.00  0.00    -0.449 OA
ATOM     24  C   UNL A   1      32.639  21.118  24.062  1.00  0.00     0.168 A 
ATOM     25  O   UNL A   1      32.050  19.957  21.974  1.00  0.00    -0.449 OA
ATOM     26  C   UNL A   1      32.020  18.547  21.710  1.00  0.00     0.468 C 
BRANCH  19  27
ATOM     27  O   UNL A   1      33.607  17.310  25.560  1.00  0.00    -0.493 OA
ATOM     28  C   UNL A   1      32.508  16.423  25.736  1.00  0.00     0.278 C 
ENDBRANCH  19  27
BRANCH  24  29
ATOM     29  O   UNL A   1      32.362  22.397  23.683  1.00  0.00    -0.492 OA
ATOM     30  C   UNL A   1      32.841  22.874  22.436  1.00  0.00     0.278 C 
ENDBRANCH  24  29
ENDBRANCH   8  18
BRANCH  13  31
ATOM     31  C   UNL A   1      36.156  23.154  25.345  1.00  0.00     0.046 A 
ATOM     32  C   UNL A   1      36.270  21.905  24.727  1.00  0.00     0.029 A 
ATOM     33  C   UNL A   1      37.236  23.700  26.050  1.00  0.00     0.029 A 
ATOM     34  C   UNL A   1      37.438  21.159  24.880  1.00  0.00     0.041 A 
ATOM     35  C   UNL A   1      38.399  22.944  26.205  1.00  0.00     0.041 A 
ATOM     36  C   UNL A   1      38.484  21.678  25.633  1.00  0.00     0.123 A 
ATOM     37  F   UNL A   1      39.592  20.946  25.807  1.00  0.00    -0.207 F 
ENDBRANCH  13  31
ENDBRANCH   4   7
ENDBRANCH   2   3
ENDBRANCH   1   2
BRANCH   1  38
ATOM     38  C   UNL A   1      32.354  29.897  26.926  1.00  0.00     0.023 C 
BRANCH  38  39
ATOM     39  C   UNL A   1      33.838  30.048  27.254  1.00  0.00     0.116 C 
BRANCH  39  40
ATOM     40  N   UNL A   1      34.287  31.449  27.334  1.00  0.00    -0.352 N 
ATOM     41  C   UNL A   1      35.393  31.976  27.992  1.00  0.00     0.251 C 
ATOM     42  H   UNL A   1      33.727  32.102  26.856  1.00  0.00     0.163 HD
ATOM     43  O   UNL A   1      35.451  33.146  28.322  1.00  0.00    -0.269 OA
BRANCH  41  44
ATOM     44  C   UNL A   1      36.529  31.074  28.245  1.00  0.00     0.039 A 
ATOM     45  C   UNL A   1      36.686  29.827  27.631  1.00  0.00     0.014 A 
ATOM     46  C   UNL A   1      37.498  31.576  29.100  1.00  0.00     0.014 A 
ATOM     47  C   UNL A   1      37.872  29.127  27.850  1.00  0.00     0.010 A 
ATOM     48  C   UNL A   1      38.746  31.040  29.067  1.00  0.00     0.010 A 
ATOM     49  C   UNL A   1      38.896  29.756  28.572  1.00  0.00    -0.014 A 
BRANCH  49  50
ATOM     50  C   UNL A   1      40.168  29.134  28.881  1.00  0.00     0.031 A 
ATOM     51  C   UNL A   1      40.417  28.833  30.308  1.00  0.00     0.074 A 
ATOM     52  C   UNL A   1      40.922  28.596  27.898  1.00  0.00     0.049 A 
ATOM     53  N   UNL A   1      41.327  29.344  31.066  1.00  0.00    -0.248 NA
ATOM     54  C   UNL A   1      39.491  27.934  31.010  1.00  0.00     0.031 C 
ATOM     55  C   UNL A   1      40.642  28.491  26.457  1.00  0.00     0.029 A 
ATOM     56  N   UNL A   1      42.086  27.912  28.019  1.00  0.00    -0.354 N 
ATOM     57  C   UNL A   1      41.196  28.728  32.307  1.00  0.00     0.074 A 
ATOM     58  C   UNL A   1      39.956  27.997  32.260  1.00  0.00     0.031 C 
ATOM     59  C   UNL A   1      41.493  27.607  25.891  1.00  0.00     0.029 A 
ATOM     60  C   UNL A   1      42.476  27.221  26.883  1.00  0.00     0.049 A 
ATOM     61  H   UNL A   1      42.613  27.907  28.851  1.00  0.00     0.167 HD
ATOM     62  C   UNL A   1      42.226  28.722  33.200  1.00  0.00     0.037 A 
ATOM     63  C   UNL A   1      43.527  26.370  26.791  1.00  0.00     0.037 A 
ATOM     64  C   UNL A   1      43.254  29.654  32.800  1.00  0.00     0.049 A 
ATOM     65  C   UNL A   1      44.441  26.696  27.920  1.00  0.00     0.074 A 
ATOM     66  C   UNL A   1      43.291  31.023  32.618  1.00  0.00     0.029 A 
ATOM     67  N   UNL A   1      44.346  29.162  32.122  1.00  0.00    -0.354 N 
ATOM     68  N   UNL A   1      45.092  27.826  28.015  1.00  0.00    -0.248 NA
ATOM     69  C   UNL A   1      44.241  25.988  29.177  1.00  0.00     0.031 C 
ATOM     70  C   UNL A   1      44.078  31.214  31.443  1.00  0.00     0.029 A 
ATOM     71  C   UNL A   1      44.538  29.964  31.024  1.00  0.00     0.049 A 
ATOM     72  H   UNL A   1      44.888  28.381  32.377  1.00  0.00     0.167 HD
ATOM     73  C   UNL A   1      45.008  28.176  29.356  1.00  0.00     0.074 A 
ATOM     74  C   UNL A   1      44.544  26.967  30.036  1.00  0.00     0.031 C 
ATOM     75  C   UNL A   1      45.031  29.484  29.753  1.00  0.00     0.037 A 
BRANCH  62  76
ATOM     76  C   UNL A   1      42.471  27.678  34.259  1.00  0.00     0.064 A 
ATOM     77  C   UNL A   1      43.099  26.468  33.895  1.00  0.00     0.173 A 
ATOM     78  C   UNL A   1      41.882  27.691  35.540  1.00  0.00     0.173 A 
ATOM     79  F   UNL A   1      43.693  26.338  32.699  1.00  0.00    -0.203 F 
ATOM     80  C   UNL A   1      43.060  25.336  34.713  1.00  0.00     0.198 A 
ATOM     81  C   UNL A   1      41.894  26.576  36.378  1.00  0.00     0.198 A 
ATOM     82  F   UNL A   1      41.178  28.735  35.991  1.00  0.00    -0.203 F 
ATOM     83  F   UNL A   1      43.559  24.175  34.268  1.00  0.00    -0.200 F 
ATOM     84  C   UNL A   1      42.450  25.389  35.951  1.00  0.00     0.200 A 
ATOM     85  F   UNL A   1      41.286  26.643  37.571  1.00  0.00    -0.200 F 
ATOM     86  F   UNL A   1      42.355  24.290  36.711  1.00  0.00    -0.200 F 
ENDBRANCH  62  76
BRANCH  63  87
ATOM     87  C   UNL A   1      43.622  25.129  25.987  1.00  0.00     0.064 A 
ATOM     88  C   UNL A   1      44.720  24.888  25.147  1.00  0.00     0.173 A 
ATOM     89  C   UNL A   1      42.765  24.035  26.224  1.00  0.00     0.173 A 
ATOM     90  F   UNL A   1      45.607  25.862  24.902  1.00  0.00    -0.203 F 
ATOM     91  C   UNL A   1      44.960  23.622  24.598  1.00  0.00     0.198 A 
ATOM     92  C   UNL A   1      43.000  22.776  25.671  1.00  0.00     0.198 A 
ATOM     93  F   UNL A   1      41.730  24.141  27.071  1.00  0.00    -0.203 F 
ATOM     94  F   UNL A   1      46.050  23.414  23.848  1.00  0.00    -0.200 F 
ATOM     95  C   UNL A   1      44.105  22.565  24.869  1.00  0.00     0.200 A 
ATOM     96  F   UNL A   1      42.184  21.755  25.971  1.00  0.00    -0.200 F 
ATOM     97  F   UNL A   1      44.368  21.340  24.393  1.00  0.00    -0.200 F 
ENDBRANCH  63  87
BRANCH  75  98
ATOM     98  C   UNL A   1      45.359  30.530  28.719  1.00  0.00     0.064 A 
ATOM     99  C   UNL A   1      44.395  31.185  27.932  1.00  0.00     0.173 A 
ATOM    100  C   UNL A   1      46.673  31.007  28.639  1.00  0.00     0.173 A 
ATOM    101  F   UNL A   1      43.101  30.871  28.023  1.00  0.00    -0.203 F 
ATOM    102  C   UNL A   1      44.737  32.231  27.077  1.00  0.00     0.198 A 
ATOM    103  C   UNL A   1      47.008  32.077  27.811  1.00  0.00     0.198 A 
ATOM    104  F   UNL A   1      47.630  30.468  29.410  1.00  0.00    -0.203 F 
ATOM    105  F   UNL A   1      43.791  32.827  26.333  1.00  0.00    -0.200 F 
ATOM    106  C   UNL A   1      46.042  32.682  27.022  1.00  0.00     0.200 A 
ATOM    107  F   UNL A   1      48.264  32.543  27.802  1.00  0.00    -0.200 F 
ATOM    108  F   UNL A   1      46.366  33.715  26.233  1.00  0.00    -0.200 F 
ENDBRANCH  75  98
ENDBRANCH  49  50
ENDBRANCH  41  44
ENDBRANCH  39  40
ENDBRANCH  38  39
ENDBRANCH   1  38
TORSDOF 15
ENDMDL
MODEL 3
REMARK VINA RESULT:     -13.7      5.996     10.628
REMARK SMILES COc1cc([C@@H]2CC(=O)Nc3c(C(=O)NCCCCNC(=O)c4ccc(-c5c6nc(c(-c7c(F)c(F)c(F)c(F)c7F)c7ccc([nH]7)c(-c7c(F)c(F)c(F)c(F)c7F)c7nc(c(-c8c(F)c(F)c(F)c(F)c8F)c8ccc5[nH]8)C=C7)C=C6)cc4)cn(-c4ccc(F)cc4)c32)c(OC)c2c1OCO2
REMARK SMILES IDX 17 1 16 2 15 3 13 4 14 5 12 7 6 8 7 9 95 10 8 11 11 12 87 13
REMARK SMILES IDX 9 14 10 15 86 16 5 18 3 19 4 20 100 21 99 22 101 23 96 24
REMARK SMILES IDX 103 25 102 26 2 27 1 28 97 29 98 30 88 31 89 32 94 33 90 34
REMARK SMILES IDX 93 35 91 36 92 37 18 38 19 39 20 40 21 41 22 43 23 44 24 45
REMARK SMILES IDX 85 46 25 47 84 48 26 49 27 50 28 51 78 52 29 53 83 54 77 55
REMARK SMILES IDX 79 56 30 57 82 58 76 59 75 60 31 62 63 63 43 64 62 65 44 66
REMARK SMILES IDX 47 67 61 68 80 69 45 70 46 71 60 73 81 74 48 75 32 76 33 77
REMARK SMILES IDX 41 78 34 79 35 80 39 81 42 82 36 83 37 84 40 85 38 86 64 87
REMARK SMILES IDX 65 88 73 89 66 90 67 91 71 92 74 93 68 94 69 95 72 96 70 97
REMARK SMILES IDX 49 98 50 99 58 100 51 101 52 102 56 103 59 104 53 105 54 106
REMARK SMILES IDX 57 107 55 108
REMARK H PARENT 15 6 10 17 20 42 79 61 47 72
REMARK Flexibility Score: inf
ROOT
ATOM      1  C   UNL A   1      41.651  26.603  35.284  1.00  0.00     0.023 C 
ENDROOT
BRANCH   1   2
ATOM      2  C   UNL A   1      41.665  28.032  35.847  1.00  0.00     0.116 C 
BRANCH   2   3
ATOM      3  N   UNL A   1      42.781  28.797  35.347  1.00  0.00    -0.352 N 
ATOM      4  C   UNL A   1      42.946  29.693  34.324  1.00  0.00     0.254 C 
ATOM      5  O   UNL A   1      44.085  30.168  34.253  1.00  0.00    -0.269 OA
ATOM      6  H   UNL A   1      43.610  28.640  35.854  1.00  0.00     0.163 HD
BRANCH   4   7
ATOM      7  C   UNL A   1      41.904  30.134  33.383  1.00  0.00     0.081 A 
ATOM      8  C   UNL A   1      38.719  30.573  31.471  1.00  0.00     0.082 C 
ATOM      9  C   UNL A   1      38.276  29.110  31.391  1.00  0.00     0.115 C 
ATOM     10  C   UNL A   1      40.083  30.659  32.098  1.00  0.00     0.055 A 
ATOM     11  C   UNL A   1      38.647  28.314  32.618  1.00  0.00     0.225 C 
ATOM     12  C   UNL A   1      40.615  29.705  32.944  1.00  0.00     0.076 A 
ATOM     13  N   UNL A   1      41.045  31.612  31.861  1.00  0.00    -0.317 N 
ATOM     14  O   UNL A   1      37.982  27.353  33.003  1.00  0.00    -0.275 OA
ATOM     15  N   UNL A   1      39.841  28.602  33.222  1.00  0.00    -0.324 N 
ATOM     16  C   UNL A   1      42.151  31.266  32.597  1.00  0.00     0.107 A 
ATOM     17  H   UNL A   1      40.170  27.973  33.905  1.00  0.00     0.170 HD
BRANCH   8  18
ATOM     18  C   UNL A   1      37.638  31.438  32.125  1.00  0.00     0.012 A 
ATOM     19  C   UNL A   1      36.876  32.447  34.236  1.00  0.00     0.165 A 
ATOM     20  C   UNL A   1      37.825  31.740  33.500  1.00  0.00     0.059 A 
ATOM     21  C   UNL A   1      35.768  32.919  33.563  1.00  0.00     0.211 A 
ATOM     22  C   UNL A   1      35.586  32.681  32.212  1.00  0.00     0.211 A 
ATOM     23  O   UNL A   1      34.757  33.663  34.093  1.00  0.00    -0.449 OA
ATOM     24  C   UNL A   1      36.497  31.947  31.460  1.00  0.00     0.168 A 
ATOM     25  O   UNL A   1      34.425  33.241  31.762  1.00  0.00    -0.449 OA
ATOM     26  C   UNL A   1      33.964  33.936  32.929  1.00  0.00     0.468 C 
BRANCH  19  27
ATOM     27  O   UNL A   1      37.173  32.634  35.553  1.00  0.00    -0.493 OA
ATOM     28  C   UNL A   1      38.088  33.695  35.808  1.00  0.00     0.278 C 
ENDBRANCH  19  27
BRANCH  24  29
ATOM     29  O   UNL A   1      36.381  31.660  30.134  1.00  0.00    -0.492 OA
ATOM     30  C   UNL A   1      36.607  32.683  29.177  1.00  0.00     0.278 C 
ENDBRANCH  24  29
ENDBRANCH   8  18
BRANCH  13  31
ATOM     31  C   UNL A   1      40.972  32.696  30.957  1.00  0.00     0.046 A 
ATOM     32  C   UNL A   1      42.054  32.982  30.118  1.00  0.00     0.029 A 
ATOM     33  C   UNL A   1      39.836  33.514  30.954  1.00  0.00     0.029 A 
ATOM     34  C   UNL A   1      42.038  34.133  29.331  1.00  0.00     0.041 A 
ATOM     35  C   UNL A   1      39.830  34.670  30.170  1.00  0.00     0.041 A 
ATOM     36  C   UNL A   1      40.934  34.975  29.379  1.00  0.00     0.123 A 
ATOM     37  F   UNL A   1      40.935  36.098  28.649  1.00  0.00    -0.207 F 
ENDBRANCH  13  31
ENDBRANCH   4   7
ENDBRANCH   2   3
ENDBRANCH   1   2
BRANCH   1  38
ATOM     38  C   UNL A   1      41.097  25.513  36.208  1.00  0.00     0.023 C 
BRANCH  38  39
ATOM     39  C   UNL A   1      41.989  24.284  36.367  1.00  0.00     0.116 C 
BRANCH  39  40
ATOM     40  N   UNL A   1      43.236  24.548  37.104  1.00  0.00    -0.352 N 
ATOM     41  C   UNL A   1      44.551  24.418  36.671  1.00  0.00     0.251 C 
ATOM     42  H   UNL A   1      43.124  24.859  38.031  1.00  0.00     0.163 HD
ATOM     43  O   UNL A   1      45.476  24.278  37.450  1.00  0.00    -0.269 OA
BRANCH  41  44
ATOM     44  C   UNL A   1      44.803  24.497  35.223  1.00  0.00     0.039 A 
ATOM     45  C   UNL A   1      44.868  23.383  34.381  1.00  0.00     0.014 A 
ATOM     46  C   UNL A   1      44.906  25.783  34.714  1.00  0.00     0.014 A 
ATOM     47  C   UNL A   1      44.976  23.597  33.007  1.00  0.00     0.010 A 
ATOM     48  C   UNL A   1      44.711  25.983  33.385  1.00  0.00     0.010 A 
ATOM     49  C   UNL A   1      44.892  24.911  32.527  1.00  0.00    -0.014 A 
BRANCH  49  50
ATOM     50  C   UNL A   1      45.004  25.270  31.127  1.00  0.00     0.031 A 
ATOM     51  C   UNL A   1      46.065  26.245  30.787  1.00  0.00     0.074 A 
ATOM     52  C   UNL A   1      44.386  24.530  30.180  1.00  0.00     0.049 A 
ATOM     53  N   UNL A   1      45.909  27.433  30.312  1.00  0.00    -0.248 NA
ATOM     54  C   UNL A   1      47.460  25.903  31.098  1.00  0.00     0.031 C 
ATOM     55  C   UNL A   1      43.584  23.307  30.328  1.00  0.00     0.029 A 
ATOM     56  N   UNL A   1      44.452  24.676  28.834  1.00  0.00    -0.354 N 
ATOM     57  C   UNL A   1      47.186  27.950  30.118  1.00  0.00     0.074 A 
ATOM     58  C   UNL A   1      48.088  27.034  30.768  1.00  0.00     0.031 C 
ATOM     59  C   UNL A   1      43.428  22.715  29.123  1.00  0.00     0.029 A 
ATOM     60  C   UNL A   1      43.966  23.599  28.108  1.00  0.00     0.049 A 
ATOM     61  H   UNL A   1      44.817  25.483  28.406  1.00  0.00     0.167 HD
ATOM     62  C   UNL A   1      47.400  28.993  29.267  1.00  0.00     0.037 A 
ATOM     63  C   UNL A   1      44.035  23.451  26.763  1.00  0.00     0.037 A 
ATOM     64  C   UNL A   1      46.151  29.612  28.893  1.00  0.00     0.049 A 
ATOM     65  C   UNL A   1      44.245  24.811  26.194  1.00  0.00     0.074 A 
ATOM     66  C   UNL A   1      45.153  30.262  29.596  1.00  0.00     0.029 A 
ATOM     67  N   UNL A   1      45.582  29.250  27.694  1.00  0.00    -0.354 N 
ATOM     68  N   UNL A   1      43.350  25.762  26.256  1.00  0.00    -0.248 NA
ATOM     69  C   UNL A   1      45.618  25.261  26.008  1.00  0.00     0.031 C 
ATOM     70  C   UNL A   1      43.936  29.804  29.010  1.00  0.00     0.029 A 
ATOM     71  C   UNL A   1      44.260  28.967  27.940  1.00  0.00     0.049 A 
ATOM     72  H   UNL A   1      46.037  29.204  26.822  1.00  0.00     0.167 HD
ATOM     73  C   UNL A   1      44.072  26.913  26.545  1.00  0.00     0.074 A 
ATOM     74  C   UNL A   1      45.469  26.558  26.300  1.00  0.00     0.031 C 
ATOM     75  C   UNL A   1      43.511  27.950  27.238  1.00  0.00     0.037 A 
BRANCH  62  76
ATOM     76  C   UNL A   1      48.679  29.277  28.521  1.00  0.00     0.064 A 
ATOM     77  C   UNL A   1      49.296  30.537  28.675  1.00  0.00     0.173 A 
ATOM     78  C   UNL A   1      49.176  28.486  27.465  1.00  0.00     0.173 A 
ATOM     79  F   UNL A   1      48.905  31.377  29.646  1.00  0.00    -0.203 F 
ATOM     80  C   UNL A   1      50.268  31.001  27.786  1.00  0.00     0.198 A 
ATOM     81  C   UNL A   1      50.188  28.930  26.613  1.00  0.00     0.198 A 
ATOM     82  F   UNL A   1      48.636  27.306  27.142  1.00  0.00    -0.203 F 
ATOM     83  F   UNL A   1      50.730  32.253  27.898  1.00  0.00    -0.200 F 
ATOM     84  C   UNL A   1      50.708  30.199  26.750  1.00  0.00     0.200 A 
ATOM     85  F   UNL A   1      50.592  28.142  25.607  1.00  0.00    -0.200 F 
ATOM     86  F   UNL A   1      51.593  30.662  25.858  1.00  0.00    -0.200 F 
ENDBRANCH  62  76
BRANCH  63  87
ATOM     87  C   UNL A   1      44.232  22.199  25.998  1.00  0.00     0.064 A 
ATOM     88  C   UNL A   1      45.511  21.787  25.592  1.00  0.00     0.173 A 
ATOM     89  C   UNL A   1      43.202  21.245  25.875  1.00  0.00     0.173 A 
ATOM     90  F   UNL A   1      46.557  22.618  25.714  1.00  0.00    -0.203 F 
ATOM     91  C   UNL A   1      45.749  20.492  25.115  1.00  0.00     0.198 A 
ATOM     92  C   UNL A   1      43.438  19.956  25.393  1.00  0.00     0.198 A 
ATOM     93  F   UNL A   1      41.959  21.513  26.304  1.00  0.00    -0.203 F 
ATOM     94  F   UNL A   1      46.994  20.116  24.793  1.00  0.00    -0.200 F 
ATOM     95  C   UNL A   1      44.714  19.575  25.027  1.00  0.00     0.200 A 
ATOM     96  F   UNL A   1      42.433  19.070  25.345  1.00  0.00    -0.200 F 
ATOM     97  F   UNL A   1      44.953  18.318  24.628  1.00  0.00    -0.200 F 
ENDBRANCH  63  87
BRANCH  75  98
ATOM     98  C   UNL A   1      42.028  27.902  27.502  1.00  0.00     0.064 A 
ATOM     99  C   UNL A   1      41.446  27.229  28.592  1.00  0.00     0.173 A 
ATOM    100  C   UNL A   1      41.181  28.702  26.725  1.00  0.00     0.173 A 
ATOM    101  F   UNL A   1      42.193  26.531  29.450  1.00  0.00    -0.203 F 
ATOM    102  C   UNL A   1      40.081  27.316  28.860  1.00  0.00     0.198 A 
ATOM    103  C   UNL A   1      39.824  28.818  27.016  1.00  0.00     0.198 A 
ATOM    104  F   UNL A   1      41.683  29.420  25.709  1.00  0.00    -0.203 F 
ATOM    105  F   UNL A   1      39.558  26.653  29.904  1.00  0.00    -0.200 F 
ATOM    106  C   UNL A   1      39.272  28.117  28.077  1.00  0.00     0.200 A 
ATOM    107  F   UNL A   1      39.054  29.636  26.285  1.00  0.00    -0.200 F 
ATOM    108  F   UNL A   1      37.967  28.236  28.359  1.00  0.00    -0.200 F 
ENDBRANCH  75  98
ENDBRANCH  49  50
ENDBRANCH  41  44
ENDBRANCH  39  40
ENDBRANCH  38  39
ENDBRANCH   1  38
TORSDOF 15
ENDMDL
