MODEL 1
REMARK VINA RESULT:     -12.8      0.000      0.000
REMARK SMILES O=C(NCCCCNC(=O)[C@H]1Cc2c([nH]c3ccccc23)[C@@H](c2ccc(OC(F)(F)F)cc2)[NH2+]1)c1ccc(-c2c3nc(c(-c4c(F)c(F)c(F)c(F)c4F)c4ccc([nH]4)c(-c4c(F)c(F)c(F)c(F)c4F)c4nc(c(-c5c(F)c(F)c(F)c(F)c5F)c5ccc2[nH]5)C=C4)C=C3)cc1
REMARK SMILES IDX 6 1 5 2 4 3 3 4 1 5 2 6 35 8 36 9 97 10 37 11 96 12 38 13
REMARK SMILES IDX 39 14 40 15 90 16 41 17 95 18 89 19 91 20 42 21 94 22 88 23
REMARK SMILES IDX 87 24 43 26 75 27 55 28 74 29 56 30 59 31 73 32 92 33 57 34
REMARK SMILES IDX 58 35 72 37 93 38 60 39 44 40 45 41 53 42 46 43 47 44 51 45
REMARK SMILES IDX 54 46 48 47 49 48 52 49 50 50 76 51 77 52 85 53 78 54 79 55
REMARK SMILES IDX 83 56 86 57 80 58 81 59 84 60 82 61 61 62 62 63 70 64 63 65
REMARK SMILES IDX 64 66 68 67 71 68 65 69 66 70 69 71 67 72 7 73 8 74 9 75
REMARK SMILES IDX 10 77 11 78 12 79 34 80 13 81 22 82 14 85 21 86 15 87 16 88
REMARK SMILES IDX 20 89 17 91 19 92 18 93 23 94 24 95 33 96 25 97 32 98 26 99
REMARK SMILES IDX 27 100 28 101 29 102 30 103 31 104
REMARK H PARENT 3 7 91 25 59 36 8 76 34 83 34 84 15 90
REMARK Flexibility Score: inf
ROOT
ATOM      1  C   UNL A   1      34.070  33.239  28.741  1.00  0.00     0.023 C 
ENDROOT
BRANCH   1   2
ATOM      2  C   UNL A   1      33.066  34.384  28.606  1.00  0.00     0.023 C 
BRANCH   2   3
ATOM      3  C   UNL A   1      33.469  35.695  29.265  1.00  0.00     0.116 C 
BRANCH   3   4
ATOM      4  N   UNL A   1      32.554  36.128  30.310  1.00  0.00    -0.352 N 
ATOM      5  O   UNL A   1      31.676  36.216  32.390  1.00  0.00    -0.269 OA
ATOM      6  C   UNL A   1      32.595  35.858  31.659  1.00  0.00     0.251 C 
ATOM      7  H   UNL A   1      31.802  36.688  30.011  1.00  0.00     0.163 HD
BRANCH   6   8
ATOM      8  C   UNL A   1      33.736  35.103  32.222  1.00  0.00     0.039 A 
ATOM      9  C   UNL A   1      35.007  35.676  32.276  1.00  0.00     0.014 A 
ATOM     10  C   UNL A   1      33.535  33.798  32.683  1.00  0.00     0.014 A 
ATOM     11  C   UNL A   1      36.099  34.894  32.633  1.00  0.00     0.010 A 
ATOM     12  C   UNL A   1      34.625  33.042  33.132  1.00  0.00     0.010 A 
ATOM     13  C   UNL A   1      35.921  33.572  33.075  1.00  0.00    -0.014 A 
BRANCH  13  14
ATOM     14  C   UNL A   1      37.114  32.804  33.519  1.00  0.00     0.031 A 
ATOM     15  C   UNL A   1      37.793  31.811  32.618  1.00  0.00     0.074 A 
ATOM     16  C   UNL A   1      37.628  33.075  34.735  1.00  0.00     0.049 A 
ATOM     17  N   UNL A   1      38.895  31.133  32.824  1.00  0.00    -0.248 NA
ATOM     18  C   UNL A   1      37.155  31.533  31.324  1.00  0.00     0.031 C 
ATOM     19  C   UNL A   1      37.039  33.999  35.706  1.00  0.00     0.029 A 
ATOM     20  N   UNL A   1      38.773  32.635  35.348  1.00  0.00    -0.354 N 
ATOM     21  C   UNL A   1      39.078  30.345  31.696  1.00  0.00     0.074 A 
ATOM     22  C   UNL A   1      37.956  30.604  30.817  1.00  0.00     0.031 C 
ATOM     23  C   UNL A   1      37.855  34.107  36.763  1.00  0.00     0.029 A 
ATOM     24  C   UNL A   1      38.997  33.220  36.570  1.00  0.00     0.049 A 
ATOM     25  H   UNL A   1      39.375  31.966  34.950  1.00  0.00     0.167 HD
ATOM     26  C   UNL A   1      40.094  29.493  31.416  1.00  0.00     0.037 A 
ATOM     27  C   UNL A   1      40.008  33.060  37.442  1.00  0.00     0.037 A 
ATOM     28  C   UNL A   1      41.215  29.245  32.289  1.00  0.00     0.049 A 
ATOM     29  C   UNL A   1      41.129  32.125  37.095  1.00  0.00     0.074 A 
ATOM     30  C   UNL A   1      42.296  28.403  32.091  1.00  0.00     0.029 A 
ATOM     31  N   UNL A   1      41.399  29.844  33.527  1.00  0.00    -0.354 N 
ATOM     32  N   UNL A   1      41.296  31.402  36.015  1.00  0.00    -0.248 NA
ATOM     33  C   UNL A   1      42.202  31.984  38.086  1.00  0.00     0.031 C 
ATOM     34  C   UNL A   1      43.118  28.469  33.222  1.00  0.00     0.029 A 
ATOM     35  C   UNL A   1      42.571  29.383  34.107  1.00  0.00     0.049 A 
ATOM     36  H   UNL A   1      40.788  30.501  33.934  1.00  0.00     0.167 HD
ATOM     37  C   UNL A   1      42.488  30.718  36.196  1.00  0.00     0.074 A 
ATOM     38  C   UNL A   1      43.024  31.145  37.472  1.00  0.00     0.031 C 
ATOM     39  C   UNL A   1      43.080  29.809  35.384  1.00  0.00     0.037 A 
BRANCH  26  40
ATOM     40  C   UNL A   1      40.049  28.756  30.109  1.00  0.00     0.064 A 
ATOM     41  C   UNL A   1      40.653  29.275  28.954  1.00  0.00     0.173 A 
ATOM     42  C   UNL A   1      39.453  27.488  30.024  1.00  0.00     0.173 A 
ATOM     43  F   UNL A   1      41.225  30.487  28.979  1.00  0.00    -0.203 F 
ATOM     44  C   UNL A   1      40.649  28.559  27.759  1.00  0.00     0.198 A 
ATOM     45  C   UNL A   1      39.472  26.764  28.834  1.00  0.00     0.198 A 
ATOM     46  F   UNL A   1      38.866  26.944  31.101  1.00  0.00    -0.203 F 
ATOM     47  F   UNL A   1      41.204  29.088  26.660  1.00  0.00    -0.200 F 
ATOM     48  C   UNL A   1      40.066  27.301  27.703  1.00  0.00     0.200 A 
ATOM     49  F   UNL A   1      38.918  25.545  28.784  1.00  0.00    -0.200 F 
ATOM     50  F   UNL A   1      40.074  26.608  26.555  1.00  0.00    -0.200 F 
ENDBRANCH  26  40
BRANCH  27  51
ATOM     51  C   UNL A   1      39.996  33.808  38.725  1.00  0.00     0.064 A 
ATOM     52  C   UNL A   1      40.688  35.019  38.865  1.00  0.00     0.173 A 
ATOM     53  C   UNL A   1      39.277  33.334  39.831  1.00  0.00     0.173 A 
ATOM     54  F   UNL A   1      41.405  35.503  37.840  1.00  0.00    -0.203 F 
ATOM     55  C   UNL A   1      40.673  35.718  40.069  1.00  0.00     0.198 A 
ATOM     56  C   UNL A   1      39.236  34.050  41.025  1.00  0.00     0.198 A 
ATOM     57  F   UNL A   1      38.591  32.184  39.743  1.00  0.00    -0.203 F 
ATOM     58  F   UNL A   1      41.376  36.852  40.191  1.00  0.00    -0.200 F 
ATOM     59  C   UNL A   1      39.941  35.237  41.146  1.00  0.00     0.200 A 
ATOM     60  F   UNL A   1      38.512  33.592  42.054  1.00  0.00    -0.200 F 
ATOM     61  F   UNL A   1      39.918  35.917  42.300  1.00  0.00    -0.200 F 
ENDBRANCH  27  51
BRANCH  39  62
ATOM     62  C   UNL A   1      44.373  29.219  35.864  1.00  0.00     0.064 A 
ATOM     63  C   UNL A   1      45.606  29.809  35.546  1.00  0.00     0.173 A 
ATOM     64  C   UNL A   1      44.381  28.057  36.648  1.00  0.00     0.173 A 
ATOM     65  F   UNL A   1      45.649  30.913  34.784  1.00  0.00    -0.203 F 
ATOM     66  C   UNL A   1      46.802  29.238  35.969  1.00  0.00     0.198 A 
ATOM     67  C   UNL A   1      45.578  27.503  37.091  1.00  0.00     0.198 A 
ATOM     68  F   UNL A   1      43.228  27.458  36.981  1.00  0.00    -0.203 F 
ATOM     69  F   UNL A   1      47.970  29.787  35.608  1.00  0.00    -0.200 F 
ATOM     70  C   UNL A   1      46.786  28.087  36.744  1.00  0.00     0.200 A 
ATOM     71  F   UNL A   1      45.564  26.396  37.847  1.00  0.00    -0.200 F 
ATOM     72  F   UNL A   1      47.940  27.535  37.146  1.00  0.00    -0.200 F 
ENDBRANCH  39  62
ENDBRANCH  13  14
ENDBRANCH   6   8
ENDBRANCH   3   4
ENDBRANCH   2   3
ENDBRANCH   1   2
BRANCH   1  73
ATOM     73  C   UNL A   1      33.699  31.957  28.000  1.00  0.00     0.116 C 
BRANCH  73  74
ATOM     74  N   UNL A   1      34.849  31.105  27.756  1.00  0.00    -0.351 N 
ATOM     75  C   UNL A   1      34.940  29.890  27.136  1.00  0.00     0.278 C 
ATOM     76  H   UNL A   1      35.703  31.461  28.091  1.00  0.00     0.163 HD
ATOM     77  O   UNL A   1      36.074  29.442  26.949  1.00  0.00    -0.268 OA
BRANCH  75  78
ATOM     78  C   UNL A   1      33.667  29.128  26.750  1.00  0.00     0.277 C 
ATOM     79  C   UNL A   1      33.206  29.592  25.348  1.00  0.00     0.114 C 
ATOM     80  N   UNL A   1      33.946  27.668  26.782  1.00  0.00    -0.325 N 
ATOM     81  C   UNL A   1      32.021  28.777  24.972  1.00  0.00    -0.006 A 
ATOM     82  C   UNL A   1      32.779  26.815  26.465  1.00  0.00     0.262 C 
ATOM     83  H   UNL A   1      34.272  27.426  27.717  1.00  0.00     0.347 HD
ATOM     84  H   UNL A   1      34.642  27.488  26.059  1.00  0.00     0.347 HD
ATOM     85  C   UNL A   1      31.845  27.520  25.518  1.00  0.00     0.083 A 
ATOM     86  C   UNL A   1      30.942  29.035  24.094  1.00  0.00     0.003 A 
ATOM     87  N   UNL A   1      30.647  27.036  25.061  1.00  0.00    -0.353 N 
ATOM     88  C   UNL A   1      30.098  27.924  24.158  1.00  0.00     0.046 A 
ATOM     89  C   UNL A   1      30.601  30.102  23.242  1.00  0.00     0.010 A 
ATOM     90  H   UNL A   1      30.240  26.182  25.334  1.00  0.00     0.166 HD
ATOM     91  C   UNL A   1      28.928  27.826  23.395  1.00  0.00     0.026 A 
ATOM     92  C   UNL A   1      29.439  30.017  22.470  1.00  0.00     0.001 A 
ATOM     93  C   UNL A   1      28.618  28.893  22.545  1.00  0.00     0.002 A 
BRANCH  82  94
ATOM     94  C   UNL A   1      33.288  25.465  25.956  1.00  0.00     0.016 A 
ATOM     95  C   UNL A   1      32.681  24.246  26.299  1.00  0.00     0.014 A 
ATOM     96  C   UNL A   1      34.365  25.421  25.053  1.00  0.00     0.014 A 
ATOM     97  C   UNL A   1      33.154  23.034  25.790  1.00  0.00     0.047 A 
ATOM     98  C   UNL A   1      34.819  24.207  24.516  1.00  0.00     0.047 A 
ATOM     99  C   UNL A   1      34.213  23.007  24.883  1.00  0.00     0.129 A 
BRANCH  99 100
ATOM    100  O   UNL A   1      34.549  21.758  24.449  1.00  0.00    -0.406 OA
BRANCH 100 101
ATOM    101  C   UNL A   1      35.777  21.215  24.900  1.00  0.00     0.573 C 
ATOM    102  F   UNL A   1      36.792  21.532  24.070  1.00  0.00    -0.132 F 
ATOM    103  F   UNL A   1      36.066  21.641  26.149  1.00  0.00    -0.132 F 
ATOM    104  F   UNL A   1      35.667  19.867  24.935  1.00  0.00    -0.132 F 
ENDBRANCH 100 101
ENDBRANCH  99 100
ENDBRANCH  82  94
ENDBRANCH  75  78
ENDBRANCH  73  74
ENDBRANCH   1  73
TORSDOF 14
ENDMDL
MODEL 2
REMARK VINA RESULT:     -12.3      5.053      7.300
REMARK SMILES O=C(NCCCCNC(=O)[C@H]1Cc2c([nH]c3ccccc23)[C@@H](c2ccc(OC(F)(F)F)cc2)[NH2+]1)c1ccc(-c2c3nc(c(-c4c(F)c(F)c(F)c(F)c4F)c4ccc([nH]4)c(-c4c(F)c(F)c(F)c(F)c4F)c4nc(c(-c5c(F)c(F)c(F)c(F)c5F)c5ccc2[nH]5)C=C4)C=C3)cc1
REMARK SMILES IDX 6 1 5 2 4 3 3 4 1 5 2 6 35 8 36 9 97 10 37 11 96 12 38 13
REMARK SMILES IDX 39 14 40 15 90 16 41 17 95 18 89 19 91 20 42 21 94 22 88 23
REMARK SMILES IDX 87 24 43 26 75 27 55 28 74 29 56 30 59 31 73 32 92 33 57 34
REMARK SMILES IDX 58 35 72 37 93 38 60 39 44 40 45 41 53 42 46 43 47 44 51 45
REMARK SMILES IDX 54 46 48 47 49 48 52 49 50 50 76 51 77 52 85 53 78 54 79 55
REMARK SMILES IDX 83 56 86 57 80 58 81 59 84 60 82 61 61 62 62 63 70 64 63 65
REMARK SMILES IDX 64 66 68 67 71 68 65 69 66 70 69 71 67 72 7 73 8 74 9 75
REMARK SMILES IDX 10 77 11 78 12 79 34 80 13 81 22 82 14 85 21 86 15 87 16 88
REMARK SMILES IDX 20 89 17 91 19 92 18 93 23 94 24 95 33 96 25 97 32 98 26 99
REMARK SMILES IDX 27 100 28 101 29 102 30 103 31 104
REMARK H PARENT 3 7 91 25 59 36 8 76 34 83 34 84 15 90
REMARK Flexibility Score: inf
ROOT
ATOM      1  C   UNL A   1      33.302  33.493  28.128  1.00  0.00     0.023 C 
ENDROOT
BRANCH   1   2
ATOM      2  C   UNL A   1      34.729  34.016  27.969  1.00  0.00     0.023 C 
BRANCH   2   3
ATOM      3  C   UNL A   1      35.504  34.222  29.263  1.00  0.00     0.116 C 
BRANCH   3   4
ATOM      4  N   UNL A   1      34.937  33.513  30.400  1.00  0.00    -0.352 N 
ATOM      5  O   UNL A   1      34.780  31.885  31.959  1.00  0.00    -0.269 OA
ATOM      6  C   UNL A   1      35.445  32.432  31.083  1.00  0.00     0.251 C 
ATOM      7  H   UNL A   1      34.071  33.853  30.723  1.00  0.00     0.163 HD
BRANCH   6   8
ATOM      8  C   UNL A   1      36.783  31.907  30.736  1.00  0.00     0.039 A 
ATOM      9  C   UNL A   1      37.215  31.891  29.409  1.00  0.00     0.014 A 
ATOM     10  C   UNL A   1      37.608  31.404  31.747  1.00  0.00     0.014 A 
ATOM     11  C   UNL A   1      38.390  31.228  29.076  1.00  0.00     0.010 A 
ATOM     12  C   UNL A   1      38.837  30.819  31.419  1.00  0.00     0.010 A 
ATOM     13  C   UNL A   1      39.220  30.693  30.077  1.00  0.00    -0.014 A 
BRANCH  13  14
ATOM     14  C   UNL A   1      40.504  30.063  29.673  1.00  0.00     0.031 A 
ATOM     15  C   UNL A   1      40.558  28.663  29.127  1.00  0.00     0.074 A 
ATOM     16  C   UNL A   1      41.626  30.807  29.734  1.00  0.00     0.049 A 
ATOM     17  N   UNL A   1      41.585  28.007  28.644  1.00  0.00    -0.248 NA
ATOM     18  C   UNL A   1      39.306  27.893  29.128  1.00  0.00     0.031 C 
ATOM     19  C   UNL A   1      41.699  32.168  30.272  1.00  0.00     0.029 A 
ATOM     20  N   UNL A   1      42.904  30.548  29.312  1.00  0.00    -0.354 N 
ATOM     21  C   UNL A   1      41.108  26.751  28.294  1.00  0.00     0.074 A 
ATOM     22  C   UNL A   1      39.704  26.722  28.647  1.00  0.00     0.031 C 
ATOM     23  C   UNL A   1      42.936  32.647  30.090  1.00  0.00     0.029 A 
ATOM     24  C   UNL A   1      43.758  31.610  29.474  1.00  0.00     0.049 A 
ATOM     25  H   UNL A   1      43.182  29.684  28.931  1.00  0.00     0.167 HD
ATOM     26  C   UNL A   1      41.779  25.723  27.720  1.00  0.00     0.037 A 
ATOM     27  C   UNL A   1      45.061  31.739  29.163  1.00  0.00     0.037 A 
ATOM     28  C   UNL A   1      43.175  25.759  27.361  1.00  0.00     0.049 A 
ATOM     29  C   UNL A   1      45.771  30.590  28.511  1.00  0.00     0.074 A 
ATOM     30  C   UNL A   1      43.943  24.769  26.771  1.00  0.00     0.029 A 
ATOM     31  N   UNL A   1      44.012  26.848  27.555  1.00  0.00    -0.354 N 
ATOM     32  N   UNL A   1      45.300  29.416  28.169  1.00  0.00    -0.248 NA
ATOM     33  C   UNL A   1      47.193  30.783  28.200  1.00  0.00     0.031 C 
ATOM     34  C   UNL A   1      45.251  25.248  26.638  1.00  0.00     0.029 A 
ATOM     35  C   UNL A   1      45.290  26.550  27.105  1.00  0.00     0.049 A 
ATOM     36  H   UNL A   1      43.740  27.707  27.953  1.00  0.00     0.167 HD
ATOM     37  C   UNL A   1      46.365  28.729  27.606  1.00  0.00     0.074 A 
ATOM     38  C   UNL A   1      47.497  29.634  27.615  1.00  0.00     0.031 C 
ATOM     39  C   UNL A   1      46.406  27.459  27.135  1.00  0.00     0.037 A 
BRANCH  26  40
ATOM     40  C   UNL A   1      41.017  24.459  27.442  1.00  0.00     0.064 A 
ATOM     41  C   UNL A   1      40.011  24.411  26.466  1.00  0.00     0.173 A 
ATOM     42  C   UNL A   1      41.341  23.269  28.111  1.00  0.00     0.173 A 
ATOM     43  F   UNL A   1      39.656  25.523  25.807  1.00  0.00    -0.203 F 
ATOM     44  C   UNL A   1      39.346  23.220  26.181  1.00  0.00     0.198 A 
ATOM     45  C   UNL A   1      40.691  22.075  27.806  1.00  0.00     0.198 A 
ATOM     46  F   UNL A   1      42.300  23.260  29.049  1.00  0.00    -0.203 F 
ATOM     47  F   UNL A   1      38.366  23.204  25.267  1.00  0.00    -0.200 F 
ATOM     48  C   UNL A   1      39.692  22.053  26.844  1.00  0.00     0.200 A 
ATOM     49  F   UNL A   1      41.034  20.946  28.440  1.00  0.00    -0.200 F 
ATOM     50  F   UNL A   1      39.060  20.905  26.560  1.00  0.00    -0.200 F 
ENDBRANCH  26  40
BRANCH  27  51
ATOM     51  C   UNL A   1      45.766  33.009  29.470  1.00  0.00     0.064 A 
ATOM     52  C   UNL A   1      45.825  34.051  28.534  1.00  0.00     0.173 A 
ATOM     53  C   UNL A   1      46.381  33.212  30.714  1.00  0.00     0.173 A 
ATOM     54  F   UNL A   1      45.267  33.896  27.324  1.00  0.00    -0.203 F 
ATOM     55  C   UNL A   1      46.487  35.241  28.827  1.00  0.00     0.198 A 
ATOM     56  C   UNL A   1      47.015  34.414  31.017  1.00  0.00     0.198 A 
ATOM     57  F   UNL A   1      46.345  32.248  31.646  1.00  0.00    -0.203 F 
ATOM     58  F   UNL A   1      46.564  36.206  27.901  1.00  0.00    -0.200 F 
ATOM     59  C   UNL A   1      47.074  35.425  30.070  1.00  0.00     0.200 A 
ATOM     60  F   UNL A   1      47.563  34.594  32.225  1.00  0.00    -0.200 F 
ATOM     61  F   UNL A   1      47.700  36.575  30.354  1.00  0.00    -0.200 F 
ENDBRANCH  27  51
BRANCH  39  62
ATOM     62  C   UNL A   1      47.722  26.983  26.597  1.00  0.00     0.064 A 
ATOM     63  C   UNL A   1      48.066  27.162  25.248  1.00  0.00     0.173 A 
ATOM     64  C   UNL A   1      48.647  26.344  27.434  1.00  0.00     0.173 A 
ATOM     65  F   UNL A   1      47.205  27.752  24.405  1.00  0.00    -0.203 F 
ATOM     66  C   UNL A   1      49.276  26.689  24.750  1.00  0.00     0.198 A 
ATOM     67  C   UNL A   1      49.868  25.896  26.938  1.00  0.00     0.198 A 
ATOM     68  F   UNL A   1      48.367  26.153  28.731  1.00  0.00    -0.203 F 
ATOM     69  F   UNL A   1      49.560  26.821  23.447  1.00  0.00    -0.200 F 
ATOM     70  C   UNL A   1      50.177  26.059  25.597  1.00  0.00     0.200 A 
ATOM     71  F   UNL A   1      50.743  25.295  27.757  1.00  0.00    -0.200 F 
ATOM     72  F   UNL A   1      51.340  25.599  25.114  1.00  0.00    -0.200 F 
ENDBRANCH  39  62
ENDBRANCH  13  14
ENDBRANCH   6   8
ENDBRANCH   3   4
ENDBRANCH   2   3
ENDBRANCH   1   2
BRANCH   1  73
ATOM     73  C   UNL A   1      33.060  32.085  27.590  1.00  0.00     0.116 C 
BRANCH  73  74
ATOM     74  N   UNL A   1      34.259  31.269  27.611  1.00  0.00    -0.351 N 
ATOM     75  C   UNL A   1      34.469  29.984  27.195  1.00  0.00     0.278 C 
ATOM     76  H   UNL A   1      35.052  31.713  27.988  1.00  0.00     0.163 HD
ATOM     77  O   UNL A   1      35.632  29.574  27.211  1.00  0.00    -0.268 OA
BRANCH  75  78
ATOM     78  C   UNL A   1      33.280  29.108  26.780  1.00  0.00     0.277 C 
ATOM     79  C   UNL A   1      32.738  29.604  25.419  1.00  0.00     0.114 C 
ATOM     80  N   UNL A   1      33.721  27.690  26.713  1.00  0.00    -0.325 N 
ATOM     81  C   UNL A   1      31.644  28.685  25.010  1.00  0.00    -0.006 A 
ATOM     82  C   UNL A   1      32.650  26.732  26.360  1.00  0.00     0.262 C 
ATOM     83  H   UNL A   1      34.095  27.428  27.625  1.00  0.00     0.347 HD
ATOM     84  H   UNL A   1      34.417  27.636  25.969  1.00  0.00     0.347 HD
ATOM     85  C   UNL A   1      31.622  27.385  25.475  1.00  0.00     0.083 A 
ATOM     86  C   UNL A   1      30.523  28.874  24.167  1.00  0.00     0.003 A 
ATOM     87  N   UNL A   1      30.476  26.797  25.006  1.00  0.00    -0.353 N 
ATOM     88  C   UNL A   1      29.810  27.672  24.172  1.00  0.00     0.046 A 
ATOM     89  C   UNL A   1      30.045  29.947  23.391  1.00  0.00     0.010 A 
ATOM     90  H   UNL A   1      30.173  25.888  25.230  1.00  0.00     0.166 HD
ATOM     91  C   UNL A   1      28.641  27.491  23.423  1.00  0.00     0.026 A 
ATOM     92  C   UNL A   1      28.882  29.779  22.634  1.00  0.00     0.001 A 
ATOM     93  C   UNL A   1      28.194  28.567  22.649  1.00  0.00     0.002 A 
BRANCH  82  94
ATOM     94  C   UNL A   1      33.296  25.482  25.756  1.00  0.00     0.016 A 
ATOM     95  C   UNL A   1      34.485  25.528  25.009  1.00  0.00     0.014 A 
ATOM     96  C   UNL A   1      32.733  24.218  26.001  1.00  0.00     0.014 A 
ATOM     97  C   UNL A   1      35.062  24.363  24.498  1.00  0.00     0.047 A 
ATOM     98  C   UNL A   1      33.331  23.046  25.517  1.00  0.00     0.047 A 
ATOM     99  C   UNL A   1      34.502  23.114  24.762  1.00  0.00     0.129 A 
BRANCH  99 100
ATOM    100  O   UNL A   1      35.189  22.065  24.225  1.00  0.00    -0.406 OA
BRANCH 100 101
ATOM    101  C   UNL A   1      35.738  21.114  25.119  1.00  0.00     0.573 C 
ATOM    102  F   UNL A   1      34.878  20.099  25.350  1.00  0.00    -0.132 F 
ATOM    103  F   UNL A   1      36.903  20.621  24.647  1.00  0.00    -0.132 F 
ATOM    104  F   UNL A   1      35.991  21.726  26.299  1.00  0.00    -0.132 F 
ENDBRANCH 100 101
ENDBRANCH  99 100
ENDBRANCH  82  94
ENDBRANCH  75  78
ENDBRANCH  73  74
ENDBRANCH   1  73
TORSDOF 14
ENDMDL
MODEL 3
REMARK VINA RESULT:     -12.2      0.666      7.121
REMARK SMILES O=C(NCCCCNC(=O)[C@H]1Cc2c([nH]c3ccccc23)[C@@H](c2ccc(OC(F)(F)F)cc2)[NH2+]1)c1ccc(-c2c3nc(c(-c4c(F)c(F)c(F)c(F)c4F)c4ccc([nH]4)c(-c4c(F)c(F)c(F)c(F)c4F)c4nc(c(-c5c(F)c(F)c(F)c(F)c5F)c5ccc2[nH]5)C=C4)C=C3)cc1
REMARK SMILES IDX 6 1 5 2 4 3 3 4 1 5 2 6 35 8 36 9 97 10 37 11 96 12 38 13
REMARK SMILES IDX 39 14 40 15 90 16 41 17 95 18 89 19 91 20 42 21 94 22 88 23
REMARK SMILES IDX 87 24 43 26 75 27 55 28 74 29 56 30 59 31 73 32 92 33 57 34
REMARK SMILES IDX 58 35 72 37 93 38 60 39 44 40 45 41 53 42 46 43 47 44 51 45
REMARK SMILES IDX 54 46 48 47 49 48 52 49 50 50 76 51 77 52 85 53 78 54 79 55
REMARK SMILES IDX 83 56 86 57 80 58 81 59 84 60 82 61 61 62 62 63 70 64 63 65
REMARK SMILES IDX 64 66 68 67 71 68 65 69 66 70 69 71 67 72 7 73 8 74 9 75
REMARK SMILES IDX 10 77 11 78 12 79 34 80 13 81 22 82 14 85 21 86 15 87 16 88
REMARK SMILES IDX 20 89 17 91 19 92 18 93 23 94 24 95 33 96 25 97 32 98 26 99
REMARK SMILES IDX 27 100 28 101 29 102 30 103 31 104
REMARK H PARENT 3 7 91 25 59 36 8 76 34 83 34 84 15 90
REMARK Flexibility Score: inf
ROOT
ATOM      1  C   UNL A   1      34.051  33.324  28.048  1.00  0.00     0.023 C 
ENDROOT
BRANCH   1   2
ATOM      2  C   UNL A   1      32.944  34.231  28.586  1.00  0.00     0.023 C 
BRANCH   2   3
ATOM      3  C   UNL A   1      33.409  35.398  29.447  1.00  0.00     0.116 C 
BRANCH   3   4
ATOM      4  N   UNL A   1      32.529  35.679  30.570  1.00  0.00    -0.352 N 
ATOM      5  O   UNL A   1      31.803  35.588  32.708  1.00  0.00    -0.269 OA
ATOM      6  C   UNL A   1      32.702  35.371  31.900  1.00  0.00     0.251 C 
ATOM      7  H   UNL A   1      31.695  36.154  30.348  1.00  0.00     0.163 HD
BRANCH   6   8
ATOM      8  C   UNL A   1      33.963  34.742  32.350  1.00  0.00     0.039 A 
ATOM      9  C   UNL A   1      35.146  35.480  32.398  1.00  0.00     0.014 A 
ATOM     10  C   UNL A   1      33.966  33.390  32.708  1.00  0.00     0.014 A 
ATOM     11  C   UNL A   1      36.351  34.833  32.642  1.00  0.00     0.010 A 
ATOM     12  C   UNL A   1      35.170  32.761  33.046  1.00  0.00     0.010 A 
ATOM     13  C   UNL A   1      36.378  33.469  32.978  1.00  0.00    -0.014 A 
BRANCH  13  14
ATOM     14  C   UNL A   1      37.686  32.844  33.307  1.00  0.00     0.031 A 
ATOM     15  C   UNL A   1      38.381  33.110  34.612  1.00  0.00     0.074 A 
ATOM     16  C   UNL A   1      38.207  31.962  32.431  1.00  0.00     0.049 A 
ATOM     17  N   UNL A   1      39.478  32.571  35.086  1.00  0.00    -0.248 NA
ATOM     18  C   UNL A   1      37.780  34.115  35.501  1.00  0.00     0.031 C 
ATOM     19  C   UNL A   1      37.635  31.645  31.121  1.00  0.00     0.029 A 
ATOM     20  N   UNL A   1      39.305  31.146  32.521  1.00  0.00    -0.354 N 
ATOM     21  C   UNL A   1      39.701  33.173  36.316  1.00  0.00     0.074 A 
ATOM     22  C   UNL A   1      38.644  34.144  36.507  1.00  0.00     0.031 C 
ATOM     23  C   UNL A   1      38.347  30.660  30.556  1.00  0.00     0.029 A 
ATOM     24  C   UNL A   1      39.456  30.314  31.439  1.00  0.00     0.049 A 
ATOM     25  H   UNL A   1      39.925  31.156  33.285  1.00  0.00     0.167 HD
ATOM     26  C   UNL A   1      40.692  32.929  37.208  1.00  0.00     0.037 A 
ATOM     27  C   UNL A   1      40.385  29.376  31.181  1.00  0.00     0.037 A 
ATOM     28  C   UNL A   1      41.738  31.954  37.019  1.00  0.00     0.049 A 
ATOM     29  C   UNL A   1      41.458  29.115  32.196  1.00  0.00     0.074 A 
ATOM     30  C   UNL A   1      42.784  31.631  37.868  1.00  0.00     0.029 A 
ATOM     31  N   UNL A   1      41.867  31.141  35.903  1.00  0.00    -0.354 N 
ATOM     32  N   UNL A   1      41.644  29.680  33.364  1.00  0.00    -0.248 NA
ATOM     33  C   UNL A   1      42.449  28.086  31.860  1.00  0.00     0.031 C 
ATOM     34  C   UNL A   1      43.563  30.646  37.251  1.00  0.00     0.029 A 
ATOM     35  C   UNL A   1      42.980  30.324  36.037  1.00  0.00     0.049 A 
ATOM     36  H   UNL A   1      41.258  31.143  35.129  1.00  0.00     0.167 HD
ATOM     37  C   UNL A   1      42.772  29.080  33.901  1.00  0.00     0.074 A 
ATOM     38  C   UNL A   1      43.204  28.076  32.949  1.00  0.00     0.031 C 
ATOM     39  C   UNL A   1      43.402  29.343  35.072  1.00  0.00     0.037 A 
BRANCH  26  40
ATOM     40  C   UNL A   1      40.703  33.729  38.479  1.00  0.00     0.064 A 
ATOM     41  C   UNL A   1      39.927  33.355  39.586  1.00  0.00     0.173 A 
ATOM     42  C   UNL A   1      41.545  34.843  38.614  1.00  0.00     0.173 A 
ATOM     43  F   UNL A   1      39.096  32.306  39.505  1.00  0.00    -0.203 F 
ATOM     44  C   UNL A   1      39.984  34.076  40.777  1.00  0.00     0.198 A 
ATOM     45  C   UNL A   1      41.617  35.547  39.814  1.00  0.00     0.198 A 
ATOM     46  F   UNL A   1      42.312  35.239  37.587  1.00  0.00    -0.203 F 
ATOM     47  F   UNL A   1      39.210  33.720  41.812  1.00  0.00    -0.200 F 
ATOM     48  C   UNL A   1      40.834  35.165  40.892  1.00  0.00     0.200 A 
ATOM     49  F   UNL A   1      42.448  36.592  39.927  1.00  0.00    -0.200 F 
ATOM     50  F   UNL A   1      40.897  35.850  42.043  1.00  0.00    -0.200 F 
ENDBRANCH  26  40
BRANCH  27  51
ATOM     51  C   UNL A   1      40.331  28.621  29.903  1.00  0.00     0.064 A 
ATOM     52  C   UNL A   1      40.995  29.083  28.759  1.00  0.00     0.173 A 
ATOM     53  C   UNL A   1      39.628  27.411  29.808  1.00  0.00     0.173 A 
ATOM     54  F   UNL A   1      41.666  30.244  28.797  1.00  0.00    -0.203 F 
ATOM     55  C   UNL A   1      40.944  28.371  27.563  1.00  0.00     0.198 A 
ATOM     56  C   UNL A   1      39.604  26.684  28.621  1.00  0.00     0.198 A 
ATOM     57  F   UNL A   1      38.984  26.923  30.879  1.00  0.00    -0.203 F 
ATOM     58  F   UNL A   1      41.553  28.854  26.472  1.00  0.00    -0.200 F 
ATOM     59  C   UNL A   1      40.255  27.168  27.497  1.00  0.00     0.200 A 
ATOM     60  F   UNL A   1      38.955  25.514  28.568  1.00  0.00    -0.200 F 
ATOM     61  F   UNL A   1      40.215  26.479  26.350  1.00  0.00    -0.200 F 
ENDBRANCH  27  51
BRANCH  39  62
ATOM     62  C   UNL A   1      44.625  28.530  35.376  1.00  0.00     0.064 A 
ATOM     63  C   UNL A   1      44.539  27.314  36.070  1.00  0.00     0.173 A 
ATOM     64  C   UNL A   1      45.893  28.970  34.971  1.00  0.00     0.173 A 
ATOM     65  F   UNL A   1      43.349  26.862  36.493  1.00  0.00    -0.203 F 
ATOM     66  C   UNL A   1      45.682  26.583  36.375  1.00  0.00     0.198 A 
ATOM     67  C   UNL A   1      47.033  28.222  35.255  1.00  0.00     0.198 A 
ATOM     68  F   UNL A   1      46.027  30.124  34.302  1.00  0.00    -0.203 F 
ATOM     69  F   UNL A   1      45.582  25.451  37.087  1.00  0.00    -0.200 F 
ATOM     70  C   UNL A   1      46.928  27.036  35.964  1.00  0.00     0.200 A 
ATOM     71  F   UNL A   1      48.235  28.656  34.852  1.00  0.00    -0.200 F 
ATOM     72  F   UNL A   1      48.029  26.333  36.264  1.00  0.00    -0.200 F 
ENDBRANCH  39  62
ENDBRANCH  13  14
ENDBRANCH   6   8
ENDBRANCH   3   4
ENDBRANCH   2   3
ENDBRANCH   1   2
BRANCH   1  73
ATOM     73  C   UNL A   1      33.636  31.881  27.777  1.00  0.00     0.116 C 
BRANCH  73  74
ATOM     74  N   UNL A   1      34.775  30.988  27.660  1.00  0.00    -0.351 N 
ATOM     75  C   UNL A   1      34.868  29.728  27.138  1.00  0.00     0.278 C 
ATOM     76  H   UNL A   1      35.618  31.350  28.014  1.00  0.00     0.163 HD
ATOM     77  O   UNL A   1      35.998  29.244  27.047  1.00  0.00    -0.268 OA
BRANCH  75  78
ATOM     78  C   UNL A   1      33.598  28.966  26.739  1.00  0.00     0.277 C 
ATOM     79  C   UNL A   1      33.132  29.455  25.347  1.00  0.00     0.114 C 
ATOM     80  N   UNL A   1      33.885  27.508  26.743  1.00  0.00    -0.325 N 
ATOM     81  C   UNL A   1      31.951  28.641  24.958  1.00  0.00    -0.006 A 
ATOM     82  C   UNL A   1      32.722  26.655  26.412  1.00  0.00     0.262 C 
ATOM     83  H   UNL A   1      34.215  27.250  27.673  1.00  0.00     0.347 HD
ATOM     84  H   UNL A   1      34.581  27.346  26.015  1.00  0.00     0.347 HD
ATOM     85  C   UNL A   1      31.783  27.373  25.480  1.00  0.00     0.083 A 
ATOM     86  C   UNL A   1      30.869  28.910  24.086  1.00  0.00     0.003 A 
ATOM     87  N   UNL A   1      30.587  26.891  25.015  1.00  0.00    -0.353 N 
ATOM     88  C   UNL A   1      30.031  27.793  24.131  1.00  0.00     0.046 A 
ATOM     89  C   UNL A   1      30.521  29.991  23.255  1.00  0.00     0.010 A 
ATOM     90  H   UNL A   1      30.185  26.030  25.273  1.00  0.00     0.166 HD
ATOM     91  C   UNL A   1      28.860  27.704  23.368  1.00  0.00     0.026 A 
ATOM     92  C   UNL A   1      29.358  29.914  22.484  1.00  0.00     0.001 A 
ATOM     93  C   UNL A   1      28.543  28.784  22.539  1.00  0.00     0.002 A 
BRANCH  82  94
ATOM     94  C   UNL A   1      33.238  25.317  25.876  1.00  0.00     0.016 A 
ATOM     95  C   UNL A   1      32.426  24.176  25.775  1.00  0.00     0.014 A 
ATOM     96  C   UNL A   1      34.555  25.220  25.395  1.00  0.00     0.014 A 
ATOM     97  C   UNL A   1      32.923  22.980  25.252  1.00  0.00     0.047 A 
ATOM     98  C   UNL A   1      35.044  24.029  24.839  1.00  0.00     0.047 A 
ATOM     99  C   UNL A   1      34.227  22.902  24.764  1.00  0.00     0.129 A 
BRANCH  99 100
ATOM    100  O   UNL A   1      34.564  21.681  24.257  1.00  0.00    -0.406 OA
BRANCH 100 101
ATOM    101  C   UNL A   1      34.991  20.687  25.171  1.00  0.00     0.573 C 
ATOM    102  F   UNL A   1      35.372  21.228  26.348  1.00  0.00    -0.132 F 
ATOM    103  F   UNL A   1      34.016  19.777  25.388  1.00  0.00    -0.132 F 
ATOM    104  F   UNL A   1      36.054  20.041  24.642  1.00  0.00    -0.132 F 
ENDBRANCH 100 101
ENDBRANCH  99 100
ENDBRANCH  82  94
ENDBRANCH  75  78
ENDBRANCH  73  74
ENDBRANCH   1  73
TORSDOF 14
ENDMDL
