MODEL 1
REMARK VINA RESULT:     -11.7      0.000      0.000
REMARK SMILES CCCc1cc(N2CCC(C(=O)NCCCCNC(=O)c3ccc(-c4c5nc(c(-c6c(F)c(F)c(F)c(F)c6F)c6ccc([nH]6)c(-c6c(F)c(F)c(F)c(F)c6F)c6nc(c(-c7c(F)c(F)c(F)c(F)c7F)c7ccc4[nH]7)C=C6)C=C5)cc3)CC2)nc(CC)n1
REMARK SMILES IDX 15 1 14 2 13 3 11 4 12 5 10 7 7 8 8 9 85 10 9 11 84 12 6 13
REMARK SMILES IDX 4 14 5 15 90 16 87 17 86 18 3 19 2 20 1 21 88 22 89 23 16 24
REMARK SMILES IDX 17 25 18 26 19 27 20 29 21 30 22 31 83 32 23 33 82 34 24 35
REMARK SMILES IDX 25 36 26 37 76 38 27 39 81 40 75 41 77 42 28 43 80 44 74 45
REMARK SMILES IDX 73 46 29 48 61 49 41 50 60 51 42 52 45 53 59 54 78 55 43 56
REMARK SMILES IDX 44 57 58 59 79 60 46 61 30 62 31 63 39 64 32 65 33 66 37 67
REMARK SMILES IDX 40 68 34 69 35 70 38 71 36 72 62 73 63 74 71 75 64 76 65 77
REMARK SMILES IDX 69 78 72 79 66 80 67 81 70 82 68 83 47 84 48 85 56 86 49 87
REMARK SMILES IDX 50 88 54 89 57 90 51 91 52 92 55 93 53 94
REMARK H PARENT 13 6 18 28 77 47 45 58
REMARK Flexibility Score: inf
ROOT
ATOM      1  C   UNL A   1      32.017  29.793  27.192  1.00  0.00     0.023 C 
ENDROOT
BRANCH   1   2
ATOM      2  C   UNL A   1      31.856  28.798  26.044  1.00  0.00     0.116 C 
BRANCH   2   3
ATOM      3  N   UNL A   1      31.096  27.624  26.447  1.00  0.00    -0.356 N 
ATOM      4  C   UNL A   1      31.192  26.326  26.041  1.00  0.00     0.223 C 
ATOM      5  O   UNL A   1      30.411  25.508  26.532  1.00  0.00    -0.275 OA
ATOM      6  H   UNL A   1      30.399  27.795  27.120  1.00  0.00     0.163 HD
BRANCH   4   7
ATOM      7  C   UNL A   1      32.247  25.880  25.035  1.00  0.00     0.082 C 
ATOM      8  N   UNL A   1      33.771  23.614  24.352  1.00  0.00    -0.356 N 
ATOM      9  C   UNL A   1      34.527  24.688  24.963  1.00  0.00     0.119 C 
ATOM     10  C   UNL A   1      32.745  23.979  23.399  1.00  0.00     0.119 C 
ATOM     11  C   UNL A   1      33.592  25.607  25.731  1.00  0.00     0.035 C 
ATOM     12  C   UNL A   1      31.674  24.764  24.140  1.00  0.00     0.035 C 
BRANCH   8  13
ATOM     13  C   UNL A   1      34.165  22.312  24.552  1.00  0.00     0.132 A 
ATOM     14  C   UNL A   1      33.682  20.013  24.793  1.00  0.00     0.046 A 
ATOM     15  C   UNL A   1      33.224  21.309  24.677  1.00  0.00     0.070 A 
ATOM     16  N   UNL A   1      34.994  19.724  24.859  1.00  0.00    -0.238 NA
ATOM     17  C   UNL A   1      35.847  20.760  24.784  1.00  0.00     0.130 A 
ATOM     18  N   UNL A   1      35.481  22.044  24.595  1.00  0.00    -0.216 NA
BRANCH  14  19
ATOM     19  C   UNL A   1      32.720  18.854  24.792  1.00  0.00     0.056 C 
BRANCH  19  20
ATOM     20  C   UNL A   1      33.138  17.715  23.853  1.00  0.00     0.003 C 
ATOM     21  C   UNL A   1      32.678  17.920  22.416  1.00  0.00     0.004 C 
ENDBRANCH  19  20
ENDBRANCH  14  19
BRANCH  17  22
ATOM     22  C   UNL A   1      37.314  20.457  24.919  1.00  0.00     0.074 C 
ATOM     23  C   UNL A   1      38.107  21.670  25.390  1.00  0.00     0.012 C 
ENDBRANCH  17  22
ENDBRANCH   8  13
ENDBRANCH   4   7
ENDBRANCH   2   3
ENDBRANCH   1   2
BRANCH   1  24
ATOM     24  C   UNL A   1      31.757  31.251  26.815  1.00  0.00     0.023 C 
BRANCH  24  25
ATOM     25  C   UNL A   1      32.969  32.171  26.907  1.00  0.00     0.116 C 
BRANCH  25  26
ATOM     26  N   UNL A   1      32.641  33.496  27.409  1.00  0.00    -0.352 N 
ATOM     27  C   UNL A   1      33.214  34.208  28.431  1.00  0.00     0.251 C 
ATOM     28  H   UNL A   1      31.900  33.949  26.947  1.00  0.00     0.163 HD
ATOM     29  O   UNL A   1      32.709  35.269  28.797  1.00  0.00    -0.269 OA
BRANCH  27  30
ATOM     30  C   UNL A   1      34.416  33.691  29.119  1.00  0.00     0.039 A 
ATOM     31  C   UNL A   1      34.256  32.681  30.071  1.00  0.00     0.014 A 
ATOM     32  C   UNL A   1      35.691  34.193  28.841  1.00  0.00     0.014 A 
ATOM     33  C   UNL A   1      35.378  32.135  30.696  1.00  0.00     0.010 A 
ATOM     34  C   UNL A   1      36.814  33.591  29.402  1.00  0.00     0.010 A 
ATOM     35  C   UNL A   1      36.669  32.560  30.342  1.00  0.00    -0.014 A 
BRANCH  35  36
ATOM     36  C   UNL A   1      37.865  31.918  30.945  1.00  0.00     0.031 A 
ATOM     37  C   UNL A   1      38.316  32.283  32.332  1.00  0.00     0.074 A 
ATOM     38  C   UNL A   1      38.561  31.017  30.224  1.00  0.00     0.049 A 
ATOM     39  N   UNL A   1      39.307  31.791  33.034  1.00  0.00    -0.248 NA
ATOM     40  C   UNL A   1      37.578  33.358  33.010  1.00  0.00     0.031 C 
ATOM     41  C   UNL A   1      38.266  30.630  28.844  1.00  0.00     0.029 A 
ATOM     42  N   UNL A   1      39.656  30.257  30.554  1.00  0.00    -0.354 N 
ATOM     43  C   UNL A   1      39.312  32.500  34.228  1.00  0.00     0.074 A 
ATOM     44  C   UNL A   1      38.268  33.497  34.133  1.00  0.00     0.031 C 
ATOM     45  C   UNL A   1      39.127  29.674  28.460  1.00  0.00     0.029 A 
ATOM     46  C   UNL A   1      40.054  29.403  29.554  1.00  0.00     0.049 A 
ATOM     47  H   UNL A   1      40.112  30.319  31.424  1.00  0.00     0.167 HD
ATOM     48  C   UNL A   1      40.098  32.317  35.316  1.00  0.00     0.037 A 
ATOM     49  C   UNL A   1      41.046  28.493  29.529  1.00  0.00     0.037 A 
ATOM     50  C   UNL A   1      41.123  31.311  35.414  1.00  0.00     0.049 A 
ATOM     51  C   UNL A   1      41.893  28.298  30.757  1.00  0.00     0.074 A 
ATOM     52  C   UNL A   1      41.930  31.001  36.495  1.00  0.00     0.029 A 
ATOM     53  N   UNL A   1      41.486  30.452  34.386  1.00  0.00    -0.354 N 
ATOM     54  N   UNL A   1      41.826  28.908  31.915  1.00  0.00    -0.248 NA
ATOM     55  C   UNL A   1      42.944  27.274  30.678  1.00  0.00     0.031 C 
ATOM     56  C   UNL A   1      42.816  29.992  36.106  1.00  0.00     0.029 A 
ATOM     57  C   UNL A   1      42.521  29.628  34.802  1.00  0.00     0.049 A 
ATOM     58  H   UNL A   1      41.071  30.431  33.494  1.00  0.00     0.167 HD
ATOM     59  C   UNL A   1      42.798  28.320  32.713  1.00  0.00     0.074 A 
ATOM     60  C   UNL A   1      43.431  27.295  31.910  1.00  0.00     0.031 C 
ATOM     61  C   UNL A   1      43.135  28.604  33.996  1.00  0.00     0.037 A 
BRANCH  48  62
ATOM     62  C   UNL A   1      39.879  33.225  36.494  1.00  0.00     0.064 A 
ATOM     63  C   UNL A   1      38.987  32.893  37.525  1.00  0.00     0.173 A 
ATOM     64  C   UNL A   1      40.600  34.423  36.613  1.00  0.00     0.173 A 
ATOM     65  F   UNL A   1      38.265  31.764  37.456  1.00  0.00    -0.203 F 
ATOM     66  C   UNL A   1      38.802  33.740  38.616  1.00  0.00     0.198 A 
ATOM     67  C   UNL A   1      40.437  35.251  37.721  1.00  0.00     0.198 A 
ATOM     68  F   UNL A   1      41.472  34.787  35.661  1.00  0.00    -0.203 F 
ATOM     69  F   UNL A   1      37.907  33.425  39.562  1.00  0.00    -0.200 F 
ATOM     70  C   UNL A   1      39.533  34.913  38.717  1.00  0.00     0.200 A 
ATOM     71  F   UNL A   1      41.155  36.378  37.825  1.00  0.00    -0.200 F 
ATOM     72  F   UNL A   1      39.361  35.723  39.771  1.00  0.00    -0.200 F 
ENDBRANCH  48  62
BRANCH  49  73
ATOM     73  C   UNL A   1      41.260  27.662  28.314  1.00  0.00     0.064 A 
ATOM     74  C   UNL A   1      40.594  26.438  28.153  1.00  0.00     0.173 A 
ATOM     75  C   UNL A   1      42.133  28.068  27.295  1.00  0.00     0.173 A 
ATOM     76  F   UNL A   1      39.763  25.998  29.109  1.00  0.00    -0.203 F 
ATOM     77  C   UNL A   1      40.811  25.642  27.032  1.00  0.00     0.198 A 
ATOM     78  C   UNL A   1      42.327  27.285  26.158  1.00  0.00     0.198 A 
ATOM     79  F   UNL A   1      42.789  29.234  27.396  1.00  0.00    -0.203 F 
ATOM     80  F   UNL A   1      40.200  24.454  26.927  1.00  0.00    -0.200 F 
ATOM     81  C   UNL A   1      41.673  26.068  26.032  1.00  0.00     0.200 A 
ATOM     82  F   UNL A   1      43.148  27.709  25.188  1.00  0.00    -0.200 F 
ATOM     83  F   UNL A   1      41.880  25.304  24.951  1.00  0.00    -0.200 F 
ENDBRANCH  49  73
BRANCH  61  84
ATOM     84  C   UNL A   1      44.206  27.761  34.627  1.00  0.00     0.064 A 
ATOM     85  C   UNL A   1      45.556  28.137  34.605  1.00  0.00     0.173 A 
ATOM     86  C   UNL A   1      43.867  26.568  35.285  1.00  0.00     0.173 A 
ATOM     87  F   UNL A   1      45.933  29.261  33.977  1.00  0.00    -0.203 F 
ATOM     88  C   UNL A   1      46.534  27.334  35.187  1.00  0.00     0.198 A 
ATOM     89  C   UNL A   1      44.843  25.785  35.896  1.00  0.00     0.198 A 
ATOM     90  F   UNL A   1      42.589  26.165  35.344  1.00  0.00    -0.203 F 
ATOM     91  F   UNL A   1      47.824  27.684  35.101  1.00  0.00    -0.200 F 
ATOM     92  C   UNL A   1      46.175  26.162  35.836  1.00  0.00     0.200 A 
ATOM     93  F   UNL A   1      44.493  24.660  36.537  1.00  0.00    -0.200 F 
ATOM     94  F   UNL A   1      47.117  25.392  36.399  1.00  0.00    -0.200 F 
ENDBRANCH  61  84
ENDBRANCH  35  36
ENDBRANCH  27  30
ENDBRANCH  25  26
ENDBRANCH  24  25
ENDBRANCH   1  24
TORSDOF 15
ENDMDL
MODEL 2
REMARK VINA RESULT:     -11.7      1.661      3.066
REMARK SMILES CCCc1cc(N2CCC(C(=O)NCCCCNC(=O)c3ccc(-c4c5nc(c(-c6c(F)c(F)c(F)c(F)c6F)c6ccc([nH]6)c(-c6c(F)c(F)c(F)c(F)c6F)c6nc(c(-c7c(F)c(F)c(F)c(F)c7F)c7ccc4[nH]7)C=C6)C=C5)cc3)CC2)nc(CC)n1
REMARK SMILES IDX 15 1 14 2 13 3 11 4 12 5 10 7 7 8 8 9 85 10 9 11 84 12 6 13
REMARK SMILES IDX 4 14 5 15 90 16 87 17 86 18 3 19 2 20 1 21 88 22 89 23 16 24
REMARK SMILES IDX 17 25 18 26 19 27 20 29 21 30 22 31 83 32 23 33 82 34 24 35
REMARK SMILES IDX 25 36 26 37 76 38 27 39 81 40 75 41 77 42 28 43 80 44 74 45
REMARK SMILES IDX 73 46 29 48 61 49 41 50 60 51 42 52 45 53 59 54 78 55 43 56
REMARK SMILES IDX 44 57 58 59 79 60 46 61 30 62 31 63 39 64 32 65 33 66 37 67
REMARK SMILES IDX 40 68 34 69 35 70 38 71 36 72 62 73 63 74 71 75 64 76 65 77
REMARK SMILES IDX 69 78 72 79 66 80 67 81 70 82 68 83 47 84 48 85 56 86 49 87
REMARK SMILES IDX 50 88 54 89 57 90 51 91 52 92 55 93 53 94
REMARK H PARENT 13 6 18 28 77 47 45 58
REMARK Flexibility Score: inf
ROOT
ATOM      1  C   UNL A   1      32.454  27.302  25.962  1.00  0.00     0.023 C 
ENDROOT
BRANCH   1   2
ATOM      2  C   UNL A   1      32.835  27.187  24.487  1.00  0.00     0.116 C 
BRANCH   2   3
ATOM      3  N   UNL A   1      31.846  27.811  23.621  1.00  0.00    -0.356 N 
ATOM      4  C   UNL A   1      31.115  27.290  22.594  1.00  0.00     0.223 C 
ATOM      5  O   UNL A   1      30.339  28.041  21.999  1.00  0.00    -0.275 OA
ATOM      6  H   UNL A   1      31.676  28.763  23.806  1.00  0.00     0.163 HD
BRANCH   4   7
ATOM      7  C   UNL A   1      31.222  25.821  22.204  1.00  0.00     0.082 C 
ATOM      8  N   UNL A   1      32.520  23.454  23.004  1.00  0.00    -0.356 N 
ATOM      9  C   UNL A   1      33.009  24.021  21.764  1.00  0.00     0.119 C 
ATOM     10  C   UNL A   1      31.092  23.483  23.232  1.00  0.00     0.119 C 
ATOM     11  C   UNL A   1      32.632  25.491  21.683  1.00  0.00     0.035 C 
ATOM     12  C   UNL A   1      30.663  24.939  23.337  1.00  0.00     0.035 C 
BRANCH   8  13
ATOM     13  C   UNL A   1      33.385  22.761  23.817  1.00  0.00     0.132 A 
ATOM     14  C   UNL A   1      35.166  22.687  25.367  1.00  0.00     0.046 A 
ATOM     15  C   UNL A   1      34.383  23.425  24.503  1.00  0.00     0.070 A 
ATOM     16  N   UNL A   1      35.027  21.356  25.494  1.00  0.00    -0.238 NA
ATOM     17  C   UNL A   1      34.069  20.774  24.752  1.00  0.00     0.130 A 
ATOM     18  N   UNL A   1      33.215  21.434  23.944  1.00  0.00    -0.216 NA
BRANCH  14  19
ATOM     19  C   UNL A   1      36.180  23.363  26.253  1.00  0.00     0.056 C 
BRANCH  19  20
ATOM     20  C   UNL A   1      37.471  23.747  25.520  1.00  0.00     0.003 C 
ATOM     21  C   UNL A   1      38.588  24.186  26.456  1.00  0.00     0.004 C 
ENDBRANCH  19  20
ENDBRANCH  14  19
BRANCH  17  22
ATOM     22  C   UNL A   1      33.944  19.277  24.838  1.00  0.00     0.074 C 
ATOM     23  C   UNL A   1      32.806  18.748  23.975  1.00  0.00     0.012 C 
ENDBRANCH  17  22
ENDBRANCH   8  13
ENDBRANCH   4   7
ENDBRANCH   2   3
ENDBRANCH   1   2
BRANCH   1  24
ATOM     24  C   UNL A   1      32.162  28.724  26.439  1.00  0.00     0.023 C 
BRANCH  24  25
ATOM     25  C   UNL A   1      33.060  29.804  25.846  1.00  0.00     0.116 C 
BRANCH  25  26
ATOM     26  N   UNL A   1      32.757  31.134  26.348  1.00  0.00    -0.352 N 
ATOM     27  C   UNL A   1      33.399  31.869  27.312  1.00  0.00     0.251 C 
ATOM     28  H   UNL A   1      31.978  31.572  25.937  1.00  0.00     0.163 HD
ATOM     29  O   UNL A   1      32.912  32.932  27.697  1.00  0.00    -0.269 OA
BRANCH  27  30
ATOM     30  C   UNL A   1      34.655  31.375  27.916  1.00  0.00     0.039 A 
ATOM     31  C   UNL A   1      35.733  32.257  28.026  1.00  0.00     0.014 A 
ATOM     32  C   UNL A   1      34.780  30.058  28.367  1.00  0.00     0.014 A 
ATOM     33  C   UNL A   1      36.912  31.835  28.641  1.00  0.00     0.010 A 
ATOM     34  C   UNL A   1      35.924  29.664  29.056  1.00  0.00     0.010 A 
ATOM     35  C   UNL A   1      37.006  30.546  29.194  1.00  0.00    -0.014 A 
BRANCH  35  36
ATOM     36  C   UNL A   1      38.230  30.129  29.925  1.00  0.00     0.031 A 
ATOM     37  C   UNL A   1      38.476  30.589  31.335  1.00  0.00     0.074 A 
ATOM     38  C   UNL A   1      39.135  29.350  29.302  1.00  0.00     0.049 A 
ATOM     39  N   UNL A   1      39.463  30.287  32.142  1.00  0.00    -0.248 NA
ATOM     40  C   UNL A   1      37.504  31.533  31.907  1.00  0.00     0.031 C 
ATOM     41  C   UNL A   1      39.044  28.895  27.914  1.00  0.00     0.029 A 
ATOM     42  N   UNL A   1      40.306  28.795  29.756  1.00  0.00    -0.354 N 
ATOM     43  C   UNL A   1      39.233  31.006  33.307  1.00  0.00     0.074 A 
ATOM     44  C   UNL A   1      38.049  31.806  33.083  1.00  0.00     0.031 C 
ATOM     45  C   UNL A   1      40.087  28.095  27.643  1.00  0.00     0.029 A 
ATOM     46  C   UNL A   1      40.937  28.005  28.826  1.00  0.00     0.049 A 
ATOM     47  H   UNL A   1      40.659  28.948  30.662  1.00  0.00     0.167 HD
ATOM     48  C   UNL A   1      39.930  30.979  34.468  1.00  0.00     0.037 A 
ATOM     49  C   UNL A   1      42.067  27.279  28.922  1.00  0.00     0.037 A 
ATOM     50  C   UNL A   1      41.096  30.165  34.694  1.00  0.00     0.049 A 
ATOM     51  C   UNL A   1      42.812  27.253  30.229  1.00  0.00     0.074 A 
ATOM     52  C   UNL A   1      41.836  30.017  35.854  1.00  0.00     0.029 A 
ATOM     53  N   UNL A   1      41.697  29.365  33.732  1.00  0.00    -0.354 N 
ATOM     54  N   UNL A   1      42.531  27.861  31.355  1.00  0.00    -0.248 NA
ATOM     55  C   UNL A   1      44.024  26.424  30.281  1.00  0.00     0.031 C 
ATOM     56  C   UNL A   1      42.914  29.169  35.581  1.00  0.00     0.029 A 
ATOM     57  C   UNL A   1      42.812  28.738  34.269  1.00  0.00     0.049 A 
ATOM     58  H   UNL A   1      41.380  29.257  32.807  1.00  0.00     0.167 HD
ATOM     59  C   UNL A   1      43.507  27.463  32.259  1.00  0.00     0.074 A 
ATOM     60  C   UNL A   1      44.379  26.548  31.551  1.00  0.00     0.031 C 
ATOM     61  C   UNL A   1      43.665  27.821  33.557  1.00  0.00     0.037 A 
BRANCH  48  62
ATOM     62  C   UNL A   1      39.447  31.855  35.591  1.00  0.00     0.064 A 
ATOM     63  C   UNL A   1      38.527  31.392  36.544  1.00  0.00     0.173 A 
ATOM     64  C   UNL A   1      39.943  33.160  35.738  1.00  0.00     0.173 A 
ATOM     65  F   UNL A   1      38.015  30.156  36.444  1.00  0.00    -0.203 F 
ATOM     66  C   UNL A   1      38.097  32.213  37.584  1.00  0.00     0.198 A 
ATOM     67  C   UNL A   1      39.535  33.966  36.798  1.00  0.00     0.198 A 
ATOM     68  F   UNL A   1      40.829  33.651  34.861  1.00  0.00    -0.203 F 
ATOM     69  F   UNL A   1      37.178  31.766  38.451  1.00  0.00    -0.200 F 
ATOM     70  C   UNL A   1      38.607  33.495  37.715  1.00  0.00     0.200 A 
ATOM     71  F   UNL A   1      40.040  35.200  36.932  1.00  0.00    -0.200 F 
ATOM     72  F   UNL A   1      38.199  34.280  38.722  1.00  0.00    -0.200 F 
ENDBRANCH  48  62
BRANCH  49  73
ATOM     73  C   UNL A   1      42.534  26.477  27.760  1.00  0.00     0.064 A 
ATOM     74  C   UNL A   1      43.446  27.009  26.838  1.00  0.00     0.173 A 
ATOM     75  C   UNL A   1      42.078  25.168  27.545  1.00  0.00     0.173 A 
ATOM     76  F   UNL A   1      43.898  28.263  26.991  1.00  0.00    -0.203 F 
ATOM     77  C   UNL A   1      43.866  26.274  25.733  1.00  0.00     0.198 A 
ATOM     78  C   UNL A   1      42.522  24.422  26.455  1.00  0.00     0.198 A 
ATOM     79  F   UNL A   1      41.211  24.609  28.401  1.00  0.00    -0.203 F 
ATOM     80  F   UNL A   1      44.700  26.825  24.840  1.00  0.00    -0.200 F 
ATOM     81  C   UNL A   1      43.408  24.978  25.545  1.00  0.00     0.200 A 
ATOM     82  F   UNL A   1      42.090  23.165  26.287  1.00  0.00    -0.200 F 
ATOM     83  F   UNL A   1      43.814  24.269  24.483  1.00  0.00    -0.200 F 
ENDBRANCH  49  73
BRANCH  61  84
ATOM     84  C   UNL A   1      44.797  27.185  34.311  1.00  0.00     0.064 A 
ATOM     85  C   UNL A   1      44.647  25.965  34.985  1.00  0.00     0.173 A 
ATOM     86  C   UNL A   1      46.060  27.798  34.338  1.00  0.00     0.173 A 
ATOM     87  F   UNL A   1      43.457  25.345  35.001  1.00  0.00    -0.203 F 
ATOM     88  C   UNL A   1      45.708  25.399  35.688  1.00  0.00     0.198 A 
ATOM     89  C   UNL A   1      47.127  27.213  35.013  1.00  0.00     0.198 A 
ATOM     90  F   UNL A   1      46.262  28.962  33.703  1.00  0.00    -0.203 F 
ATOM     91  F   UNL A   1      45.523  24.262  36.374  1.00  0.00    -0.200 F 
ATOM     92  C   UNL A   1      46.948  26.020  35.697  1.00  0.00     0.200 A 
ATOM     93  F   UNL A   1      48.329  27.807  35.007  1.00  0.00    -0.200 F 
ATOM     94  F   UNL A   1      47.968  25.472  36.371  1.00  0.00    -0.200 F 
ENDBRANCH  61  84
ENDBRANCH  35  36
ENDBRANCH  27  30
ENDBRANCH  25  26
ENDBRANCH  24  25
ENDBRANCH   1  24
TORSDOF 15
ENDMDL
MODEL 3
REMARK VINA RESULT:     -11.6      5.209     10.580
REMARK SMILES CCCc1cc(N2CCC(C(=O)NCCCCNC(=O)c3ccc(-c4c5nc(c(-c6c(F)c(F)c(F)c(F)c6F)c6ccc([nH]6)c(-c6c(F)c(F)c(F)c(F)c6F)c6nc(c(-c7c(F)c(F)c(F)c(F)c7F)c7ccc4[nH]7)C=C6)C=C5)cc3)CC2)nc(CC)n1
REMARK SMILES IDX 15 1 14 2 13 3 11 4 12 5 10 7 7 8 8 9 85 10 9 11 84 12 6 13
REMARK SMILES IDX 4 14 5 15 90 16 87 17 86 18 3 19 2 20 1 21 88 22 89 23 16 24
REMARK SMILES IDX 17 25 18 26 19 27 20 29 21 30 22 31 83 32 23 33 82 34 24 35
REMARK SMILES IDX 25 36 26 37 76 38 27 39 81 40 75 41 77 42 28 43 80 44 74 45
REMARK SMILES IDX 73 46 29 48 61 49 41 50 60 51 42 52 45 53 59 54 78 55 43 56
REMARK SMILES IDX 44 57 58 59 79 60 46 61 30 62 31 63 39 64 32 65 33 66 37 67
REMARK SMILES IDX 40 68 34 69 35 70 38 71 36 72 62 73 63 74 71 75 64 76 65 77
REMARK SMILES IDX 69 78 72 79 66 80 67 81 70 82 68 83 47 84 48 85 56 86 49 87
REMARK SMILES IDX 50 88 54 89 57 90 51 91 52 92 55 93 53 94
REMARK H PARENT 13 6 18 28 77 47 45 58
REMARK Flexibility Score: inf
ROOT
ATOM      1  C   UNL A   1      37.366  21.143  24.630  1.00  0.00     0.023 C 
ENDROOT
BRANCH   1   2
ATOM      2  C   UNL A   1      35.959  21.199  25.224  1.00  0.00     0.116 C 
BRANCH   2   3
ATOM      3  N   UNL A   1      35.213  19.977  24.967  1.00  0.00    -0.356 N 
ATOM      4  C   UNL A   1      33.886  19.703  25.121  1.00  0.00     0.223 C 
ATOM      5  O   UNL A   1      33.495  18.567  24.841  1.00  0.00    -0.275 OA
ATOM      6  H   UNL A   1      35.752  19.227  24.628  1.00  0.00     0.163 HD
BRANCH   4   7
ATOM      7  C   UNL A   1      32.901  20.764  25.595  1.00  0.00     0.082 C 
ATOM      8  N   UNL A   1      32.491  23.547  25.479  1.00  0.00    -0.356 N 
ATOM      9  C   UNL A   1      32.880  23.048  26.782  1.00  0.00     0.119 C 
ATOM     10  C   UNL A   1      31.556  22.753  24.714  1.00  0.00     0.119 C 
ATOM     11  C   UNL A   1      33.550  21.692  26.638  1.00  0.00     0.035 C 
ATOM     12  C   UNL A   1      32.227  21.430  24.379  1.00  0.00     0.035 C 
BRANCH   8  13
ATOM     13  C   UNL A   1      32.869  24.814  25.101  1.00  0.00     0.132 A 
ATOM     14  C   UNL A   1      33.586  27.005  25.615  1.00  0.00     0.046 A 
ATOM     15  C   UNL A   1      33.130  25.779  26.054  1.00  0.00     0.070 A 
ATOM     16  N   UNL A   1      33.706  27.294  24.307  1.00  0.00    -0.238 NA
ATOM     17  C   UNL A   1      33.380  26.320  23.439  1.00  0.00     0.130 A 
ATOM     18  N   UNL A   1      33.001  25.074  23.789  1.00  0.00    -0.216 NA
BRANCH  14  19
ATOM     19  C   UNL A   1      34.025  28.059  26.597  1.00  0.00     0.056 C 
BRANCH  19  20
ATOM     20  C   UNL A   1      33.657  29.484  26.167  1.00  0.00     0.003 C 
ATOM     21  C   UNL A   1      33.258  30.380  27.332  1.00  0.00     0.004 C 
ENDBRANCH  19  20
ENDBRANCH  14  19
BRANCH  17  22
ATOM     22  C   UNL A   1      33.450  26.650  21.973  1.00  0.00     0.074 C 
ATOM     23  C   UNL A   1      32.693  25.639  21.123  1.00  0.00     0.012 C 
ENDBRANCH  17  22
ENDBRANCH   8  13
ENDBRANCH   4   7
ENDBRANCH   2   3
ENDBRANCH   1   2
BRANCH   1  24
ATOM     24  C   UNL A   1      38.159  19.885  24.984  1.00  0.00     0.023 C 
BRANCH  24  25
ATOM     25  C   UNL A   1      39.242  20.079  26.040  1.00  0.00     0.116 C 
BRANCH  25  26
ATOM     26  N   UNL A   1      40.346  19.143  25.900  1.00  0.00    -0.352 N 
ATOM     27  C   UNL A   1      41.695  19.362  26.022  1.00  0.00     0.251 C 
ATOM     28  H   UNL A   1      40.090  18.218  25.687  1.00  0.00     0.163 HD
ATOM     29  O   UNL A   1      42.489  18.466  25.736  1.00  0.00    -0.269 OA
BRANCH  27  30
ATOM     30  C   UNL A   1      42.201  20.679  26.463  1.00  0.00     0.039 A 
ATOM     31  C   UNL A   1      42.574  21.609  25.490  1.00  0.00     0.014 A 
ATOM     32  C   UNL A   1      42.317  21.001  27.819  1.00  0.00     0.014 A 
ATOM     33  C   UNL A   1      43.003  22.879  25.875  1.00  0.00     0.010 A 
ATOM     34  C   UNL A   1      42.664  22.295  28.199  1.00  0.00     0.010 A 
ATOM     35  C   UNL A   1      43.018  23.247  27.231  1.00  0.00    -0.014 A 
BRANCH  35  36
ATOM     36  C   UNL A   1      43.392  24.626  27.634  1.00  0.00     0.031 A 
ATOM     37  C   UNL A   1      44.830  25.064  27.634  1.00  0.00     0.074 A 
ATOM     38  C   UNL A   1      42.427  25.481  28.025  1.00  0.00     0.049 A 
ATOM     39  N   UNL A   1      45.335  26.241  27.909  1.00  0.00    -0.248 NA
ATOM     40  C   UNL A   1      45.837  24.042  27.310  1.00  0.00     0.031 C 
ATOM     41  C   UNL A   1      41.004  25.156  28.135  1.00  0.00     0.029 A 
ATOM     42  N   UNL A   1      42.494  26.802  28.396  1.00  0.00    -0.354 N 
ATOM     43  C   UNL A   1      46.712  26.097  27.797  1.00  0.00     0.074 A 
ATOM     44  C   UNL A   1      46.968  24.707  27.490  1.00  0.00     0.031 C 
ATOM     45  C   UNL A   1      40.327  26.256  28.501  1.00  0.00     0.029 A 
ATOM     46  C   UNL A   1      41.270  27.355  28.682  1.00  0.00     0.049 A 
ATOM     47  H   UNL A   1      43.339  27.303  28.453  1.00  0.00     0.167 HD
ATOM     48  C   UNL A   1      47.673  27.045  27.912  1.00  0.00     0.037 A 
ATOM     49  C   UNL A   1      40.943  28.613  29.036  1.00  0.00     0.037 A 
ATOM     50  C   UNL A   1      47.412  28.431  28.198  1.00  0.00     0.049 A 
ATOM     51  C   UNL A   1      42.028  29.650  29.139  1.00  0.00     0.074 A 
ATOM     52  C   UNL A   1      48.309  29.483  28.271  1.00  0.00     0.029 A 
ATOM     53  N   UNL A   1      46.156  28.959  28.465  1.00  0.00    -0.354 N 
ATOM     54  N   UNL A   1      43.317  29.524  28.936  1.00  0.00    -0.248 NA
ATOM     55  C   UNL A   1      41.608  31.010  29.505  1.00  0.00     0.031 C 
ATOM     56  C   UNL A   1      47.605  30.636  28.633  1.00  0.00     0.029 A 
ATOM     57  C   UNL A   1      46.260  30.317  28.725  1.00  0.00     0.049 A 
ATOM     58  H   UNL A   1      45.316  28.445  28.469  1.00  0.00     0.167 HD
ATOM     59  C   UNL A   1      43.857  30.790  29.114  1.00  0.00     0.074 A 
ATOM     60  C   UNL A   1      42.752  31.673  29.427  1.00  0.00     0.031 C 
ATOM     61  C   UNL A   1      45.150  31.187  29.025  1.00  0.00     0.037 A 
BRANCH  48  62
ATOM     62  C   UNL A   1      49.101  26.615  27.725  1.00  0.00     0.064 A 
ATOM     63  C   UNL A   1      49.942  26.355  28.818  1.00  0.00     0.173 A 
ATOM     64  C   UNL A   1      49.623  26.421  26.436  1.00  0.00     0.173 A 
ATOM     65  F   UNL A   1      49.496  26.533  30.070  1.00  0.00    -0.203 F 
ATOM     66  C   UNL A   1      51.260  25.947  28.628  1.00  0.00     0.198 A 
ATOM     67  C   UNL A   1      50.932  25.982  26.251  1.00  0.00     0.198 A 
ATOM     68  F   UNL A   1      48.863  26.648  25.356  1.00  0.00    -0.203 F 
ATOM     69  F   UNL A   1      52.058  25.754  29.688  1.00  0.00    -0.200 F 
ATOM     70  C   UNL A   1      51.752  25.753  27.347  1.00  0.00     0.200 A 
ATOM     71  F   UNL A   1      51.401  25.780  25.012  1.00  0.00    -0.200 F 
ATOM     72  F   UNL A   1      53.018  25.352  27.167  1.00  0.00    -0.200 F 
ENDBRANCH  48  62
BRANCH  49  73
ATOM     73  C   UNL A   1      39.519  28.971  29.270  1.00  0.00     0.064 A 
ATOM     74  C   UNL A   1      38.941  28.835  30.540  1.00  0.00     0.173 A 
ATOM     75  C   UNL A   1      38.707  29.451  28.232  1.00  0.00     0.173 A 
ATOM     76  F   UNL A   1      39.672  28.363  31.560  1.00  0.00    -0.203 F 
ATOM     77  C   UNL A   1      37.600  29.142  30.759  1.00  0.00     0.198 A 
ATOM     78  C   UNL A   1      37.373  29.787  28.459  1.00  0.00     0.198 A 
ATOM     79  F   UNL A   1      39.212  29.607  27.000  1.00  0.00    -0.203 F 
ATOM     80  F   UNL A   1      37.061  28.956  31.971  1.00  0.00    -0.200 F 
ATOM     81  C   UNL A   1      36.819  29.624  29.719  1.00  0.00     0.200 A 
ATOM     82  F   UNL A   1      36.626  30.267  27.455  1.00  0.00    -0.200 F 
ATOM     83  F   UNL A   1      35.529  29.923  29.930  1.00  0.00    -0.200 F 
ENDBRANCH  49  73
BRANCH  61  84
ATOM     84  C   UNL A   1      45.436  32.648  29.221  1.00  0.00     0.064 A 
ATOM     85  C   UNL A   1      45.765  33.177  30.477  1.00  0.00     0.173 A 
ATOM     86  C   UNL A   1      45.404  33.526  28.126  1.00  0.00     0.173 A 
ATOM     87  F   UNL A   1      45.795  32.383  31.557  1.00  0.00    -0.203 F 
ATOM     88  C   UNL A   1      46.015  34.538  30.638  1.00  0.00     0.198 A 
ATOM     89  C   UNL A   1      45.689  34.879  28.285  1.00  0.00     0.198 A 
ATOM     90  F   UNL A   1      45.105  33.071  26.901  1.00  0.00    -0.203 F 
ATOM     91  F   UNL A   1      46.268  35.031  31.858  1.00  0.00    -0.200 F 
ATOM     92  C   UNL A   1      45.982  35.386  29.541  1.00  0.00     0.200 A 
ATOM     93  F   UNL A   1      45.673  35.695  27.220  1.00  0.00    -0.200 F 
ATOM     94  F   UNL A   1      46.227  36.695  29.697  1.00  0.00    -0.200 F 
ENDBRANCH  61  84
ENDBRANCH  35  36
ENDBRANCH  27  30
ENDBRANCH  25  26
ENDBRANCH  24  25
ENDBRANCH   1  24
TORSDOF 15
ENDMDL
