MODEL 1
REMARK VINA RESULT:     -13.1      0.000      0.000
REMARK SMILES CCc1ccc(S(=O)(=O)c2nnn(-c3ccc(C(=O)NCCCCNC(=O)c4ccc(-c5c6nc(c(-c7c(F)c(F)c(F)c(F)c7F)c7ccc([nH]7)c(-c7c(F)c(F)c(F)c(F)c7F)c7nc(c(-c8c(F)c(F)c(F)c(F)c8F)c8ccc5[nH]8)C=C7)C=C6)cc4)cc3)c2C)cc1
REMARK SMILES IDX 21 1 20 2 18 3 19 4 17 6 14 7 15 8 92 9 16 10 91 11 13 12
REMARK SMILES IDX 10 13 11 14 93 15 12 16 94 17 7 18 8 19 9 20 6 21 3 22 4 23
REMARK SMILES IDX 96 24 5 25 95 26 2 27 1 28 22 29 23 30 24 31 25 32 26 33
REMARK SMILES IDX 27 35 28 36 29 37 90 38 30 39 89 40 31 41 32 42 33 43 83 44
REMARK SMILES IDX 34 45 88 46 82 47 84 48 35 49 87 50 81 51 80 52 36 54 68 55
REMARK SMILES IDX 48 56 67 57 49 58 52 59 66 60 85 61 50 62 51 63 65 65 86 66
REMARK SMILES IDX 53 67 37 68 38 69 46 70 39 71 40 72 44 73 47 74 41 75 42 76
REMARK SMILES IDX 45 77 43 78 69 79 70 80 78 81 71 82 72 83 76 84 79 85 73 86
REMARK SMILES IDX 74 87 77 88 75 89 54 90 55 91 63 92 56 93 57 94 61 95 64 96
REMARK SMILES IDX 58 97 59 98 62 99 60 100
REMARK H PARENT 20 5 25 34 84 53 52 64
REMARK Flexibility Score: inf
ROOT
ATOM      1  C   UNL A   1      39.952  21.668  26.306  1.00  0.00     0.116 C 
ENDROOT
BRANCH   1   2
ATOM      2  N   UNL A   1      39.151  20.647  25.650  1.00  0.00    -0.352 N 
ATOM      3  C   UNL A   1      37.923  20.663  25.034  1.00  0.00     0.251 C 
ATOM      4  O   UNL A   1      37.536  19.608  24.530  1.00  0.00    -0.269 OA
ATOM      5  H   UNL A   1      39.578  19.760  25.647  1.00  0.00     0.163 HD
BRANCH   3   6
ATOM      6  C   UNL A   1      37.081  21.887  24.883  1.00  0.00     0.039 A 
ATOM      7  C   UNL A   1      35.257  24.006  24.794  1.00  0.00     0.067 A 
ATOM      8  C   UNL A   1      35.852  23.679  26.010  1.00  0.00     0.029 A 
ATOM      9  C   UNL A   1      35.659  23.381  23.613  1.00  0.00     0.029 A 
ATOM     10  C   UNL A   1      36.736  22.593  26.052  1.00  0.00     0.016 A 
ATOM     11  C   UNL A   1      36.608  22.362  23.660  1.00  0.00     0.016 A 
BRANCH   7  12
ATOM     12  N   UNL A   1      34.190  24.920  24.740  1.00  0.00    -0.216 N 
ATOM     13  C   UNL A   1      32.269  25.910  24.926  1.00  0.00     0.205 A 
ATOM     14  N   UNL A   1      33.080  26.671  24.125  1.00  0.00    -0.117 NA
ATOM     15  C   UNL A   1      32.982  24.824  25.405  1.00  0.00     0.081 A 
ATOM     16  N   UNL A   1      34.279  26.101  24.096  1.00  0.00    -0.061 NA
ATOM     17  C   UNL A   1      32.711  23.862  26.505  1.00  0.00     0.070 C 
BRANCH  13  18
ATOM     18  S   UNL A   1      30.698  26.442  25.419  1.00  0.00     0.227 S 
ATOM     19  O   UNL A   1      30.906  26.929  26.777  1.00  0.00    -0.217 OA
ATOM     20  O   UNL A   1      29.787  25.369  25.110  1.00  0.00    -0.217 OA
BRANCH  18  21
ATOM     21  C   UNL A   1      30.286  27.839  24.408  1.00  0.00     0.073 A 
ATOM     22  C   UNL A   1      29.462  30.039  22.871  1.00  0.00    -0.048 A 
ATOM     23  C   UNL A   1      28.964  28.753  22.607  1.00  0.00     0.005 A 
ATOM     24  C   UNL A   1      30.371  30.203  23.924  1.00  0.00     0.005 A 
ATOM     25  C   UNL A   1      29.367  27.655  23.373  1.00  0.00     0.021 A 
ATOM     26  C   UNL A   1      30.803  29.110  24.672  1.00  0.00     0.021 A 
BRANCH  22  27
ATOM     27  C   UNL A   1      28.959  31.215  22.067  1.00  0.00     0.032 C 
ATOM     28  C   UNL A   1      28.687  32.478  22.876  1.00  0.00     0.009 C 
ENDBRANCH  22  27
ENDBRANCH  18  21
ENDBRANCH  13  18
ENDBRANCH   7  12
ENDBRANCH   3   6
ENDBRANCH   1   2
BRANCH   1  29
ATOM     29  C   UNL A   1      41.180  21.061  26.995  1.00  0.00     0.023 C 
BRANCH  29  30
ATOM     30  C   UNL A   1      41.750  19.805  26.318  1.00  0.00     0.023 C 
BRANCH  30  31
ATOM     31  C   UNL A   1      43.197  19.488  26.678  1.00  0.00     0.116 C 
BRANCH  31  32
ATOM     32  N   UNL A   1      44.079  19.444  25.513  1.00  0.00    -0.352 N 
ATOM     33  C   UNL A   1      44.407  20.480  24.660  1.00  0.00     0.251 C 
ATOM     34  H   UNL A   1      44.491  18.572  25.313  1.00  0.00     0.163 HD
ATOM     35  O   UNL A   1      44.791  20.261  23.518  1.00  0.00    -0.269 OA
BRANCH  33  36
ATOM     36  C   UNL A   1      44.308  21.864  25.155  1.00  0.00     0.039 A 
ATOM     37  C   UNL A   1      43.381  22.766  24.626  1.00  0.00     0.014 A 
ATOM     38  C   UNL A   1      45.167  22.245  26.185  1.00  0.00     0.014 A 
ATOM     39  C   UNL A   1      43.276  24.031  25.199  1.00  0.00     0.010 A 
ATOM     40  C   UNL A   1      44.968  23.434  26.839  1.00  0.00     0.010 A 
ATOM     41  C   UNL A   1      44.061  24.351  26.321  1.00  0.00    -0.014 A 
BRANCH  41  42
ATOM     42  C   UNL A   1      43.830  25.580  27.073  1.00  0.00     0.031 A 
ATOM     43  C   UNL A   1      44.791  26.667  26.733  1.00  0.00     0.074 A 
ATOM     44  C   UNL A   1      42.727  25.789  27.828  1.00  0.00     0.049 A 
ATOM     45  N   UNL A   1      45.689  27.183  27.502  1.00  0.00    -0.248 NA
ATOM     46  C   UNL A   1      44.878  27.124  25.334  1.00  0.00     0.031 C 
ATOM     47  C   UNL A   1      41.561  24.912  27.988  1.00  0.00     0.029 A 
ATOM     48  N   UNL A   1      42.362  26.889  28.545  1.00  0.00    -0.354 N 
ATOM     49  C   UNL A   1      46.314  28.178  26.755  1.00  0.00     0.074 A 
ATOM     50  C   UNL A   1      45.914  27.964  25.389  1.00  0.00     0.031 C 
ATOM     51  C   UNL A   1      40.541  25.602  28.547  1.00  0.00     0.029 A 
ATOM     52  C   UNL A   1      41.022  26.916  28.933  1.00  0.00     0.049 A 
ATOM     53  H   UNL A   1      42.994  27.609  28.772  1.00  0.00     0.167 HD
ATOM     54  C   UNL A   1      46.889  29.245  27.374  1.00  0.00     0.037 A 
ATOM     55  C   UNL A   1      40.358  27.957  29.504  1.00  0.00     0.037 A 
ATOM     56  C   UNL A   1      47.081  28.971  28.778  1.00  0.00     0.049 A 
ATOM     57  C   UNL A   1      41.383  28.876  30.060  1.00  0.00     0.074 A 
ATOM     58  C   UNL A   1      47.792  28.029  29.496  1.00  0.00     0.029 A 
ATOM     59  N   UNL A   1      46.158  29.490  29.649  1.00  0.00    -0.354 N 
ATOM     60  N   UNL A   1      42.142  28.578  31.075  1.00  0.00    -0.248 NA
ATOM     61  C   UNL A   1      41.883  29.923  29.184  1.00  0.00     0.031 C 
ATOM     62  C   UNL A   1      46.948  27.694  30.598  1.00  0.00     0.029 A 
ATOM     63  C   UNL A   1      45.820  28.512  30.545  1.00  0.00     0.049 A 
ATOM     64  H   UNL A   1      45.800  30.408  29.634  1.00  0.00     0.167 HD
ATOM     65  C   UNL A   1      43.397  29.045  30.714  1.00  0.00     0.074 A 
ATOM     66  C   UNL A   1      43.160  29.933  29.576  1.00  0.00     0.031 C 
ATOM     67  C   UNL A   1      44.524  28.430  31.176  1.00  0.00     0.037 A 
BRANCH  54  68
ATOM     68  C   UNL A   1      46.887  30.660  26.838  1.00  0.00     0.064 A 
ATOM     69  C   UNL A   1      48.084  31.408  26.899  1.00  0.00     0.173 A 
ATOM     70  C   UNL A   1      45.720  31.407  26.575  1.00  0.00     0.173 A 
ATOM     71  F   UNL A   1      49.254  30.806  27.155  1.00  0.00    -0.203 F 
ATOM     72  C   UNL A   1      48.090  32.801  26.803  1.00  0.00     0.198 A 
ATOM     73  C   UNL A   1      45.739  32.794  26.428  1.00  0.00     0.198 A 
ATOM     74  F   UNL A   1      44.502  30.857  26.565  1.00  0.00    -0.203 F 
ATOM     75  F   UNL A   1      49.229  33.476  27.009  1.00  0.00    -0.200 F 
ATOM     76  C   UNL A   1      46.916  33.495  26.577  1.00  0.00     0.200 A 
ATOM     77  F   UNL A   1      44.587  33.449  26.230  1.00  0.00    -0.200 F 
ATOM     78  F   UNL A   1      46.909  34.834  26.553  1.00  0.00    -0.200 F 
ENDBRANCH  54  68
BRANCH  55  79
ATOM     79  C   UNL A   1      38.945  28.388  29.342  1.00  0.00     0.064 A 
ATOM     80  C   UNL A   1      38.106  28.553  30.460  1.00  0.00     0.173 A 
ATOM     81  C   UNL A   1      38.487  28.945  28.134  1.00  0.00     0.173 A 
ATOM     82  F   UNL A   1      38.482  28.089  31.660  1.00  0.00    -0.203 F 
ATOM     83  C   UNL A   1      36.904  29.266  30.381  1.00  0.00     0.198 A 
ATOM     84  C   UNL A   1      37.286  29.655  28.056  1.00  0.00     0.198 A 
ATOM     85  F   UNL A   1      39.245  28.903  27.028  1.00  0.00    -0.203 F 
ATOM     86  F   UNL A   1      36.167  29.462  31.485  1.00  0.00    -0.200 F 
ATOM     87  C   UNL A   1      36.502  29.829  29.183  1.00  0.00     0.200 A 
ATOM     88  F   UNL A   1      36.926  30.227  26.898  1.00  0.00    -0.200 F 
ATOM     89  F   UNL A   1      35.389  30.573  29.120  1.00  0.00    -0.200 F 
ENDBRANCH  55  79
BRANCH  67  90
ATOM     90  C   UNL A   1      44.379  27.450  32.306  1.00  0.00     0.064 A 
ATOM     91  C   UNL A   1      44.172  26.067  32.151  1.00  0.00     0.173 A 
ATOM     92  C   UNL A   1      44.586  27.927  33.608  1.00  0.00     0.173 A 
ATOM     93  F   UNL A   1      44.063  25.515  30.936  1.00  0.00    -0.203 F 
ATOM     94  C   UNL A   1      44.128  25.216  33.256  1.00  0.00     0.198 A 
ATOM     95  C   UNL A   1      44.583  27.070  34.703  1.00  0.00     0.198 A 
ATOM     96  F   UNL A   1      44.839  29.229  33.813  1.00  0.00    -0.203 F 
ATOM     97  F   UNL A   1      43.910  23.904  33.086  1.00  0.00    -0.200 F 
ATOM     98  C   UNL A   1      44.340  25.717  34.529  1.00  0.00     0.200 A 
ATOM     99  F   UNL A   1      44.840  27.554  35.926  1.00  0.00    -0.200 F 
ATOM    100  F   UNL A   1      44.336  24.896  35.588  1.00  0.00    -0.200 F 
ENDBRANCH  67  90
ENDBRANCH  41  42
ENDBRANCH  33  36
ENDBRANCH  31  32
ENDBRANCH  30  31
ENDBRANCH  29  30
ENDBRANCH   1  29
TORSDOF 15
ENDMDL
MODEL 2
REMARK VINA RESULT:     -13.0      2.202      3.033
REMARK SMILES CCc1ccc(S(=O)(=O)c2nnn(-c3ccc(C(=O)NCCCCNC(=O)c4ccc(-c5c6nc(c(-c7c(F)c(F)c(F)c(F)c7F)c7ccc([nH]7)c(-c7c(F)c(F)c(F)c(F)c7F)c7nc(c(-c8c(F)c(F)c(F)c(F)c8F)c8ccc5[nH]8)C=C7)C=C6)cc4)cc3)c2C)cc1
REMARK SMILES IDX 21 1 20 2 18 3 19 4 17 6 14 7 15 8 92 9 16 10 91 11 13 12
REMARK SMILES IDX 10 13 11 14 93 15 12 16 94 17 7 18 8 19 9 20 6 21 3 22 4 23
REMARK SMILES IDX 96 24 5 25 95 26 2 27 1 28 22 29 23 30 24 31 25 32 26 33
REMARK SMILES IDX 27 35 28 36 29 37 90 38 30 39 89 40 31 41 32 42 33 43 83 44
REMARK SMILES IDX 34 45 88 46 82 47 84 48 35 49 87 50 81 51 80 52 36 54 68 55
REMARK SMILES IDX 48 56 67 57 49 58 52 59 66 60 85 61 50 62 51 63 65 65 86 66
REMARK SMILES IDX 53 67 37 68 38 69 46 70 39 71 40 72 44 73 47 74 41 75 42 76
REMARK SMILES IDX 45 77 43 78 69 79 70 80 78 81 71 82 72 83 76 84 79 85 73 86
REMARK SMILES IDX 74 87 77 88 75 89 54 90 55 91 63 92 56 93 57 94 61 95 64 96
REMARK SMILES IDX 58 97 59 98 62 99 60 100
REMARK H PARENT 20 5 25 34 84 53 52 64
REMARK Flexibility Score: inf
ROOT
ATOM      1  C   UNL A   1      42.624  18.570  26.440  1.00  0.00     0.116 C 
ENDROOT
BRANCH   1   2
ATOM      2  N   UNL A   1      42.666  19.791  27.229  1.00  0.00    -0.352 N 
ATOM      3  C   UNL A   1      41.832  20.878  27.330  1.00  0.00     0.251 C 
ATOM      4  O   UNL A   1      42.142  21.748  28.145  1.00  0.00    -0.269 OA
ATOM      5  H   UNL A   1      43.458  19.851  27.812  1.00  0.00     0.163 HD
BRANCH   3   6
ATOM      6  C   UNL A   1      40.553  21.022  26.572  1.00  0.00     0.039 A 
ATOM      7  C   UNL A   1      37.999  21.326  25.472  1.00  0.00     0.067 A 
ATOM      8  C   UNL A   1      38.593  22.413  26.108  1.00  0.00     0.029 A 
ATOM      9  C   UNL A   1      38.712  20.144  25.266  1.00  0.00     0.029 A 
ATOM     10  C   UNL A   1      39.857  22.242  26.687  1.00  0.00     0.016 A 
ATOM     11  C   UNL A   1      40.004  20.021  25.771  1.00  0.00     0.016 A 
BRANCH   7  12
ATOM     12  N   UNL A   1      36.647  21.370  25.089  1.00  0.00    -0.216 N 
ATOM     13  C   UNL A   1      34.688  21.983  24.387  1.00  0.00     0.205 A 
ATOM     14  N   UNL A   1      34.593  20.718  24.907  1.00  0.00    -0.117 NA
ATOM     15  C   UNL A   1      36.010  22.394  24.412  1.00  0.00     0.081 A 
ATOM     16  N   UNL A   1      35.814  20.323  25.247  1.00  0.00    -0.061 NA
ATOM     17  C   UNL A   1      36.719  23.512  23.737  1.00  0.00     0.070 C 
BRANCH  13  18
ATOM     18  S   UNL A   1      33.356  22.760  23.602  1.00  0.00     0.227 S 
ATOM     19  O   UNL A   1      32.237  21.859  23.843  1.00  0.00    -0.217 OA
ATOM     20  O   UNL A   1      33.806  23.102  22.277  1.00  0.00    -0.217 OA
BRANCH  18  21
ATOM     21  C   UNL A   1      33.036  24.260  24.493  1.00  0.00     0.073 A 
ATOM     22  C   UNL A   1      32.589  26.548  26.055  1.00  0.00    -0.048 A 
ATOM     23  C   UNL A   1      31.829  25.384  26.254  1.00  0.00     0.005 A 
ATOM     24  C   UNL A   1      33.581  26.541  25.066  1.00  0.00     0.005 A 
ATOM     25  C   UNL A   1      32.052  24.240  25.483  1.00  0.00     0.021 A 
ATOM     26  C   UNL A   1      33.788  25.415  24.270  1.00  0.00     0.021 A 
BRANCH  22  27
ATOM     27  C   UNL A   1      32.367  27.748  26.947  1.00  0.00     0.032 C 
ATOM     28  C   UNL A   1      33.614  28.583  27.221  1.00  0.00     0.009 C 
ENDBRANCH  22  27
ENDBRANCH  18  21
ENDBRANCH  13  18
ENDBRANCH   7  12
ENDBRANCH   3   6
ENDBRANCH   1   2
BRANCH   1  29
ATOM     29  C   UNL A   1      43.580  18.643  25.244  1.00  0.00     0.023 C 
BRANCH  29  30
ATOM     30  C   UNL A   1      45.072  18.564  25.598  1.00  0.00     0.023 C 
BRANCH  30  31
ATOM     31  C   UNL A   1      45.854  19.850  25.357  1.00  0.00     0.116 C 
BRANCH  31  32
ATOM     32  N   UNL A   1      45.636  20.411  24.025  1.00  0.00    -0.352 N 
ATOM     33  C   UNL A   1      44.870  21.509  23.683  1.00  0.00     0.251 C 
ATOM     34  H   UNL A   1      46.092  19.953  23.282  1.00  0.00     0.163 HD
ATOM     35  O   UNL A   1      44.421  21.638  22.551  1.00  0.00    -0.269 OA
BRANCH  33  36
ATOM     36  C   UNL A   1      44.618  22.541  24.703  1.00  0.00     0.039 A 
ATOM     37  C   UNL A   1      45.617  22.953  25.590  1.00  0.00     0.014 A 
ATOM     38  C   UNL A   1      43.346  23.109  24.748  1.00  0.00     0.014 A 
ATOM     39  C   UNL A   1      45.341  23.997  26.470  1.00  0.00     0.010 A 
ATOM     40  C   UNL A   1      43.120  24.226  25.511  1.00  0.00     0.010 A 
ATOM     41  C   UNL A   1      44.094  24.643  26.410  1.00  0.00    -0.014 A 
BRANCH  41  42
ATOM     42  C   UNL A   1      43.846  25.868  27.164  1.00  0.00     0.031 A 
ATOM     43  C   UNL A   1      44.771  26.978  26.803  1.00  0.00     0.074 A 
ATOM     44  C   UNL A   1      42.753  26.049  27.941  1.00  0.00     0.049 A 
ATOM     45  N   UNL A   1      45.670  27.520  27.553  1.00  0.00    -0.248 NA
ATOM     46  C   UNL A   1      44.817  27.435  25.402  1.00  0.00     0.031 C 
ATOM     47  C   UNL A   1      41.615  25.142  28.126  1.00  0.00     0.029 A 
ATOM     48  N   UNL A   1      42.374  27.141  28.663  1.00  0.00    -0.354 N 
ATOM     49  C   UNL A   1      46.253  28.529  26.792  1.00  0.00     0.074 A 
ATOM     50  C   UNL A   1      45.832  28.302  25.434  1.00  0.00     0.031 C 
ATOM     51  C   UNL A   1      40.588  25.806  28.705  1.00  0.00     0.029 A 
ATOM     52  C   UNL A   1      41.042  27.133  29.079  1.00  0.00     0.049 A 
ATOM     53  H   UNL A   1      42.992  27.877  28.876  1.00  0.00     0.167 HD
ATOM     54  C   UNL A   1      46.813  29.612  27.398  1.00  0.00     0.037 A 
ATOM     55  C   UNL A   1      40.363  28.157  29.661  1.00  0.00     0.037 A 
ATOM     56  C   UNL A   1      47.040  29.346  28.798  1.00  0.00     0.049 A 
ATOM     57  C   UNL A   1      41.374  29.104  30.195  1.00  0.00     0.074 A 
ATOM     58  C   UNL A   1      47.791  28.425  29.503  1.00  0.00     0.029 A 
ATOM     59  N   UNL A   1      46.121  29.843  29.686  1.00  0.00    -0.354 N 
ATOM     60  N   UNL A   1      42.161  28.829  31.195  1.00  0.00    -0.248 NA
ATOM     61  C   UNL A   1      41.828  30.162  29.308  1.00  0.00     0.031 C 
ATOM     62  C   UNL A   1      46.978  28.070  30.622  1.00  0.00     0.029 A 
ATOM     63  C   UNL A   1      45.828  28.858  30.591  1.00  0.00     0.049 A 
ATOM     64  H   UNL A   1      45.739  30.751  29.677  1.00  0.00     0.167 HD
ATOM     65  C   UNL A   1      43.395  29.327  30.807  1.00  0.00     0.074 A 
ATOM     66  C   UNL A   1      43.112  30.206  29.673  1.00  0.00     0.031 C 
ATOM     67  C   UNL A   1      44.548  28.744  31.248  1.00  0.00     0.037 A 
BRANCH  54  68
ATOM     68  C   UNL A   1      46.763  31.025  26.859  1.00  0.00     0.064 A 
ATOM     69  C   UNL A   1      47.942  31.802  26.887  1.00  0.00     0.173 A 
ATOM     70  C   UNL A   1      45.572  31.744  26.627  1.00  0.00     0.173 A 
ATOM     71  F   UNL A   1      49.133  31.229  27.113  1.00  0.00    -0.203 F 
ATOM     72  C   UNL A   1      47.913  33.195  26.789  1.00  0.00     0.198 A 
ATOM     73  C   UNL A   1      45.554  33.131  26.477  1.00  0.00     0.198 A 
ATOM     74  F   UNL A   1      44.367  31.165  26.649  1.00  0.00    -0.203 F 
ATOM     75  F   UNL A   1      49.041  33.897  26.963  1.00  0.00    -0.200 F 
ATOM     76  C   UNL A   1      46.717  33.860  26.593  1.00  0.00     0.200 A 
ATOM     77  F   UNL A   1      44.381  33.758  26.308  1.00  0.00    -0.200 F 
ATOM     78  F   UNL A   1      46.677  35.198  26.567  1.00  0.00    -0.200 F 
ENDBRANCH  54  68
BRANCH  55  79
ATOM     79  C   UNL A   1      38.936  28.551  29.528  1.00  0.00     0.064 A 
ATOM     80  C   UNL A   1      38.135  28.769  30.664  1.00  0.00     0.173 A 
ATOM     81  C   UNL A   1      38.422  29.023  28.306  1.00  0.00     0.173 A 
ATOM     82  F   UNL A   1      38.566  28.389  31.876  1.00  0.00    -0.203 F 
ATOM     83  C   UNL A   1      36.916  29.453  30.588  1.00  0.00     0.198 A 
ATOM     84  C   UNL A   1      37.203  29.703  28.230  1.00  0.00     0.198 A 
ATOM     85  F   UNL A   1      39.138  28.925  27.177  1.00  0.00    -0.203 F 
ATOM     86  F   UNL A   1      36.217  29.704  31.705  1.00  0.00    -0.200 F 
ATOM     87  C   UNL A   1      36.459  29.933  29.373  1.00  0.00     0.200 A 
ATOM     88  F   UNL A   1      36.789  30.195  27.054  1.00  0.00    -0.200 F 
ATOM     89  F   UNL A   1      35.328  30.650  29.307  1.00  0.00    -0.200 F 
ENDBRANCH  55  79
BRANCH  67  90
ATOM     90  C   UNL A   1      44.452  27.762  32.382  1.00  0.00     0.064 A 
ATOM     91  C   UNL A   1      44.349  28.110  33.742  1.00  0.00     0.173 A 
ATOM     92  C   UNL A   1      44.333  26.404  32.056  1.00  0.00     0.173 A 
ATOM     93  F   UNL A   1      44.355  29.392  34.131  1.00  0.00    -0.203 F 
ATOM     94  C   UNL A   1      44.184  27.135  34.726  1.00  0.00     0.198 A 
ATOM     95  C   UNL A   1      44.126  25.439  33.035  1.00  0.00     0.198 A 
ATOM     96  F   UNL A   1      44.371  26.018  30.771  1.00  0.00    -0.203 F 
ATOM     97  F   UNL A   1      44.109  27.488  36.017  1.00  0.00    -0.200 F 
ATOM     98  C   UNL A   1      44.065  25.802  34.371  1.00  0.00     0.200 A 
ATOM     99  F   UNL A   1      43.961  24.157  32.679  1.00  0.00    -0.200 F 
ATOM    100  F   UNL A   1      43.869  24.867  35.310  1.00  0.00    -0.200 F 
ENDBRANCH  67  90
ENDBRANCH  41  42
ENDBRANCH  33  36
ENDBRANCH  31  32
ENDBRANCH  30  31
ENDBRANCH  29  30
ENDBRANCH   1  29
TORSDOF 15
ENDMDL
MODEL 3
REMARK VINA RESULT:     -13.0      1.779      2.423
REMARK SMILES CCc1ccc(S(=O)(=O)c2nnn(-c3ccc(C(=O)NCCCCNC(=O)c4ccc(-c5c6nc(c(-c7c(F)c(F)c(F)c(F)c7F)c7ccc([nH]7)c(-c7c(F)c(F)c(F)c(F)c7F)c7nc(c(-c8c(F)c(F)c(F)c(F)c8F)c8ccc5[nH]8)C=C7)C=C6)cc4)cc3)c2C)cc1
REMARK SMILES IDX 21 1 20 2 18 3 19 4 17 6 14 7 15 8 92 9 16 10 91 11 13 12
REMARK SMILES IDX 10 13 11 14 93 15 12 16 94 17 7 18 8 19 9 20 6 21 3 22 4 23
REMARK SMILES IDX 96 24 5 25 95 26 2 27 1 28 22 29 23 30 24 31 25 32 26 33
REMARK SMILES IDX 27 35 28 36 29 37 90 38 30 39 89 40 31 41 32 42 33 43 83 44
REMARK SMILES IDX 34 45 88 46 82 47 84 48 35 49 87 50 81 51 80 52 36 54 68 55
REMARK SMILES IDX 48 56 67 57 49 58 52 59 66 60 85 61 50 62 51 63 65 65 86 66
REMARK SMILES IDX 53 67 37 68 38 69 46 70 39 71 40 72 44 73 47 74 41 75 42 76
REMARK SMILES IDX 45 77 43 78 69 79 70 80 78 81 71 82 72 83 76 84 79 85 73 86
REMARK SMILES IDX 74 87 77 88 75 89 54 90 55 91 63 92 56 93 57 94 61 95 64 96
REMARK SMILES IDX 58 97 59 98 62 99 60 100
REMARK H PARENT 20 5 25 34 84 53 52 64
REMARK Flexibility Score: inf
ROOT
ATOM      1  C   UNL A   1      41.698  19.577  25.931  1.00  0.00     0.116 C 
ENDROOT
BRANCH   1   2
ATOM      2  N   UNL A   1      41.471  20.442  27.077  1.00  0.00    -0.352 N 
ATOM      3  C   UNL A   1      40.557  21.432  27.346  1.00  0.00     0.251 C 
ATOM      4  O   UNL A   1      40.611  21.958  28.458  1.00  0.00    -0.269 OA
ATOM      5  H   UNL A   1      42.105  20.286  27.815  1.00  0.00     0.163 HD
BRANCH   3   6
ATOM      6  C   UNL A   1      39.474  21.846  26.404  1.00  0.00     0.039 A 
ATOM      7  C   UNL A   1      37.261  22.718  24.931  1.00  0.00     0.067 A 
ATOM      8  C   UNL A   1      38.036  23.658  25.606  1.00  0.00     0.029 A 
ATOM      9  C   UNL A   1      37.653  21.380  24.876  1.00  0.00     0.029 A 
ATOM     10  C   UNL A   1      39.121  23.209  26.370  1.00  0.00     0.016 A 
ATOM     11  C   UNL A   1      38.788  20.964  25.569  1.00  0.00     0.016 A 
BRANCH   7  12
ATOM     12  N   UNL A   1      36.033  23.083  24.353  1.00  0.00    -0.216 N 
ATOM     13  C   UNL A   1      33.944  23.539  23.987  1.00  0.00     0.205 A 
ATOM     14  N   UNL A   1      34.611  23.542  22.790  1.00  0.00    -0.117 NA
ATOM     15  C   UNL A   1      34.846  23.332  25.017  1.00  0.00     0.081 A 
ATOM     16  N   UNL A   1      35.902  23.353  23.040  1.00  0.00    -0.061 NA
ATOM     17  C   UNL A   1      34.738  23.515  26.488  1.00  0.00     0.070 C 
BRANCH  13  18
ATOM     18  S   UNL A   1      32.280  23.996  24.117  1.00  0.00     0.227 S 
ATOM     19  O   UNL A   1      31.718  23.008  25.030  1.00  0.00    -0.217 OA
ATOM     20  O   UNL A   1      31.798  24.171  22.770  1.00  0.00    -0.217 OA
BRANCH  18  21
ATOM     21  C   UNL A   1      32.239  25.567  24.938  1.00  0.00     0.073 A 
ATOM     22  C   UNL A   1      32.229  27.968  26.392  1.00  0.00    -0.048 A 
ATOM     23  C   UNL A   1      31.308  26.948  26.684  1.00  0.00     0.005 A 
ATOM     24  C   UNL A   1      33.159  27.758  25.366  1.00  0.00     0.005 A 
ATOM     25  C   UNL A   1      31.313  25.749  25.967  1.00  0.00     0.021 A 
ATOM     26  C   UNL A   1      33.151  26.578  24.624  1.00  0.00     0.021 A 
BRANCH  22  27
ATOM     27  C   UNL A   1      32.239  29.227  27.227  1.00  0.00     0.032 C 
ATOM     28  C   UNL A   1      32.059  30.521  26.439  1.00  0.00     0.009 C 
ENDBRANCH  22  27
ENDBRANCH  18  21
ENDBRANCH  13  18
ENDBRANCH   7  12
ENDBRANCH   3   6
ENDBRANCH   1   2
BRANCH   1  29
ATOM     29  C   UNL A   1      42.887  18.636  26.165  1.00  0.00     0.023 C 
BRANCH  29  30
ATOM     30  C   UNL A   1      43.992  18.708  25.102  1.00  0.00     0.023 C 
BRANCH  30  31
ATOM     31  C   UNL A   1      44.863  19.957  25.170  1.00  0.00     0.116 C 
BRANCH  31  32
ATOM     32  N   UNL A   1      44.946  20.668  23.895  1.00  0.00    -0.352 N 
ATOM     33  C   UNL A   1      44.468  21.929  23.597  1.00  0.00     0.251 C 
ATOM     34  H   UNL A   1      45.398  20.191  23.161  1.00  0.00     0.163 HD
ATOM     35  O   UNL A   1      44.212  22.251  22.443  1.00  0.00    -0.269 OA
BRANCH  33  36
ATOM     36  C   UNL A   1      44.289  22.897  24.693  1.00  0.00     0.039 A 
ATOM     37  C   UNL A   1      45.376  23.382  25.425  1.00  0.00     0.014 A 
ATOM     38  C   UNL A   1      42.993  23.327  24.971  1.00  0.00     0.014 A 
ATOM     39  C   UNL A   1      45.151  24.363  26.388  1.00  0.00     0.010 A 
ATOM     40  C   UNL A   1      42.789  24.390  25.814  1.00  0.00     0.010 A 
ATOM     41  C   UNL A   1      43.854  24.877  26.562  1.00  0.00    -0.014 A 
BRANCH  41  42
ATOM     42  C   UNL A   1      43.617  26.045  27.406  1.00  0.00     0.031 A 
ATOM     43  C   UNL A   1      44.600  27.142  27.180  1.00  0.00     0.074 A 
ATOM     44  C   UNL A   1      42.496  26.207  28.145  1.00  0.00     0.049 A 
ATOM     45  N   UNL A   1      45.482  27.581  28.013  1.00  0.00    -0.248 NA
ATOM     46  C   UNL A   1      44.730  27.710  25.827  1.00  0.00     0.031 C 
ATOM     47  C   UNL A   1      41.317  25.336  28.203  1.00  0.00     0.029 A 
ATOM     48  N   UNL A   1      42.125  27.250  28.940  1.00  0.00    -0.354 N 
ATOM     49  C   UNL A   1      46.139  28.625  27.366  1.00  0.00     0.074 A 
ATOM     50  C   UNL A   1      45.774  28.529  25.977  1.00  0.00     0.031 C 
ATOM     51  C   UNL A   1      40.290  25.992  28.790  1.00  0.00     0.029 A 
ATOM     52  C   UNL A   1      40.775  27.263  29.294  1.00  0.00     0.049 A 
ATOM     53  H   UNL A   1      42.759  27.940  29.242  1.00  0.00     0.167 HD
ATOM     54  C   UNL A   1      46.710  29.630  28.085  1.00  0.00     0.037 A 
ATOM     55  C   UNL A   1      40.109  28.264  29.930  1.00  0.00     0.037 A 
ATOM     56  C   UNL A   1      46.860  29.240  29.466  1.00  0.00     0.049 A 
ATOM     57  C   UNL A   1      41.128  29.120  30.586  1.00  0.00     0.074 A 
ATOM     58  C   UNL A   1      47.540  28.233  30.124  1.00  0.00     0.029 A 
ATOM     59  N   UNL A   1      45.919  29.700  30.352  1.00  0.00    -0.354 N 
ATOM     60  N   UNL A   1      41.856  28.731  31.593  1.00  0.00    -0.248 NA
ATOM     61  C   UNL A   1      41.664  30.228  29.812  1.00  0.00     0.031 C 
ATOM     62  C   UNL A   1      46.662  27.821  31.172  1.00  0.00     0.029 A 
ATOM     63  C   UNL A   1      45.545  28.656  31.156  1.00  0.00     0.049 A 
ATOM     64  H   UNL A   1      45.572  30.620  30.402  1.00  0.00     0.167 HD
ATOM     65  C   UNL A   1      43.125  29.207  31.304  1.00  0.00     0.074 A 
ATOM     66  C   UNL A   1      42.930  30.188  30.237  1.00  0.00     0.031 C 
ATOM     67  C   UNL A   1      44.233  28.542  31.744  1.00  0.00     0.037 A 
BRANCH  54  68
ATOM     68  C   UNL A   1      46.739  31.083  27.666  1.00  0.00     0.064 A 
ATOM     69  C   UNL A   1      45.521  31.717  27.335  1.00  0.00     0.173 A 
ATOM     70  C   UNL A   1      47.905  31.772  27.270  1.00  0.00     0.173 A 
ATOM     71  F   UNL A   1      44.348  31.149  27.649  1.00  0.00    -0.203 F 
ATOM     72  C   UNL A   1      45.479  32.892  26.580  1.00  0.00     0.198 A 
ATOM     73  C   UNL A   1      47.858  32.972  26.562  1.00  0.00     0.198 A 
ATOM     74  F   UNL A   1      49.131  31.266  27.440  1.00  0.00    -0.203 F 
ATOM     75  F   UNL A   1      44.300  33.377  26.171  1.00  0.00    -0.200 F 
ATOM     76  C   UNL A   1      46.649  33.515  26.186  1.00  0.00     0.200 A 
ATOM     77  F   UNL A   1      49.004  33.549  26.172  1.00  0.00    -0.200 F 
ATOM     78  F   UNL A   1      46.612  34.602  25.407  1.00  0.00    -0.200 F 
ENDBRANCH  54  68
BRANCH  55  79
ATOM     79  C   UNL A   1      38.705  28.726  29.767  1.00  0.00     0.064 A 
ATOM     80  C   UNL A   1      37.908  29.030  30.886  1.00  0.00     0.173 A 
ATOM     81  C   UNL A   1      38.227  29.177  28.523  1.00  0.00     0.173 A 
ATOM     82  F   UNL A   1      38.308  28.675  32.116  1.00  0.00    -0.203 F 
ATOM     83  C   UNL A   1      36.728  29.774  30.772  1.00  0.00     0.198 A 
ATOM     84  C   UNL A   1      37.047  29.917  28.409  1.00  0.00     0.198 A 
ATOM     85  F   UNL A   1      38.946  28.998  27.406  1.00  0.00    -0.203 F 
ATOM     86  F   UNL A   1      36.034  30.104  31.871  1.00  0.00    -0.200 F 
ATOM     87  C   UNL A   1      36.306  30.230  29.535  1.00  0.00     0.200 A 
ATOM     88  F   UNL A   1      36.669  30.384  27.211  1.00  0.00    -0.200 F 
ATOM     89  F   UNL A   1      35.215  31.002  29.430  1.00  0.00    -0.200 F 
ENDBRANCH  55  79
BRANCH  67  90
ATOM     90  C   UNL A   1      44.045  27.475  32.787  1.00  0.00     0.064 A 
ATOM     91  C   UNL A   1      43.973  26.095  32.522  1.00  0.00     0.173 A 
ATOM     92  C   UNL A   1      44.065  27.872  34.131  1.00  0.00     0.173 A 
ATOM     93  F   UNL A   1      44.046  25.624  31.270  1.00  0.00    -0.203 F 
ATOM     94  C   UNL A   1      43.877  25.166  33.559  1.00  0.00     0.198 A 
ATOM     95  C   UNL A   1      44.012  26.941  35.162  1.00  0.00     0.198 A 
ATOM     96  F   UNL A   1      44.184  29.172  34.444  1.00  0.00    -0.203 F 
ATOM     97  F   UNL A   1      43.790  23.857  33.283  1.00  0.00    -0.200 F 
ATOM     98  C   UNL A   1      43.904  25.589  34.877  1.00  0.00     0.200 A 
ATOM     99  F   UNL A   1      44.090  27.355  36.435  1.00  0.00    -0.200 F 
ATOM    100  F   UNL A   1      43.851  24.697  35.874  1.00  0.00    -0.200 F 
ENDBRANCH  67  90
ENDBRANCH  41  42
ENDBRANCH  33  36
ENDBRANCH  31  32
ENDBRANCH  30  31
ENDBRANCH  29  30
ENDBRANCH   1  29
TORSDOF 15
ENDMDL
