MODEL 1
REMARK VINA RESULT:     -13.5      0.000      0.000
REMARK SMILES O=C(C[C@]1(C(=O)NC2CCCCC2)CC(c2ccc([N+](=O)[O-])cc2)=NO1)NCCCCNC(=O)c1ccc(-c2c3nc(c(-c4c(F)c(F)c(F)c(F)c4F)c4ccc([nH]4)c(-c4c(F)c(F)c(F)c(F)c4F)c4nc(c(-c5c(F)c(F)c(F)c(F)c5F)c5ccc2[nH]5)C=C4)C=C3)cc1
REMARK SMILES IDX 29 1 28 2 27 3 1 4 2 5 3 7 4 8 14 9 26 10 15 11 25 12 5 13
REMARK SMILES IDX 6 14 7 15 8 17 9 18 13 19 10 20 12 21 11 22 16 23 17 24
REMARK SMILES IDX 24 25 18 26 23 27 19 28 20 29 21 30 22 31 30 32 31 33 32 34
REMARK SMILES IDX 33 35 34 37 35 38 36 39 97 40 37 41 96 42 38 43 39 44 40 45
REMARK SMILES IDX 90 46 41 47 95 48 89 49 91 50 42 51 94 52 88 53 87 54 43 56
REMARK SMILES IDX 75 57 55 58 74 59 56 60 59 61 73 62 92 63 57 64 58 65 72 67
REMARK SMILES IDX 93 68 60 69 44 70 45 71 53 72 46 73 47 74 51 75 54 76 48 77
REMARK SMILES IDX 49 78 52 79 50 80 76 81 77 82 85 83 78 84 79 85 83 86 86 87
REMARK SMILES IDX 80 88 81 89 84 90 82 91 61 92 62 93 70 94 63 95 64 96 68 97
REMARK SMILES IDX 71 98 65 99 66 100 69 101 67 102
REMARK H PARENT 27 6 7 16 32 36 91 55 59 66
REMARK Flexibility Score: inf
ROOT
ATOM      1  C   UNL A   1      37.130  21.004  24.772  1.00  0.00     0.023 C 
ENDROOT
BRANCH   1   2
ATOM      2  C   UNL A   1      37.466  22.296  25.515  1.00  0.00     0.116 C 
BRANCH   2   3
ATOM      3  N   UNL A   1      36.306  22.881  26.158  1.00  0.00    -0.356 N 
ATOM      4  O   UNL A   1      35.577  24.052  24.320  1.00  0.00    -0.275 OA
ATOM      5  C   UNL A   1      35.409  23.672  25.475  1.00  0.00     0.224 C 
ATOM      6  H   UNL A   1      36.154  22.708  27.115  1.00  0.00     0.163 HD
BRANCH   5   7
ATOM      7  C   UNL A   1      34.189  24.067  26.276  1.00  0.00     0.162 C 
BRANCH   7   8
ATOM      8  C   UNL A   1      32.947  23.205  25.988  1.00  0.00     0.229 C 
ATOM      9  C   UNL A   1      33.053  21.767  26.498  1.00  0.00     0.123 C 
ATOM     10  O   UNL A   1      32.763  23.097  24.581  1.00  0.00    -0.378 OA
ATOM     11  C   UNL A   1      33.145  21.045  25.204  1.00  0.00     0.092 C 
ATOM     12  N   UNL A   1      33.011  21.780  24.153  1.00  0.00    -0.089 NA
BRANCH   8  13
ATOM     13  C   UNL A   1      31.776  23.880  26.743  1.00  0.00     0.268 C 
ATOM     14  O   UNL A   1      31.172  23.250  27.621  1.00  0.00    -0.270 OA
ATOM     15  N   UNL A   1      31.389  25.169  26.531  1.00  0.00    -0.350 N 
ATOM     16  H   UNL A   1      30.685  25.495  27.136  1.00  0.00     0.163 HD
BRANCH  15  17
ATOM     17  C   UNL A   1      31.853  26.143  25.548  1.00  0.00     0.082 C 
ATOM     18  C   UNL A   1      30.666  26.749  24.787  1.00  0.00     0.025 C 
ATOM     19  C   UNL A   1      32.674  27.258  26.207  1.00  0.00     0.025 C 
ATOM     20  C   UNL A   1      31.140  27.756  23.741  1.00  0.00     0.002 C 
ATOM     21  C   UNL A   1      33.173  28.254  25.164  1.00  0.00     0.002 C 
ATOM     22  C   UNL A   1      32.020  28.842  24.356  1.00  0.00     0.000 C 
ENDBRANCH  15  17
ENDBRANCH   8  13
BRANCH  11  23
ATOM     23  C   UNL A   1      33.381  19.590  25.119  1.00  0.00    -0.000 A 
ATOM     24  C   UNL A   1      32.506  18.731  25.800  1.00  0.00     0.017 A 
ATOM     25  C   UNL A   1      34.477  19.067  24.423  1.00  0.00     0.017 A 
ATOM     26  C   UNL A   1      32.725  17.351  25.798  1.00  0.00     0.086 A 
ATOM     27  C   UNL A   1      34.710  17.686  24.429  1.00  0.00     0.086 A 
ATOM     28  C   UNL A   1      33.836  16.834  25.120  1.00  0.00     0.269 A 
BRANCH  28  29
ATOM     29  N   UNL A   1      34.068  15.385  25.109  1.00  0.00     0.062 N 
ATOM     30  O   UNL A   1      35.240  14.989  25.145  1.00  0.00    -0.258 OA
ATOM     31  O   UNL A   1      33.075  14.644  25.104  1.00  0.00    -0.258 OA
ENDBRANCH  28  29
ENDBRANCH  11  23
ENDBRANCH   7   8
ENDBRANCH   5   7
ENDBRANCH   2   3
ENDBRANCH   1   2
BRANCH   1  32
ATOM     32  C   UNL A   1      38.135  19.861  24.950  1.00  0.00     0.023 C 
BRANCH  32  33
ATOM     33  C   UNL A   1      39.194  20.070  26.027  1.00  0.00     0.116 C 
BRANCH  33  34
ATOM     34  N   UNL A   1      40.276  19.102  25.957  1.00  0.00    -0.352 N 
ATOM     35  C   UNL A   1      41.635  19.293  26.021  1.00  0.00     0.251 C 
ATOM     36  H   UNL A   1      39.992  18.167  25.845  1.00  0.00     0.163 HD
ATOM     37  O   UNL A   1      42.387  18.345  25.784  1.00  0.00    -0.269 OA
BRANCH  35  38
ATOM     38  C   UNL A   1      42.216  20.616  26.350  1.00  0.00     0.039 A 
ATOM     39  C   UNL A   1      42.577  21.476  25.305  1.00  0.00     0.014 A 
ATOM     40  C   UNL A   1      42.443  21.009  27.671  1.00  0.00     0.014 A 
ATOM     41  C   UNL A   1      43.099  22.743  25.587  1.00  0.00     0.010 A 
ATOM     42  C   UNL A   1      42.915  22.290  27.955  1.00  0.00     0.010 A 
ATOM     43  C   UNL A   1      43.243  23.171  26.916  1.00  0.00    -0.014 A 
BRANCH  43  44
ATOM     44  C   UNL A   1      43.683  24.550  27.244  1.00  0.00     0.031 A 
ATOM     45  C   UNL A   1      42.703  25.574  27.740  1.00  0.00     0.074 A 
ATOM     46  C   UNL A   1      44.959  24.904  26.996  1.00  0.00     0.049 A 
ATOM     47  N   UNL A   1      42.897  26.842  28.007  1.00  0.00    -0.248 NA
ATOM     48  C   UNL A   1      41.318  25.123  27.932  1.00  0.00     0.031 C 
ATOM     49  C   UNL A   1      45.988  24.018  26.452  1.00  0.00     0.029 A 
ATOM     50  N   UNL A   1      45.599  26.108  27.147  1.00  0.00    -0.354 N 
ATOM     51  C   UNL A   1      41.659  27.339  28.391  1.00  0.00     0.074 A 
ATOM     52  C   UNL A   1      40.713  26.251  28.274  1.00  0.00     0.031 C 
ATOM     53  C   UNL A   1      47.134  24.706  26.320  1.00  0.00     0.029 A 
ATOM     54  C   UNL A   1      46.913  26.085  26.746  1.00  0.00     0.049 A 
ATOM     55  H   UNL A   1      45.160  26.912  27.509  1.00  0.00     0.167 HD
ATOM     56  C   UNL A   1      41.348  28.587  28.822  1.00  0.00     0.037 A 
ATOM     57  C   UNL A   1      47.835  27.066  26.723  1.00  0.00     0.037 A 
ATOM     58  C   UNL A   1      42.295  29.664  28.951  1.00  0.00     0.049 A 
ATOM     59  C   UNL A   1      47.469  28.436  27.220  1.00  0.00     0.074 A 
ATOM     60  C   UNL A   1      42.089  30.942  29.445  1.00  0.00     0.029 A 
ATOM     61  N   UNL A   1      43.627  29.593  28.574  1.00  0.00    -0.354 N 
ATOM     62  N   UNL A   1      46.317  28.872  27.665  1.00  0.00    -0.248 NA
ATOM     63  C   UNL A   1      48.535  29.447  27.222  1.00  0.00     0.031 C 
ATOM     64  C   UNL A   1      43.288  31.656  29.329  1.00  0.00     0.029 A 
ATOM     65  C   UNL A   1      44.252  30.810  28.805  1.00  0.00     0.049 A 
ATOM     66  H   UNL A   1      44.066  28.796  28.198  1.00  0.00     0.167 HD
ATOM     67  C   UNL A   1      46.523  30.196  28.025  1.00  0.00     0.074 A 
ATOM     68  C   UNL A   1      47.917  30.489  27.757  1.00  0.00     0.031 C 
ATOM     69  C   UNL A   1      45.639  31.087  28.535  1.00  0.00     0.037 A 
BRANCH  56  70
ATOM     70  C   UNL A   1      39.919  28.852  29.200  1.00  0.00     0.064 A 
ATOM     71  C   UNL A   1      38.977  29.278  28.251  1.00  0.00     0.173 A 
ATOM     72  C   UNL A   1      39.473  28.629  30.511  1.00  0.00     0.173 A 
ATOM     73  F   UNL A   1      39.353  29.508  26.984  1.00  0.00    -0.203 F 
ATOM     74  C   UNL A   1      37.648  29.499  28.607  1.00  0.00     0.198 A 
ATOM     75  C   UNL A   1      38.137  28.823  30.857  1.00  0.00     0.198 A 
ATOM     76  F   UNL A   1      40.328  28.207  31.455  1.00  0.00    -0.203 F 
ATOM     77  F   UNL A   1      36.776  29.943  27.691  1.00  0.00    -0.200 F 
ATOM     78  C   UNL A   1      37.229  29.263  29.906  1.00  0.00     0.200 A 
ATOM     79  F   UNL A   1      37.729  28.578  32.110  1.00  0.00    -0.200 F 
ATOM     80  F   UNL A   1      35.947  29.463  30.245  1.00  0.00    -0.200 F 
ENDBRANCH  56  70
BRANCH  57  81
ATOM     81  C   UNL A   1      49.208  26.769  26.241  1.00  0.00     0.064 A 
ATOM     82  C   UNL A   1      49.566  27.003  24.907  1.00  0.00     0.173 A 
ATOM     83  C   UNL A   1      50.190  26.264  27.105  1.00  0.00     0.173 A 
ATOM     84  F   UNL A   1      48.654  27.468  24.041  1.00  0.00    -0.203 F 
ATOM     85  C   UNL A   1      50.853  26.729  24.450  1.00  0.00     0.198 A 
ATOM     86  C   UNL A   1      51.484  26.015  26.652  1.00  0.00     0.198 A 
ATOM     87  F   UNL A   1      49.898  26.032  28.393  1.00  0.00    -0.203 F 
ATOM     88  F   UNL A   1      51.160  26.929  23.161  1.00  0.00    -0.200 F 
ATOM     89  C   UNL A   1      51.813  26.242  25.324  1.00  0.00     0.200 A 
ATOM     90  F   UNL A   1      52.412  25.558  27.503  1.00  0.00    -0.200 F 
ATOM     91  F   UNL A   1      53.053  25.987  24.886  1.00  0.00    -0.200 F 
ENDBRANCH  57  81
BRANCH  69  92
ATOM     92  C   UNL A   1      46.156  32.458  28.861  1.00  0.00     0.064 A 
ATOM     93  C   UNL A   1      46.110  33.503  27.927  1.00  0.00     0.173 A 
ATOM     94  C   UNL A   1      46.676  32.736  30.134  1.00  0.00     0.173 A 
ATOM     95  F   UNL A   1      45.637  33.283  26.691  1.00  0.00    -0.203 F 
ATOM     96  C   UNL A   1      46.586  34.771  28.248  1.00  0.00     0.198 A 
ATOM     97  C   UNL A   1      47.127  34.012  30.461  1.00  0.00     0.198 A 
ATOM     98  F   UNL A   1      46.740  31.771  31.065  1.00  0.00    -0.203 F 
ATOM     99  F   UNL A   1      46.574  35.743  27.326  1.00  0.00    -0.200 F 
ATOM    100  C   UNL A   1      47.088  35.026  29.517  1.00  0.00     0.200 A 
ATOM    101  F   UNL A   1      47.603  34.259  31.690  1.00  0.00    -0.200 F 
ATOM    102  F   UNL A   1      47.543  36.249  29.825  1.00  0.00    -0.200 F 
ENDBRANCH  69  92
ENDBRANCH  43  44
ENDBRANCH  35  38
ENDBRANCH  33  34
ENDBRANCH  32  33
ENDBRANCH   1  32
TORSDOF 16
ENDMDL
MODEL 2
REMARK VINA RESULT:     -13.4      3.764      7.593
REMARK SMILES O=C(C[C@]1(C(=O)NC2CCCCC2)CC(c2ccc([N+](=O)[O-])cc2)=NO1)NCCCCNC(=O)c1ccc(-c2c3nc(c(-c4c(F)c(F)c(F)c(F)c4F)c4ccc([nH]4)c(-c4c(F)c(F)c(F)c(F)c4F)c4nc(c(-c5c(F)c(F)c(F)c(F)c5F)c5ccc2[nH]5)C=C4)C=C3)cc1
REMARK SMILES IDX 29 1 28 2 27 3 1 4 2 5 3 7 4 8 14 9 26 10 15 11 25 12 5 13
REMARK SMILES IDX 6 14 7 15 8 17 9 18 13 19 10 20 12 21 11 22 16 23 17 24
REMARK SMILES IDX 24 25 18 26 23 27 19 28 20 29 21 30 22 31 30 32 31 33 32 34
REMARK SMILES IDX 33 35 34 37 35 38 36 39 97 40 37 41 96 42 38 43 39 44 40 45
REMARK SMILES IDX 90 46 41 47 95 48 89 49 91 50 42 51 94 52 88 53 87 54 43 56
REMARK SMILES IDX 75 57 55 58 74 59 56 60 59 61 73 62 92 63 57 64 58 65 72 67
REMARK SMILES IDX 93 68 60 69 44 70 45 71 53 72 46 73 47 74 51 75 54 76 48 77
REMARK SMILES IDX 49 78 52 79 50 80 76 81 77 82 85 83 78 84 79 85 83 86 86 87
REMARK SMILES IDX 80 88 81 89 84 90 82 91 61 92 62 93 70 94 63 95 64 96 68 97
REMARK SMILES IDX 71 98 65 99 66 100 69 101 67 102
REMARK H PARENT 27 6 7 16 32 36 91 55 59 66
REMARK Flexibility Score: inf
ROOT
ATOM      1  C   UNL A   1      31.981  27.895  26.964  1.00  0.00     0.023 C 
ENDROOT
BRANCH   1   2
ATOM      2  C   UNL A   1      31.088  26.696  26.649  1.00  0.00     0.116 C 
BRANCH   2   3
ATOM      3  N   UNL A   1      31.669  25.820  25.652  1.00  0.00    -0.356 N 
ATOM      4  O   UNL A   1      30.300  24.024  26.080  1.00  0.00    -0.275 OA
ATOM      5  C   UNL A   1      31.174  24.559  25.403  1.00  0.00     0.224 C 
ATOM      6  H   UNL A   1      32.444  26.137  25.133  1.00  0.00     0.163 HD
BRANCH   5   7
ATOM      7  C   UNL A   1      31.816  23.855  24.229  1.00  0.00     0.162 C 
BRANCH   7   8
ATOM      8  C   UNL A   1      33.207  23.271  24.537  1.00  0.00     0.229 C 
ATOM      9  C   UNL A   1      33.461  21.900  23.910  1.00  0.00     0.123 C 
ATOM     10  O   UNL A   1      33.338  23.079  25.940  1.00  0.00    -0.378 OA
ATOM     11  C   UNL A   1      33.471  21.060  25.134  1.00  0.00     0.092 C 
ATOM     12  N   UNL A   1      33.378  21.707  26.246  1.00  0.00    -0.089 NA
BRANCH   8  13
ATOM     13  C   UNL A   1      34.229  24.260  23.922  1.00  0.00     0.268 C 
ATOM     14  O   UNL A   1      33.833  25.149  23.157  1.00  0.00    -0.270 OA
ATOM     15  N   UNL A   1      35.559  24.242  24.212  1.00  0.00    -0.350 N 
ATOM     16  H   UNL A   1      36.079  24.977  23.815  1.00  0.00     0.163 HD
BRANCH  15  17
ATOM     17  C   UNL A   1      36.336  23.306  25.019  1.00  0.00     0.082 C 
ATOM     18  C   UNL A   1      36.854  22.149  24.154  1.00  0.00     0.025 C 
ATOM     19  C   UNL A   1      37.512  24.004  25.713  1.00  0.00     0.025 C 
ATOM     20  C   UNL A   1      37.652  21.151  24.991  1.00  0.00     0.002 C 
ATOM     21  C   UNL A   1      38.298  23.019  26.572  1.00  0.00     0.002 C 
ATOM     22  C   UNL A   1      38.789  21.830  25.751  1.00  0.00     0.000 C 
ENDBRANCH  15  17
ENDBRANCH   8  13
BRANCH  11  23
ATOM     23  C   UNL A   1      33.573  19.587  25.090  1.00  0.00    -0.000 A 
ATOM     24  C   UNL A   1      32.528  18.830  25.639  1.00  0.00     0.017 A 
ATOM     25  C   UNL A   1      34.701  18.948  24.564  1.00  0.00     0.017 A 
ATOM     26  C   UNL A   1      32.607  17.435  25.674  1.00  0.00     0.086 A 
ATOM     27  C   UNL A   1      34.794  17.551  24.610  1.00  0.00     0.086 A 
ATOM     28  C   UNL A   1      33.749  16.801  25.168  1.00  0.00     0.269 A 
BRANCH  28  29
ATOM     29  N   UNL A   1      33.837  15.337  25.197  1.00  0.00     0.062 N 
ATOM     30  O   UNL A   1      32.798  14.693  25.002  1.00  0.00    -0.258 OA
ATOM     31  O   UNL A   1      34.954  14.832  25.376  1.00  0.00    -0.258 OA
ENDBRANCH  28  29
ENDBRANCH  11  23
ENDBRANCH   7   8
ENDBRANCH   5   7
ENDBRANCH   2   3
ENDBRANCH   1   2
BRANCH   1  32
ATOM     32  C   UNL A   1      33.442  27.763  26.520  1.00  0.00     0.023 C 
BRANCH  32  33
ATOM     33  C   UNL A   1      34.044  28.991  25.846  1.00  0.00     0.116 C 
BRANCH  33  34
ATOM     34  N   UNL A   1      33.791  30.223  26.575  1.00  0.00    -0.352 N 
ATOM     35  C   UNL A   1      34.476  30.781  27.626  1.00  0.00     0.251 C 
ATOM     36  H   UNL A   1      33.009  30.735  26.269  1.00  0.00     0.163 HD
ATOM     37  O   UNL A   1      33.999  31.762  28.203  1.00  0.00    -0.269 OA
BRANCH  35  38
ATOM     38  C   UNL A   1      35.766  30.221  28.096  1.00  0.00     0.039 A 
ATOM     39  C   UNL A   1      36.879  30.283  27.248  1.00  0.00     0.014 A 
ATOM     40  C   UNL A   1      35.886  29.605  29.343  1.00  0.00     0.014 A 
ATOM     41  C   UNL A   1      38.116  29.790  27.677  1.00  0.00     0.010 A 
ATOM     42  C   UNL A   1      37.129  29.160  29.792  1.00  0.00     0.010 A 
ATOM     43  C   UNL A   1      38.256  29.253  28.966  1.00  0.00    -0.014 A 
BRANCH  43  44
ATOM     44  C   UNL A   1      39.579  28.830  29.490  1.00  0.00     0.031 A 
ATOM     45  C   UNL A   1      40.347  29.705  30.439  1.00  0.00     0.074 A 
ATOM     46  C   UNL A   1      40.132  27.693  29.026  1.00  0.00     0.049 A 
ATOM     47  N   UNL A   1      41.545  29.528  30.940  1.00  0.00    -0.248 NA
ATOM     48  C   UNL A   1      39.698  30.956  30.855  1.00  0.00     0.031 C 
ATOM     49  C   UNL A   1      39.515  26.792  28.052  1.00  0.00     0.029 A 
ATOM     50  N   UNL A   1      41.347  27.113  29.293  1.00  0.00    -0.354 N 
ATOM     51  C   UNL A   1      41.793  30.646  31.724  1.00  0.00     0.074 A 
ATOM     52  C   UNL A   1      40.646  31.518  31.591  1.00  0.00     0.031 C 
ATOM     53  C   UNL A   1      40.351  25.770  27.808  1.00  0.00     0.029 A 
ATOM     54  C   UNL A   1      41.571  25.957  28.588  1.00  0.00     0.049 A 
ATOM     55  H   UNL A   1      41.996  27.490  29.931  1.00  0.00     0.167 HD
ATOM     56  C   UNL A   1      42.874  30.910  32.500  1.00  0.00     0.037 A 
ATOM     57  C   UNL A   1      42.641  25.139  28.569  1.00  0.00     0.037 A 
ATOM     58  C   UNL A   1      44.009  30.034  32.641  1.00  0.00     0.049 A 
ATOM     59  C   UNL A   1      43.820  25.446  29.449  1.00  0.00     0.074 A 
ATOM     60  C   UNL A   1      45.118  30.181  33.457  1.00  0.00     0.029 A 
ATOM     61  N   UNL A   1      44.184  28.850  31.941  1.00  0.00    -0.354 N 
ATOM     62  N   UNL A   1      44.007  26.462  30.254  1.00  0.00    -0.248 NA
ATOM     63  C   UNL A   1      44.931  24.485  29.426  1.00  0.00     0.031 C 
ATOM     64  C   UNL A   1      45.983  29.106  33.220  1.00  0.00     0.029 A 
ATOM     65  C   UNL A   1      45.392  28.265  32.291  1.00  0.00     0.049 A 
ATOM     66  H   UNL A   1      43.544  28.478  31.292  1.00  0.00     0.167 HD
ATOM     67  C   UNL A   1      45.241  26.252  30.854  1.00  0.00     0.074 A 
ATOM     68  C   UNL A   1      45.753  25.003  30.327  1.00  0.00     0.031 C 
ATOM     69  C   UNL A   1      45.889  27.022  31.761  1.00  0.00     0.037 A 
BRANCH  56  70
ATOM     70  C   UNL A   1      42.876  32.199  33.269  1.00  0.00     0.064 A 
ATOM     71  C   UNL A   1      43.347  33.393  32.700  1.00  0.00     0.173 A 
ATOM     72  C   UNL A   1      42.354  32.256  34.571  1.00  0.00     0.173 A 
ATOM     73  F   UNL A   1      43.857  33.392  31.459  1.00  0.00    -0.203 F 
ATOM     74  C   UNL A   1      43.321  34.588  33.414  1.00  0.00     0.198 A 
ATOM     75  C   UNL A   1      42.304  33.459  35.272  1.00  0.00     0.198 A 
ATOM     76  F   UNL A   1      41.877  31.148  35.157  1.00  0.00    -0.203 F 
ATOM     77  F   UNL A   1      43.813  35.706  32.862  1.00  0.00    -0.200 F 
ATOM     78  C   UNL A   1      42.793  34.621  34.695  1.00  0.00     0.200 A 
ATOM     79  F   UNL A   1      41.777  33.493  36.503  1.00  0.00    -0.200 F 
ATOM     80  F   UNL A   1      42.758  35.775  35.377  1.00  0.00    -0.200 F 
ENDBRANCH  56  70
BRANCH  57  81
ATOM     81  C   UNL A   1      42.624  23.930  27.708  1.00  0.00     0.064 A 
ATOM     82  C   UNL A   1      42.225  22.689  28.222  1.00  0.00     0.173 A 
ATOM     83  C   UNL A   1      42.987  23.993  26.355  1.00  0.00     0.173 A 
ATOM     84  F   UNL A   1      41.887  22.578  29.515  1.00  0.00    -0.203 F 
ATOM     85  C   UNL A   1      42.205  21.552  27.419  1.00  0.00     0.198 A 
ATOM     86  C   UNL A   1      42.941  22.859  25.547  1.00  0.00     0.198 A 
ATOM     87  F   UNL A   1      43.367  25.159  25.815  1.00  0.00    -0.203 F 
ATOM     88  F   UNL A   1      41.853  20.370  27.944  1.00  0.00    -0.200 F 
ATOM     89  C   UNL A   1      42.556  21.638  26.080  1.00  0.00     0.200 A 
ATOM     90  F   UNL A   1      43.267  22.951  24.250  1.00  0.00    -0.200 F 
ATOM     91  F   UNL A   1      42.528  20.546  25.306  1.00  0.00    -0.200 F 
ENDBRANCH  57  81
BRANCH  69  92
ATOM     92  C   UNL A   1      47.213  26.525  32.262  1.00  0.00     0.064 A 
ATOM     93  C   UNL A   1      47.306  25.665  33.366  1.00  0.00     0.173 A 
ATOM     94  C   UNL A   1      48.401  26.889  31.610  1.00  0.00     0.173 A 
ATOM     95  F   UNL A   1      46.200  25.301  34.033  1.00  0.00    -0.203 F 
ATOM     96  C   UNL A   1      48.542  25.205  33.813  1.00  0.00     0.198 A 
ATOM     97  C   UNL A   1      49.632  26.407  32.043  1.00  0.00     0.198 A 
ATOM     98  F   UNL A   1      48.365  27.707  30.547  1.00  0.00    -0.203 F 
ATOM     99  F   UNL A   1      48.611  24.421  34.897  1.00  0.00    -0.200 F 
ATOM    100  C   UNL A   1      49.703  25.572  33.147  1.00  0.00     0.200 A 
ATOM    101  F   UNL A   1      50.753  26.754  31.393  1.00  0.00    -0.200 F 
ATOM    102  F   UNL A   1      50.892  25.125  33.577  1.00  0.00    -0.200 F 
ENDBRANCH  69  92
ENDBRANCH  43  44
ENDBRANCH  35  38
ENDBRANCH  33  34
ENDBRANCH  32  33
ENDBRANCH   1  32
TORSDOF 16
ENDMDL
MODEL 3
REMARK VINA RESULT:     -13.3      1.754      7.314
REMARK SMILES O=C(C[C@]1(C(=O)NC2CCCCC2)CC(c2ccc([N+](=O)[O-])cc2)=NO1)NCCCCNC(=O)c1ccc(-c2c3nc(c(-c4c(F)c(F)c(F)c(F)c4F)c4ccc([nH]4)c(-c4c(F)c(F)c(F)c(F)c4F)c4nc(c(-c5c(F)c(F)c(F)c(F)c5F)c5ccc2[nH]5)C=C4)C=C3)cc1
REMARK SMILES IDX 29 1 28 2 27 3 1 4 2 5 3 7 4 8 14 9 26 10 15 11 25 12 5 13
REMARK SMILES IDX 6 14 7 15 8 17 9 18 13 19 10 20 12 21 11 22 16 23 17 24
REMARK SMILES IDX 24 25 18 26 23 27 19 28 20 29 21 30 22 31 30 32 31 33 32 34
REMARK SMILES IDX 33 35 34 37 35 38 36 39 97 40 37 41 96 42 38 43 39 44 40 45
REMARK SMILES IDX 90 46 41 47 95 48 89 49 91 50 42 51 94 52 88 53 87 54 43 56
REMARK SMILES IDX 75 57 55 58 74 59 56 60 59 61 73 62 92 63 57 64 58 65 72 67
REMARK SMILES IDX 93 68 60 69 44 70 45 71 53 72 46 73 47 74 51 75 54 76 48 77
REMARK SMILES IDX 49 78 52 79 50 80 76 81 77 82 85 83 78 84 79 85 83 86 86 87
REMARK SMILES IDX 80 88 81 89 84 90 82 91 61 92 62 93 70 94 63 95 64 96 68 97
REMARK SMILES IDX 71 98 65 99 66 100 69 101 67 102
REMARK H PARENT 27 6 7 16 32 36 91 55 59 66
REMARK Flexibility Score: inf
ROOT
ATOM      1  C   UNL A   1      36.406  22.586  23.599  1.00  0.00     0.023 C 
ENDROOT
BRANCH   1   2
ATOM      2  C   UNL A   1      36.359  23.834  24.480  1.00  0.00     0.116 C 
BRANCH   2   3
ATOM      3  N   UNL A   1      35.004  24.259  24.766  1.00  0.00    -0.356 N 
ATOM      4  O   UNL A   1      34.937  23.430  26.908  1.00  0.00    -0.275 OA
ATOM      5  C   UNL A   1      34.421  24.075  26.000  1.00  0.00     0.224 C 
ATOM      6  H   UNL A   1      34.481  24.695  24.054  1.00  0.00     0.163 HD
BRANCH   5   7
ATOM      7  C   UNL A   1      33.059  24.715  26.149  1.00  0.00     0.162 C 
BRANCH   7   8
ATOM      8  C   UNL A   1      31.911  23.885  25.547  1.00  0.00     0.229 C 
ATOM      9  C   UNL A   1      31.983  22.392  25.868  1.00  0.00     0.123 C 
ATOM     10  O   UNL A   1      31.959  23.972  24.128  1.00  0.00    -0.378 OA
ATOM     11  C   UNL A   1      32.307  21.859  24.521  1.00  0.00     0.092 C 
ATOM     12  N   UNL A   1      32.318  22.731  23.572  1.00  0.00    -0.089 NA
BRANCH   8  13
ATOM     13  C   UNL A   1      30.610  24.434  26.184  1.00  0.00     0.268 C 
ATOM     14  O   UNL A   1      30.048  23.787  27.077  1.00  0.00    -0.270 OA
ATOM     15  N   UNL A   1      30.058  25.634  25.851  1.00  0.00    -0.350 N 
ATOM     16  H   UNL A   1      29.279  25.896  26.391  1.00  0.00     0.163 HD
BRANCH  15  17
ATOM     17  C   UNL A   1      30.441  26.594  24.819  1.00  0.00     0.082 C 
ATOM     18  C   UNL A   1      29.233  26.951  23.942  1.00  0.00     0.025 C 
ATOM     19  C   UNL A   1      31.037  27.867  25.430  1.00  0.00     0.025 C 
ATOM     20  C   UNL A   1      29.625  27.940  22.845  1.00  0.00     0.002 C 
ATOM     21  C   UNL A   1      31.455  28.848  24.339  1.00  0.00     0.002 C 
ATOM     22  C   UNL A   1      30.287  29.191  23.418  1.00  0.00     0.000 C 
ENDBRANCH  15  17
ENDBRANCH   8  13
BRANCH  11  23
ATOM     23  C   UNL A   1      32.605  20.432  24.279  1.00  0.00    -0.000 A 
ATOM     24  C   UNL A   1      33.408  19.752  25.206  1.00  0.00     0.017 A 
ATOM     25  C   UNL A   1      32.149  19.775  23.131  1.00  0.00     0.017 A 
ATOM     26  C   UNL A   1      33.766  18.419  24.988  1.00  0.00     0.086 A 
ATOM     27  C   UNL A   1      32.516  18.444  22.898  1.00  0.00     0.086 A 
ATOM     28  C   UNL A   1      33.327  17.773  23.826  1.00  0.00     0.269 A 
BRANCH  28  29
ATOM     29  N   UNL A   1      33.695  16.371  23.593  1.00  0.00     0.062 N 
ATOM     30  O   UNL A   1      33.328  15.533  24.426  1.00  0.00    -0.258 OA
ATOM     31  O   UNL A   1      34.318  16.106  22.555  1.00  0.00    -0.258 OA
ENDBRANCH  28  29
ENDBRANCH  11  23
ENDBRANCH   7   8
ENDBRANCH   5   7
ENDBRANCH   2   3
ENDBRANCH   1   2
BRANCH   1  32
ATOM     32  C   UNL A   1      37.038  21.348  24.243  1.00  0.00     0.023 C 
BRANCH  32  33
ATOM     33  C   UNL A   1      37.525  21.522  25.678  1.00  0.00     0.116 C 
BRANCH  33  34
ATOM     34  N   UNL A   1      38.590  20.600  26.034  1.00  0.00    -0.352 N 
ATOM     35  C   UNL A   1      39.870  20.854  26.463  1.00  0.00     0.251 C 
ATOM     36  H   UNL A   1      38.360  19.646  25.954  1.00  0.00     0.163 HD
ATOM     37  O   UNL A   1      40.668  19.919  26.563  1.00  0.00    -0.269 OA
BRANCH  35  38
ATOM     38  C   UNL A   1      40.318  22.229  26.790  1.00  0.00     0.039 A 
ATOM     39  C   UNL A   1      41.265  22.408  27.806  1.00  0.00     0.014 A 
ATOM     40  C   UNL A   1      39.794  23.345  26.135  1.00  0.00     0.014 A 
ATOM     41  C   UNL A   1      41.728  23.691  28.115  1.00  0.00     0.010 A 
ATOM     42  C   UNL A   1      40.292  24.619  26.406  1.00  0.00     0.010 A 
ATOM     43  C   UNL A   1      41.267  24.804  27.394  1.00  0.00    -0.014 A 
BRANCH  43  44
ATOM     44  C   UNL A   1      41.826  26.160  27.620  1.00  0.00     0.031 A 
ATOM     45  C   UNL A   1      43.204  26.515  27.140  1.00  0.00     0.074 A 
ATOM     46  C   UNL A   1      41.120  27.045  28.351  1.00  0.00     0.049 A 
ATOM     47  N   UNL A   1      43.878  27.626  27.312  1.00  0.00    -0.248 NA
ATOM     48  C   UNL A   1      43.932  25.477  26.397  1.00  0.00     0.031 C 
ATOM     49  C   UNL A   1      39.799  26.795  28.929  1.00  0.00     0.029 A 
ATOM     50  N   UNL A   1      41.425  28.321  28.752  1.00  0.00    -0.354 N 
ATOM     51  C   UNL A   1      45.109  27.416  26.704  1.00  0.00     0.074 A 
ATOM     52  C   UNL A   1      45.108  26.057  26.207  1.00  0.00     0.031 C 
ATOM     53  C   UNL A   1      39.403  27.885  29.604  1.00  0.00     0.029 A 
ATOM     54  C   UNL A   1      40.451  28.899  29.529  1.00  0.00     0.049 A 
ATOM     55  H   UNL A   1      42.261  28.779  28.506  1.00  0.00     0.167 HD
ATOM     56  C   UNL A   1      46.138  28.287  26.560  1.00  0.00     0.037 A 
ATOM     57  C   UNL A   1      40.409  30.109  30.118  1.00  0.00     0.037 A 
ATOM     58  C   UNL A   1      46.132  29.644  27.044  1.00  0.00     0.049 A 
ATOM     59  C   UNL A   1      41.556  31.062  29.929  1.00  0.00     0.074 A 
ATOM     60  C   UNL A   1      47.097  30.624  26.884  1.00  0.00     0.029 A 
ATOM     61  N   UNL A   1      45.111  30.209  27.793  1.00  0.00    -0.354 N 
ATOM     62  N   UNL A   1      42.678  30.885  29.278  1.00  0.00    -0.248 NA
ATOM     63  C   UNL A   1      41.423  32.389  30.548  1.00  0.00     0.031 C 
ATOM     64  C   UNL A   1      46.678  31.769  27.571  1.00  0.00     0.029 A 
ATOM     65  C   UNL A   1      45.430  31.518  28.120  1.00  0.00     0.049 A 
ATOM     66  H   UNL A   1      44.280  29.749  28.053  1.00  0.00     0.167 HD
ATOM     67  C   UNL A   1      43.374  32.081  29.384  1.00  0.00     0.074 A 
ATOM     68  C   UNL A   1      42.540  32.982  30.154  1.00  0.00     0.031 C 
ATOM     69  C   UNL A   1      44.592  32.404  28.885  1.00  0.00     0.037 A 
BRANCH  56  70
ATOM     70  C   UNL A   1      47.360  27.801  25.834  1.00  0.00     0.064 A 
ATOM     71  C   UNL A   1      47.421  27.784  24.431  1.00  0.00     0.173 A 
ATOM     72  C   UNL A   1      48.500  27.398  26.544  1.00  0.00     0.173 A 
ATOM     73  F   UNL A   1      46.356  28.158  23.706  1.00  0.00    -0.203 F 
ATOM     74  C   UNL A   1      48.568  27.355  23.768  1.00  0.00     0.198 A 
ATOM     75  C   UNL A   1      49.656  26.996  25.877  1.00  0.00     0.198 A 
ATOM     76  F   UNL A   1      48.501  27.409  27.886  1.00  0.00    -0.203 F 
ATOM     77  F   UNL A   1      48.587  27.311  22.429  1.00  0.00    -0.200 F 
ATOM     78  C   UNL A   1      49.685  26.969  24.491  1.00  0.00     0.200 A 
ATOM     79  F   UNL A   1      50.742  26.640  26.577  1.00  0.00    -0.200 F 
ATOM     80  F   UNL A   1      50.793  26.568  23.851  1.00  0.00    -0.200 F 
ENDBRANCH  56  70
BRANCH  57  81
ATOM     81  C   UNL A   1      39.215  30.497  30.911  1.00  0.00     0.064 A 
ATOM     82  C   UNL A   1      39.144  30.218  32.283  1.00  0.00     0.173 A 
ATOM     83  C   UNL A   1      38.134  31.167  30.322  1.00  0.00     0.173 A 
ATOM     84  F   UNL A   1      40.147  29.562  32.884  1.00  0.00    -0.203 F 
ATOM     85  C   UNL A   1      38.028  30.581  33.032  1.00  0.00     0.198 A 
ATOM     86  C   UNL A   1      37.030  31.553  31.079  1.00  0.00     0.198 A 
ATOM     87  F   UNL A   1      38.159  31.465  29.014  1.00  0.00    -0.203 F 
ATOM     88  F   UNL A   1      37.970  30.271  34.334  1.00  0.00    -0.200 F 
ATOM     89  C   UNL A   1      36.975  31.254  32.432  1.00  0.00     0.200 A 
ATOM     90  F   UNL A   1      36.021  32.216  30.498  1.00  0.00    -0.200 F 
ATOM     91  F   UNL A   1      35.906  31.611  33.156  1.00  0.00    -0.200 F 
ENDBRANCH  57  81
BRANCH  69  92
ATOM     92  C   UNL A   1      45.088  33.798  29.135  1.00  0.00     0.064 A 
ATOM     93  C   UNL A   1      45.884  34.108  30.247  1.00  0.00     0.173 A 
ATOM     94  C   UNL A   1      44.788  34.830  28.233  1.00  0.00     0.173 A 
ATOM     95  F   UNL A   1      46.184  33.159  31.147  1.00  0.00    -0.203 F 
ATOM     96  C   UNL A   1      46.344  35.405  30.460  1.00  0.00     0.198 A 
ATOM     97  C   UNL A   1      45.271  36.120  28.434  1.00  0.00     0.198 A 
ATOM     98  F   UNL A   1      44.032  34.585  27.152  1.00  0.00    -0.203 F 
ATOM     99  F   UNL A   1      47.065  35.687  31.553  1.00  0.00    -0.200 F 
ATOM    100  C   UNL A   1      46.042  36.408  29.550  1.00  0.00     0.200 A 
ATOM    101  F   UNL A   1      44.987  37.087  27.549  1.00  0.00    -0.200 F 
ATOM    102  F   UNL A   1      46.488  37.655  29.754  1.00  0.00    -0.200 F 
ENDBRANCH  69  92
ENDBRANCH  43  44
ENDBRANCH  35  38
ENDBRANCH  33  34
ENDBRANCH  32  33
ENDBRANCH   1  32
TORSDOF 16
ENDMDL
