MODEL 1
REMARK VINA RESULT:     -13.1      0.000      0.000
REMARK SMILES Cc1cccc(O[C@H](C)C(=O)N2CCC[C@@H](C(=O)NCCCCNC(=O)c3ccc(-c4c5nc(c(-c6c(F)c(F)c(F)c(F)c6F)c6ccc([nH]6)c(-c6c(F)c(F)c(F)c(F)c6F)c6nc(c(-c7c(F)c(F)c(F)c(F)c7F)c7ccc4[nH]7)C=C6)C=C5)cc3)C2)c1
REMARK SMILES IDX 20 1 19 2 17 3 18 4 16 6 12 7 13 8 90 9 14 10 15 11 10 12
REMARK SMILES IDX 11 13 8 14 9 15 7 16 6 17 1 18 2 19 3 20 91 21 4 22 5 23
REMARK SMILES IDX 21 24 22 25 23 26 24 27 25 28 26 30 27 31 28 32 89 33 29 34
REMARK SMILES IDX 88 35 30 36 31 37 32 38 82 39 33 40 87 41 81 42 83 43 34 44
REMARK SMILES IDX 86 45 80 46 79 47 35 49 67 50 47 51 66 52 48 53 51 54 65 55
REMARK SMILES IDX 84 56 49 57 50 58 64 60 85 61 52 62 36 63 37 64 45 65 38 66
REMARK SMILES IDX 39 67 43 68 46 69 40 70 41 71 44 72 42 73 68 74 69 75 77 76
REMARK SMILES IDX 70 77 71 78 75 79 78 80 72 81 73 82 76 83 74 84 53 85 54 86
REMARK SMILES IDX 62 87 55 88 56 89 60 90 63 91 57 92 58 93 61 94 59 95
REMARK H PARENT 19 5 24 29 83 48 51 59
REMARK Flexibility Score: inf
ROOT
ATOM      1  C   UNL A   1      36.648  22.461  25.441  1.00  0.00     0.116 C 
ENDROOT
BRANCH   1   2
ATOM      2  N   UNL A   1      35.776  22.058  26.529  1.00  0.00    -0.356 N 
ATOM      3  C   UNL A   1      34.431  21.918  26.616  1.00  0.00     0.224 C 
ATOM      4  O   UNL A   1      33.977  21.674  27.740  1.00  0.00    -0.275 OA
ATOM      5  H   UNL A   1      36.252  21.847  27.363  1.00  0.00     0.163 HD
BRANCH   3   6
ATOM      6  C   UNL A   1      33.493  21.981  25.421  1.00  0.00     0.098 C 
ATOM      7  N   UNL A   1      32.556  23.239  23.531  1.00  0.00    -0.339 N 
ATOM      8  C   UNL A   1      32.475  22.031  22.704  1.00  0.00     0.119 C 
ATOM      9  C   UNL A   1      33.615  23.218  24.532  1.00  0.00     0.133 C 
ATOM     10  C   UNL A   1      32.435  20.745  23.526  1.00  0.00     0.022 C 
ATOM     11  C   UNL A   1      33.540  20.704  24.582  1.00  0.00     0.017 C 
BRANCH   7  12
ATOM     12  C   UNL A   1      31.745  24.316  23.205  1.00  0.00     0.263 C 
ATOM     13  O   UNL A   1      30.513  24.187  23.216  1.00  0.00    -0.271 OA
BRANCH  12  14
ATOM     14  C   UNL A   1      32.337  25.665  22.716  1.00  0.00     0.259 C 
ATOM     15  C   UNL A   1      32.675  25.795  21.240  1.00  0.00     0.064 C 
BRANCH  14  16
ATOM     16  O   UNL A   1      31.754  26.733  23.455  1.00  0.00    -0.481 OA
BRANCH  16  17
ATOM     17  C   UNL A   1      31.871  27.054  24.762  1.00  0.00     0.120 A 
ATOM     18  C   UNL A   1      34.619  28.966  26.609  1.00  0.00     0.044 C 
ATOM     19  C   UNL A   1      33.333  28.244  26.333  1.00  0.00    -0.047 A 
ATOM     20  C   UNL A   1      32.386  28.062  27.338  1.00  0.00     0.003 A 
ATOM     21  C   UNL A   1      33.067  27.728  25.058  1.00  0.00     0.049 A 
ATOM     22  C   UNL A   1      31.186  27.410  27.051  1.00  0.00     0.004 A 
ATOM     23  C   UNL A   1      30.927  26.910  25.766  1.00  0.00     0.046 A 
ENDBRANCH  16  17
ENDBRANCH  14  16
ENDBRANCH  12  14
ENDBRANCH   7  12
ENDBRANCH   3   6
ENDBRANCH   1   2
BRANCH   1  24
ATOM     24  C   UNL A   1      37.528  21.306  24.953  1.00  0.00     0.023 C 
BRANCH  24  25
ATOM     25  C   UNL A   1      38.934  21.295  25.545  1.00  0.00     0.023 C 
BRANCH  25  26
ATOM     26  C   UNL A   1      39.234  22.522  26.386  1.00  0.00     0.116 C 
BRANCH  26  27
ATOM     27  N   UNL A   1      40.659  22.833  26.474  1.00  0.00    -0.352 N 
ATOM     28  C   UNL A   1      41.277  24.073  26.588  1.00  0.00     0.251 C 
ATOM     29  H   UNL A   1      41.265  22.058  26.449  1.00  0.00     0.163 HD
ATOM     30  O   UNL A   1      42.477  24.174  26.719  1.00  0.00    -0.269 OA
BRANCH  28  31
ATOM     31  C   UNL A   1      40.392  25.258  26.693  1.00  0.00     0.039 A 
ATOM     32  C   UNL A   1      40.836  26.422  26.061  1.00  0.00     0.014 A 
ATOM     33  C   UNL A   1      39.451  25.304  27.716  1.00  0.00     0.014 A 
ATOM     34  C   UNL A   1      40.581  27.643  26.671  1.00  0.00     0.010 A 
ATOM     35  C   UNL A   1      39.289  26.503  28.382  1.00  0.00     0.010 A 
ATOM     36  C   UNL A   1      39.946  27.650  27.913  1.00  0.00    -0.014 A 
BRANCH  36  37
ATOM     37  C   UNL A   1      40.131  28.742  28.869  1.00  0.00     0.031 A 
ATOM     38  C   UNL A   1      39.133  29.826  28.982  1.00  0.00     0.074 A 
ATOM     39  C   UNL A   1      41.207  28.729  29.694  1.00  0.00     0.049 A 
ATOM     40  N   UNL A   1      39.378  30.968  29.533  1.00  0.00    -0.248 NA
ATOM     41  C   UNL A   1      37.800  29.750  28.393  1.00  0.00     0.031 C 
ATOM     42  C   UNL A   1      41.421  29.545  30.889  1.00  0.00     0.029 A 
ATOM     43  N   UNL A   1      42.450  28.102  29.480  1.00  0.00    -0.354 N 
ATOM     44  C   UNL A   1      38.187  31.645  29.635  1.00  0.00     0.074 A 
ATOM     45  C   UNL A   1      37.279  30.917  28.788  1.00  0.00     0.031 C 
ATOM     46  C   UNL A   1      42.738  29.620  31.135  1.00  0.00     0.029 A 
ATOM     47  C   UNL A   1      43.419  28.975  30.028  1.00  0.00     0.049 A 
ATOM     48  H   UNL A   1      42.611  27.236  29.040  1.00  0.00     0.167 HD
ATOM     49  C   UNL A   1      38.090  32.660  30.538  1.00  0.00     0.037 A 
ATOM     50  C   UNL A   1      44.388  29.553  29.263  1.00  0.00     0.037 A 
ATOM     51  C   UNL A   1      39.417  33.093  30.980  1.00  0.00     0.049 A 
ATOM     52  C   UNL A   1      44.390  31.064  29.293  1.00  0.00     0.074 A 
ATOM     53  C   UNL A   1      40.127  32.958  32.161  1.00  0.00     0.029 A 
ATOM     54  N   UNL A   1      40.317  33.582  30.034  1.00  0.00    -0.354 N 
ATOM     55  N   UNL A   1      43.397  31.782  29.738  1.00  0.00    -0.248 NA
ATOM     56  C   UNL A   1      45.475  31.881  28.754  1.00  0.00     0.031 C 
ATOM     57  C   UNL A   1      41.485  33.283  31.891  1.00  0.00     0.029 A 
ATOM     58  C   UNL A   1      41.591  33.654  30.560  1.00  0.00     0.049 A 
ATOM     59  H   UNL A   1      40.076  33.840  29.115  1.00  0.00     0.167 HD
ATOM     60  C   UNL A   1      43.647  33.106  29.486  1.00  0.00     0.074 A 
ATOM     61  C   UNL A   1      44.977  33.120  28.907  1.00  0.00     0.031 C 
ATOM     62  C   UNL A   1      42.715  34.072  29.735  1.00  0.00     0.037 A 
BRANCH  49  63
ATOM     63  C   UNL A   1      36.801  33.140  31.190  1.00  0.00     0.064 A 
ATOM     64  C   UNL A   1      35.891  33.935  30.455  1.00  0.00     0.173 A 
ATOM     65  C   UNL A   1      36.462  32.987  32.552  1.00  0.00     0.173 A 
ATOM     66  F   UNL A   1      36.071  34.170  29.147  1.00  0.00    -0.203 F 
ATOM     67  C   UNL A   1      34.772  34.543  31.040  1.00  0.00     0.198 A 
ATOM     68  C   UNL A   1      35.319  33.554  33.123  1.00  0.00     0.198 A 
ATOM     69  F   UNL A   1      37.239  32.334  33.419  1.00  0.00    -0.203 F 
ATOM     70  F   UNL A   1      33.985  35.341  30.303  1.00  0.00    -0.200 F 
ATOM     71  C   UNL A   1      34.482  34.349  32.374  1.00  0.00     0.200 A 
ATOM     72  F   UNL A   1      35.059  33.348  34.424  1.00  0.00    -0.200 F 
ATOM     73  F   UNL A   1      33.418  34.933  32.938  1.00  0.00    -0.200 F 
ENDBRANCH  49  63
BRANCH  50  74
ATOM     74  C   UNL A   1      44.787  28.738  28.087  1.00  0.00     0.064 A 
ATOM     75  C   UNL A   1      45.635  27.632  28.289  1.00  0.00     0.173 A 
ATOM     76  C   UNL A   1      44.091  28.809  26.875  1.00  0.00     0.173 A 
ATOM     77  F   UNL A   1      46.318  27.513  29.440  1.00  0.00    -0.203 F 
ATOM     78  C   UNL A   1      45.698  26.590  27.367  1.00  0.00     0.198 A 
ATOM     79  C   UNL A   1      44.166  27.767  25.948  1.00  0.00     0.198 A 
ATOM     80  F   UNL A   1      43.247  29.822  26.635  1.00  0.00    -0.203 F 
ATOM     81  F   UNL A   1      46.429  25.500  27.641  1.00  0.00    -0.200 F 
ATOM     82  C   UNL A   1      44.944  26.648  26.208  1.00  0.00     0.200 A 
ATOM     83  F   UNL A   1      43.403  27.802  24.846  1.00  0.00    -0.200 F 
ATOM     84  F   UNL A   1      44.924  25.604  25.368  1.00  0.00    -0.200 F 
ENDBRANCH  50  74
BRANCH  62  85
ATOM     85  C   UNL A   1      42.807  35.504  29.272  1.00  0.00     0.064 A 
ATOM     86  C   UNL A   1      42.113  36.016  28.162  1.00  0.00     0.173 A 
ATOM     87  C   UNL A   1      43.513  36.457  30.042  1.00  0.00     0.173 A 
ATOM     88  F   UNL A   1      41.309  35.237  27.424  1.00  0.00    -0.203 F 
ATOM     89  C   UNL A   1      42.178  37.367  27.807  1.00  0.00     0.198 A 
ATOM     90  C   UNL A   1      43.532  37.813  29.717  1.00  0.00     0.198 A 
ATOM     91  F   UNL A   1      44.186  36.098  31.146  1.00  0.00    -0.203 F 
ATOM     92  F   UNL A   1      41.532  37.797  26.714  1.00  0.00    -0.200 F 
ATOM     93  C   UNL A   1      42.879  38.266  28.589  1.00  0.00     0.200 A 
ATOM     94  F   UNL A   1      44.172  38.682  30.513  1.00  0.00    -0.200 F 
ATOM     95  F   UNL A   1      42.905  39.566  28.268  1.00  0.00    -0.200 F 
ENDBRANCH  62  85
ENDBRANCH  36  37
ENDBRANCH  28  31
ENDBRANCH  26  27
ENDBRANCH  25  26
ENDBRANCH  24  25
ENDBRANCH   1  24
TORSDOF 15
ENDMDL
MODEL 2
REMARK VINA RESULT:     -13.1      4.406      9.780
REMARK SMILES Cc1cccc(O[C@H](C)C(=O)N2CCC[C@@H](C(=O)NCCCCNC(=O)c3ccc(-c4c5nc(c(-c6c(F)c(F)c(F)c(F)c6F)c6ccc([nH]6)c(-c6c(F)c(F)c(F)c(F)c6F)c6nc(c(-c7c(F)c(F)c(F)c(F)c7F)c7ccc4[nH]7)C=C6)C=C5)cc3)C2)c1
REMARK SMILES IDX 20 1 19 2 17 3 18 4 16 6 12 7 13 8 90 9 14 10 15 11 10 12
REMARK SMILES IDX 11 13 8 14 9 15 7 16 6 17 1 18 2 19 3 20 91 21 4 22 5 23
REMARK SMILES IDX 21 24 22 25 23 26 24 27 25 28 26 30 27 31 28 32 89 33 29 34
REMARK SMILES IDX 88 35 30 36 31 37 32 38 82 39 33 40 87 41 81 42 83 43 34 44
REMARK SMILES IDX 86 45 80 46 79 47 35 49 67 50 47 51 66 52 48 53 51 54 65 55
REMARK SMILES IDX 84 56 49 57 50 58 64 60 85 61 52 62 36 63 37 64 45 65 38 66
REMARK SMILES IDX 39 67 43 68 46 69 40 70 41 71 44 72 42 73 68 74 69 75 77 76
REMARK SMILES IDX 70 77 71 78 75 79 78 80 72 81 73 82 76 83 74 84 53 85 54 86
REMARK SMILES IDX 62 87 55 88 56 89 60 90 63 91 57 92 58 93 61 94 59 95
REMARK H PARENT 19 5 24 29 83 48 51 59
REMARK Flexibility Score: inf
ROOT
ATOM      1  C   UNL A   1      34.631  30.275  27.408  1.00  0.00     0.116 C 
ENDROOT
BRANCH   1   2
ATOM      2  N   UNL A   1      33.399  31.026  27.252  1.00  0.00    -0.356 N 
ATOM      3  C   UNL A   1      32.206  30.715  26.689  1.00  0.00     0.224 C 
ATOM      4  O   UNL A   1      31.384  31.634  26.606  1.00  0.00    -0.275 OA
ATOM      5  H   UNL A   1      33.438  31.935  27.626  1.00  0.00     0.163 HD
BRANCH   3   6
ATOM      6  C   UNL A   1      31.824  29.317  26.232  1.00  0.00     0.098 C 
ATOM      7  N   UNL A   1      31.954  27.532  24.549  1.00  0.00    -0.339 N 
ATOM      8  C   UNL A   1      31.941  26.491  25.582  1.00  0.00     0.119 C 
ATOM      9  C   UNL A   1      32.528  28.802  24.977  1.00  0.00     0.133 C 
ATOM     10  C   UNL A   1      31.326  26.961  26.898  1.00  0.00     0.022 C 
ATOM     11  C   UNL A   1      31.916  28.293  27.363  1.00  0.00     0.017 C 
BRANCH   7  12
ATOM     12  C   UNL A   1      31.570  27.187  23.262  1.00  0.00     0.263 C 
ATOM     13  O   UNL A   1      32.397  26.698  22.480  1.00  0.00    -0.271 OA
BRANCH  12  14
ATOM     14  C   UNL A   1      30.147  27.495  22.725  1.00  0.00     0.259 C 
ATOM     15  C   UNL A   1      28.962  27.058  23.570  1.00  0.00     0.064 C 
BRANCH  14  16
ATOM     16  O   UNL A   1      30.162  28.738  22.029  1.00  0.00    -0.481 OA
BRANCH  16  17
ATOM     17  C   UNL A   1      29.658  29.940  22.380  1.00  0.00     0.120 A 
ATOM     18  C   UNL A   1      27.766  32.536  20.308  1.00  0.00     0.044 C 
ATOM     19  C   UNL A   1      28.391  31.839  21.480  1.00  0.00    -0.047 A 
ATOM     20  C   UNL A   1      28.324  32.389  22.758  1.00  0.00     0.003 A 
ATOM     21  C   UNL A   1      29.068  30.624  21.306  1.00  0.00     0.049 A 
ATOM     22  C   UNL A   1      28.891  31.708  23.837  1.00  0.00     0.004 A 
ATOM     23  C   UNL A   1      29.554  30.486  23.650  1.00  0.00     0.046 A 
ENDBRANCH  16  17
ENDBRANCH  14  16
ENDBRANCH  12  14
ENDBRANCH   7  12
ENDBRANCH   3   6
ENDBRANCH   1   2
BRANCH   1  24
ATOM     24  C   UNL A   1      35.581  30.930  28.415  1.00  0.00     0.023 C 
BRANCH  24  25
ATOM     25  C   UNL A   1      35.051  32.223  29.028  1.00  0.00     0.023 C 
BRANCH  25  26
ATOM     26  C   UNL A   1      35.326  32.330  30.517  1.00  0.00     0.116 C 
BRANCH  26  27
ATOM     27  N   UNL A   1      34.264  33.007  31.257  1.00  0.00    -0.352 N 
ATOM     28  C   UNL A   1      34.346  33.722  32.446  1.00  0.00     0.251 C 
ATOM     29  H   UNL A   1      33.366  32.949  30.858  1.00  0.00     0.163 HD
ATOM     30  O   UNL A   1      33.384  34.292  32.912  1.00  0.00    -0.269 OA
BRANCH  28  31
ATOM     31  C   UNL A   1      35.695  33.884  33.041  1.00  0.00     0.039 A 
ATOM     32  C   UNL A   1      36.603  34.662  32.320  1.00  0.00     0.014 A 
ATOM     33  C   UNL A   1      36.125  32.961  33.989  1.00  0.00     0.014 A 
ATOM     34  C   UNL A   1      37.939  34.283  32.315  1.00  0.00     0.010 A 
ATOM     35  C   UNL A   1      37.430  32.516  33.900  1.00  0.00     0.010 A 
ATOM     36  C   UNL A   1      38.304  33.113  32.982  1.00  0.00    -0.014 A 
BRANCH  36  37
ATOM     37  C   UNL A   1      39.483  32.339  32.592  1.00  0.00     0.031 A 
ATOM     38  C   UNL A   1      39.347  31.105  31.792  1.00  0.00     0.074 A 
ATOM     39  C   UNL A   1      40.717  32.791  32.928  1.00  0.00     0.049 A 
ATOM     40  N   UNL A   1      40.270  30.206  31.701  1.00  0.00    -0.248 NA
ATOM     41  C   UNL A   1      38.116  30.730  31.103  1.00  0.00     0.031 C 
ATOM     42  C   UNL A   1      42.003  32.338  32.400  1.00  0.00     0.029 A 
ATOM     43  N   UNL A   1      41.063  33.628  34.007  1.00  0.00    -0.354 N 
ATOM     44  C   UNL A   1      39.884  29.308  30.736  1.00  0.00     0.074 A 
ATOM     45  C   UNL A   1      38.492  29.593  30.508  1.00  0.00     0.031 C 
ATOM     46  C   UNL A   1      42.966  32.632  33.288  1.00  0.00     0.029 A 
ATOM     47  C   UNL A   1      42.312  33.154  34.474  1.00  0.00     0.049 A 
ATOM     48  H   UNL A   1      40.545  34.386  34.362  1.00  0.00     0.167 HD
ATOM     49  C   UNL A   1      40.837  28.529  30.152  1.00  0.00     0.037 A 
ATOM     50  C   UNL A   1      42.475  32.664  35.736  1.00  0.00     0.037 A 
ATOM     51  C   UNL A   1      42.069  28.531  30.945  1.00  0.00     0.049 A 
ATOM     52  C   UNL A   1      42.984  31.242  35.793  1.00  0.00     0.074 A 
ATOM     53  C   UNL A   1      43.322  29.091  30.768  1.00  0.00     0.029 A 
ATOM     54  N   UNL A   1      42.026  28.069  32.260  1.00  0.00    -0.354 N 
ATOM     55  N   UNL A   1      42.984  30.429  34.774  1.00  0.00    -0.248 NA
ATOM     56  C   UNL A   1      43.461  30.604  37.018  1.00  0.00     0.031 C 
ATOM     57  C   UNL A   1      43.999  29.044  32.018  1.00  0.00     0.029 A 
ATOM     58  C   UNL A   1      43.174  28.419  32.940  1.00  0.00     0.049 A 
ATOM     59  H   UNL A   1      41.278  27.562  32.649  1.00  0.00     0.167 HD
ATOM     60  C   UNL A   1      43.362  29.180  35.191  1.00  0.00     0.074 A 
ATOM     61  C   UNL A   1      43.691  29.350  36.593  1.00  0.00     0.031 C 
ATOM     62  C   UNL A   1      43.329  28.103  34.353  1.00  0.00     0.037 A 
BRANCH  49  63
ATOM     63  C   UNL A   1      40.747  27.918  28.762  1.00  0.00     0.064 A 
ATOM     64  C   UNL A   1      40.024  26.718  28.562  1.00  0.00     0.173 A 
ATOM     65  C   UNL A   1      41.451  28.363  27.621  1.00  0.00     0.173 A 
ATOM     66  F   UNL A   1      39.301  26.169  29.548  1.00  0.00    -0.203 F 
ATOM     67  C   UNL A   1      40.038  26.018  27.348  1.00  0.00     0.198 A 
ATOM     68  C   UNL A   1      41.423  27.690  26.396  1.00  0.00     0.198 A 
ATOM     69  F   UNL A   1      42.247  29.433  27.638  1.00  0.00    -0.203 F 
ATOM     70  F   UNL A   1      39.387  24.851  27.244  1.00  0.00    -0.200 F 
ATOM     71  C   UNL A   1      40.733  26.507  26.262  1.00  0.00     0.200 A 
ATOM     72  F   UNL A   1      42.108  28.187  25.354  1.00  0.00    -0.200 F 
ATOM     73  F   UNL A   1      40.754  25.838  25.102  1.00  0.00    -0.200 F 
ENDBRANCH  49  63
BRANCH  50  74
ATOM     74  C   UNL A   1      41.553  33.264  36.733  1.00  0.00     0.064 A 
ATOM     75  C   UNL A   1      41.919  34.479  37.345  1.00  0.00     0.173 A 
ATOM     76  C   UNL A   1      40.213  32.868  36.827  1.00  0.00     0.173 A 
ATOM     77  F   UNL A   1      43.190  34.907  37.276  1.00  0.00    -0.203 F 
ATOM     78  C   UNL A   1      40.966  35.312  37.926  1.00  0.00     0.198 A 
ATOM     79  C   UNL A   1      39.264  33.702  37.420  1.00  0.00     0.198 A 
ATOM     80  F   UNL A   1      39.798  31.736  36.241  1.00  0.00    -0.203 F 
ATOM     81  F   UNL A   1      41.330  36.513  38.400  1.00  0.00    -0.200 F 
ATOM     82  C   UNL A   1      39.635  34.934  37.941  1.00  0.00     0.200 A 
ATOM     83  F   UNL A   1      37.969  33.356  37.397  1.00  0.00    -0.200 F 
ATOM     84  F   UNL A   1      38.703  35.776  38.408  1.00  0.00    -0.200 F 
ENDBRANCH  50  74
BRANCH  62  85
ATOM     85  C   UNL A   1      43.493  26.666  34.781  1.00  0.00     0.064 A 
ATOM     86  C   UNL A   1      42.419  25.799  35.046  1.00  0.00     0.173 A 
ATOM     87  C   UNL A   1      44.776  26.073  34.803  1.00  0.00     0.173 A 
ATOM     88  F   UNL A   1      41.148  26.212  34.936  1.00  0.00    -0.203 F 
ATOM     89  C   UNL A   1      42.617  24.455  35.379  1.00  0.00     0.198 A 
ATOM     90  C   UNL A   1      44.967  24.719  35.082  1.00  0.00     0.198 A 
ATOM     91  F   UNL A   1      45.878  26.788  34.532  1.00  0.00    -0.203 F 
ATOM     92  F   UNL A   1      41.561  23.680  35.665  1.00  0.00    -0.200 F 
ATOM     93  C   UNL A   1      43.889  23.914  35.387  1.00  0.00     0.200 A 
ATOM     94  F   UNL A   1      46.201  24.196  35.035  1.00  0.00    -0.200 F 
ATOM     95  F   UNL A   1      44.071  22.617  35.667  1.00  0.00    -0.200 F 
ENDBRANCH  62  85
ENDBRANCH  36  37
ENDBRANCH  28  31
ENDBRANCH  26  27
ENDBRANCH  25  26
ENDBRANCH  24  25
ENDBRANCH   1  24
TORSDOF 15
ENDMDL
MODEL 3
REMARK VINA RESULT:     -13.0      1.566      2.102
REMARK SMILES Cc1cccc(O[C@H](C)C(=O)N2CCC[C@@H](C(=O)NCCCCNC(=O)c3ccc(-c4c5nc(c(-c6c(F)c(F)c(F)c(F)c6F)c6ccc([nH]6)c(-c6c(F)c(F)c(F)c(F)c6F)c6nc(c(-c7c(F)c(F)c(F)c(F)c7F)c7ccc4[nH]7)C=C6)C=C5)cc3)C2)c1
REMARK SMILES IDX 20 1 19 2 17 3 18 4 16 6 12 7 13 8 90 9 14 10 15 11 10 12
REMARK SMILES IDX 11 13 8 14 9 15 7 16 6 17 1 18 2 19 3 20 91 21 4 22 5 23
REMARK SMILES IDX 21 24 22 25 23 26 24 27 25 28 26 30 27 31 28 32 89 33 29 34
REMARK SMILES IDX 88 35 30 36 31 37 32 38 82 39 33 40 87 41 81 42 83 43 34 44
REMARK SMILES IDX 86 45 80 46 79 47 35 49 67 50 47 51 66 52 48 53 51 54 65 55
REMARK SMILES IDX 84 56 49 57 50 58 64 60 85 61 52 62 36 63 37 64 45 65 38 66
REMARK SMILES IDX 39 67 43 68 46 69 40 70 41 71 44 72 42 73 68 74 69 75 77 76
REMARK SMILES IDX 70 77 71 78 75 79 78 80 72 81 73 82 76 83 74 84 53 85 54 86
REMARK SMILES IDX 62 87 55 88 56 89 60 90 63 91 57 92 58 93 61 94 59 95
REMARK H PARENT 19 5 24 29 83 48 51 59
REMARK Flexibility Score: inf
ROOT
ATOM      1  C   UNL A   1      37.197  21.928  25.584  1.00  0.00     0.116 C 
ENDROOT
BRANCH   1   2
ATOM      2  N   UNL A   1      36.746  22.495  24.327  1.00  0.00    -0.356 N 
ATOM      3  C   UNL A   1      35.511  22.694  23.806  1.00  0.00     0.224 C 
ATOM      4  O   UNL A   1      35.466  23.095  22.638  1.00  0.00    -0.275 OA
ATOM      5  H   UNL A   1      37.477  22.792  23.739  1.00  0.00     0.163 HD
BRANCH   3   6
ATOM      6  C   UNL A   1      34.222  22.516  24.592  1.00  0.00     0.098 C 
ATOM      7  N   UNL A   1      32.071  23.420  25.362  1.00  0.00    -0.339 N 
ATOM      8  C   UNL A   1      31.430  22.105  25.270  1.00  0.00     0.119 C 
ATOM      9  C   UNL A   1      33.177  23.621  24.435  1.00  0.00     0.133 C 
ATOM     10  C   UNL A   1      32.424  20.948  25.335  1.00  0.00     0.022 C 
ATOM     11  C   UNL A   1      33.593  21.141  24.368  1.00  0.00     0.017 C 
BRANCH   7  12
ATOM     12  C   UNL A   1      31.498  24.375  26.189  1.00  0.00     0.263 C 
ATOM     13  O   UNL A   1      30.972  24.032  27.257  1.00  0.00    -0.271 OA
BRANCH  12  14
ATOM     14  C   UNL A   1      31.398  25.865  25.767  1.00  0.00     0.259 C 
ATOM     15  C   UNL A   1      32.403  26.838  26.360  1.00  0.00     0.064 C 
BRANCH  14  16
ATOM     16  O   UNL A   1      30.979  25.945  24.408  1.00  0.00    -0.481 OA
BRANCH  16  17
ATOM     17  C   UNL A   1      30.643  27.019  23.662  1.00  0.00     0.120 A 
ATOM     18  C   UNL A   1      27.252  28.700  23.120  1.00  0.00     0.044 C 
ATOM     19  C   UNL A   1      28.727  28.432  23.066  1.00  0.00    -0.047 A 
ATOM     20  C   UNL A   1      29.586  29.296  22.389  1.00  0.00     0.003 A 
ATOM     21  C   UNL A   1      29.267  27.297  23.685  1.00  0.00     0.049 A 
ATOM     22  C   UNL A   1      30.957  29.040  22.375  1.00  0.00     0.004 A 
ATOM     23  C   UNL A   1      31.486  27.907  23.011  1.00  0.00     0.046 A 
ENDBRANCH  16  17
ENDBRANCH  14  16
ENDBRANCH  12  14
ENDBRANCH   7  12
ENDBRANCH   3   6
ENDBRANCH   1   2
BRANCH   1  24
ATOM     24  C   UNL A   1      38.322  20.908  25.383  1.00  0.00     0.023 C 
BRANCH  24  25
ATOM     25  C   UNL A   1      39.627  21.265  26.088  1.00  0.00     0.023 C 
BRANCH  25  26
ATOM     26  C   UNL A   1      39.657  22.697  26.591  1.00  0.00     0.116 C 
BRANCH  26  27
ATOM     27  N   UNL A   1      40.907  23.052  27.259  1.00  0.00    -0.352 N 
ATOM     28  C   UNL A   1      41.322  24.289  27.735  1.00  0.00     0.251 C 
ATOM     29  H   UNL A   1      41.542  22.312  27.391  1.00  0.00     0.163 HD
ATOM     30  O   UNL A   1      42.367  24.422  28.334  1.00  0.00    -0.269 OA
BRANCH  28  31
ATOM     31  C   UNL A   1      40.364  25.414  27.611  1.00  0.00     0.039 A 
ATOM     32  C   UNL A   1      40.784  26.508  26.851  1.00  0.00     0.014 A 
ATOM     33  C   UNL A   1      39.345  25.534  28.551  1.00  0.00     0.014 A 
ATOM     34  C   UNL A   1      40.411  27.781  27.263  1.00  0.00     0.010 A 
ATOM     35  C   UNL A   1      39.063  26.800  29.028  1.00  0.00     0.010 A 
ATOM     36  C   UNL A   1      39.684  27.914  28.446  1.00  0.00    -0.014 A 
BRANCH  36  37
ATOM     37  C   UNL A   1      39.731  29.137  29.247  1.00  0.00     0.031 A 
ATOM     38  C   UNL A   1      38.737  30.211  29.047  1.00  0.00     0.074 A 
ATOM     39  C   UNL A   1      40.668  29.260  30.220  1.00  0.00     0.049 A 
ATOM     40  N   UNL A   1      38.904  31.426  29.454  1.00  0.00    -0.248 NA
ATOM     41  C   UNL A   1      37.509  30.032  28.279  1.00  0.00     0.031 C 
ATOM     42  C   UNL A   1      40.704  30.246  31.300  1.00  0.00     0.029 A 
ATOM     43  N   UNL A   1      41.923  28.626  30.292  1.00  0.00    -0.354 N 
ATOM     44  C   UNL A   1      37.718  32.093  29.272  1.00  0.00     0.074 A 
ATOM     45  C   UNL A   1      36.943  31.236  28.414  1.00  0.00     0.031 C 
ATOM     46  C   UNL A   1      41.968  30.375  31.729  1.00  0.00     0.029 A 
ATOM     47  C   UNL A   1      42.805  29.584  30.847  1.00  0.00     0.049 A 
ATOM     48  H   UNL A   1      42.143  27.708  30.014  1.00  0.00     0.167 HD
ATOM     49  C   UNL A   1      37.492  33.228  29.991  1.00  0.00     0.037 A 
ATOM     50  C   UNL A   1      43.885  30.057  30.161  1.00  0.00     0.037 A 
ATOM     51  C   UNL A   1      38.740  33.741  30.561  1.00  0.00     0.049 A 
ATOM     52  C   UNL A   1      43.895  31.556  29.968  1.00  0.00     0.074 A 
ATOM     53  C   UNL A   1      39.260  33.791  31.843  1.00  0.00     0.029 A 
ATOM     54  N   UNL A   1      39.778  34.097  29.701  1.00  0.00    -0.354 N 
ATOM     55  N   UNL A   1      42.852  32.317  30.146  1.00  0.00    -0.248 NA
ATOM     56  C   UNL A   1      45.056  32.300  29.486  1.00  0.00     0.031 C 
ATOM     57  C   UNL A   1      40.646  34.091  31.738  1.00  0.00     0.029 A 
ATOM     58  C   UNL A   1      40.957  34.264  30.399  1.00  0.00     0.049 A 
ATOM     59  H   UNL A   1      39.683  34.214  28.729  1.00  0.00     0.167 HD
ATOM     60  C   UNL A   1      43.148  33.593  29.742  1.00  0.00     0.074 A 
ATOM     61  C   UNL A   1      44.551  33.541  29.378  1.00  0.00     0.031 C 
ATOM     62  C   UNL A   1      42.198  34.572  29.702  1.00  0.00     0.037 A 
BRANCH  49  63
ATOM     63  C   UNL A   1      36.123  33.781  30.360  1.00  0.00     0.064 A 
ATOM     64  C   UNL A   1      35.296  34.346  29.362  1.00  0.00     0.173 A 
ATOM     65  C   UNL A   1      35.621  33.922  31.673  1.00  0.00     0.173 A 
ATOM     66  F   UNL A   1      35.632  34.290  28.065  1.00  0.00    -0.203 F 
ATOM     67  C   UNL A   1      34.101  35.017  29.658  1.00  0.00     0.198 A 
ATOM     68  C   UNL A   1      34.405  34.548  31.962  1.00  0.00     0.198 A 
ATOM     69  F   UNL A   1      36.297  33.519  32.750  1.00  0.00    -0.203 F 
ATOM     70  F   UNL A   1      33.397  35.590  28.672  1.00  0.00    -0.200 F 
ATOM     71  C   UNL A   1      33.652  35.113  30.958  1.00  0.00     0.200 A 
ATOM     72  F   UNL A   1      33.990  34.628  33.236  1.00  0.00    -0.200 F 
ATOM     73  F   UNL A   1      32.515  35.758  31.246  1.00  0.00    -0.200 F 
ENDBRANCH  49  63
BRANCH  50  74
ATOM     74  C   UNL A   1      44.451  29.084  29.193  1.00  0.00     0.064 A 
ATOM     75  C   UNL A   1      45.207  28.003  29.687  1.00  0.00     0.173 A 
ATOM     76  C   UNL A   1      43.982  29.000  27.877  1.00  0.00     0.173 A 
ATOM     77  F   UNL A   1      45.672  28.031  30.947  1.00  0.00    -0.203 F 
ATOM     78  C   UNL A   1      45.390  26.844  28.936  1.00  0.00     0.198 A 
ATOM     79  C   UNL A   1      44.178  27.840  27.124  1.00  0.00     0.198 A 
ATOM     80  F   UNL A   1      43.234  29.984  27.360  1.00  0.00    -0.203 F 
ATOM     81  F   UNL A   1      46.018  25.790  29.476  1.00  0.00    -0.200 F 
ATOM     82  C   UNL A   1      44.853  26.755  27.663  1.00  0.00     0.200 A 
ATOM     83  F   UNL A   1      43.621  27.737  25.908  1.00  0.00    -0.200 F 
ATOM     84  F   UNL A   1      44.940  25.607  26.977  1.00  0.00    -0.200 F 
ENDBRANCH  50  74
BRANCH  62  85
ATOM     85  C   UNL A   1      42.372  35.922  29.052  1.00  0.00     0.064 A 
ATOM     86  C   UNL A   1      41.766  36.293  27.840  1.00  0.00     0.173 A 
ATOM     87  C   UNL A   1      43.066  36.952  29.728  1.00  0.00     0.173 A 
ATOM     88  F   UNL A   1      40.979  35.442  27.166  1.00  0.00    -0.203 F 
ATOM     89  C   UNL A   1      41.903  37.578  27.306  1.00  0.00     0.198 A 
ATOM     90  C   UNL A   1      43.156  38.249  29.220  1.00  0.00     0.198 A 
ATOM     91  F   UNL A   1      43.658  36.732  30.912  1.00  0.00    -0.203 F 
ATOM     92  F   UNL A   1      41.341  37.870  26.124  1.00  0.00    -0.200 F 
ATOM     93  C   UNL A   1      42.590  38.557  28.000  1.00  0.00     0.200 A 
ATOM     94  F   UNL A   1      43.779  39.201  29.929  1.00  0.00    -0.200 F 
ATOM     95  F   UNL A   1      42.685  39.798  27.505  1.00  0.00    -0.200 F 
ENDBRANCH  62  85
ENDBRANCH  36  37
ENDBRANCH  28  31
ENDBRANCH  26  27
ENDBRANCH  25  26
ENDBRANCH  24  25
ENDBRANCH   1  24
TORSDOF 15
ENDMDL
