MODEL 1
REMARK VINA RESULT:     -11.5      0.000      0.000
REMARK SMILES O=C(CCCCc1nc(-c2ccccc2)no1)NCCCCNC(=O)c1ccc(-c2c3nc(c(-c4c(F)c(F)c(F)c(F)c4F)c4ccc([nH]4)c(-c4c(F)c(F)c(F)c(F)c4F)c4nc(c(-c5c(F)c(F)c(F)c(F)c5F)c5ccc2[nH]5)C=C4)C=C3)cc1
REMARK SMILES IDX 19 1 18 2 1 3 2 4 3 6 4 7 5 8 6 9 7 10 8 11 17 12 9 13 16 14
REMARK SMILES IDX 10 15 11 16 15 17 12 18 14 19 13 20 20 21 21 22 22 23 23 24
REMARK SMILES IDX 24 25 25 27 26 28 27 29 88 30 28 31 87 32 29 33 30 34 31 35
REMARK SMILES IDX 81 36 32 37 86 38 80 39 82 40 33 41 85 42 79 43 78 44 34 46
REMARK SMILES IDX 66 47 46 48 65 49 47 50 50 51 64 52 83 53 48 54 49 55 63 57
REMARK SMILES IDX 84 58 51 59 35 60 36 61 44 62 37 63 38 64 42 65 45 66 39 67
REMARK SMILES IDX 40 68 43 69 41 70 67 71 68 72 76 73 69 74 70 75 74 76 77 77
REMARK SMILES IDX 71 78 72 79 75 80 73 81 52 82 53 83 61 84 54 85 55 86 59 87
REMARK SMILES IDX 62 88 56 89 57 90 60 91 58 92
REMARK H PARENT 18 5 23 26 82 45 50 56
REMARK Flexibility Score: inf
ROOT
ATOM      1  C   UNL A   1      36.605  21.739  24.247  1.00  0.00     0.116 C 
ENDROOT
BRANCH   1   2
ATOM      2  N   UNL A   1      35.512  22.583  24.687  1.00  0.00    -0.356 N 
ATOM      3  O   UNL A   1      36.810  24.019  25.921  1.00  0.00    -0.275 OA
ATOM      4  C   UNL A   1      35.716  23.688  25.479  1.00  0.00     0.219 C 
ATOM      5  H   UNL A   1      34.595  22.356  24.409  1.00  0.00     0.163 HD
BRANCH   4   6
ATOM      6  C   UNL A   1      34.461  24.493  25.749  1.00  0.00     0.100 C 
BRANCH   6   7
ATOM      7  C   UNL A   1      33.403  23.682  26.498  1.00  0.00     0.010 C 
BRANCH   7   8
ATOM      8  C   UNL A   1      31.934  24.066  26.243  1.00  0.00     0.010 C 
BRANCH   8   9
ATOM      9  C   UNL A   1      31.058  23.030  25.530  1.00  0.00     0.100 C 
BRANCH   9  10
ATOM     10  C   UNL A   1      31.782  21.865  24.961  1.00  0.00     0.226 A 
ATOM     11  N   UNL A   1      31.780  20.618  25.373  1.00  0.00    -0.191 NA
ATOM     12  O   UNL A   1      32.571  22.070  23.871  1.00  0.00    -0.339 OA
ATOM     13  C   UNL A   1      32.677  20.024  24.511  1.00  0.00     0.202 A 
ATOM     14  N   UNL A   1      33.175  20.854  23.582  1.00  0.00    -0.057 NA
BRANCH  13  15
ATOM     15  C   UNL A   1      33.072  18.632  24.625  1.00  0.00     0.023 A 
ATOM     16  C   UNL A   1      32.529  17.829  25.639  1.00  0.00     0.012 A 
ATOM     17  C   UNL A   1      33.997  18.079  23.732  1.00  0.00     0.012 A 
ATOM     18  C   UNL A   1      32.910  16.493  25.760  1.00  0.00     0.001 A 
ATOM     19  C   UNL A   1      34.389  16.744  23.865  1.00  0.00     0.001 A 
ATOM     20  C   UNL A   1      33.844  15.953  24.877  1.00  0.00     0.000 A 
ENDBRANCH  13  15
ENDBRANCH   9  10
ENDBRANCH   8   9
ENDBRANCH   7   8
ENDBRANCH   6   7
ENDBRANCH   4   6
ENDBRANCH   1   2
BRANCH   1  21
ATOM     21  C   UNL A   1      36.653  20.413  25.002  1.00  0.00     0.023 C 
BRANCH  21  22
ATOM     22  C   UNL A   1      37.959  19.624  24.866  1.00  0.00     0.023 C 
BRANCH  22  23
ATOM     23  C   UNL A   1      39.109  20.090  25.755  1.00  0.00     0.116 C 
BRANCH  23  24
ATOM     24  N   UNL A   1      40.149  19.085  25.900  1.00  0.00    -0.352 N 
ATOM     25  C   UNL A   1      41.494  19.237  26.127  1.00  0.00     0.251 C 
ATOM     26  H   UNL A   1      39.842  18.153  25.826  1.00  0.00     0.163 HD
ATOM     27  O   UNL A   1      42.236  18.254  26.063  1.00  0.00    -0.269 OA
BRANCH  25  28
ATOM     28  C   UNL A   1      42.075  20.566  26.420  1.00  0.00     0.039 A 
ATOM     29  C   UNL A   1      42.479  21.373  25.353  1.00  0.00     0.014 A 
ATOM     30  C   UNL A   1      42.251  21.012  27.733  1.00  0.00     0.014 A 
ATOM     31  C   UNL A   1      42.992  22.651  25.596  1.00  0.00     0.010 A 
ATOM     32  C   UNL A   1      42.700  22.310  27.973  1.00  0.00     0.010 A 
ATOM     33  C   UNL A   1      43.073  23.145  26.908  1.00  0.00    -0.014 A 
BRANCH  33  34
ATOM     34  C   UNL A   1      43.529  24.534  27.180  1.00  0.00     0.031 A 
ATOM     35  C   UNL A   1      42.569  25.561  27.713  1.00  0.00     0.074 A 
ATOM     36  C   UNL A   1      44.795  24.889  26.886  1.00  0.00     0.049 A 
ATOM     37  N   UNL A   1      42.761  26.838  27.936  1.00  0.00    -0.248 NA
ATOM     38  C   UNL A   1      41.205  25.099  28.010  1.00  0.00     0.031 C 
ATOM     39  C   UNL A   1      45.814  23.999  26.327  1.00  0.00     0.029 A 
ATOM     40  N   UNL A   1      45.437  26.098  27.002  1.00  0.00    -0.354 N 
ATOM     41  C   UNL A   1      41.543  27.332  28.383  1.00  0.00     0.074 A 
ATOM     42  C   UNL A   1      40.605  26.229  28.356  1.00  0.00     0.031 C 
ATOM     43  C   UNL A   1      46.957  24.686  26.165  1.00  0.00     0.029 A 
ATOM     44  C   UNL A   1      46.742  26.071  26.572  1.00  0.00     0.049 A 
ATOM     45  H   UNL A   1      45.004  26.905  27.361  1.00  0.00     0.167 HD
ATOM     46  C   UNL A   1      41.239  28.585  28.799  1.00  0.00     0.037 A 
ATOM     47  C   UNL A   1      47.659  27.056  26.502  1.00  0.00     0.037 A 
ATOM     48  C   UNL A   1      42.178  29.676  28.851  1.00  0.00     0.049 A 
ATOM     49  C   UNL A   1      47.293  28.441  26.963  1.00  0.00     0.074 A 
ATOM     50  C   UNL A   1      41.978  30.965  29.314  1.00  0.00     0.029 A 
ATOM     51  N   UNL A   1      43.495  29.605  28.422  1.00  0.00    -0.354 N 
ATOM     52  N   UNL A   1      46.156  28.878  27.444  1.00  0.00    -0.248 NA
ATOM     53  C   UNL A   1      48.343  29.466  26.876  1.00  0.00     0.031 C 
ATOM     54  C   UNL A   1      43.161  31.687  29.126  1.00  0.00     0.029 A 
ATOM     55  C   UNL A   1      44.113  30.835  28.591  1.00  0.00     0.049 A 
ATOM     56  H   UNL A   1      43.927  28.802  28.053  1.00  0.00     0.167 HD
ATOM     57  C   UNL A   1      46.359  30.219  27.743  1.00  0.00     0.074 A 
ATOM     58  C   UNL A   1      47.734  30.520  27.402  1.00  0.00     0.031 C 
ATOM     59  C   UNL A   1      45.485  31.120  28.255  1.00  0.00     0.037 A 
BRANCH  46  60
ATOM     60  C   UNL A   1      39.826  28.848  29.235  1.00  0.00     0.064 A 
ATOM     61  C   UNL A   1      38.845  29.280  28.330  1.00  0.00     0.173 A 
ATOM     62  C   UNL A   1      39.438  28.623  30.565  1.00  0.00     0.173 A 
ATOM     63  F   UNL A   1      39.167  29.520  27.049  1.00  0.00    -0.203 F 
ATOM     64  C   UNL A   1      37.536  29.507  28.745  1.00  0.00     0.198 A 
ATOM     65  C   UNL A   1      38.120  28.822  30.970  1.00  0.00     0.198 A 
ATOM     66  F   UNL A   1      40.334  28.202  31.469  1.00  0.00    -0.203 F 
ATOM     67  F   UNL A   1      36.628  29.966  27.873  1.00  0.00    -0.200 F 
ATOM     68  C   UNL A   1      37.172  29.271  30.062  1.00  0.00     0.200 A 
ATOM     69  F   UNL A   1      37.768  28.580  32.240  1.00  0.00    -0.200 F 
ATOM     70  F   UNL A   1      35.910  29.481  30.459  1.00  0.00    -0.200 F 
ENDBRANCH  46  60
BRANCH  47  71
ATOM     71  C   UNL A   1      49.023  26.761  25.992  1.00  0.00     0.064 A 
ATOM     72  C   UNL A   1      50.015  26.257  26.845  1.00  0.00     0.173 A 
ATOM     73  C   UNL A   1      49.366  26.982  24.650  1.00  0.00     0.173 A 
ATOM     74  F   UNL A   1      49.741  26.051  28.142  1.00  0.00    -0.203 F 
ATOM     75  C   UNL A   1      51.303  26.003  26.380  1.00  0.00     0.198 A 
ATOM     76  C   UNL A   1      50.647  26.701  24.180  1.00  0.00     0.198 A 
ATOM     77  F   UNL A   1      48.451  27.459  23.793  1.00  0.00    -0.203 F 
ATOM     78  F   UNL A   1      52.245  25.565  27.226  1.00  0.00    -0.200 F 
ATOM     79  C   UNL A   1      51.617  26.220  25.047  1.00  0.00     0.200 A 
ATOM     80  F   UNL A   1      50.942  26.900  22.888  1.00  0.00    -0.200 F 
ATOM     81  F   UNL A   1      52.855  25.973  24.598  1.00  0.00    -0.200 F 
ENDBRANCH  47  71
BRANCH  59  82
ATOM     82  C   UNL A   1      45.996  32.507  28.512  1.00  0.00     0.064 A 
ATOM     83  C   UNL A   1      45.972  33.497  27.518  1.00  0.00     0.173 A 
ATOM     84  C   UNL A   1      46.481  32.860  29.781  1.00  0.00     0.173 A 
ATOM     85  F   UNL A   1      45.533  33.205  26.285  1.00  0.00    -0.203 F 
ATOM     86  C   UNL A   1      46.437  34.783  27.779  1.00  0.00     0.198 A 
ATOM     87  C   UNL A   1      46.918  34.155  30.045  1.00  0.00     0.198 A 
ATOM     88  F   UNL A   1      46.520  31.952  30.767  1.00  0.00    -0.203 F 
ATOM     89  F   UNL A   1      46.448  35.700  26.802  1.00  0.00    -0.200 F 
ATOM     90  C   UNL A   1      46.902  35.113  29.043  1.00  0.00     0.200 A 
ATOM     91  F   UNL A   1      47.356  34.476  31.271  1.00  0.00    -0.200 F 
ATOM     92  F   UNL A   1      47.343  36.354  29.294  1.00  0.00    -0.200 F 
ENDBRANCH  59  82
ENDBRANCH  33  34
ENDBRANCH  25  28
ENDBRANCH  23  24
ENDBRANCH  22  23
ENDBRANCH  21  22
ENDBRANCH   1  21
TORSDOF 16
ENDMDL
MODEL 2
REMARK VINA RESULT:     -11.4      4.316     10.951
REMARK SMILES O=C(CCCCc1nc(-c2ccccc2)no1)NCCCCNC(=O)c1ccc(-c2c3nc(c(-c4c(F)c(F)c(F)c(F)c4F)c4ccc([nH]4)c(-c4c(F)c(F)c(F)c(F)c4F)c4nc(c(-c5c(F)c(F)c(F)c(F)c5F)c5ccc2[nH]5)C=C4)C=C3)cc1
REMARK SMILES IDX 19 1 18 2 1 3 2 4 3 6 4 7 5 8 6 9 7 10 8 11 17 12 9 13 16 14
REMARK SMILES IDX 10 15 11 16 15 17 12 18 14 19 13 20 20 21 21 22 22 23 23 24
REMARK SMILES IDX 24 25 25 27 26 28 27 29 88 30 28 31 87 32 29 33 30 34 31 35
REMARK SMILES IDX 81 36 32 37 86 38 80 39 82 40 33 41 85 42 79 43 78 44 34 46
REMARK SMILES IDX 66 47 46 48 65 49 47 50 50 51 64 52 83 53 48 54 49 55 63 57
REMARK SMILES IDX 84 58 51 59 35 60 36 61 44 62 37 63 38 64 42 65 45 66 39 67
REMARK SMILES IDX 40 68 43 69 41 70 67 71 68 72 76 73 69 74 70 75 74 76 77 77
REMARK SMILES IDX 71 78 72 79 75 80 73 81 52 82 53 83 61 84 54 85 55 86 59 87
REMARK SMILES IDX 62 88 56 89 57 90 60 91 58 92
REMARK H PARENT 18 5 23 26 82 45 50 56
REMARK Flexibility Score: inf
ROOT
ATOM      1  C   UNL A   1      42.771  18.749  26.017  1.00  0.00     0.116 C 
ENDROOT
BRANCH   1   2
ATOM      2  N   UNL A   1      43.853  19.646  25.666  1.00  0.00    -0.356 N 
ATOM      3  O   UNL A   1      45.429  18.003  25.368  1.00  0.00    -0.275 OA
ATOM      4  C   UNL A   1      45.106  19.186  25.339  1.00  0.00     0.219 C 
ATOM      5  H   UNL A   1      43.684  20.616  25.662  1.00  0.00     0.163 HD
BRANCH   4   6
ATOM      6  C   UNL A   1      46.070  20.273  24.907  1.00  0.00     0.100 C 
BRANCH   6   7
ATOM      7  C   UNL A   1      45.349  21.484  24.317  1.00  0.00     0.010 C 
BRANCH   7   8
ATOM      8  C   UNL A   1      46.166  22.784  24.204  1.00  0.00     0.010 C 
BRANCH   8   9
ATOM      9  C   UNL A   1      46.429  23.555  25.503  1.00  0.00     0.100 C 
BRANCH   9  10
ATOM     10  C   UNL A   1      46.162  25.014  25.444  1.00  0.00     0.226 A 
ATOM     11  N   UNL A   1      45.468  25.755  26.276  1.00  0.00    -0.191 NA
ATOM     12  O   UNL A   1      46.680  25.720  24.401  1.00  0.00    -0.339 OA
ATOM     13  C   UNL A   1      45.512  26.993  25.674  1.00  0.00     0.202 A 
ATOM     14  N   UNL A   1      46.237  27.027  24.545  1.00  0.00    -0.057 NA
BRANCH  13  15
ATOM     15  C   UNL A   1      44.805  28.148  26.197  1.00  0.00     0.023 A 
ATOM     16  C   UNL A   1      43.434  28.303  25.947  1.00  0.00     0.012 A 
ATOM     17  C   UNL A   1      45.481  29.116  26.949  1.00  0.00     0.012 A 
ATOM     18  C   UNL A   1      42.749  29.414  26.440  1.00  0.00     0.001 A 
ATOM     19  C   UNL A   1      44.796  30.236  27.428  1.00  0.00     0.001 A 
ATOM     20  C   UNL A   1      43.431  30.383  27.175  1.00  0.00     0.000 A 
ENDBRANCH  13  15
ENDBRANCH   9  10
ENDBRANCH   8   9
ENDBRANCH   7   8
ENDBRANCH   6   7
ENDBRANCH   4   6
ENDBRANCH   1   2
BRANCH   1  21
ATOM     21  C   UNL A   1      41.457  19.491  26.250  1.00  0.00     0.023 C 
BRANCH  21  22
ATOM     22  C   UNL A   1      41.540  21.019  26.171  1.00  0.00     0.023 C 
BRANCH  22  23
ATOM     23  C   UNL A   1      40.483  21.780  26.966  1.00  0.00     0.116 C 
BRANCH  23  24
ATOM     24  N   UNL A   1      39.390  22.257  26.134  1.00  0.00    -0.352 N 
ATOM     25  C   UNL A   1      38.769  23.480  26.112  1.00  0.00     0.251 C 
ATOM     26  H   UNL A   1      39.043  21.602  25.486  1.00  0.00     0.163 HD
ATOM     27  O   UNL A   1      37.751  23.633  25.433  1.00  0.00    -0.269 OA
BRANCH  25  28
ATOM     28  C   UNL A   1      39.284  24.613  26.913  1.00  0.00     0.039 A 
ATOM     29  C   UNL A   1      40.094  25.565  26.287  1.00  0.00     0.014 A 
ATOM     30  C   UNL A   1      39.000  24.732  28.277  1.00  0.00     0.014 A 
ATOM     31  C   UNL A   1      40.561  26.669  27.006  1.00  0.00     0.010 A 
ATOM     32  C   UNL A   1      39.410  25.867  28.977  1.00  0.00     0.010 A 
ATOM     33  C   UNL A   1      40.192  26.849  28.349  1.00  0.00    -0.014 A 
BRANCH  33  34
ATOM     34  C   UNL A   1      40.602  28.063  29.104  1.00  0.00     0.031 A 
ATOM     35  C   UNL A   1      41.984  28.166  29.689  1.00  0.00     0.074 A 
ATOM     36  C   UNL A   1      39.708  29.046  29.319  1.00  0.00     0.049 A 
ATOM     37  N   UNL A   1      42.495  29.107  30.444  1.00  0.00    -0.248 NA
ATOM     38  C   UNL A   1      42.904  27.054  29.411  1.00  0.00     0.031 C 
ATOM     39  C   UNL A   1      38.325  29.051  28.842  1.00  0.00     0.029 A 
ATOM     40  N   UNL A   1      39.824  30.228  30.011  1.00  0.00    -0.354 N 
ATOM     41  C   UNL A   1      43.787  28.693  30.741  1.00  0.00     0.074 A 
ATOM     42  C   UNL A   1      43.966  27.395  30.126  1.00  0.00     0.031 C 
ATOM     43  C   UNL A   1      37.725  30.185  29.238  1.00  0.00     0.029 A 
ATOM     44  C   UNL A   1      38.668  30.971  30.029  1.00  0.00     0.049 A 
ATOM     45  H   UNL A   1      40.656  30.515  30.450  1.00  0.00     0.167 HD
ATOM     46  C   UNL A   1      44.743  29.344  31.446  1.00  0.00     0.037 A 
ATOM     47  C   UNL A   1      38.396  32.148  30.625  1.00  0.00     0.037 A 
ATOM     48  C   UNL A   1      44.574  30.646  32.037  1.00  0.00     0.049 A 
ATOM     49  C   UNL A   1      39.474  32.847  31.409  1.00  0.00     0.074 A 
ATOM     50  C   UNL A   1      45.505  31.413  32.717  1.00  0.00     0.029 A 
ATOM     51  N   UNL A   1      43.394  31.375  32.019  1.00  0.00    -0.354 N 
ATOM     52  N   UNL A   1      40.710  32.474  31.628  1.00  0.00    -0.248 NA
ATOM     53  C   UNL A   1      39.117  34.134  32.021  1.00  0.00     0.031 C 
ATOM     54  C   UNL A   1      44.877  32.585  33.148  1.00  0.00     0.029 A 
ATOM     55  C   UNL A   1      43.568  32.573  32.695  1.00  0.00     0.049 A 
ATOM     56  H   UNL A   1      42.557  31.085  31.590  1.00  0.00     0.167 HD
ATOM     57  C   UNL A   1      41.287  33.490  32.378  1.00  0.00     0.074 A 
ATOM     58  C   UNL A   1      40.269  34.503  32.565  1.00  0.00     0.031 C 
ATOM     59  C   UNL A   1      42.549  33.576  32.867  1.00  0.00     0.037 A 
BRANCH  46  60
ATOM     60  C   UNL A   1      46.068  28.657  31.618  1.00  0.00     0.064 A 
ATOM     61  C   UNL A   1      46.277  27.706  32.627  1.00  0.00     0.173 A 
ATOM     62  C   UNL A   1      47.127  28.922  30.736  1.00  0.00     0.173 A 
ATOM     63  F   UNL A   1      45.300  27.424  33.503  1.00  0.00    -0.203 F 
ATOM     64  C   UNL A   1      47.506  27.066  32.766  1.00  0.00     0.198 A 
ATOM     65  C   UNL A   1      48.345  28.259  30.859  1.00  0.00     0.198 A 
ATOM     66  F   UNL A   1      46.977  29.816  29.748  1.00  0.00    -0.203 F 
ATOM     67  F   UNL A   1      47.698  26.197  33.768  1.00  0.00    -0.200 F 
ATOM     68  C   UNL A   1      48.536  27.337  31.879  1.00  0.00     0.200 A 
ATOM     69  F   UNL A   1      49.335  28.512  29.992  1.00  0.00    -0.200 F 
ATOM     70  F   UNL A   1      49.716  26.715  32.008  1.00  0.00    -0.200 F 
ENDBRANCH  46  60
BRANCH  47  71
ATOM     71  C   UNL A   1      37.044  32.751  30.488  1.00  0.00     0.064 A 
ATOM     72  C   UNL A   1      36.708  33.508  29.356  1.00  0.00     0.173 A 
ATOM     73  C   UNL A   1      36.068  32.593  31.481  1.00  0.00     0.173 A 
ATOM     74  F   UNL A   1      37.616  33.706  28.389  1.00  0.00    -0.203 F 
ATOM     75  C   UNL A   1      35.452  34.097  29.232  1.00  0.00     0.198 A 
ATOM     76  C   UNL A   1      34.803  33.160  31.343  1.00  0.00     0.198 A 
ATOM     77  F   UNL A   1      36.339  31.875  32.581  1.00  0.00    -0.203 F 
ATOM     78  F   UNL A   1      35.171  34.852  28.161  1.00  0.00    -0.200 F 
ATOM     79  C   UNL A   1      34.499  33.919  30.223  1.00  0.00     0.200 A 
ATOM     80  F   UNL A   1      33.880  32.974  32.297  1.00  0.00    -0.200 F 
ATOM     81  F   UNL A   1      33.290  34.484  30.102  1.00  0.00    -0.200 F 
ENDBRANCH  47  71
BRANCH  59  82
ATOM     82  C   UNL A   1      42.911  34.821  33.622  1.00  0.00     0.064 A 
ATOM     83  C   UNL A   1      42.841  34.882  35.021  1.00  0.00     0.173 A 
ATOM     84  C   UNL A   1      43.371  35.957  32.936  1.00  0.00     0.173 A 
ATOM     85  F   UNL A   1      42.392  33.829  35.721  1.00  0.00    -0.203 F 
ATOM     86  C   UNL A   1      43.196  36.042  35.706  1.00  0.00     0.198 A 
ATOM     87  C   UNL A   1      43.752  37.104  33.627  1.00  0.00     0.198 A 
ATOM     88  F   UNL A   1      43.461  35.949  31.599  1.00  0.00    -0.203 F 
ATOM     89  F   UNL A   1      43.076  36.093  37.040  1.00  0.00    -0.200 F 
ATOM     90  C   UNL A   1      43.657  37.149  35.009  1.00  0.00     0.200 A 
ATOM     91  F   UNL A   1      44.210  38.169  32.952  1.00  0.00    -0.200 F 
ATOM     92  F   UNL A   1      44.005  38.261  35.670  1.00  0.00    -0.200 F 
ENDBRANCH  59  82
ENDBRANCH  33  34
ENDBRANCH  25  28
ENDBRANCH  23  24
ENDBRANCH  22  23
ENDBRANCH  21  22
ENDBRANCH   1  21
TORSDOF 16
ENDMDL
MODEL 3
REMARK VINA RESULT:     -11.4      0.659      1.753
REMARK SMILES O=C(CCCCc1nc(-c2ccccc2)no1)NCCCCNC(=O)c1ccc(-c2c3nc(c(-c4c(F)c(F)c(F)c(F)c4F)c4ccc([nH]4)c(-c4c(F)c(F)c(F)c(F)c4F)c4nc(c(-c5c(F)c(F)c(F)c(F)c5F)c5ccc2[nH]5)C=C4)C=C3)cc1
REMARK SMILES IDX 19 1 18 2 1 3 2 4 3 6 4 7 5 8 6 9 7 10 8 11 17 12 9 13 16 14
REMARK SMILES IDX 10 15 11 16 15 17 12 18 14 19 13 20 20 21 21 22 22 23 23 24
REMARK SMILES IDX 24 25 25 27 26 28 27 29 88 30 28 31 87 32 29 33 30 34 31 35
REMARK SMILES IDX 81 36 32 37 86 38 80 39 82 40 33 41 85 42 79 43 78 44 34 46
REMARK SMILES IDX 66 47 46 48 65 49 47 50 50 51 64 52 83 53 48 54 49 55 63 57
REMARK SMILES IDX 84 58 51 59 35 60 36 61 44 62 37 63 38 64 42 65 45 66 39 67
REMARK SMILES IDX 40 68 43 69 41 70 67 71 68 72 76 73 69 74 70 75 74 76 77 77
REMARK SMILES IDX 71 78 72 79 75 80 73 81 52 82 53 83 61 84 54 85 55 86 59 87
REMARK SMILES IDX 62 88 56 89 57 90 60 91 58 92
REMARK H PARENT 18 5 23 26 82 45 50 56
REMARK Flexibility Score: inf
ROOT
ATOM      1  C   UNL A   1      37.389  22.412  24.640  1.00  0.00     0.116 C 
ENDROOT
BRANCH   1   2
ATOM      2  N   UNL A   1      36.490  23.391  25.217  1.00  0.00    -0.356 N 
ATOM      3  O   UNL A   1      35.120  23.556  23.382  1.00  0.00    -0.275 OA
ATOM      4  C   UNL A   1      35.396  23.868  24.535  1.00  0.00     0.219 C 
ATOM      5  H   UNL A   1      36.669  23.725  26.125  1.00  0.00     0.163 HD
BRANCH   4   6
ATOM      6  C   UNL A   1      34.526  24.809  25.344  1.00  0.00     0.100 C 
BRANCH   6   7
ATOM      7  C   UNL A   1      33.690  24.070  26.389  1.00  0.00     0.010 C 
BRANCH   7   8
ATOM      8  C   UNL A   1      32.209  24.475  26.498  1.00  0.00     0.010 C 
BRANCH   8   9
ATOM      9  C   UNL A   1      31.169  23.420  26.107  1.00  0.00     0.100 C 
BRANCH   9  10
ATOM     10  C   UNL A   1      31.631  22.398  25.135  1.00  0.00     0.226 A 
ATOM     11  N   UNL A   1      31.978  21.152  25.358  1.00  0.00    -0.191 NA
ATOM     12  O   UNL A   1      31.730  22.756  23.825  1.00  0.00    -0.339 OA
ATOM     13  C   UNL A   1      32.375  20.729  24.108  1.00  0.00     0.202 A 
ATOM     14  N   UNL A   1      32.237  21.656  23.147  1.00  0.00    -0.057 NA
BRANCH  13  15
ATOM     15  C   UNL A   1      32.927  19.409  23.862  1.00  0.00     0.023 A 
ATOM     16  C   UNL A   1      34.010  18.949  24.626  1.00  0.00     0.012 A 
ATOM     17  C   UNL A   1      32.392  18.588  22.864  1.00  0.00     0.012 A 
ATOM     18  C   UNL A   1      34.552  17.686  24.391  1.00  0.00     0.001 A 
ATOM     19  C   UNL A   1      32.946  17.328  22.620  1.00  0.00     0.001 A 
ATOM     20  C   UNL A   1      34.024  16.879  23.385  1.00  0.00     0.000 A 
ENDBRANCH  13  15
ENDBRANCH   9  10
ENDBRANCH   8   9
ENDBRANCH   7   8
ENDBRANCH   6   7
ENDBRANCH   4   6
ENDBRANCH   1   2
BRANCH   1  21
ATOM     21  C   UNL A   1      36.853  20.988  24.767  1.00  0.00     0.023 C 
BRANCH  21  22
ATOM     22  C   UNL A   1      37.914  19.899  24.959  1.00  0.00     0.023 C 
BRANCH  22  23
ATOM     23  C   UNL A   1      38.999  20.208  25.988  1.00  0.00     0.116 C 
BRANCH  23  24
ATOM     24  N   UNL A   1      40.058  19.212  26.002  1.00  0.00    -0.352 N 
ATOM     25  C   UNL A   1      41.415  19.372  26.126  1.00  0.00     0.251 C 
ATOM     26  H   UNL A   1      39.755  18.279  25.910  1.00  0.00     0.163 HD
ATOM     27  O   UNL A   1      42.159  18.403  25.957  1.00  0.00    -0.269 OA
BRANCH  25  28
ATOM     28  C   UNL A   1      42.004  20.694  26.432  1.00  0.00     0.039 A 
ATOM     29  C   UNL A   1      42.318  21.551  25.373  1.00  0.00     0.014 A 
ATOM     30  C   UNL A   1      42.275  21.086  27.746  1.00  0.00     0.014 A 
ATOM     31  C   UNL A   1      42.836  22.823  25.633  1.00  0.00     0.010 A 
ATOM     32  C   UNL A   1      42.729  22.378  28.008  1.00  0.00     0.010 A 
ATOM     33  C   UNL A   1      43.012  23.263  26.954  1.00  0.00    -0.014 A 
BRANCH  33  34
ATOM     34  C   UNL A   1      43.475  24.644  27.252  1.00  0.00     0.031 A 
ATOM     35  C   UNL A   1      42.520  25.666  27.803  1.00  0.00     0.074 A 
ATOM     36  C   UNL A   1      44.742  24.998  26.965  1.00  0.00     0.049 A 
ATOM     37  N   UNL A   1      42.718  26.938  28.048  1.00  0.00    -0.248 NA
ATOM     38  C   UNL A   1      41.154  25.206  28.091  1.00  0.00     0.031 C 
ATOM     39  C   UNL A   1      45.757  24.114  26.390  1.00  0.00     0.029 A 
ATOM     40  N   UNL A   1      45.390  26.202  27.102  1.00  0.00    -0.354 N 
ATOM     41  C   UNL A   1      41.502  27.429  28.504  1.00  0.00     0.074 A 
ATOM     42  C   UNL A   1      40.559  26.332  28.457  1.00  0.00     0.031 C 
ATOM     43  C   UNL A   1      46.904  24.798  26.240  1.00  0.00     0.029 A 
ATOM     44  C   UNL A   1      46.695  26.177  26.672  1.00  0.00     0.049 A 
ATOM     45  H   UNL A   1      44.961  27.005  27.475  1.00  0.00     0.167 HD
ATOM     46  C   UNL A   1      41.204  28.677  28.942  1.00  0.00     0.037 A 
ATOM     47  C   UNL A   1      47.617  27.158  26.620  1.00  0.00     0.037 A 
ATOM     48  C   UNL A   1      42.148  29.761  29.014  1.00  0.00     0.049 A 
ATOM     49  C   UNL A   1      47.257  28.536  27.105  1.00  0.00     0.074 A 
ATOM     50  C   UNL A   1      41.953  31.043  29.500  1.00  0.00     0.029 A 
ATOM     51  N   UNL A   1      43.465  29.692  28.584  1.00  0.00    -0.354 N 
ATOM     52  N   UNL A   1      46.122  28.970  27.594  1.00  0.00    -0.248 NA
ATOM     53  C   UNL A   1      48.312  29.558  27.037  1.00  0.00     0.031 C 
ATOM     54  C   UNL A   1      43.140  31.763  29.325  1.00  0.00     0.029 A 
ATOM     55  C   UNL A   1      44.088  30.916  28.775  1.00  0.00     0.049 A 
ATOM     56  H   UNL A   1      43.893  28.894  28.201  1.00  0.00     0.167 HD
ATOM     57  C   UNL A   1      46.332  30.305  27.917  1.00  0.00     0.074 A 
ATOM     58  C   UNL A   1      47.708  30.605  27.581  1.00  0.00     0.031 C 
ATOM     59  C   UNL A   1      45.461  31.200  28.445  1.00  0.00     0.037 A 
BRANCH  46  60
ATOM     60  C   UNL A   1      39.792  28.938  29.382  1.00  0.00     0.064 A 
ATOM     61  C   UNL A   1      39.382  28.722  30.707  1.00  0.00     0.173 A 
ATOM     62  C   UNL A   1      38.848  29.453  28.480  1.00  0.00     0.173 A 
ATOM     63  F   UNL A   1      40.243  28.222  31.606  1.00  0.00    -0.203 F 
ATOM     64  C   UNL A   1      38.074  28.982  31.105  1.00  0.00     0.198 A 
ATOM     65  C   UNL A   1      37.548  29.740  28.888  1.00  0.00     0.198 A 
ATOM     66  F   UNL A   1      39.189  29.686  27.204  1.00  0.00    -0.203 F 
ATOM     67  F   UNL A   1      37.693  28.722  32.362  1.00  0.00    -0.200 F 
ATOM     68  C   UNL A   1      37.160  29.498  30.197  1.00  0.00     0.200 A 
ATOM     69  F   UNL A   1      36.670  30.251  28.014  1.00  0.00    -0.200 F 
ATOM     70  F   UNL A   1      35.903  29.756  30.584  1.00  0.00    -0.200 F 
ENDBRANCH  46  60
BRANCH  47  71
ATOM     71  C   UNL A   1      48.980  26.866  26.105  1.00  0.00     0.064 A 
ATOM     72  C   UNL A   1      49.291  27.052  24.750  1.00  0.00     0.173 A 
ATOM     73  C   UNL A   1      49.995  26.392  26.949  1.00  0.00     0.173 A 
ATOM     74  F   UNL A   1      48.347  27.483  23.900  1.00  0.00    -0.203 F 
ATOM     75  C   UNL A   1      50.559  26.756  24.256  1.00  0.00     0.198 A 
ATOM     76  C   UNL A   1      51.271  26.123  26.458  1.00  0.00     0.198 A 
ATOM     77  F   UNL A   1      49.749  26.202  28.253  1.00  0.00    -0.203 F 
ATOM     78  F   UNL A   1      50.817  26.900  22.949  1.00  0.00    -0.200 F 
ATOM     79  C   UNL A   1      51.549  26.297  25.111  1.00  0.00     0.200 A 
ATOM     80  F   UNL A   1      52.228  25.693  27.291  1.00  0.00    -0.200 F 
ATOM     81  F   UNL A   1      52.770  26.016  24.636  1.00  0.00    -0.200 F 
ENDBRANCH  47  71
BRANCH  59  82
ATOM     82  C   UNL A   1      45.979  32.580  28.727  1.00  0.00     0.064 A 
ATOM     83  C   UNL A   1      45.869  33.615  27.786  1.00  0.00     0.173 A 
ATOM     84  C   UNL A   1      46.559  32.880  29.969  1.00  0.00     0.173 A 
ATOM     85  F   UNL A   1      45.338  33.375  26.578  1.00  0.00    -0.203 F 
ATOM     86  C   UNL A   1      46.342  34.893  28.070  1.00  0.00     0.198 A 
ATOM     87  C   UNL A   1      47.004  34.167  30.260  1.00  0.00     0.198 A 
ATOM     88  F   UNL A   1      46.683  31.928  30.905  1.00  0.00    -0.203 F 
ATOM     89  F   UNL A   1      46.269  35.855  27.139  1.00  0.00    -0.200 F 
ATOM     90  C   UNL A   1      46.902  35.170  29.308  1.00  0.00     0.200 A 
ATOM     91  F   UNL A   1      47.534  34.435  31.462  1.00  0.00    -0.200 F 
ATOM     92  F   UNL A   1      47.350  36.403  29.583  1.00  0.00    -0.200 F 
ENDBRANCH  59  82
ENDBRANCH  33  34
ENDBRANCH  25  28
ENDBRANCH  23  24
ENDBRANCH  22  23
ENDBRANCH  21  22
ENDBRANCH   1  21
TORSDOF 16
ENDMDL
