MODEL 1
REMARK VINA RESULT:     -13.5      0.000      0.000
REMARK SMILES Cc1cc(OC(F)(F)F)cc2c1O[C@H](C(F)(F)F)C(C(=O)NCCCCNC(=O)c1ccc(-c3c4nc(c(-c5c(F)c(F)c(F)c(F)c5F)c5ccc([nH]5)c(-c5c(F)c(F)c(F)c(F)c5F)c5nc(c(-c6c(F)c(F)c(F)c(F)c6F)c6ccc3[nH]6)C=C5)C=C4)cc1)=C2
REMARK SMILES IDX 24 1 23 2 22 3 20 4 21 5 19 7 1 8 2 9 3 10 12 11 4 12 11 13
REMARK SMILES IDX 13 14 10 15 93 16 14 17 5 18 6 19 7 20 8 21 9 22 15 23 16 24
REMARK SMILES IDX 17 25 18 26 25 27 26 28 27 29 28 30 29 32 30 33 31 34 92 35
REMARK SMILES IDX 32 36 91 37 33 38 34 39 35 40 85 41 36 42 90 43 84 44 86 45
REMARK SMILES IDX 37 46 89 47 83 48 82 49 38 51 70 52 50 53 69 54 51 55 54 56
REMARK SMILES IDX 68 57 87 58 52 59 53 60 67 62 88 63 55 64 39 65 40 66 48 67
REMARK SMILES IDX 41 68 42 69 46 70 49 71 43 72 44 73 47 74 45 75 71 76 72 77
REMARK SMILES IDX 80 78 73 79 74 80 78 81 81 82 75 83 76 84 79 85 77 86 56 87
REMARK SMILES IDX 57 88 65 89 58 90 59 91 63 92 66 93 60 94 61 95 64 96 62 97
REMARK H PARENT 22 6 27 31 86 50 54 61
REMARK Flexibility Score: inf
ROOT
ATOM      1  C   UNL A   1      31.871  30.408  26.881  1.00  0.00     0.023 C 
ENDROOT
BRANCH   1   2
ATOM      2  C   UNL A   1      33.309  29.901  26.816  1.00  0.00     0.116 C 
BRANCH   2   3
ATOM      3  N   UNL A   1      33.692  29.534  25.465  1.00  0.00    -0.352 N 
ATOM      4  C   UNL A   1      33.651  28.418  24.699  1.00  0.00     0.251 C 
ATOM      5  O   UNL A   1      34.123  28.547  23.565  1.00  0.00    -0.270 OA
ATOM      6  H   UNL A   1      34.083  30.295  24.978  1.00  0.00     0.163 HD
BRANCH   4   7
ATOM      7  C   UNL A   1      33.093  27.100  25.123  1.00  0.00     0.067 C 
ATOM      8  C   UNL A   1      30.282  23.179  26.876  1.00  0.00     0.048 C 
ATOM      9  C   UNL A   1      31.723  23.367  26.491  1.00  0.00    -0.005 A 
ATOM     10  C   UNL A   1      32.611  22.279  26.511  1.00  0.00     0.054 A 
ATOM     11  C   UNL A   1      32.196  24.623  26.090  1.00  0.00     0.131 A 
ATOM     12  C   UNL A   1      33.951  22.445  26.151  1.00  0.00     0.130 A 
ATOM     13  C   UNL A   1      33.531  24.803  25.728  1.00  0.00     0.021 A 
ATOM     14  O   UNL A   1      31.311  25.666  26.112  1.00  0.00    -0.475 OA
ATOM     15  C   UNL A   1      34.403  23.710  25.761  1.00  0.00     0.058 A 
ATOM     16  C   UNL A   1      34.000  26.131  25.354  1.00  0.00     0.025 C 
ATOM     17  C   UNL A   1      31.628  26.793  25.249  1.00  0.00     0.314 C 
BRANCH  12  18
ATOM     18  O   UNL A   1      34.911  21.474  26.136  1.00  0.00    -0.406 OA
BRANCH  18  19
ATOM     19  C   UNL A   1      34.910  20.559  25.053  1.00  0.00     0.573 C 
ATOM     20  F   UNL A   1      36.116  19.967  24.916  1.00  0.00    -0.132 F 
ATOM     21  F   UNL A   1      33.959  19.615  25.214  1.00  0.00    -0.132 F 
ATOM     22  F   UNL A   1      34.643  21.236  23.914  1.00  0.00    -0.132 F 
ENDBRANCH  18  19
ENDBRANCH  12  18
BRANCH  17  23
ATOM     23  C   UNL A   1      30.938  26.599  23.886  1.00  0.00     0.429 C 
ATOM     24  F   UNL A   1      30.598  27.800  23.354  1.00  0.00    -0.167 F 
ATOM     25  F   UNL A   1      31.745  25.996  22.981  1.00  0.00    -0.167 F 
ATOM     26  F   UNL A   1      29.813  25.857  23.968  1.00  0.00    -0.167 F 
ENDBRANCH  17  23
ENDBRANCH   4   7
ENDBRANCH   2   3
ENDBRANCH   1   2
BRANCH   1  27
ATOM     27  C   UNL A   1      31.732  31.922  26.698  1.00  0.00     0.023 C 
BRANCH  27  28
ATOM     28  C   UNL A   1      32.816  32.764  27.370  1.00  0.00     0.116 C 
BRANCH  28  29
ATOM     29  N   UNL A   1      32.407  34.129  27.662  1.00  0.00    -0.352 N 
ATOM     30  C   UNL A   1      32.988  35.000  28.553  1.00  0.00     0.251 C 
ATOM     31  H   UNL A   1      31.626  34.468  27.166  1.00  0.00     0.163 HD
ATOM     32  O   UNL A   1      32.529  36.118  28.751  1.00  0.00    -0.269 OA
BRANCH  30  33
ATOM     33  C   UNL A   1      34.162  34.528  29.305  1.00  0.00     0.039 A 
ATOM     34  C   UNL A   1      33.958  33.895  30.531  1.00  0.00     0.014 A 
ATOM     35  C   UNL A   1      35.434  34.608  28.731  1.00  0.00     0.014 A 
ATOM     36  C   UNL A   1      35.032  33.267  31.157  1.00  0.00     0.010 A 
ATOM     37  C   UNL A   1      36.495  33.948  29.338  1.00  0.00     0.010 A 
ATOM     38  C   UNL A   1      36.297  33.259  30.545  1.00  0.00    -0.014 A 
BRANCH  38  39
ATOM     39  C   UNL A   1      37.421  32.515  31.153  1.00  0.00     0.031 A 
ATOM     40  C   UNL A   1      37.902  32.877  32.524  1.00  0.00     0.074 A 
ATOM     41  C   UNL A   1      38.030  31.544  30.446  1.00  0.00     0.049 A 
ATOM     42  N   UNL A   1      38.877  32.353  33.220  1.00  0.00    -0.248 NA
ATOM     43  C   UNL A   1      37.207  33.987  33.195  1.00  0.00     0.031 C 
ATOM     44  C   UNL A   1      37.668  31.135  29.088  1.00  0.00     0.029 A 
ATOM     45  N   UNL A   1      39.082  30.728  30.772  1.00  0.00    -0.354 N 
ATOM     46  C   UNL A   1      38.910  33.063  34.410  1.00  0.00     0.074 A 
ATOM     47  C   UNL A   1      37.892  34.088  34.324  1.00  0.00     0.031 C 
ATOM     48  C   UNL A   1      38.472  30.129  28.705  1.00  0.00     0.029 A 
ATOM     49  C   UNL A   1      39.414  29.837  29.782  1.00  0.00     0.049 A 
ATOM     50  H   UNL A   1      39.554  30.776  31.635  1.00  0.00     0.167 HD
ATOM     51  C   UNL A   1      39.704  32.860  35.487  1.00  0.00     0.037 A 
ATOM     52  C   UNL A   1      40.366  28.886  29.755  1.00  0.00     0.037 A 
ATOM     53  C   UNL A   1      40.703  31.831  35.574  1.00  0.00     0.049 A 
ATOM     54  C   UNL A   1      41.244  28.690  30.960  1.00  0.00     0.074 A 
ATOM     55  C   UNL A   1      41.528  31.518  36.638  1.00  0.00     0.029 A 
ATOM     56  N   UNL A   1      41.010  30.946  34.551  1.00  0.00    -0.354 N 
ATOM     57  N   UNL A   1      41.229  29.329  32.103  1.00  0.00    -0.248 NA
ATOM     58  C   UNL A   1      42.269  27.639  30.872  1.00  0.00     0.031 C 
ATOM     59  C   UNL A   1      42.355  30.457  36.251  1.00  0.00     0.029 A 
ATOM     60  C   UNL A   1      42.023  30.094  34.955  1.00  0.00     0.049 A 
ATOM     61  H   UNL A   1      40.574  30.928  33.669  1.00  0.00     0.167 HD
ATOM     62  C   UNL A   1      42.218  28.745  32.880  1.00  0.00     0.074 A 
ATOM     63  C   UNL A   1      42.816  27.696  32.079  1.00  0.00     0.031 C 
ATOM     64  C   UNL A   1      42.593  29.049  34.146  1.00  0.00     0.037 A 
BRANCH  51  65
ATOM     65  C   UNL A   1      39.504  33.762  36.665  1.00  0.00     0.064 A 
ATOM     66  C   UNL A   1      38.705  33.370  37.749  1.00  0.00     0.173 A 
ATOM     67  C   UNL A   1      40.139  35.009  36.728  1.00  0.00     0.173 A 
ATOM     68  F   UNL A   1      38.066  32.191  37.725  1.00  0.00    -0.203 F 
ATOM     69  C   UNL A   1      38.533  34.205  38.848  1.00  0.00     0.198 A 
ATOM     70  C   UNL A   1      39.982  35.834  37.838  1.00  0.00     0.198 A 
ATOM     71  F   UNL A   1      40.913  35.426  35.715  1.00  0.00    -0.203 F 
ATOM     72  F   UNL A   1      37.738  33.828  39.857  1.00  0.00    -0.200 F 
ATOM     73  C   UNL A   1      39.176  35.434  38.895  1.00  0.00     0.200 A 
ATOM     74  F   UNL A   1      40.607  37.018  37.885  1.00  0.00    -0.200 F 
ATOM     75  F   UNL A   1      39.013  36.236  39.956  1.00  0.00    -0.200 F 
ENDBRANCH  51  65
BRANCH  52  76
ATOM     76  C   UNL A   1      40.502  28.015  28.562  1.00  0.00     0.064 A 
ATOM     77  C   UNL A   1      39.848  26.777  28.506  1.00  0.00     0.173 A 
ATOM     78  C   UNL A   1      41.265  28.404  27.453  1.00  0.00     0.173 A 
ATOM     79  F   UNL A   1      39.121  26.357  29.552  1.00  0.00    -0.203 F 
ATOM     80  C   UNL A   1      39.958  25.956  27.386  1.00  0.00     0.198 A 
ATOM     81  C   UNL A   1      41.361  27.591  26.326  1.00  0.00     0.198 A 
ATOM     82  F   UNL A   1      41.906  29.583  27.459  1.00  0.00    -0.203 F 
ATOM     83  F   UNL A   1      39.342  24.766  27.367  1.00  0.00    -0.200 F 
ATOM     84  C   UNL A   1      40.710  26.365  26.295  1.00  0.00     0.200 A 
ATOM     85  F   UNL A   1      42.081  27.993  25.270  1.00  0.00    -0.200 F 
ATOM     86  F   UNL A   1      40.811  25.579  25.215  1.00  0.00    -0.200 F 
ENDBRANCH  52  76
BRANCH  64  87
ATOM     87  C   UNL A   1      43.683  28.226  34.759  1.00  0.00     0.064 A 
ATOM     88  C   UNL A   1      45.019  28.646  34.724  1.00  0.00     0.173 A 
ATOM     89  C   UNL A   1      43.373  27.053  35.463  1.00  0.00     0.173 A 
ATOM     90  F   UNL A   1      45.359  29.755  34.051  1.00  0.00    -0.203 F 
ATOM     91  C   UNL A   1      46.011  27.917  35.374  1.00  0.00     0.198 A 
ATOM     92  C   UNL A   1      44.365  26.337  36.126  1.00  0.00     0.198 A 
ATOM     93  F   UNL A   1      42.106  26.617  35.526  1.00  0.00    -0.203 F 
ATOM     94  F   UNL A   1      47.286  28.326  35.316  1.00  0.00    -0.200 F 
ATOM     95  C   UNL A   1      45.682  26.770  36.082  1.00  0.00     0.200 A 
ATOM     96  F   UNL A   1      44.045  25.234  36.817  1.00  0.00    -0.200 F 
ATOM     97  F   UNL A   1      46.636  26.079  36.720  1.00  0.00    -0.200 F 
ENDBRANCH  64  87
ENDBRANCH  38  39
ENDBRANCH  30  33
ENDBRANCH  28  29
ENDBRANCH  27  28
ENDBRANCH   1  27
TORSDOF 14
ENDMDL
MODEL 2
REMARK VINA RESULT:     -13.3      0.292      1.590
REMARK SMILES Cc1cc(OC(F)(F)F)cc2c1O[C@H](C(F)(F)F)C(C(=O)NCCCCNC(=O)c1ccc(-c3c4nc(c(-c5c(F)c(F)c(F)c(F)c5F)c5ccc([nH]5)c(-c5c(F)c(F)c(F)c(F)c5F)c5nc(c(-c6c(F)c(F)c(F)c(F)c6F)c6ccc3[nH]6)C=C5)C=C4)cc1)=C2
REMARK SMILES IDX 24 1 23 2 22 3 20 4 21 5 19 7 1 8 2 9 3 10 12 11 4 12 11 13
REMARK SMILES IDX 13 14 10 15 93 16 14 17 5 18 6 19 7 20 8 21 9 22 15 23 16 24
REMARK SMILES IDX 17 25 18 26 25 27 26 28 27 29 28 30 29 32 30 33 31 34 92 35
REMARK SMILES IDX 32 36 91 37 33 38 34 39 35 40 85 41 36 42 90 43 84 44 86 45
REMARK SMILES IDX 37 46 89 47 83 48 82 49 38 51 70 52 50 53 69 54 51 55 54 56
REMARK SMILES IDX 68 57 87 58 52 59 53 60 67 62 88 63 55 64 39 65 40 66 48 67
REMARK SMILES IDX 41 68 42 69 46 70 49 71 43 72 44 73 47 74 45 75 71 76 72 77
REMARK SMILES IDX 80 78 73 79 74 80 78 81 81 82 75 83 76 84 79 85 77 86 56 87
REMARK SMILES IDX 57 88 65 89 58 90 59 91 63 92 66 93 60 94 61 95 64 96 62 97
REMARK H PARENT 22 6 27 31 86 50 54 61
REMARK Flexibility Score: inf
ROOT
ATOM      1  C   UNL A   1      32.078  30.247  27.110  1.00  0.00     0.023 C 
ENDROOT
BRANCH   1   2
ATOM      2  C   UNL A   1      33.526  29.832  26.866  1.00  0.00     0.116 C 
BRANCH   2   3
ATOM      3  N   UNL A   1      33.768  29.504  25.473  1.00  0.00    -0.352 N 
ATOM      4  C   UNL A   1      33.647  28.410  24.684  1.00  0.00     0.251 C 
ATOM      5  O   UNL A   1      34.000  28.572  23.511  1.00  0.00    -0.270 OA
ATOM      6  H   UNL A   1      34.107  30.279  24.970  1.00  0.00     0.163 HD
BRANCH   4   7
ATOM      7  C   UNL A   1      33.135  27.079  25.126  1.00  0.00     0.067 C 
ATOM      8  C   UNL A   1      30.464  23.088  26.939  1.00  0.00     0.048 C 
ATOM      9  C   UNL A   1      31.896  23.320  26.545  1.00  0.00    -0.005 A 
ATOM     10  C   UNL A   1      32.819  22.262  26.573  1.00  0.00     0.054 A 
ATOM     11  C   UNL A   1      32.325  24.585  26.126  1.00  0.00     0.131 A 
ATOM     12  C   UNL A   1      34.151  22.468  26.205  1.00  0.00     0.130 A 
ATOM     13  C   UNL A   1      33.652  24.805  25.756  1.00  0.00     0.021 A 
ATOM     14  O   UNL A   1      31.406  25.599  26.141  1.00  0.00    -0.475 OA
ATOM     15  C   UNL A   1      34.559  23.743  25.797  1.00  0.00     0.058 A 
ATOM     16  C   UNL A   1      34.075  26.144  25.364  1.00  0.00     0.025 C 
ATOM     17  C   UNL A   1      31.682  26.725  25.263  1.00  0.00     0.314 C 
BRANCH  12  18
ATOM     18  O   UNL A   1      35.143  21.529  26.196  1.00  0.00    -0.406 OA
BRANCH  18  19
ATOM     19  C   UNL A   1      35.468  20.920  24.958  1.00  0.00     0.573 C 
ATOM     20  F   UNL A   1      36.200  19.801  25.143  1.00  0.00    -0.132 F 
ATOM     21  F   UNL A   1      34.355  20.620  24.256  1.00  0.00    -0.132 F 
ATOM     22  F   UNL A   1      36.204  21.787  24.228  1.00  0.00    -0.132 F 
ENDBRANCH  18  19
ENDBRANCH  12  18
BRANCH  17  23
ATOM     23  C   UNL A   1      30.993  26.492  23.906  1.00  0.00     0.429 C 
ATOM     24  F   UNL A   1      30.835  27.669  23.248  1.00  0.00    -0.167 F 
ATOM     25  F   UNL A   1      31.720  25.694  23.088  1.00  0.00    -0.167 F 
ATOM     26  F   UNL A   1      29.772  25.927  24.026  1.00  0.00    -0.167 F 
ENDBRANCH  17  23
ENDBRANCH   4   7
ENDBRANCH   2   3
ENDBRANCH   1   2
BRANCH   1  27
ATOM     27  C   UNL A   1      31.804  31.734  26.867  1.00  0.00     0.023 C 
BRANCH  27  28
ATOM     28  C   UNL A   1      32.916  32.684  27.309  1.00  0.00     0.116 C 
BRANCH  28  29
ATOM     29  N   UNL A   1      32.450  34.020  27.650  1.00  0.00    -0.352 N 
ATOM     30  C   UNL A   1      32.984  34.873  28.587  1.00  0.00     0.251 C 
ATOM     31  H   UNL A   1      31.665  34.349  27.156  1.00  0.00     0.163 HD
ATOM     32  O   UNL A   1      32.479  35.964  28.824  1.00  0.00    -0.269 OA
BRANCH  30  33
ATOM     33  C   UNL A   1      34.163  34.414  29.338  1.00  0.00     0.039 A 
ATOM     34  C   UNL A   1      33.965  33.704  30.523  1.00  0.00     0.014 A 
ATOM     35  C   UNL A   1      35.442  34.584  28.798  1.00  0.00     0.014 A 
ATOM     36  C   UNL A   1      35.055  33.092  31.137  1.00  0.00     0.010 A 
ATOM     37  C   UNL A   1      36.521  33.940  29.393  1.00  0.00     0.010 A 
ATOM     38  C   UNL A   1      36.330  33.177  30.555  1.00  0.00    -0.014 A 
BRANCH  38  39
ATOM     39  C   UNL A   1      37.475  32.452  31.146  1.00  0.00     0.031 A 
ATOM     40  C   UNL A   1      37.975  32.827  32.508  1.00  0.00     0.074 A 
ATOM     41  C   UNL A   1      38.087  31.488  30.433  1.00  0.00     0.049 A 
ATOM     42  N   UNL A   1      38.969  32.320  33.189  1.00  0.00    -0.248 NA
ATOM     43  C   UNL A   1      37.274  33.929  33.186  1.00  0.00     0.031 C 
ATOM     44  C   UNL A   1      37.709  31.068  29.083  1.00  0.00     0.029 A 
ATOM     45  N   UNL A   1      39.157  30.689  30.744  1.00  0.00    -0.354 N 
ATOM     46  C   UNL A   1      39.011  33.036  34.376  1.00  0.00     0.074 A 
ATOM     47  C   UNL A   1      37.977  34.044  34.304  1.00  0.00     0.031 C 
ATOM     48  C   UNL A   1      38.521  30.073  28.690  1.00  0.00     0.029 A 
ATOM     49  C   UNL A   1      39.486  29.799  29.752  1.00  0.00     0.049 A 
ATOM     50  H   UNL A   1      39.643  30.748  31.598  1.00  0.00     0.167 HD
ATOM     51  C   UNL A   1      39.826  32.848  35.439  1.00  0.00     0.037 A 
ATOM     52  C   UNL A   1      40.452  28.863  29.712  1.00  0.00     0.037 A 
ATOM     53  C   UNL A   1      40.842  31.836  35.514  1.00  0.00     0.049 A 
ATOM     54  C   UNL A   1      41.353  28.685  30.902  1.00  0.00     0.074 A 
ATOM     55  C   UNL A   1      41.690  31.539  36.565  1.00  0.00     0.029 A 
ATOM     56  N   UNL A   1      41.146  30.951  34.488  1.00  0.00    -0.354 N 
ATOM     57  N   UNL A   1      41.347  29.328  32.043  1.00  0.00    -0.248 NA
ATOM     58  C   UNL A   1      42.391  27.649  30.801  1.00  0.00     0.031 C 
ATOM     59  C   UNL A   1      42.526  30.489  36.168  1.00  0.00     0.029 A 
ATOM     60  C   UNL A   1      42.178  30.116  34.879  1.00  0.00     0.049 A 
ATOM     61  H   UNL A   1      40.694  30.922  33.614  1.00  0.00     0.167 HD
ATOM     62  C   UNL A   1      42.358  28.762  32.806  1.00  0.00     0.074 A 
ATOM     63  C   UNL A   1      42.958  27.719  31.998  1.00  0.00     0.031 C 
ATOM     64  C   UNL A   1      42.750  29.077  34.063  1.00  0.00     0.037 A 
BRANCH  51  65
ATOM     65  C   UNL A   1      39.633  33.752  36.617  1.00  0.00     0.064 A 
ATOM     66  C   UNL A   1      40.230  35.020  36.663  1.00  0.00     0.173 A 
ATOM     67  C   UNL A   1      38.821  33.364  37.692  1.00  0.00     0.173 A 
ATOM     68  F   UNL A   1      41.028  35.427  35.663  1.00  0.00    -0.203 F 
ATOM     69  C   UNL A   1      40.037  35.862  37.753  1.00  0.00     0.198 A 
ATOM     70  C   UNL A   1      38.612  34.217  38.772  1.00  0.00     0.198 A 
ATOM     71  F   UNL A   1      38.228  32.161  37.692  1.00  0.00    -0.203 F 
ATOM     72  F   UNL A   1      40.645  37.055  37.793  1.00  0.00    -0.200 F 
ATOM     73  C   UNL A   1      39.224  35.463  38.805  1.00  0.00     0.200 A 
ATOM     74  F   UNL A   1      37.823  33.835  39.784  1.00  0.00    -0.200 F 
ATOM     75  F   UNL A   1      39.035  36.276  39.852  1.00  0.00    -0.200 F 
ENDBRANCH  51  65
BRANCH  52  76
ATOM     76  C   UNL A   1      40.581  27.989  28.520  1.00  0.00     0.064 A 
ATOM     77  C   UNL A   1      39.936  26.746  28.476  1.00  0.00     0.173 A 
ATOM     78  C   UNL A   1      41.327  28.381  27.401  1.00  0.00     0.173 A 
ATOM     79  F   UNL A   1      39.224  26.323  29.531  1.00  0.00    -0.203 F 
ATOM     80  C   UNL A   1      40.039  25.922  27.357  1.00  0.00     0.198 A 
ATOM     81  C   UNL A   1      41.416  27.565  26.276  1.00  0.00     0.198 A 
ATOM     82  F   UNL A   1      41.958  29.565  27.396  1.00  0.00    -0.203 F 
ATOM     83  F   UNL A   1      39.432  24.727  27.348  1.00  0.00    -0.200 F 
ATOM     84  C   UNL A   1      40.775  26.334  26.256  1.00  0.00     0.200 A 
ATOM     85  F   UNL A   1      42.121  27.970  25.210  1.00  0.00    -0.200 F 
ATOM     86  F   UNL A   1      40.870  25.545  25.177  1.00  0.00    -0.200 F 
ENDBRANCH  52  76
BRANCH  64  87
ATOM     87  C   UNL A   1      43.862  28.273  34.662  1.00  0.00     0.064 A 
ATOM     88  C   UNL A   1      43.612  27.063  35.322  1.00  0.00     0.173 A 
ATOM     89  C   UNL A   1      45.196  28.675  34.494  1.00  0.00     0.173 A 
ATOM     90  F   UNL A   1      42.351  26.648  35.514  1.00  0.00    -0.203 F 
ATOM     91  C   UNL A   1      44.661  26.281  35.797  1.00  0.00     0.198 A 
ATOM     92  C   UNL A   1      46.242  27.883  34.955  1.00  0.00     0.198 A 
ATOM     93  F   UNL A   1      45.481  29.824  33.864  1.00  0.00    -0.203 F 
ATOM     94  F   UNL A   1      44.402  25.134  36.440  1.00  0.00    -0.200 F 
ATOM     95  C   UNL A   1      45.975  26.686  35.604  1.00  0.00     0.200 A 
ATOM     96  F   UNL A   1      47.510  28.270  34.761  1.00  0.00    -0.200 F 
ATOM     97  F   UNL A   1      46.983  25.924  36.048  1.00  0.00    -0.200 F 
ENDBRANCH  64  87
ENDBRANCH  38  39
ENDBRANCH  30  33
ENDBRANCH  28  29
ENDBRANCH  27  28
ENDBRANCH   1  27
TORSDOF 14
ENDMDL
MODEL 3
REMARK VINA RESULT:     -13.3      5.315     10.636
REMARK SMILES Cc1cc(OC(F)(F)F)cc2c1O[C@H](C(F)(F)F)C(C(=O)NCCCCNC(=O)c1ccc(-c3c4nc(c(-c5c(F)c(F)c(F)c(F)c5F)c5ccc([nH]5)c(-c5c(F)c(F)c(F)c(F)c5F)c5nc(c(-c6c(F)c(F)c(F)c(F)c6F)c6ccc3[nH]6)C=C5)C=C4)cc1)=C2
REMARK SMILES IDX 24 1 23 2 22 3 20 4 21 5 19 7 1 8 2 9 3 10 12 11 4 12 11 13
REMARK SMILES IDX 13 14 10 15 93 16 14 17 5 18 6 19 7 20 8 21 9 22 15 23 16 24
REMARK SMILES IDX 17 25 18 26 25 27 26 28 27 29 28 30 29 32 30 33 31 34 92 35
REMARK SMILES IDX 32 36 91 37 33 38 34 39 35 40 85 41 36 42 90 43 84 44 86 45
REMARK SMILES IDX 37 46 89 47 83 48 82 49 38 51 70 52 50 53 69 54 51 55 54 56
REMARK SMILES IDX 68 57 87 58 52 59 53 60 67 62 88 63 55 64 39 65 40 66 48 67
REMARK SMILES IDX 41 68 42 69 46 70 49 71 43 72 44 73 47 74 45 75 71 76 72 77
REMARK SMILES IDX 80 78 73 79 74 80 78 81 81 82 75 83 76 84 79 85 77 86 56 87
REMARK SMILES IDX 57 88 65 89 58 90 59 91 63 92 66 93 60 94 61 95 64 96 62 97
REMARK H PARENT 22 6 27 31 86 50 54 61
REMARK Flexibility Score: inf
ROOT
ATOM      1  C   UNL A   1      39.279  22.751  26.409  1.00  0.00     0.023 C 
ENDROOT
BRANCH   1   2
ATOM      2  C   UNL A   1      38.074  23.589  25.992  1.00  0.00     0.116 C 
BRANCH   2   3
ATOM      3  N   UNL A   1      37.672  23.316  24.625  1.00  0.00    -0.352 N 
ATOM      4  C   UNL A   1      36.508  23.252  23.935  1.00  0.00     0.251 C 
ATOM      5  O   UNL A   1      36.625  22.953  22.742  1.00  0.00    -0.270 OA
ATOM      6  H   UNL A   1      38.447  23.130  24.048  1.00  0.00     0.163 HD
BRANCH   4   7
ATOM      7  C   UNL A   1      35.152  23.509  24.504  1.00  0.00     0.067 C 
ATOM      8  C   UNL A   1      30.328  23.305  26.248  1.00  0.00     0.048 C 
ATOM      9  C   UNL A   1      31.291  24.408  25.907  1.00  0.00    -0.005 A 
ATOM     10  C   UNL A   1      30.939  25.750  26.126  1.00  0.00     0.054 A 
ATOM     11  C   UNL A   1      32.557  24.114  25.385  1.00  0.00     0.131 A 
ATOM     12  C   UNL A   1      31.830  26.781  25.815  1.00  0.00     0.130 A 
ATOM     13  C   UNL A   1      33.456  25.134  25.070  1.00  0.00     0.021 A 
ATOM     14  O   UNL A   1      32.854  22.799  25.156  1.00  0.00    -0.475 OA
ATOM     15  C   UNL A   1      33.086  26.464  25.288  1.00  0.00     0.058 A 
ATOM     16  C   UNL A   1      34.750  24.795  24.491  1.00  0.00     0.025 C 
ATOM     17  C   UNL A   1      34.267  22.460  25.114  1.00  0.00     0.314 C 
BRANCH  12  18
ATOM     18  O   UNL A   1      31.606  28.119  25.973  1.00  0.00    -0.406 OA
BRANCH  18  19
ATOM     19  C   UNL A   1      31.898  28.695  27.235  1.00  0.00     0.573 C 
ATOM     20  F   UNL A   1      33.148  28.380  27.636  1.00  0.00    -0.132 F 
ATOM     21  F   UNL A   1      31.759  30.037  27.202  1.00  0.00    -0.132 F 
ATOM     22  F   UNL A   1      31.029  28.204  28.147  1.00  0.00    -0.132 F 
ENDBRANCH  18  19
ENDBRANCH  12  18
BRANCH  17  23
ATOM     23  C   UNL A   1      34.729  22.032  26.520  1.00  0.00     0.429 C 
ATOM     24  F   UNL A   1      35.065  23.121  27.258  1.00  0.00    -0.167 F 
ATOM     25  F   UNL A   1      33.757  21.390  27.210  1.00  0.00    -0.167 F 
ATOM     26  F   UNL A   1      35.802  21.213  26.493  1.00  0.00    -0.167 F 
ENDBRANCH  17  23
ENDBRANCH   4   7
ENDBRANCH   2   3
ENDBRANCH   1   2
BRANCH   1  27
ATOM     27  C   UNL A   1      39.326  21.361  25.767  1.00  0.00     0.023 C 
BRANCH  27  28
ATOM     28  C   UNL A   1      39.708  20.219  26.707  1.00  0.00     0.116 C 
BRANCH  28  29
ATOM     29  N   UNL A   1      40.637  19.261  26.126  1.00  0.00    -0.352 N 
ATOM     30  C   UNL A   1      41.986  19.429  25.923  1.00  0.00     0.251 C 
ATOM     31  H   UNL A   1      40.257  18.397  25.846  1.00  0.00     0.163 HD
ATOM     32  O   UNL A   1      42.667  18.566  25.381  1.00  0.00    -0.269 OA
BRANCH  30  33
ATOM     33  C   UNL A   1      42.588  20.706  26.337  1.00  0.00     0.039 A 
ATOM     34  C   UNL A   1      42.989  21.606  25.350  1.00  0.00     0.014 A 
ATOM     35  C   UNL A   1      42.633  21.047  27.693  1.00  0.00     0.014 A 
ATOM     36  C   UNL A   1      43.371  22.894  25.720  1.00  0.00     0.010 A 
ATOM     37  C   UNL A   1      42.978  22.344  28.055  1.00  0.00     0.010 A 
ATOM     38  C   UNL A   1      43.332  23.279  27.070  1.00  0.00    -0.014 A 
BRANCH  38  39
ATOM     39  C   UNL A   1      43.643  24.669  27.463  1.00  0.00     0.031 A 
ATOM     40  C   UNL A   1      45.068  25.128  27.523  1.00  0.00     0.074 A 
ATOM     41  C   UNL A   1      42.641  25.500  27.808  1.00  0.00     0.049 A 
ATOM     42  N   UNL A   1      45.543  26.301  27.855  1.00  0.00    -0.248 NA
ATOM     43  C   UNL A   1      46.095  24.133  27.180  1.00  0.00     0.031 C 
ATOM     44  C   UNL A   1      41.220  25.146  27.823  1.00  0.00     0.029 A 
ATOM     45  N   UNL A   1      42.664  26.809  28.213  1.00  0.00    -0.354 N 
ATOM     46  C   UNL A   1      46.921  26.186  27.756  1.00  0.00     0.074 A 
ATOM     47  C   UNL A   1      47.211  24.819  27.382  1.00  0.00     0.031 C 
ATOM     48  C   UNL A   1      40.506  26.221  28.197  1.00  0.00     0.029 A 
ATOM     49  C   UNL A   1      41.419  27.329  28.464  1.00  0.00     0.049 A 
ATOM     50  H   UNL A   1      43.495  27.327  28.314  1.00  0.00     0.167 HD
ATOM     51  C   UNL A   1      47.857  27.146  27.938  1.00  0.00     0.037 A 
ATOM     52  C   UNL A   1      41.058  28.565  28.856  1.00  0.00     0.037 A 
ATOM     53  C   UNL A   1      47.564  28.506  28.295  1.00  0.00     0.049 A 
ATOM     54  C   UNL A   1      42.120  29.609  29.065  1.00  0.00     0.074 A 
ATOM     55  C   UNL A   1      48.441  29.563  28.461  1.00  0.00     0.029 A 
ATOM     56  N   UNL A   1      46.290  28.997  28.540  1.00  0.00    -0.354 N 
ATOM     57  N   UNL A   1      43.416  29.507  28.913  1.00  0.00    -0.248 NA
ATOM     58  C   UNL A   1      41.668  30.940  29.496  1.00  0.00     0.031 C 
ATOM     59  C   UNL A   1      47.699  30.690  28.831  1.00  0.00     0.029 A 
ATOM     60  C   UNL A   1      46.358  30.340  28.869  1.00  0.00     0.049 A 
ATOM     61  H   UNL A   1      45.461  28.469  28.489  1.00  0.00     0.167 HD
ATOM     62  C   UNL A   1      43.935  30.761  29.202  1.00  0.00     0.074 A 
ATOM     63  C   UNL A   1      42.811  31.611  29.538  1.00  0.00     0.031 C 
ATOM     64  C   UNL A   1      45.226  31.169  29.186  1.00  0.00     0.037 A 
BRANCH  51  65
ATOM     65  C   UNL A   1      49.287  26.755  27.734  1.00  0.00     0.064 A 
ATOM     66  C   UNL A   1      49.836  26.665  26.446  1.00  0.00     0.173 A 
ATOM     67  C   UNL A   1      50.124  26.500  28.829  1.00  0.00     0.173 A 
ATOM     68  F   UNL A   1      49.068  26.885  25.368  1.00  0.00    -0.203 F 
ATOM     69  C   UNL A   1      51.170  26.314  26.261  1.00  0.00     0.198 A 
ATOM     70  C   UNL A   1      51.463  26.170  28.641  1.00  0.00     0.198 A 
ATOM     71  F   UNL A   1      49.644  26.574  30.078  1.00  0.00    -0.203 F 
ATOM     72  F   UNL A   1      51.665  26.199  25.021  1.00  0.00    -0.200 F 
ATOM     73  C   UNL A   1      51.984  26.072  27.358  1.00  0.00     0.200 A 
ATOM     74  F   UNL A   1      52.251  25.942  29.700  1.00  0.00    -0.200 F 
ATOM     75  F   UNL A   1      53.269  25.739  27.179  1.00  0.00    -0.200 F 
ENDBRANCH  51  65
BRANCH  52  76
ATOM     76  C   UNL A   1      39.622  28.893  29.027  1.00  0.00     0.064 A 
ATOM     77  C   UNL A   1      38.858  29.333  27.937  1.00  0.00     0.173 A 
ATOM     78  C   UNL A   1      38.981  28.758  30.265  1.00  0.00     0.173 A 
ATOM     79  F   UNL A   1      39.434  29.493  26.737  1.00  0.00    -0.203 F 
ATOM     80  C   UNL A   1      37.504  29.632  28.082  1.00  0.00     0.198 A 
ATOM     81  C   UNL A   1      37.624  29.041  30.406  1.00  0.00     0.198 A 
ATOM     82  F   UNL A   1      39.671  28.336  31.336  1.00  0.00    -0.203 F 
ATOM     83  F   UNL A   1      36.801  30.073  27.030  1.00  0.00    -0.200 F 
ATOM     84  C   UNL A   1      36.888  29.481  29.315  1.00  0.00     0.200 A 
ATOM     85  F   UNL A   1      37.028  28.885  31.597  1.00  0.00    -0.200 F 
ATOM     86  F   UNL A   1      35.585  29.762  29.453  1.00  0.00    -0.200 F 
ENDBRANCH  52  76
BRANCH  64  87
ATOM     87  C   UNL A   1      45.500  32.604  29.516  1.00  0.00     0.064 A 
ATOM     88  C   UNL A   1      45.831  33.001  30.818  1.00  0.00     0.173 A 
ATOM     89  C   UNL A   1      45.518  33.573  28.501  1.00  0.00     0.173 A 
ATOM     90  F   UNL A   1      45.813  32.109  31.820  1.00  0.00    -0.203 F 
ATOM     91  C   UNL A   1      46.169  34.322  31.095  1.00  0.00     0.198 A 
ATOM     92  C   UNL A   1      45.874  34.888  28.778  1.00  0.00     0.198 A 
ATOM     93  F   UNL A   1      45.212  33.236  27.239  1.00  0.00    -0.203 F 
ATOM     94  F   UNL A   1      46.467  34.686  32.350  1.00  0.00    -0.200 F 
ATOM     95  C   UNL A   1      46.200  35.262  30.074  1.00  0.00     0.200 A 
ATOM     96  F   UNL A   1      45.912  35.794  27.791  1.00  0.00    -0.200 F 
ATOM     97  F   UNL A   1      46.543  36.530  30.340  1.00  0.00    -0.200 F 
ENDBRANCH  64  87
ENDBRANCH  38  39
ENDBRANCH  30  33
ENDBRANCH  28  29
ENDBRANCH  27  28
ENDBRANCH   1  27
TORSDOF 14
ENDMDL
