MODEL 1
REMARK VINA RESULT:     -13.8      0.000      0.000
REMARK SMILES Cc1ccc(S(=O)(=O)n2cc(C(=O)C(=O)N[C@H](Cc3c[nH]c4ccccc34)C(=O)NCC(=O)NCCCCNC(=O)c3ccc(-c4c5nc(c(-c6c(F)c(F)c(F)c(F)c6F)c6ccc([nH]6)c(-c6c(F)c(F)c(F)c(F)c6F)c6nc(c(-c7c(F)c(F)c(F)c(F)c7F)c7ccc4[nH]7)C=C6)C=C5)cc3)c3ccccc32)cc1
REMARK SMILES IDX 32 1 33 2 34 3 31 5 30 6 28 7 29 8 17 10 16 11 14 12 15 13
REMARK SMILES IDX 12 15 13 16 11 17 9 18 10 19 110 20 105 21 109 22 106 23
REMARK SMILES IDX 108 24 107 25 6 26 7 27 8 28 5 29 1 30 2 31 3 32 112 33 4 34
REMARK SMILES IDX 111 35 18 36 19 37 20 38 27 39 21 40 22 41 26 42 23 44 25 45
REMARK SMILES IDX 24 46 35 47 36 48 37 49 38 50 39 51 40 52 41 54 42 55 43 56
REMARK SMILES IDX 104 57 44 58 103 59 45 60 46 61 47 62 97 63 48 64 102 65
REMARK SMILES IDX 96 66 98 67 49 68 101 69 95 70 94 71 50 73 82 74 62 75 81 76
REMARK SMILES IDX 63 77 66 78 80 79 99 80 64 81 65 82 79 84 100 85 67 86 51 87
REMARK SMILES IDX 52 88 60 89 53 90 54 91 58 92 61 93 55 94 56 95 59 96 57 97
REMARK SMILES IDX 83 98 84 99 92 100 85 101 86 102 90 103 93 104 87 105 88 106
REMARK SMILES IDX 91 107 89 108 68 109 69 110 77 111 70 112 71 113 75 114
REMARK SMILES IDX 78 115 72 116 73 117 76 118 74 119
REMARK H PARENT 34 4 30 9 16 14 21 43 39 53 98 72 66 83
REMARK Flexibility Score: inf
ROOT
ATOM      1  C   UNL A   1      32.226  32.320  27.105  1.00  0.00     0.239 C 
ATOM      2  O   UNL A   1      31.016  32.090  27.215  1.00  0.00    -0.273 OA
ATOM      3  N   UNL A   1      32.705  33.413  27.766  1.00  0.00    -0.355 N 
ATOM      4  H   UNL A   1      32.013  34.006  28.136  1.00  0.00     0.163 HD
ENDROOT
BRANCH   1   5
ATOM      5  C   UNL A   1      33.128  31.307  26.378  1.00  0.00     0.216 C 
BRANCH   5   6
ATOM      6  N   UNL A   1      33.340  30.041  27.036  1.00  0.00    -0.345 N 
ATOM      7  C   UNL A   1      32.811  28.806  26.906  1.00  0.00     0.243 C 
ATOM      8  O   UNL A   1      33.403  27.948  27.576  1.00  0.00    -0.273 OA
ATOM      9  H   UNL A   1      34.027  30.087  27.740  1.00  0.00     0.164 HD
BRANCH   7  10
ATOM     10  C   UNL A   1      31.557  28.391  26.072  1.00  0.00     0.176 C 
BRANCH  10  11
ATOM     11  N   UNL A   1      30.624  27.319  26.558  1.00  0.00    -0.337 N 
ATOM     12  C   UNL A   1      30.307  26.032  26.148  1.00  0.00     0.293 C 
ATOM     13  O   UNL A   1      29.397  25.427  26.705  1.00  0.00    -0.265 OA
ATOM     14  H   UNL A   1      30.118  27.596  27.356  1.00  0.00     0.164 HD
BRANCH  12  15
ATOM     15  C   UNL A   1      31.099  25.351  25.031  1.00  0.00     0.252 C 
ATOM     16  O   UNL A   1      30.486  25.216  23.970  1.00  0.00    -0.283 OA
BRANCH  15  17
ATOM     17  C   UNL A   1      32.484  24.854  25.124  1.00  0.00     0.054 A 
ATOM     18  N   UNL A   1      34.677  24.331  24.969  1.00  0.00    -0.240 N 
ATOM     19  C   UNL A   1      33.673  25.181  24.469  1.00  0.00     0.117 A 
ATOM     20  C   UNL A   1      34.215  23.844  26.191  1.00  0.00     0.065 A 
ATOM     21  C   UNL A   1      32.837  23.790  26.016  1.00  0.00     0.012 A 
ATOM     22  C   UNL A   1      34.855  23.197  27.258  1.00  0.00     0.028 A 
ATOM     23  C   UNL A   1      32.111  22.821  26.730  1.00  0.00     0.011 A 
ATOM     24  C   UNL A   1      34.086  22.288  28.000  1.00  0.00     0.002 A 
ATOM     25  C   UNL A   1      32.753  22.044  27.687  1.00  0.00     0.001 A 
BRANCH  18  26
ATOM     26  S   UNL A   1      35.377  23.078  23.905  1.00  0.00     0.268 S 
ATOM     27  O   UNL A   1      36.724  22.877  24.403  1.00  0.00    -0.201 OA
ATOM     28  O   UNL A   1      35.134  23.560  22.554  1.00  0.00    -0.201 OA
BRANCH  26  29
ATOM     29  C   UNL A   1      34.537  21.519  24.003  1.00  0.00     0.088 A 
ATOM     30  C   UNL A   1      32.486  17.911  25.196  1.00  0.00     0.044 C 
ATOM     31  C   UNL A   1      33.190  19.162  24.751  1.00  0.00    -0.051 A 
ATOM     32  C   UNL A   1      34.521  19.350  25.118  1.00  0.00     0.005 A 
ATOM     33  C   UNL A   1      32.551  20.148  23.975  1.00  0.00     0.005 A 
ATOM     34  C   UNL A   1      35.185  20.517  24.751  1.00  0.00     0.022 A 
ATOM     35  C   UNL A   1      33.215  21.335  23.606  1.00  0.00     0.022 A 
ENDBRANCH  26  29
ENDBRANCH  18  26
ENDBRANCH  15  17
ENDBRANCH  12  15
ENDBRANCH  10  11
BRANCH  10  36
ATOM     36  C   UNL A   1      31.640  28.538  24.517  1.00  0.00     0.072 C 
BRANCH  36  37
ATOM     37  C   UNL A   1      30.390  28.838  23.720  1.00  0.00    -0.020 A 
ATOM     38  C   UNL A   1      29.668  27.911  22.983  1.00  0.00     0.087 A 
ATOM     39  C   UNL A   1      29.660  30.077  23.623  1.00  0.00     0.003 A 
ATOM     40  N   UNL A   1      28.602  28.545  22.405  1.00  0.00    -0.361 N 
ATOM     41  C   UNL A   1      28.595  29.873  22.745  1.00  0.00     0.046 A 
ATOM     42  C   UNL A   1      29.815  31.369  24.170  1.00  0.00     0.010 A 
ATOM     43  H   UNL A   1      27.935  28.110  21.827  1.00  0.00     0.166 HD
ATOM     44  C   UNL A   1      27.725  30.892  22.335  1.00  0.00     0.026 A 
ATOM     45  C   UNL A   1      28.950  32.402  23.778  1.00  0.00     0.001 A 
ATOM     46  C   UNL A   1      27.928  32.166  22.862  1.00  0.00     0.002 A 
ENDBRANCH  36  37
ENDBRANCH  10  36
ENDBRANCH   7  10
ENDBRANCH   5   6
ENDBRANCH   1   5
BRANCH   3  47
ATOM     47  C   UNL A   1      34.069  33.843  28.013  1.00  0.00     0.116 C 
BRANCH  47  48
ATOM     48  C   UNL A   1      34.160  35.301  28.459  1.00  0.00     0.023 C 
BRANCH  48  49
ATOM     49  C   UNL A   1      32.862  35.910  29.001  1.00  0.00     0.023 C 
BRANCH  49  50
ATOM     50  C   UNL A   1      32.836  36.244  30.483  1.00  0.00     0.116 C 
BRANCH  50  51
ATOM     51  N   UNL A   1      34.115  36.186  31.167  1.00  0.00    -0.352 N 
ATOM     52  C   UNL A   1      34.145  35.734  32.489  1.00  0.00     0.251 C 
ATOM     53  H   UNL A   1      34.944  36.460  30.710  1.00  0.00     0.163 HD
ATOM     54  O   UNL A   1      33.656  36.277  33.452  1.00  0.00    -0.269 OA
BRANCH  52  55
ATOM     55  C   UNL A   1      34.724  34.373  32.548  1.00  0.00     0.039 A 
ATOM     56  C   UNL A   1      35.019  33.736  33.753  1.00  0.00     0.014 A 
ATOM     57  C   UNL A   1      35.277  33.951  31.338  1.00  0.00     0.014 A 
ATOM     58  C   UNL A   1      36.023  32.762  33.759  1.00  0.00     0.010 A 
ATOM     59  C   UNL A   1      36.328  33.073  31.368  1.00  0.00     0.010 A 
ATOM     60  C   UNL A   1      36.736  32.508  32.582  1.00  0.00    -0.014 A 
BRANCH  60  61
ATOM     61  C   UNL A   1      38.018  31.809  32.500  1.00  0.00     0.031 A 
ATOM     62  C   UNL A   1      38.129  30.521  31.772  1.00  0.00     0.074 A 
ATOM     63  C   UNL A   1      39.131  32.526  32.779  1.00  0.00     0.049 A 
ATOM     64  N   UNL A   1      39.202  29.808  31.692  1.00  0.00    -0.248 NA
ATOM     65  C   UNL A   1      36.994  29.905  31.093  1.00  0.00     0.031 C 
ATOM     66  C   UNL A   1      40.480  32.293  32.271  1.00  0.00     0.029 A 
ATOM     67  N   UNL A   1      39.297  33.526  33.756  1.00  0.00    -0.354 N 
ATOM     68  C   UNL A   1      39.004  28.846  30.722  1.00  0.00     0.074 A 
ATOM     69  C   UNL A   1      37.588  28.890  30.460  1.00  0.00     0.031 C 
ATOM     70  C   UNL A   1      41.361  32.858  33.109  1.00  0.00     0.029 A 
ATOM     71  C   UNL A   1      40.607  33.321  34.259  1.00  0.00     0.049 A 
ATOM     72  H   UNL A   1      38.647  34.214  34.030  1.00  0.00     0.167 HD
ATOM     73  C   UNL A   1      40.099  28.240  30.172  1.00  0.00     0.037 A 
ATOM     74  C   UNL A   1      40.824  32.906  35.540  1.00  0.00     0.037 A 
ATOM     75  C   UNL A   1      41.307  28.562  30.939  1.00  0.00     0.049 A 
ATOM     76  C   UNL A   1      41.589  31.609  35.664  1.00  0.00     0.074 A 
ATOM     77  C   UNL A   1      42.381  29.410  30.721  1.00  0.00     0.029 A 
ATOM     78  N   UNL A   1      41.384  28.171  32.273  1.00  0.00    -0.354 N 
ATOM     79  N   UNL A   1      41.754  30.766  34.684  1.00  0.00    -0.248 NA
ATOM     80  C   UNL A   1      42.188  31.137  36.910  1.00  0.00     0.031 C 
ATOM     81  C   UNL A   1      43.071  29.574  31.950  1.00  0.00     0.029 A 
ATOM     82  C   UNL A   1      42.426  28.814  32.910  1.00  0.00     0.049 A 
ATOM     83  H   UNL A   1      40.778  27.526  32.703  1.00  0.00     0.167 HD
ATOM     84  C   UNL A   1      42.423  29.660  35.138  1.00  0.00     0.074 A 
ATOM     85  C   UNL A   1      42.697  29.951  36.532  1.00  0.00     0.031 C 
ATOM     86  C   UNL A   1      42.675  28.591  34.326  1.00  0.00     0.037 A 
BRANCH  73  87
ATOM     87  C   UNL A   1      40.150  27.572  28.799  1.00  0.00     0.064 A 
ATOM     88  C   UNL A   1      39.621  26.271  28.615  1.00  0.00     0.173 A 
ATOM     89  C   UNL A   1      40.777  28.093  27.650  1.00  0.00     0.173 A 
ATOM     90  F   UNL A   1      38.902  25.664  29.568  1.00  0.00    -0.203 F 
ATOM     91  C   UNL A   1      39.807  25.529  27.441  1.00  0.00     0.198 A 
ATOM     92  C   UNL A   1      40.985  27.345  26.484  1.00  0.00     0.198 A 
ATOM     93  F   UNL A   1      41.176  29.362  27.572  1.00  0.00    -0.203 F 
ATOM     94  F   UNL A   1      39.305  24.290  27.351  1.00  0.00    -0.200 F 
ATOM     95  C   UNL A   1      40.515  26.056  26.384  1.00  0.00     0.200 A 
ATOM     96  F   UNL A   1      41.648  27.896  25.457  1.00  0.00    -0.200 F 
ATOM     97  F   UNL A   1      40.722  25.340  25.272  1.00  0.00    -0.200 F 
ENDBRANCH  73  87
BRANCH  74  98
ATOM     98  C   UNL A   1      39.785  33.378  36.489  1.00  0.00     0.064 A 
ATOM     99  C   UNL A   1      38.762  32.483  36.857  1.00  0.00     0.173 A 
ATOM    100  C   UNL A   1      39.996  34.497  37.304  1.00  0.00     0.173 A 
ATOM    101  F   UNL A   1      38.531  31.392  36.112  1.00  0.00    -0.203 F 
ATOM    102  C   UNL A   1      38.056  32.643  38.047  1.00  0.00     0.198 A 
ATOM    103  C   UNL A   1      39.280  34.657  38.492  1.00  0.00     0.198 A 
ATOM    104  F   UNL A   1      40.975  35.367  37.021  1.00  0.00    -0.203 F 
ATOM    105  F   UNL A   1      37.161  31.720  38.424  1.00  0.00    -0.200 F 
ATOM    106  C   UNL A   1      38.336  33.715  38.878  1.00  0.00     0.200 A 
ATOM    107  F   UNL A   1      39.575  35.673  39.316  1.00  0.00    -0.200 F 
ATOM    108  F   UNL A   1      37.734  33.816  40.071  1.00  0.00    -0.200 F 
ENDBRANCH  74  98
BRANCH  86 109
ATOM    109  C   UNL A   1      43.226  27.258  34.761  1.00  0.00     0.064 A 
ATOM    110  C   UNL A   1      42.435  26.126  35.014  1.00  0.00     0.173 A 
ATOM    111  C   UNL A   1      44.626  27.043  34.786  1.00  0.00     0.173 A 
ATOM    112  F   UNL A   1      41.099  26.175  34.913  1.00  0.00    -0.203 F 
ATOM    113  C   UNL A   1      43.000  24.884  35.320  1.00  0.00     0.198 A 
ATOM    114  C   UNL A   1      45.186  25.792  35.038  1.00  0.00     0.198 A 
ATOM    115  F   UNL A   1      45.490  28.041  34.542  1.00  0.00    -0.203 F 
ATOM    116  F   UNL A   1      42.202  23.840  35.588  1.00  0.00    -0.200 F 
ATOM    117  C   UNL A   1      44.373  24.714  35.318  1.00  0.00     0.200 A 
ATOM    118  F   UNL A   1      46.517  25.634  34.985  1.00  0.00    -0.200 F 
ATOM    119  F   UNL A   1      44.908  23.511  35.566  1.00  0.00    -0.200 F 
ENDBRANCH  86 109
ENDBRANCH  60  61
ENDBRANCH  52  55
ENDBRANCH  50  51
ENDBRANCH  49  50
ENDBRANCH  48  49
ENDBRANCH  47  48
ENDBRANCH   3  47
TORSDOF 20
ENDMDL
MODEL 2
REMARK VINA RESULT:     -13.6      4.726     11.187
REMARK SMILES Cc1ccc(S(=O)(=O)n2cc(C(=O)C(=O)N[C@H](Cc3c[nH]c4ccccc34)C(=O)NCC(=O)NCCCCNC(=O)c3ccc(-c4c5nc(c(-c6c(F)c(F)c(F)c(F)c6F)c6ccc([nH]6)c(-c6c(F)c(F)c(F)c(F)c6F)c6nc(c(-c7c(F)c(F)c(F)c(F)c7F)c7ccc4[nH]7)C=C6)C=C5)cc3)c3ccccc32)cc1
REMARK SMILES IDX 32 1 33 2 34 3 31 5 30 6 28 7 29 8 17 10 16 11 14 12 15 13
REMARK SMILES IDX 12 15 13 16 11 17 9 18 10 19 110 20 105 21 109 22 106 23
REMARK SMILES IDX 108 24 107 25 6 26 7 27 8 28 5 29 1 30 2 31 3 32 112 33 4 34
REMARK SMILES IDX 111 35 18 36 19 37 20 38 27 39 21 40 22 41 26 42 23 44 25 45
REMARK SMILES IDX 24 46 35 47 36 48 37 49 38 50 39 51 40 52 41 54 42 55 43 56
REMARK SMILES IDX 104 57 44 58 103 59 45 60 46 61 47 62 97 63 48 64 102 65
REMARK SMILES IDX 96 66 98 67 49 68 101 69 95 70 94 71 50 73 82 74 62 75 81 76
REMARK SMILES IDX 63 77 66 78 80 79 99 80 64 81 65 82 79 84 100 85 67 86 51 87
REMARK SMILES IDX 52 88 60 89 53 90 54 91 58 92 61 93 55 94 56 95 59 96 57 97
REMARK SMILES IDX 83 98 84 99 92 100 85 101 86 102 90 103 93 104 87 105 88 106
REMARK SMILES IDX 91 107 89 108 68 109 69 110 77 111 70 112 71 113 75 114
REMARK SMILES IDX 78 115 72 116 73 117 76 118 74 119
REMARK H PARENT 34 4 30 9 16 14 21 43 39 53 98 72 66 83
REMARK Flexibility Score: inf
ROOT
ATOM      1  C   UNL A   1      38.838  23.713  26.862  1.00  0.00     0.239 C 
ATOM      2  O   UNL A   1      39.250  24.662  27.538  1.00  0.00    -0.273 OA
ATOM      3  N   UNL A   1      39.669  22.638  26.742  1.00  0.00    -0.355 N 
ATOM      4  H   UNL A   1      40.584  22.787  27.071  1.00  0.00     0.163 HD
ENDROOT
BRANCH   1   5
ATOM      5  C   UNL A   1      37.392  23.727  26.336  1.00  0.00     0.216 C 
BRANCH   5   6
ATOM      6  N   UNL A   1      37.197  23.331  24.963  1.00  0.00    -0.345 N 
ATOM      7  C   UNL A   1      36.337  22.508  24.328  1.00  0.00     0.243 C 
ATOM      8  O   UNL A   1      36.415  22.578  23.093  1.00  0.00    -0.273 OA
ATOM      9  H   UNL A   1      37.838  23.758  24.349  1.00  0.00     0.164 HD
BRANCH   7  10
ATOM     10  C   UNL A   1      35.339  21.493  24.972  1.00  0.00     0.176 C 
BRANCH  10  11
ATOM     11  N   UNL A   1      34.723  21.759  26.315  1.00  0.00    -0.337 N 
ATOM     12  C   UNL A   1      33.454  22.099  26.765  1.00  0.00     0.293 C 
ATOM     13  O   UNL A   1      33.284  22.361  27.951  1.00  0.00    -0.265 OA
ATOM     14  H   UNL A   1      35.372  21.671  27.050  1.00  0.00     0.164 HD
BRANCH  12  15
ATOM     15  C   UNL A   1      32.265  22.120  25.804  1.00  0.00     0.252 C 
ATOM     16  O   UNL A   1      31.436  21.227  25.988  1.00  0.00    -0.283 OA
BRANCH  15  17
ATOM     17  C   UNL A   1      32.047  23.084  24.709  1.00  0.00     0.054 A 
ATOM     18  N   UNL A   1      31.957  24.335  22.830  1.00  0.00    -0.240 N 
ATOM     19  C   UNL A   1      32.465  23.143  23.378  1.00  0.00     0.117 A 
ATOM     20  C   UNL A   1      30.902  24.732  23.650  1.00  0.00     0.065 A 
ATOM     21  C   UNL A   1      31.282  24.278  24.907  1.00  0.00     0.012 A 
ATOM     22  C   UNL A   1      29.861  25.657  23.477  1.00  0.00     0.028 A 
ATOM     23  C   UNL A   1      30.834  24.985  26.036  1.00  0.00     0.011 A 
ATOM     24  C   UNL A   1      29.383  26.296  24.630  1.00  0.00     0.002 A 
ATOM     25  C   UNL A   1      29.919  26.021  25.884  1.00  0.00     0.001 A 
BRANCH  18  26
ATOM     26  S   UNL A   1      33.082  25.656  22.403  1.00  0.00     0.268 S 
ATOM     27  O   UNL A   1      32.512  26.261  21.215  1.00  0.00    -0.201 OA
ATOM     28  O   UNL A   1      34.396  25.030  22.377  1.00  0.00    -0.201 OA
BRANCH  26  29
ATOM     29  C   UNL A   1      33.192  26.919  23.643  1.00  0.00     0.088 A 
ATOM     30  C   UNL A   1      32.500  29.841  26.746  1.00  0.00     0.044 C 
ATOM     31  C   UNL A   1      32.772  28.824  25.673  1.00  0.00    -0.051 A 
ATOM     32  C   UNL A   1      32.232  29.027  24.404  1.00  0.00     0.005 A 
ATOM     33  C   UNL A   1      33.555  27.678  25.905  1.00  0.00     0.005 A 
ATOM     34  C   UNL A   1      32.437  28.083  23.402  1.00  0.00     0.022 A 
ATOM     35  C   UNL A   1      33.761  26.715  24.897  1.00  0.00     0.022 A 
ENDBRANCH  26  29
ENDBRANCH  18  26
ENDBRANCH  15  17
ENDBRANCH  12  15
ENDBRANCH  10  11
BRANCH  10  36
ATOM     36  C   UNL A   1      35.514  19.980  24.614  1.00  0.00     0.072 C 
BRANCH  36  37
ATOM     37  C   UNL A   1      34.307  19.070  24.578  1.00  0.00    -0.020 A 
ATOM     38  C   UNL A   1      33.021  19.458  24.232  1.00  0.00     0.087 A 
ATOM     39  C   UNL A   1      34.246  17.647  24.802  1.00  0.00     0.003 A 
ATOM     40  N   UNL A   1      32.199  18.366  24.307  1.00  0.00    -0.361 N 
ATOM     41  C   UNL A   1      32.910  17.259  24.692  1.00  0.00     0.046 A 
ATOM     42  C   UNL A   1      35.190  16.649  25.123  1.00  0.00     0.010 A 
ATOM     43  H   UNL A   1      31.234  18.375  24.114  1.00  0.00     0.166 HD
ATOM     44  C   UNL A   1      32.460  15.957  24.945  1.00  0.00     0.026 A 
ATOM     45  C   UNL A   1      34.761  15.337  25.373  1.00  0.00     0.001 A 
ATOM     46  C   UNL A   1      33.411  15.001  25.298  1.00  0.00     0.002 A 
ENDBRANCH  36  37
ENDBRANCH  10  36
ENDBRANCH   7  10
ENDBRANCH   5   6
ENDBRANCH   1   5
BRANCH   3  47
ATOM     47  C   UNL A   1      39.425  21.311  26.208  1.00  0.00     0.116 C 
BRANCH  47  48
ATOM     48  C   UNL A   1      40.461  20.287  26.666  1.00  0.00     0.023 C 
BRANCH  48  49
ATOM     49  C   UNL A   1      41.514  19.897  25.622  1.00  0.00     0.023 C 
BRANCH  49  50
ATOM     50  C   UNL A   1      42.894  19.544  26.150  1.00  0.00     0.116 C 
BRANCH  50  51
ATOM     51  N   UNL A   1      43.797  20.661  26.358  1.00  0.00    -0.352 N 
ATOM     52  C   UNL A   1      43.993  21.565  25.310  1.00  0.00     0.251 C 
ATOM     53  H   UNL A   1      44.262  20.779  27.218  1.00  0.00     0.163 HD
ATOM     54  O   UNL A   1      44.519  21.338  24.246  1.00  0.00    -0.269 OA
BRANCH  52  55
ATOM     55  C   UNL A   1      43.299  22.840  25.603  1.00  0.00     0.039 A 
ATOM     56  C   UNL A   1      43.354  23.937  24.743  1.00  0.00     0.014 A 
ATOM     57  C   UNL A   1      42.915  22.970  26.938  1.00  0.00     0.014 A 
ATOM     58  C   UNL A   1      43.181  25.214  25.287  1.00  0.00     0.010 A 
ATOM     59  C   UNL A   1      42.849  24.225  27.482  1.00  0.00     0.010 A 
ATOM     60  C   UNL A   1      43.026  25.352  26.671  1.00  0.00    -0.014 A 
BRANCH  60  61
ATOM     61  C   UNL A   1      43.193  26.594  27.424  1.00  0.00     0.031 A 
ATOM     62  C   UNL A   1      42.036  27.492  27.664  1.00  0.00     0.074 A 
ATOM     63  C   UNL A   1      44.308  26.712  28.181  1.00  0.00     0.049 A 
ATOM     64  N   UNL A   1      42.097  28.631  28.269  1.00  0.00    -0.248 NA
ATOM     65  C   UNL A   1      40.692  27.180  27.191  1.00  0.00     0.031 C 
ATOM     66  C   UNL A   1      44.472  27.514  29.390  1.00  0.00     0.029 A 
ATOM     67  N   UNL A   1      45.609  26.260  27.886  1.00  0.00    -0.354 N 
ATOM     68  C   UNL A   1      40.808  29.036  28.547  1.00  0.00     0.074 A 
ATOM     69  C   UNL A   1      39.980  28.152  27.767  1.00  0.00     0.031 C 
ATOM     70  C   UNL A   1      45.777  27.767  29.568  1.00  0.00     0.029 A 
ATOM     71  C   UNL A   1      46.462  27.276  28.387  1.00  0.00     0.049 A 
ATOM     72  H   UNL A   1      45.868  25.425  27.431  1.00  0.00     0.167 HD
ATOM     73  C   UNL A   1      40.616  29.983  29.515  1.00  0.00     0.037 A 
ATOM     74  C   UNL A   1      47.215  28.051  27.554  1.00  0.00     0.037 A 
ATOM     75  C   UNL A   1      41.894  30.590  29.902  1.00  0.00     0.049 A 
ATOM     76  C   UNL A   1      46.947  29.535  27.659  1.00  0.00     0.074 A 
ATOM     77  C   UNL A   1      42.722  30.457  31.004  1.00  0.00     0.029 A 
ATOM     78  N   UNL A   1      42.629  31.283  28.944  1.00  0.00    -0.354 N 
ATOM     79  N   UNL A   1      45.889  30.045  28.223  1.00  0.00    -0.248 NA
ATOM     80  C   UNL A   1      47.826  30.558  27.098  1.00  0.00     0.031 C 
ATOM     81  C   UNL A   1      43.983  31.022  30.681  1.00  0.00     0.029 A 
ATOM     82  C   UNL A   1      43.916  31.512  29.389  1.00  0.00     0.049 A 
ATOM     83  H   UNL A   1      42.280  31.570  28.070  1.00  0.00     0.167 HD
ATOM     84  C   UNL A   1      45.908  31.408  28.086  1.00  0.00     0.074 A 
ATOM     85  C   UNL A   1      47.155  31.684  27.398  1.00  0.00     0.031 C 
ATOM     86  C   UNL A   1      44.881  32.188  28.536  1.00  0.00     0.037 A 
BRANCH  73  87
ATOM     87  C   UNL A   1      39.331  30.190  30.314  1.00  0.00     0.064 A 
ATOM     88  C   UNL A   1      38.684  31.450  30.316  1.00  0.00     0.173 A 
ATOM     89  C   UNL A   1      38.729  29.246  31.168  1.00  0.00     0.173 A 
ATOM     90  F   UNL A   1      39.059  32.434  29.488  1.00  0.00    -0.203 F 
ATOM     91  C   UNL A   1      37.621  31.762  31.174  1.00  0.00     0.198 A 
ATOM     92  C   UNL A   1      37.681  29.561  32.043  1.00  0.00     0.198 A 
ATOM     93  F   UNL A   1      39.082  27.962  31.169  1.00  0.00    -0.203 F 
ATOM     94  F   UNL A   1      37.079  32.988  31.143  1.00  0.00    -0.200 F 
ATOM     95  C   UNL A   1      37.137  30.825  32.059  1.00  0.00     0.200 A 
ATOM     96  F   UNL A   1      37.206  28.619  32.870  1.00  0.00    -0.200 F 
ATOM     97  F   UNL A   1      36.141  31.127  32.902  1.00  0.00    -0.200 F 
ENDBRANCH  73  87
BRANCH  74  98
ATOM     98  C   UNL A   1      47.633  27.344  26.318  1.00  0.00     0.064 A 
ATOM     99  C   UNL A   1      46.996  27.684  25.109  1.00  0.00     0.173 A 
ATOM    100  C   UNL A   1      48.856  26.669  26.242  1.00  0.00     0.173 A 
ATOM    101  F   UNL A   1      45.826  28.341  25.133  1.00  0.00    -0.203 F 
ATOM    102  C   UNL A   1      47.609  27.454  23.880  1.00  0.00     0.198 A 
ATOM    103  C   UNL A   1      49.464  26.433  25.008  1.00  0.00     0.198 A 
ATOM    104  F   UNL A   1      49.523  26.347  27.359  1.00  0.00    -0.203 F 
ATOM    105  F   UNL A   1      47.029  27.881  22.750  1.00  0.00    -0.200 F 
ATOM    106  C   UNL A   1      48.857  26.855  23.832  1.00  0.00     0.200 A 
ATOM    107  F   UNL A   1      50.688  25.888  24.960  1.00  0.00    -0.200 F 
ATOM    108  F   UNL A   1      49.497  26.726  22.661  1.00  0.00    -0.200 F 
ENDBRANCH  74  98
BRANCH  86 109
ATOM    109  C   UNL A   1      44.706  33.662  28.273  1.00  0.00     0.064 A 
ATOM    110  C   UNL A   1      44.029  34.184  27.160  1.00  0.00     0.173 A 
ATOM    111  C   UNL A   1      45.099  34.608  29.250  1.00  0.00     0.173 A 
ATOM    112  F   UNL A   1      43.512  33.381  26.220  1.00  0.00    -0.203 F 
ATOM    113  C   UNL A   1      43.806  35.557  27.010  1.00  0.00     0.198 A 
ATOM    114  C   UNL A   1      44.828  35.969  29.124  1.00  0.00     0.198 A 
ATOM    115  F   UNL A   1      45.738  34.233  30.369  1.00  0.00    -0.203 F 
ATOM    116  F   UNL A   1      43.185  36.012  25.912  1.00  0.00    -0.200 F 
ATOM    117  C   UNL A   1      44.193  36.446  27.997  1.00  0.00     0.200 A 
ATOM    118  F   UNL A   1      45.167  36.812  30.111  1.00  0.00    -0.200 F 
ATOM    119  F   UNL A   1      43.936  37.755  27.869  1.00  0.00    -0.200 F 
ENDBRANCH  86 109
ENDBRANCH  60  61
ENDBRANCH  52  55
ENDBRANCH  50  51
ENDBRANCH  49  50
ENDBRANCH  48  49
ENDBRANCH  47  48
ENDBRANCH   3  47
TORSDOF 20
ENDMDL
MODEL 3
REMARK VINA RESULT:     -13.4      1.294      2.195
REMARK SMILES Cc1ccc(S(=O)(=O)n2cc(C(=O)C(=O)N[C@H](Cc3c[nH]c4ccccc34)C(=O)NCC(=O)NCCCCNC(=O)c3ccc(-c4c5nc(c(-c6c(F)c(F)c(F)c(F)c6F)c6ccc([nH]6)c(-c6c(F)c(F)c(F)c(F)c6F)c6nc(c(-c7c(F)c(F)c(F)c(F)c7F)c7ccc4[nH]7)C=C6)C=C5)cc3)c3ccccc32)cc1
REMARK SMILES IDX 32 1 33 2 34 3 31 5 30 6 28 7 29 8 17 10 16 11 14 12 15 13
REMARK SMILES IDX 12 15 13 16 11 17 9 18 10 19 110 20 105 21 109 22 106 23
REMARK SMILES IDX 108 24 107 25 6 26 7 27 8 28 5 29 1 30 2 31 3 32 112 33 4 34
REMARK SMILES IDX 111 35 18 36 19 37 20 38 27 39 21 40 22 41 26 42 23 44 25 45
REMARK SMILES IDX 24 46 35 47 36 48 37 49 38 50 39 51 40 52 41 54 42 55 43 56
REMARK SMILES IDX 104 57 44 58 103 59 45 60 46 61 47 62 97 63 48 64 102 65
REMARK SMILES IDX 96 66 98 67 49 68 101 69 95 70 94 71 50 73 82 74 62 75 81 76
REMARK SMILES IDX 63 77 66 78 80 79 99 80 64 81 65 82 79 84 100 85 67 86 51 87
REMARK SMILES IDX 52 88 60 89 53 90 54 91 58 92 61 93 55 94 56 95 59 96 57 97
REMARK SMILES IDX 83 98 84 99 92 100 85 101 86 102 90 103 93 104 87 105 88 106
REMARK SMILES IDX 91 107 89 108 68 109 69 110 77 111 70 112 71 113 75 114
REMARK SMILES IDX 78 115 72 116 73 117 76 118 74 119
REMARK H PARENT 34 4 30 9 16 14 21 43 39 53 98 72 66 83
REMARK Flexibility Score: inf
ROOT
ATOM      1  C   UNL A   1      32.813  33.114  27.416  1.00  0.00     0.239 C 
ATOM      2  O   UNL A   1      31.682  32.621  27.329  1.00  0.00    -0.273 OA
ATOM      3  N   UNL A   1      32.904  34.339  28.006  1.00  0.00    -0.355 N 
ATOM      4  H   UNL A   1      32.041  34.787  28.160  1.00  0.00     0.163 HD
ENDROOT
BRANCH   1   5
ATOM      5  C   UNL A   1      34.038  32.276  27.009  1.00  0.00     0.216 C 
BRANCH   5   6
ATOM      6  N   UNL A   1      34.156  30.968  27.603  1.00  0.00    -0.345 N 
ATOM      7  C   UNL A   1      33.621  29.757  27.340  1.00  0.00     0.243 C 
ATOM      8  O   UNL A   1      34.122  28.845  28.014  1.00  0.00    -0.273 OA
ATOM      9  H   UNL A   1      34.763  30.954  28.379  1.00  0.00     0.164 HD
BRANCH   7  10
ATOM     10  C   UNL A   1      32.457  29.424  26.353  1.00  0.00     0.176 C 
BRANCH  10  11
ATOM     11  N   UNL A   1      31.382  28.444  26.726  1.00  0.00    -0.337 N 
ATOM     12  C   UNL A   1      31.223  27.070  26.616  1.00  0.00     0.293 C 
ATOM     13  O   UNL A   1      30.152  26.559  26.925  1.00  0.00    -0.265 OA
ATOM     14  H   UNL A   1      30.607  28.881  27.148  1.00  0.00     0.164 HD
BRANCH  12  15
ATOM     15  C   UNL A   1      32.378  26.186  26.143  1.00  0.00     0.252 C 
ATOM     16  O   UNL A   1      33.474  26.748  26.100  1.00  0.00    -0.283 OA
BRANCH  15  17
ATOM     17  C   UNL A   1      32.284  24.771  25.739  1.00  0.00     0.054 A 
ATOM     18  N   UNL A   1      31.944  22.556  25.453  1.00  0.00    -0.240 N 
ATOM     19  C   UNL A   1      31.639  23.656  26.277  1.00  0.00     0.117 A 
ATOM     20  C   UNL A   1      32.361  23.078  24.230  1.00  0.00     0.065 A 
ATOM     21  C   UNL A   1      32.967  24.278  24.581  1.00  0.00     0.012 A 
ATOM     22  C   UNL A   1      32.527  22.505  22.960  1.00  0.00     0.028 A 
ATOM     23  C   UNL A   1      34.007  24.763  23.770  1.00  0.00     0.011 A 
ATOM     24  C   UNL A   1      33.525  23.055  22.142  1.00  0.00     0.002 A 
ATOM     25  C   UNL A   1      34.309  24.120  22.575  1.00  0.00     0.001 A 
BRANCH  18  26
ATOM     26  S   UNL A   1      32.991  21.251  26.081  1.00  0.00     0.268 S 
ATOM     27  O   UNL A   1      32.508  20.044  25.439  1.00  0.00    -0.201 OA
ATOM     28  O   UNL A   1      32.950  21.407  27.528  1.00  0.00    -0.201 OA
BRANCH  26  29
ATOM     29  C   UNL A   1      34.698  21.442  25.640  1.00  0.00     0.088 A 
ATOM     30  C   UNL A   1      39.000  21.799  25.522  1.00  0.00     0.044 C 
ATOM     31  C   UNL A   1      37.502  21.669  25.531  1.00  0.00    -0.051 A 
ATOM     32  C   UNL A   1      36.747  22.659  26.156  1.00  0.00     0.005 A 
ATOM     33  C   UNL A   1      36.839  20.584  24.929  1.00  0.00     0.005 A 
ATOM     34  C   UNL A   1      35.361  22.545  26.213  1.00  0.00     0.022 A 
ATOM     35  C   UNL A   1      35.436  20.458  24.988  1.00  0.00     0.022 A 
ENDBRANCH  26  29
ENDBRANCH  18  26
ENDBRANCH  15  17
ENDBRANCH  12  15
ENDBRANCH  10  11
BRANCH  10  36
ATOM     36  C   UNL A   1      32.756  29.525  24.821  1.00  0.00     0.072 C 
BRANCH  36  37
ATOM     37  C   UNL A   1      31.685  29.158  23.818  1.00  0.00    -0.020 A 
ATOM     38  C   UNL A   1      31.728  28.065  22.964  1.00  0.00     0.087 A 
ATOM     39  C   UNL A   1      30.406  29.784  23.597  1.00  0.00     0.003 A 
ATOM     40  N   UNL A   1      30.586  28.054  22.211  1.00  0.00    -0.361 N 
ATOM     41  C   UNL A   1      29.781  29.112  22.546  1.00  0.00     0.046 A 
ATOM     42  C   UNL A   1      29.724  30.882  24.165  1.00  0.00     0.010 A 
ATOM     43  H   UNL A   1      30.372  27.382  21.524  1.00  0.00     0.166 HD
ATOM     44  C   UNL A   1      28.558  29.510  21.992  1.00  0.00     0.026 A 
ATOM     45  C   UNL A   1      28.494  31.292  23.630  1.00  0.00     0.001 A 
ATOM     46  C   UNL A   1      27.927  30.622  22.548  1.00  0.00     0.002 A 
ENDBRANCH  36  37
ENDBRANCH  10  36
ENDBRANCH   7  10
ENDBRANCH   5   6
ENDBRANCH   1   5
BRANCH   3  47
ATOM     47  C   UNL A   1      34.065  35.092  28.444  1.00  0.00     0.116 C 
BRANCH  47  48
ATOM     48  C   UNL A   1      33.698  36.425  29.092  1.00  0.00     0.023 C 
BRANCH  48  49
ATOM     49  C   UNL A   1      32.626  36.358  30.186  1.00  0.00     0.023 C 
BRANCH  49  50
ATOM     50  C   UNL A   1      32.982  36.984  31.524  1.00  0.00     0.116 C 
BRANCH  50  51
ATOM     51  N   UNL A   1      34.342  36.766  31.983  1.00  0.00    -0.352 N 
ATOM     52  C   UNL A   1      34.539  36.064  33.175  1.00  0.00     0.251 C 
ATOM     53  H   UNL A   1      35.108  37.105  31.466  1.00  0.00     0.163 HD
ATOM     54  O   UNL A   1      34.222  36.419  34.286  1.00  0.00    -0.269 OA
BRANCH  52  55
ATOM     55  C   UNL A   1      35.050  34.705  32.886  1.00  0.00     0.039 A 
ATOM     56  C   UNL A   1      35.085  33.697  33.850  1.00  0.00     0.014 A 
ATOM     57  C   UNL A   1      35.813  34.634  31.720  1.00  0.00     0.014 A 
ATOM     58  C   UNL A   1      36.036  32.681  33.712  1.00  0.00     0.010 A 
ATOM     59  C   UNL A   1      36.809  33.697  31.643  1.00  0.00     0.010 A 
ATOM     60  C   UNL A   1      36.955  32.744  32.659  1.00  0.00    -0.014 A 
BRANCH  60  61
ATOM     61  C   UNL A   1      38.205  31.989  32.576  1.00  0.00     0.031 A 
ATOM     62  C   UNL A   1      38.262  30.702  31.841  1.00  0.00     0.074 A 
ATOM     63  C   UNL A   1      39.348  32.654  32.863  1.00  0.00     0.049 A 
ATOM     64  N   UNL A   1      39.303  29.942  31.759  1.00  0.00    -0.248 NA
ATOM     65  C   UNL A   1      37.103  30.141  31.154  1.00  0.00     0.031 C 
ATOM     66  C   UNL A   1      40.687  32.365  32.358  1.00  0.00     0.029 A 
ATOM     67  N   UNL A   1      39.555  33.640  33.848  1.00  0.00    -0.354 N 
ATOM     68  C   UNL A   1      39.066  28.997  30.782  1.00  0.00     0.074 A 
ATOM     69  C   UNL A   1      37.654  29.104  30.516  1.00  0.00     0.031 C 
ATOM     70  C   UNL A   1      41.589  32.884  33.203  1.00  0.00     0.029 A 
ATOM     71  C   UNL A   1      40.852  33.373  34.353  1.00  0.00     0.049 A 
ATOM     72  H   UNL A   1      38.935  34.354  34.124  1.00  0.00     0.167 HD
ATOM     73  C   UNL A   1      40.135  28.345  30.232  1.00  0.00     0.037 A 
ATOM     74  C   UNL A   1      41.046  32.941  35.633  1.00  0.00     0.037 A 
ATOM     75  C   UNL A   1      41.353  28.610  31.005  1.00  0.00     0.049 A 
ATOM     76  C   UNL A   1      41.752  31.610  35.751  1.00  0.00     0.074 A 
ATOM     77  C   UNL A   1      42.464  29.410  30.796  1.00  0.00     0.029 A 
ATOM     78  N   UNL A   1      41.407  28.207  32.337  1.00  0.00    -0.354 N 
ATOM     79  N   UNL A   1      41.883  30.767  34.766  1.00  0.00    -0.248 NA
ATOM     80  C   UNL A   1      42.325  31.105  36.995  1.00  0.00     0.031 C 
ATOM     81  C   UNL A   1      43.156  29.535  32.029  1.00  0.00     0.029 A 
ATOM     82  C   UNL A   1      42.474  28.799  32.982  1.00  0.00     0.049 A 
ATOM     83  H   UNL A   1      40.772  27.586  32.760  1.00  0.00     0.167 HD
ATOM     84  C   UNL A   1      42.501  29.630  35.215  1.00  0.00     0.074 A 
ATOM     85  C   UNL A   1      42.783  29.899  36.611  1.00  0.00     0.031 C 
ATOM     86  C   UNL A   1      42.708  28.556  34.397  1.00  0.00     0.037 A 
BRANCH  73  87
ATOM     87  C   UNL A   1      40.161  27.686  28.855  1.00  0.00     0.064 A 
ATOM     88  C   UNL A   1      39.613  26.392  28.670  1.00  0.00     0.173 A 
ATOM     89  C   UNL A   1      40.780  28.205  27.702  1.00  0.00     0.173 A 
ATOM     90  F   UNL A   1      38.899  25.788  29.628  1.00  0.00    -0.203 F 
ATOM     91  C   UNL A   1      39.777  25.654  27.490  1.00  0.00     0.198 A 
ATOM     92  C   UNL A   1      40.965  27.461  26.529  1.00  0.00     0.198 A 
ATOM     93  F   UNL A   1      41.194  29.469  27.626  1.00  0.00    -0.203 F 
ATOM     94  F   UNL A   1      39.259  24.422  27.399  1.00  0.00    -0.200 F 
ATOM     95  C   UNL A   1      40.478  26.179  26.428  1.00  0.00     0.200 A 
ATOM     96  F   UNL A   1      41.623  28.010  25.497  1.00  0.00    -0.200 F 
ATOM     97  F   UNL A   1      40.663  25.467  25.309  1.00  0.00    -0.200 F 
ENDBRANCH  73  87
BRANCH  74  98
ATOM     98  C   UNL A   1      40.026  33.453  36.582  1.00  0.00     0.064 A 
ATOM     99  C   UNL A   1      38.953  32.608  36.926  1.00  0.00     0.173 A 
ATOM    100  C   UNL A   1      40.289  34.545  37.417  1.00  0.00     0.173 A 
ATOM    101  F   UNL A   1      38.670  31.544  36.160  1.00  0.00    -0.203 F 
ATOM    102  C   UNL A   1      38.246  32.786  38.112  1.00  0.00     0.198 A 
ATOM    103  C   UNL A   1      39.572  34.724  38.601  1.00  0.00     0.198 A 
ATOM    104  F   UNL A   1      41.316  35.366  37.156  1.00  0.00    -0.203 F 
ATOM    105  F   UNL A   1      37.299  31.907  38.467  1.00  0.00    -0.200 F 
ATOM    106  C   UNL A   1      38.576  33.827  38.964  1.00  0.00     0.200 A 
ATOM    107  F   UNL A   1      39.914  35.708  39.445  1.00  0.00    -0.200 F 
ATOM    108  F   UNL A   1      37.969  33.941  40.154  1.00  0.00    -0.200 F 
ENDBRANCH  74  98
BRANCH  86 109
ATOM    109  C   UNL A   1      43.198  27.196  34.825  1.00  0.00     0.064 A 
ATOM    110  C   UNL A   1      44.530  26.917  35.170  1.00  0.00     0.173 A 
ATOM    111  C   UNL A   1      42.274  26.148  35.053  1.00  0.00     0.173 A 
ATOM    112  F   UNL A   1      45.479  27.861  35.103  1.00  0.00    -0.203 F 
ATOM    113  C   UNL A   1      44.918  25.664  35.657  1.00  0.00     0.198 A 
ATOM    114  C   UNL A   1      42.655  24.919  35.589  1.00  0.00     0.198 A 
ATOM    115  F   UNL A   1      40.968  26.297  34.782  1.00  0.00    -0.203 F 
ATOM    116  F   UNL A   1      46.209  25.434  35.940  1.00  0.00    -0.200 F 
ATOM    117  C   UNL A   1      43.980  24.672  35.879  1.00  0.00     0.200 A 
ATOM    118  F   UNL A   1      41.726  23.986  35.843  1.00  0.00    -0.200 F 
ATOM    119  F   UNL A   1      44.351  23.491  36.390  1.00  0.00    -0.200 F 
ENDBRANCH  86 109
ENDBRANCH  60  61
ENDBRANCH  52  55
ENDBRANCH  50  51
ENDBRANCH  49  50
ENDBRANCH  48  49
ENDBRANCH  47  48
ENDBRANCH   3  47
TORSDOF 20
ENDMDL
