MODEL 1
REMARK VINA RESULT:     -12.1      0.000      0.000
REMARK SMILES [NH3+]C1(CC(=O)N[C@@H]2CCCC[C@H]2C(=O)NCCCCNC(=O)c2ccc(-c3c4nc(c(-c5c(F)c(F)c(F)c(F)c5F)c5ccc([nH]5)c(-c5c(F)c(F)c(F)c(F)c5F)c5nc(c(-c6c(F)c(F)c(F)c(F)c6F)c6ccc3[nH]6)C=C5)C=C4)cc2)CCC1
REMARK SMILES IDX 16 1 15 2 13 3 14 4 12 6 7 7 8 8 9 9 11 10 10 11 6 12 4 13
REMARK SMILES IDX 5 14 3 16 2 17 86 18 88 19 87 20 1 21 17 25 18 26 19 27
REMARK SMILES IDX 20 28 21 29 22 31 23 32 24 33 85 34 25 35 84 36 26 37 27 38
REMARK SMILES IDX 28 39 78 40 29 41 83 42 77 43 79 44 30 45 82 46 76 47 75 48
REMARK SMILES IDX 31 50 63 51 43 52 62 53 44 54 47 55 61 56 80 57 45 58 46 59
REMARK SMILES IDX 60 61 81 62 48 63 32 64 33 65 41 66 34 67 35 68 39 69 42 70
REMARK SMILES IDX 36 71 37 72 40 73 38 74 64 75 65 76 73 77 66 78 67 79 71 80
REMARK SMILES IDX 74 81 68 82 69 83 72 84 70 85 49 86 50 87 58 88 51 89 52 90
REMARK SMILES IDX 56 91 59 92 53 93 54 94 57 95 55 96
REMARK H PARENT 15 5 6 15 1 22 1 23 1 24 20 30 79 49 47 60
REMARK Flexibility Score: inf
ROOT
ATOM      1  C   UNL A   1      36.045  21.508  24.672  1.00  0.00     0.116 C 
ENDROOT
BRANCH   1   2
ATOM      2  N   UNL A   1      35.535  21.276  26.012  1.00  0.00    -0.356 N 
ATOM      3  C   UNL A   1      34.375  21.689  26.607  1.00  0.00     0.225 C 
ATOM      4  O   UNL A   1      34.165  21.313  27.761  1.00  0.00    -0.275 OA
ATOM      5  H   UNL A   1      36.123  20.734  26.587  1.00  0.00     0.163 HD
BRANCH   3   6
ATOM      6  C   UNL A   1      33.341  22.546  25.858  1.00  0.00     0.101 C 
ATOM      7  C   UNL A   1      32.056  21.737  25.585  1.00  0.00     0.094 C 
ATOM      8  C   UNL A   1      30.736  22.488  25.708  1.00  0.00     0.026 C 
ATOM      9  C   UNL A   1      30.692  23.618  26.712  1.00  0.00     0.002 C 
ATOM     10  C   UNL A   1      33.189  23.884  26.616  1.00  0.00     0.015 C 
ATOM     11  C   UNL A   1      31.843  24.573  26.454  1.00  0.00     0.001 C 
BRANCH   7  12
ATOM     12  N   UNL A   1      32.110  20.899  24.375  1.00  0.00    -0.352 N 
ATOM     13  C   UNL A   1      32.493  19.619  24.119  1.00  0.00     0.226 C 
ATOM     14  O   UNL A   1      32.596  19.296  22.932  1.00  0.00    -0.275 OA
ATOM     15  H   UNL A   1      31.800  21.372  23.570  1.00  0.00     0.163 HD
BRANCH  13  16
ATOM     16  C   UNL A   1      32.766  18.621  25.222  1.00  0.00     0.168 C 
BRANCH  16  17
ATOM     17  C   UNL A   1      33.809  17.533  24.923  1.00  0.00     0.103 C 
ATOM     18  C   UNL A   1      33.359  16.566  23.779  1.00  0.00     0.069 C 
ATOM     19  C   UNL A   1      34.042  16.223  25.758  1.00  0.00     0.069 C 
ATOM     20  C   UNL A   1      32.931  15.580  24.891  1.00  0.00     0.013 C 
BRANCH  17  21
ATOM     21  N   UNL A   1      35.129  18.058  24.557  1.00  0.00    -0.352 N 
ATOM     22  H   UNL A   1      35.203  18.115  23.542  1.00  0.00     0.344 HD
ATOM     23  H   UNL A   1      35.853  17.438  24.917  1.00  0.00     0.344 HD
ATOM     24  H   UNL A   1      35.247  18.988  24.959  1.00  0.00     0.344 HD
ENDBRANCH  17  21
ENDBRANCH  16  17
ENDBRANCH  13  16
ENDBRANCH   7  12
ENDBRANCH   3   6
ENDBRANCH   1   2
BRANCH   1  25
ATOM     25  C   UNL A   1      37.572  21.483  24.605  1.00  0.00     0.023 C 
BRANCH  25  26
ATOM     26  C   UNL A   1      38.202  20.168  25.042  1.00  0.00     0.023 C 
BRANCH  26  27
ATOM     27  C   UNL A   1      39.361  20.318  26.011  1.00  0.00     0.116 C 
BRANCH  27  28
ATOM     28  N   UNL A   1      40.300  19.205  25.974  1.00  0.00    -0.352 N 
ATOM     29  C   UNL A   1      41.671  19.255  26.110  1.00  0.00     0.251 C 
ATOM     30  H   UNL A   1      39.909  18.312  25.836  1.00  0.00     0.163 HD
ATOM     31  O   UNL A   1      42.359  18.265  25.967  1.00  0.00    -0.269 OA
BRANCH  29  32
ATOM     32  C   UNL A   1      42.280  20.571  26.389  1.00  0.00     0.039 A 
ATOM     33  C   UNL A   1      42.631  21.389  25.315  1.00  0.00     0.014 A 
ATOM     34  C   UNL A   1      42.384  21.024  27.706  1.00  0.00     0.014 A 
ATOM     35  C   UNL A   1      43.021  22.705  25.564  1.00  0.00     0.010 A 
ATOM     36  C   UNL A   1      42.692  22.356  27.944  1.00  0.00     0.010 A 
ATOM     37  C   UNL A   1      43.013  23.207  26.876  1.00  0.00    -0.014 A 
BRANCH  37  38
ATOM     38  C   UNL A   1      43.343  24.624  27.160  1.00  0.00     0.031 A 
ATOM     39  C   UNL A   1      44.738  25.124  26.919  1.00  0.00     0.074 A 
ATOM     40  C   UNL A   1      42.412  25.432  27.702  1.00  0.00     0.049 A 
ATOM     41  N   UNL A   1      45.254  26.298  27.178  1.00  0.00    -0.248 NA
ATOM     42  C   UNL A   1      45.691  24.163  26.340  1.00  0.00     0.031 C 
ATOM     43  C   UNL A   1      41.040  25.044  28.032  1.00  0.00     0.029 A 
ATOM     44  N   UNL A   1      42.484  26.749  28.081  1.00  0.00    -0.354 N 
ATOM     45  C   UNL A   1      46.589  26.210  26.811  1.00  0.00     0.074 A 
ATOM     46  C   UNL A   1      46.821  24.853  26.367  1.00  0.00     0.031 C 
ATOM     47  C   UNL A   1      40.392  26.105  28.540  1.00  0.00     0.029 A 
ATOM     48  C   UNL A   1      41.311  27.237  28.605  1.00  0.00     0.049 A 
ATOM     49  H   UNL A   1      43.300  27.293  27.987  1.00  0.00     0.167 HD
ATOM     50  C   UNL A   1      47.531  27.182  26.817  1.00  0.00     0.037 A 
ATOM     51  C   UNL A   1      41.018  28.461  29.083  1.00  0.00     0.037 A 
ATOM     52  C   UNL A   1      47.285  28.538  27.227  1.00  0.00     0.049 A 
ATOM     53  C   UNL A   1      42.080  29.526  29.073  1.00  0.00     0.074 A 
ATOM     54  C   UNL A   1      48.153  29.616  27.210  1.00  0.00     0.029 A 
ATOM     55  N   UNL A   1      46.077  29.002  27.728  1.00  0.00    -0.354 N 
ATOM     56  N   UNL A   1      43.322  29.451  28.658  1.00  0.00    -0.248 NA
ATOM     57  C   UNL A   1      41.699  30.847  29.592  1.00  0.00     0.031 C 
ATOM     58  C   UNL A   1      47.481  30.724  27.736  1.00  0.00     0.029 A 
ATOM     59  C   UNL A   1      46.182  30.348  28.039  1.00  0.00     0.049 A 
ATOM     60  H   UNL A   1      45.266  28.457  27.844  1.00  0.00     0.167 HD
ATOM     61  C   UNL A   1      43.861  30.716  28.839  1.00  0.00     0.074 A 
ATOM     62  C   UNL A   1      42.808  31.544  29.388  1.00  0.00     0.031 C 
ATOM     63  C   UNL A   1      45.116  31.155  28.576  1.00  0.00     0.037 A 
BRANCH  50  64
ATOM     64  C   UNL A   1      48.908  26.812  26.354  1.00  0.00     0.064 A 
ATOM     65  C   UNL A   1      49.305  26.985  25.019  1.00  0.00     0.173 A 
ATOM     66  C   UNL A   1      49.851  26.302  27.257  1.00  0.00     0.173 A 
ATOM     67  F   UNL A   1      48.435  27.456  24.111  1.00  0.00    -0.203 F 
ATOM     68  C   UNL A   1      50.584  26.633  24.599  1.00  0.00     0.198 A 
ATOM     69  C   UNL A   1      51.140  25.979  26.841  1.00  0.00     0.198 A 
ATOM     70  F   UNL A   1      49.524  26.118  28.546  1.00  0.00    -0.203 F 
ATOM     71  F   UNL A   1      50.924  26.758  23.308  1.00  0.00    -0.200 F 
ATOM     72  C   UNL A   1      51.504  26.137  25.512  1.00  0.00     0.200 A 
ATOM     73  F   UNL A   1      52.030  25.508  27.726  1.00  0.00    -0.200 F 
ATOM     74  F   UNL A   1      52.737  25.803  25.108  1.00  0.00    -0.200 F 
ENDBRANCH  50  64
BRANCH  51  75
ATOM     75  C   UNL A   1      39.649  28.756  29.582  1.00  0.00     0.064 A 
ATOM     76  C   UNL A   1      38.679  29.304  28.732  1.00  0.00     0.173 A 
ATOM     77  C   UNL A   1      39.282  28.502  30.911  1.00  0.00     0.173 A 
ATOM     78  F   UNL A   1      38.988  29.581  27.456  1.00  0.00    -0.203 F 
ATOM     79  C   UNL A   1      37.401  29.606  29.195  1.00  0.00     0.198 A 
ATOM     80  C   UNL A   1      37.996  28.781  31.369  1.00  0.00     0.198 A 
ATOM     81  F   UNL A   1      40.172  27.973  31.764  1.00  0.00    -0.203 F 
ATOM     82  F   UNL A   1      36.507  30.170  28.372  1.00  0.00    -0.200 F 
ATOM     83  C   UNL A   1      37.059  29.340  30.512  1.00  0.00     0.200 A 
ATOM     84  F   UNL A   1      37.665  28.510  32.639  1.00  0.00    -0.200 F 
ATOM     85  F   UNL A   1      35.829  29.629  30.959  1.00  0.00    -0.200 F 
ENDBRANCH  51  75
BRANCH  63  86
ATOM     86  C   UNL A   1      45.410  32.601  28.846  1.00  0.00     0.064 A 
ATOM     87  C   UNL A   1      45.132  33.596  27.898  1.00  0.00     0.173 A 
ATOM     88  C   UNL A   1      45.933  32.998  30.085  1.00  0.00     0.173 A 
ATOM     89  F   UNL A   1      44.645  33.263  26.692  1.00  0.00    -0.203 F 
ATOM     90  C   UNL A   1      45.388  34.936  28.174  1.00  0.00     0.198 A 
ATOM     91  C   UNL A   1      46.161  34.342  30.368  1.00  0.00     0.198 A 
ATOM     92  F   UNL A   1      46.209  32.084  31.027  1.00  0.00    -0.203 F 
ATOM     93  F   UNL A   1      45.155  35.867  27.238  1.00  0.00    -0.200 F 
ATOM     94  C   UNL A   1      45.895  35.308  29.411  1.00  0.00     0.200 A 
ATOM     95  F   UNL A   1      46.638  34.701  31.568  1.00  0.00    -0.200 F 
ATOM     96  F   UNL A   1      46.132  36.600  29.677  1.00  0.00    -0.200 F 
ENDBRANCH  63  86
ENDBRANCH  37  38
ENDBRANCH  29  32
ENDBRANCH  27  28
ENDBRANCH  26  27
ENDBRANCH  25  26
ENDBRANCH   1  25
TORSDOF 15
ENDMDL
MODEL 2
REMARK VINA RESULT:     -12.1      1.335      7.997
REMARK SMILES [NH3+]C1(CC(=O)N[C@@H]2CCCC[C@H]2C(=O)NCCCCNC(=O)c2ccc(-c3c4nc(c(-c5c(F)c(F)c(F)c(F)c5F)c5ccc([nH]5)c(-c5c(F)c(F)c(F)c(F)c5F)c5nc(c(-c6c(F)c(F)c(F)c(F)c6F)c6ccc3[nH]6)C=C5)C=C4)cc2)CCC1
REMARK SMILES IDX 16 1 15 2 13 3 14 4 12 6 7 7 8 8 9 9 11 10 10 11 6 12 4 13
REMARK SMILES IDX 5 14 3 16 2 17 86 18 88 19 87 20 1 21 17 25 18 26 19 27
REMARK SMILES IDX 20 28 21 29 22 31 23 32 24 33 85 34 25 35 84 36 26 37 27 38
REMARK SMILES IDX 28 39 78 40 29 41 83 42 77 43 79 44 30 45 82 46 76 47 75 48
REMARK SMILES IDX 31 50 63 51 43 52 62 53 44 54 47 55 61 56 80 57 45 58 46 59
REMARK SMILES IDX 60 61 81 62 48 63 32 64 33 65 41 66 34 67 35 68 39 69 42 70
REMARK SMILES IDX 36 71 37 72 40 73 38 74 64 75 65 76 73 77 66 78 67 79 71 80
REMARK SMILES IDX 74 81 68 82 69 83 72 84 70 85 49 86 50 87 58 88 51 89 52 90
REMARK SMILES IDX 56 91 59 92 53 93 54 94 57 95 55 96
REMARK H PARENT 15 5 6 15 1 22 1 23 1 24 20 30 79 49 47 60
REMARK Flexibility Score: inf
ROOT
ATOM      1  C   UNL A   1      36.090  20.706  25.297  1.00  0.00     0.116 C 
ENDROOT
BRANCH   1   2
ATOM      2  N   UNL A   1      34.852  20.012  24.991  1.00  0.00    -0.356 N 
ATOM      3  C   UNL A   1      33.612  20.499  24.678  1.00  0.00     0.225 C 
ATOM      4  O   UNL A   1      32.730  19.679  24.420  1.00  0.00    -0.275 OA
ATOM      5  H   UNL A   1      34.915  19.030  25.015  1.00  0.00     0.163 HD
BRANCH   3   6
ATOM      6  C   UNL A   1      33.331  22.009  24.598  1.00  0.00     0.101 C 
ATOM      7  C   UNL A   1      33.391  22.651  25.999  1.00  0.00     0.094 C 
ATOM      8  C   UNL A   1      34.009  24.041  26.088  1.00  0.00     0.026 C 
ATOM      9  C   UNL A   1      35.095  24.363  25.087  1.00  0.00     0.002 C 
ATOM     10  C   UNL A   1      34.243  22.608  23.504  1.00  0.00     0.015 C 
ATOM     11  C   UNL A   1      34.595  24.076  23.683  1.00  0.00     0.001 C 
BRANCH   7  12
ATOM     12  N   UNL A   1      32.140  22.547  26.770  1.00  0.00    -0.352 N 
ATOM     13  C   UNL A   1      30.912  23.124  26.676  1.00  0.00     0.226 C 
ATOM     14  O   UNL A   1      30.142  22.952  27.626  1.00  0.00    -0.275 OA
ATOM     15  H   UNL A   1      32.208  21.917  27.524  1.00  0.00     0.163 HD
BRANCH  13  16
ATOM     16  C   UNL A   1      30.486  23.926  25.466  1.00  0.00     0.168 C 
BRANCH  16  17
ATOM     17  C   UNL A   1      30.113  25.396  25.710  1.00  0.00     0.103 C 
ATOM     18  C   UNL A   1      29.944  26.202  24.380  1.00  0.00     0.069 C 
ATOM     19  C   UNL A   1      31.104  26.544  26.124  1.00  0.00     0.069 C 
ATOM     20  C   UNL A   1      31.380  26.728  24.611  1.00  0.00     0.013 C 
BRANCH  17  21
ATOM     21  N   UNL A   1      28.884  25.577  26.490  1.00  0.00    -0.352 N 
ATOM     22  H   UNL A   1      28.962  25.068  27.371  1.00  0.00     0.344 HD
ATOM     23  H   UNL A   1      28.090  25.219  25.960  1.00  0.00     0.344 HD
ATOM     24  H   UNL A   1      28.746  26.568  26.681  1.00  0.00     0.344 HD
ENDBRANCH  17  21
ENDBRANCH  16  17
ENDBRANCH  13  16
ENDBRANCH   7  12
ENDBRANCH   3   6
ENDBRANCH   1   2
BRANCH   1  25
ATOM     25  C   UNL A   1      37.332  19.881  24.961  1.00  0.00     0.023 C 
BRANCH  25  26
ATOM     26  C   UNL A   1      38.639  20.660  25.001  1.00  0.00     0.023 C 
BRANCH  26  27
ATOM     27  C   UNL A   1      39.488  20.401  26.232  1.00  0.00     0.116 C 
BRANCH  27  28
ATOM     28  N   UNL A   1      40.353  19.236  26.109  1.00  0.00    -0.352 N 
ATOM     29  C   UNL A   1      41.732  19.204  26.139  1.00  0.00     0.251 C 
ATOM     30  H   UNL A   1      39.901  18.370  25.990  1.00  0.00     0.163 HD
ATOM     31  O   UNL A   1      42.347  18.178  25.932  1.00  0.00    -0.269 OA
BRANCH  29  32
ATOM     32  C   UNL A   1      42.438  20.478  26.386  1.00  0.00     0.039 A 
ATOM     33  C   UNL A   1      42.810  21.261  25.294  1.00  0.00     0.014 A 
ATOM     34  C   UNL A   1      42.612  20.932  27.695  1.00  0.00     0.014 A 
ATOM     35  C   UNL A   1      43.296  22.549  25.518  1.00  0.00     0.010 A 
ATOM     36  C   UNL A   1      43.017  22.242  27.910  1.00  0.00     0.010 A 
ATOM     37  C   UNL A   1      43.362  23.061  26.824  1.00  0.00    -0.014 A 
BRANCH  37  38
ATOM     38  C   UNL A   1      43.797  24.454  27.084  1.00  0.00     0.031 A 
ATOM     39  C   UNL A   1      42.804  25.459  27.594  1.00  0.00     0.074 A 
ATOM     40  C   UNL A   1      45.057  24.828  26.789  1.00  0.00     0.049 A 
ATOM     41  N   UNL A   1      42.958  26.741  27.806  1.00  0.00    -0.248 NA
ATOM     42  C   UNL A   1      41.447  24.962  27.871  1.00  0.00     0.031 C 
ATOM     43  C   UNL A   1      46.094  23.954  26.237  1.00  0.00     0.029 A 
ATOM     44  N   UNL A   1      45.678  26.046  26.904  1.00  0.00    -0.354 N 
ATOM     45  C   UNL A   1      41.717  27.202  28.222  1.00  0.00     0.074 A 
ATOM     46  C   UNL A   1      40.806  26.079  28.177  1.00  0.00     0.031 C 
ATOM     47  C   UNL A   1      47.228  24.658  26.085  1.00  0.00     0.029 A 
ATOM     48  C   UNL A   1      46.989  26.038  26.496  1.00  0.00     0.049 A 
ATOM     49  H   UNL A   1      45.225  26.850  27.248  1.00  0.00     0.167 HD
ATOM     50  C   UNL A   1      41.375  28.446  28.632  1.00  0.00     0.037 A 
ATOM     51  C   UNL A   1      47.892  27.036  26.457  1.00  0.00     0.037 A 
ATOM     52  C   UNL A   1      42.293  29.550  28.708  1.00  0.00     0.049 A 
ATOM     53  C   UNL A   1      47.488  28.407  26.925  1.00  0.00     0.074 A 
ATOM     54  C   UNL A   1      42.064  30.833  29.171  1.00  0.00     0.029 A 
ATOM     55  N   UNL A   1      43.621  29.498  28.309  1.00  0.00    -0.354 N 
ATOM     56  N   UNL A   1      46.330  28.818  27.383  1.00  0.00    -0.248 NA
ATOM     57  C   UNL A   1      48.519  29.454  26.876  1.00  0.00     0.031 C 
ATOM     58  C   UNL A   1      43.244  31.569  29.018  1.00  0.00     0.029 A 
ATOM     59  C   UNL A   1      44.219  30.732  28.500  1.00  0.00     0.049 A 
ATOM     60  H   UNL A   1      44.071  28.702  27.946  1.00  0.00     0.167 HD
ATOM     61  C   UNL A   1      46.498  30.157  27.702  1.00  0.00     0.074 A 
ATOM     62  C   UNL A   1      47.875  30.489  27.398  1.00  0.00     0.031 C 
ATOM     63  C   UNL A   1      45.595  31.036  28.201  1.00  0.00     0.037 A 
BRANCH  50  64
ATOM     64  C   UNL A   1      39.950  28.670  29.042  1.00  0.00     0.064 A 
ATOM     65  C   UNL A   1      39.525  28.463  30.364  1.00  0.00     0.173 A 
ATOM     66  C   UNL A   1      39.003  29.120  28.112  1.00  0.00     0.173 A 
ATOM     67  F   UNL A   1      40.390  28.017  31.289  1.00  0.00    -0.203 F 
ATOM     68  C   UNL A   1      38.199  28.669  30.731  1.00  0.00     0.198 A 
ATOM     69  C   UNL A   1      37.683  29.354  28.490  1.00  0.00     0.198 A 
ATOM     70  F   UNL A   1      39.356  29.335  26.835  1.00  0.00    -0.203 F 
ATOM     71  F   UNL A   1      37.805  28.414  31.987  1.00  0.00    -0.200 F 
ATOM     72  C   UNL A   1      37.280  29.122  29.796  1.00  0.00     0.200 A 
ATOM     73  F   UNL A   1      36.798  29.800  27.587  1.00  0.00    -0.200 F 
ATOM     74  F   UNL A   1      36.004  29.325  30.152  1.00  0.00    -0.200 F 
ENDBRANCH  50  64
BRANCH  51  75
ATOM     75  C   UNL A   1      49.277  26.769  25.988  1.00  0.00     0.064 A 
ATOM     76  C   UNL A   1      49.639  26.998  24.653  1.00  0.00     0.173 A 
ATOM     77  C   UNL A   1      50.263  26.278  26.856  1.00  0.00     0.173 A 
ATOM     78  F   UNL A   1      48.724  27.449  23.781  1.00  0.00    -0.203 F 
ATOM     79  C   UNL A   1      50.927  26.728  24.199  1.00  0.00     0.198 A 
ATOM     80  C   UNL A   1      51.559  26.032  26.406  1.00  0.00     0.198 A 
ATOM     81  F   UNL A   1      49.969  26.048  28.144  1.00  0.00    -0.203 F 
ATOM     82  F   UNL A   1      51.233  26.915  22.908  1.00  0.00    -0.200 F 
ATOM     83  C   UNL A   1      51.887  26.250  25.077  1.00  0.00     0.200 A 
ATOM     84  F   UNL A   1      52.488  25.582  27.262  1.00  0.00    -0.200 F 
ATOM     85  F   UNL A   1      53.128  25.991  24.641  1.00  0.00    -0.200 F 
ENDBRANCH  51  75
BRANCH  63  86
ATOM     86  C   UNL A   1      46.074  32.430  28.481  1.00  0.00     0.064 A 
ATOM     87  C   UNL A   1      46.665  32.771  29.706  1.00  0.00     0.173 A 
ATOM     88  C   UNL A   1      45.982  33.422  27.494  1.00  0.00     0.173 A 
ATOM     89  F   UNL A   1      46.762  31.859  30.686  1.00  0.00    -0.203 F 
ATOM     90  C   UNL A   1      47.127  34.063  29.940  1.00  0.00     0.198 A 
ATOM     91  C   UNL A   1      46.470  34.705  27.722  1.00  0.00     0.198 A 
ATOM     92  F   UNL A   1      45.431  33.143  26.303  1.00  0.00    -0.203 F 
ATOM     93  F   UNL A   1      47.650  34.379  31.133  1.00  0.00    -0.200 F 
ATOM     94  C   UNL A   1      47.036  35.027  28.946  1.00  0.00     0.200 A 
ATOM     95  F   UNL A   1      46.393  35.632  26.756  1.00  0.00    -0.200 F 
ATOM     96  F   UNL A   1      47.489  36.267  29.171  1.00  0.00    -0.200 F 
ENDBRANCH  63  86
ENDBRANCH  37  38
ENDBRANCH  29  32
ENDBRANCH  27  28
ENDBRANCH  26  27
ENDBRANCH  25  26
ENDBRANCH   1  25
TORSDOF 15
ENDMDL
MODEL 3
REMARK VINA RESULT:     -12.1      6.190     11.534
REMARK SMILES [NH3+]C1(CC(=O)N[C@@H]2CCCC[C@H]2C(=O)NCCCCNC(=O)c2ccc(-c3c4nc(c(-c5c(F)c(F)c(F)c(F)c5F)c5ccc([nH]5)c(-c5c(F)c(F)c(F)c(F)c5F)c5nc(c(-c6c(F)c(F)c(F)c(F)c6F)c6ccc3[nH]6)C=C5)C=C4)cc2)CCC1
REMARK SMILES IDX 16 1 15 2 13 3 14 4 12 6 7 7 8 8 9 9 11 10 10 11 6 12 4 13
REMARK SMILES IDX 5 14 3 16 2 17 86 18 88 19 87 20 1 21 17 25 18 26 19 27
REMARK SMILES IDX 20 28 21 29 22 31 23 32 24 33 85 34 25 35 84 36 26 37 27 38
REMARK SMILES IDX 28 39 78 40 29 41 83 42 77 43 79 44 30 45 82 46 76 47 75 48
REMARK SMILES IDX 31 50 63 51 43 52 62 53 44 54 47 55 61 56 80 57 45 58 46 59
REMARK SMILES IDX 60 61 81 62 48 63 32 64 33 65 41 66 34 67 35 68 39 69 42 70
REMARK SMILES IDX 36 71 37 72 40 73 38 74 64 75 65 76 73 77 66 78 67 79 71 80
REMARK SMILES IDX 74 81 68 82 69 83 72 84 70 85 49 86 50 87 58 88 51 89 52 90
REMARK SMILES IDX 56 91 59 92 53 93 54 94 57 95 55 96
REMARK H PARENT 15 5 6 15 1 22 1 23 1 24 20 30 79 49 47 60
REMARK Flexibility Score: inf
ROOT
ATOM      1  C   UNL A   1      33.025  29.784  26.229  1.00  0.00     0.116 C 
ENDROOT
BRANCH   1   2
ATOM      2  N   UNL A   1      33.005  29.785  24.777  1.00  0.00    -0.356 N 
ATOM      3  C   UNL A   1      32.858  28.754  23.888  1.00  0.00     0.225 C 
ATOM      4  O   UNL A   1      32.838  29.039  22.690  1.00  0.00    -0.275 OA
ATOM      5  H   UNL A   1      33.119  30.671  24.364  1.00  0.00     0.163 HD
BRANCH   3   6
ATOM      6  C   UNL A   1      32.671  27.302  24.356  1.00  0.00     0.101 C 
ATOM      7  C   UNL A   1      32.014  26.452  23.248  1.00  0.00     0.094 C 
ATOM      8  C   UNL A   1      32.514  25.020  23.098  1.00  0.00     0.026 C 
ATOM      9  C   UNL A   1      33.962  24.768  23.454  1.00  0.00     0.002 C 
ATOM     10  C   UNL A   1      34.019  26.805  24.925  1.00  0.00     0.015 C 
ATOM     11  C   UNL A   1      34.244  25.304  24.846  1.00  0.00     0.001 C 
BRANCH   7  12
ATOM     12  N   UNL A   1      30.545  26.537  23.207  1.00  0.00    -0.352 N 
ATOM     13  C   UNL A   1      29.639  27.517  23.472  1.00  0.00     0.226 C 
ATOM     14  O   UNL A   1      28.453  27.179  23.525  1.00  0.00    -0.275 OA
ATOM     15  H   UNL A   1      30.122  25.694  22.926  1.00  0.00     0.163 HD
BRANCH  13  16
ATOM     16  C   UNL A   1      30.046  28.959  23.676  1.00  0.00     0.168 C 
BRANCH  16  17
ATOM     17  C   UNL A   1      29.472  29.983  22.683  1.00  0.00     0.103 C 
ATOM     18  C   UNL A   1      29.131  31.351  23.360  1.00  0.00     0.069 C 
ATOM     19  C   UNL A   1      27.994  30.027  22.153  1.00  0.00     0.069 C 
ATOM     20  C   UNL A   1      27.663  30.867  23.411  1.00  0.00     0.013 C 
BRANCH  17  21
ATOM     21  N   UNL A   1      30.354  30.266  21.546  1.00  0.00    -0.352 N 
ATOM     22  H   UNL A   1      31.239  29.774  21.670  1.00  0.00     0.344 HD
ATOM     23  H   UNL A   1      30.528  31.269  21.492  1.00  0.00     0.344 HD
ATOM     24  H   UNL A   1      29.908  29.952  20.684  1.00  0.00     0.344 HD
ENDBRANCH  17  21
ENDBRANCH  16  17
ENDBRANCH  13  16
ENDBRANCH   7  12
ENDBRANCH   3   6
ENDBRANCH   1   2
BRANCH   1  25
ATOM     25  C   UNL A   1      31.788  30.444  26.839  1.00  0.00     0.023 C 
BRANCH  25  26
ATOM     26  C   UNL A   1      31.714  31.952  26.643  1.00  0.00     0.023 C 
BRANCH  26  27
ATOM     27  C   UNL A   1      32.802  32.732  27.359  1.00  0.00     0.116 C 
BRANCH  27  28
ATOM     28  N   UNL A   1      32.432  34.109  27.657  1.00  0.00    -0.352 N 
ATOM     29  C   UNL A   1      32.996  34.949  28.594  1.00  0.00     0.251 C 
ATOM     30  H   UNL A   1      31.691  34.484  27.127  1.00  0.00     0.163 HD
ATOM     31  O   UNL A   1      32.537  36.051  28.816  1.00  0.00    -0.269 OA
BRANCH  29  32
ATOM     32  C   UNL A   1      34.154  34.439  29.355  1.00  0.00     0.039 A 
ATOM     33  C   UNL A   1      33.923  33.708  30.520  1.00  0.00     0.014 A 
ATOM     34  C   UNL A   1      35.444  34.590  28.842  1.00  0.00     0.014 A 
ATOM     35  C   UNL A   1      34.992  33.058  31.136  1.00  0.00     0.010 A 
ATOM     36  C   UNL A   1      36.489  33.875  29.409  1.00  0.00     0.010 A 
ATOM     37  C   UNL A   1      36.272  33.103  30.560  1.00  0.00    -0.014 A 
BRANCH  37  38
ATOM     38  C   UNL A   1      37.408  32.354  31.149  1.00  0.00     0.031 A 
ATOM     39  C   UNL A   1      37.909  32.719  32.516  1.00  0.00     0.074 A 
ATOM     40  C   UNL A   1      38.030  31.404  30.424  1.00  0.00     0.049 A 
ATOM     41  N   UNL A   1      38.937  32.248  33.174  1.00  0.00    -0.248 NA
ATOM     42  C   UNL A   1      37.177  33.781  33.225  1.00  0.00     0.031 C 
ATOM     43  C   UNL A   1      37.667  31.002  29.064  1.00  0.00     0.029 A 
ATOM     44  N   UNL A   1      39.107  30.610  30.729  1.00  0.00    -0.354 N 
ATOM     45  C   UNL A   1      38.982  32.966  34.361  1.00  0.00     0.074 A 
ATOM     46  C   UNL A   1      37.918  33.944  34.310  1.00  0.00     0.031 C 
ATOM     47  C   UNL A   1      38.491  30.020  28.661  1.00  0.00     0.029 A 
ATOM     48  C   UNL A   1      39.459  29.748  29.719  1.00  0.00     0.049 A 
ATOM     49  H   UNL A   1      39.582  30.655  31.590  1.00  0.00     0.167 HD
ATOM     50  C   UNL A   1      39.819  32.804  35.412  1.00  0.00     0.037 A 
ATOM     51  C   UNL A   1      40.455  28.844  29.659  1.00  0.00     0.037 A 
ATOM     52  C   UNL A   1      40.854  31.807  35.472  1.00  0.00     0.049 A 
ATOM     53  C   UNL A   1      41.367  28.679  30.843  1.00  0.00     0.074 A 
ATOM     54  C   UNL A   1      41.713  31.516  36.516  1.00  0.00     0.029 A 
ATOM     55  N   UNL A   1      41.165  30.933  34.440  1.00  0.00    -0.354 N 
ATOM     56  N   UNL A   1      41.358  29.315  31.990  1.00  0.00    -0.248 NA
ATOM     57  C   UNL A   1      42.425  27.666  30.728  1.00  0.00     0.031 C 
ATOM     58  C   UNL A   1      42.571  30.492  36.102  1.00  0.00     0.029 A 
ATOM     59  C   UNL A   1      42.217  30.114  34.817  1.00  0.00     0.049 A 
ATOM     60  H   UNL A   1      40.707  30.900  33.570  1.00  0.00     0.167 HD
ATOM     61  C   UNL A   1      42.386  28.764  32.741  1.00  0.00     0.074 A 
ATOM     62  C   UNL A   1      42.990  27.731  31.926  1.00  0.00     0.031 C 
ATOM     63  C   UNL A   1      42.795  29.084  33.992  1.00  0.00     0.037 A 
BRANCH  50  64
ATOM     64  C   UNL A   1      39.639  33.721  36.586  1.00  0.00     0.064 A 
ATOM     65  C   UNL A   1      40.257  34.980  36.636  1.00  0.00     0.173 A 
ATOM     66  C   UNL A   1      38.822  33.348  37.662  1.00  0.00     0.173 A 
ATOM     67  F   UNL A   1      41.063  35.377  35.637  1.00  0.00    -0.203 F 
ATOM     68  C   UNL A   1      40.088  35.819  37.733  1.00  0.00     0.198 A 
ATOM     69  C   UNL A   1      38.630  34.203  38.745  1.00  0.00     0.198 A 
ATOM     70  F   UNL A   1      38.207  32.155  37.664  1.00  0.00    -0.203 F 
ATOM     71  F   UNL A   1      40.730  36.995  37.782  1.00  0.00    -0.200 F 
ATOM     72  C   UNL A   1      39.268  35.433  38.783  1.00  0.00     0.200 A 
ATOM     73  F   UNL A   1      37.830  33.832  39.754  1.00  0.00    -0.200 F 
ATOM     74  F   UNL A   1      39.101  36.244  39.837  1.00  0.00    -0.200 F 
ENDBRANCH  50  64
BRANCH  51  75
ATOM     75  C   UNL A   1      40.621  28.000  28.446  1.00  0.00     0.064 A 
ATOM     76  C   UNL A   1      40.010  26.741  28.360  1.00  0.00     0.173 A 
ATOM     77  C   UNL A   1      41.390  28.427  27.355  1.00  0.00     0.173 A 
ATOM     78  F   UNL A   1      39.279  26.281  29.387  1.00  0.00    -0.203 F 
ATOM     79  C   UNL A   1      40.179  25.932  27.239  1.00  0.00     0.198 A 
ATOM     80  C   UNL A   1      41.539  27.629  26.223  1.00  0.00     0.198 A 
ATOM     81  F   UNL A   1      41.991  29.625  27.386  1.00  0.00    -0.203 F 
ATOM     82  F   UNL A   1      39.619  24.716  27.202  1.00  0.00    -0.200 F 
ATOM     83  C   UNL A   1      40.939  26.379  26.169  1.00  0.00     0.200 A 
ATOM     84  F   UNL A   1      42.264  28.070  25.185  1.00  0.00    -0.200 F 
ATOM     85  F   UNL A   1      41.101  25.603  25.088  1.00  0.00    -0.200 F 
ENDBRANCH  51  75
BRANCH  63  86
ATOM     86  C   UNL A   1      43.927  28.287  34.570  1.00  0.00     0.064 A 
ATOM     87  C   UNL A   1      45.256  28.723  34.475  1.00  0.00     0.173 A 
ATOM     88  C   UNL A   1      43.672  27.097  35.267  1.00  0.00     0.173 A 
ATOM     89  F   UNL A   1      45.551  29.848  33.805  1.00  0.00    -0.203 F 
ATOM     90  C   UNL A   1      46.292  27.984  35.039  1.00  0.00     0.198 A 
ATOM     91  C   UNL A   1      44.707  26.375  35.853  1.00  0.00     0.198 A 
ATOM     92  F   UNL A   1      42.416  26.642  35.391  1.00  0.00    -0.203 F 
ATOM     93  F   UNL A   1      47.559  28.396  34.900  1.00  0.00    -0.200 F 
ATOM     94  C   UNL A   1      46.016  26.815  35.734  1.00  0.00     0.200 A 
ATOM     95  F   UNL A   1      44.437  25.253  36.535  1.00  0.00    -0.200 F 
ATOM     96  F   UNL A   1      47.014  26.109  36.283  1.00  0.00    -0.200 F 
ENDBRANCH  63  86
ENDBRANCH  37  38
ENDBRANCH  29  32
ENDBRANCH  27  28
ENDBRANCH  26  27
ENDBRANCH  25  26
ENDBRANCH   1  25
TORSDOF 15
ENDMDL
