MODEL 1
REMARK VINA RESULT:     -12.7      0.000      0.000
REMARK SMILES COc1cc(OC)cc(-c2ccc([C@@H](C)C(=O)NCCCCNC(=O)c3ccc(-c4c5nc(c(-c6c(F)c(F)c(F)c(F)c6F)c6ccc([nH]6)c(-c6c(F)c(F)c(F)c(F)c6F)c6nc(c(-c7c(F)c(F)c(F)c(F)c7F)c7ccc4[nH]7)C=C6)C=C5)cc3)cc2F)c1
REMARK SMILES IDX 20 1 19 2 18 3 16 4 17 5 14 7 15 8 13 9 10 10 11 11 90 12
REMARK SMILES IDX 12 13 89 14 91 15 9 16 3 17 4 18 92 19 5 20 8 21 2 22 1 23
REMARK SMILES IDX 6 24 7 25 21 26 22 27 23 28 24 29 25 31 26 32 27 33 88 34
REMARK SMILES IDX 28 35 87 36 29 37 30 38 31 39 81 40 32 41 86 42 80 43 82 44
REMARK SMILES IDX 33 45 85 46 79 47 78 48 34 50 66 51 46 52 65 53 47 54 50 55
REMARK SMILES IDX 64 56 83 57 48 58 49 59 63 61 84 62 51 63 35 64 36 65 44 66
REMARK SMILES IDX 37 67 38 68 42 69 45 70 39 71 40 72 43 73 41 74 67 75 68 76
REMARK SMILES IDX 76 77 69 78 70 79 74 80 77 81 71 82 72 83 75 84 73 85 52 86
REMARK SMILES IDX 53 87 61 88 54 89 55 90 59 91 62 92 56 93 57 94 60 95 58 96
REMARK H PARENT 18 6 23 30 82 49 50 60
REMARK Flexibility Score: inf
ROOT
ATOM      1  C   UNL A   1      32.891  29.889  27.100  1.00  0.00     0.023 C 
ENDROOT
BRANCH   1   2
ATOM      2  C   UNL A   1      31.915  28.780  26.704  1.00  0.00     0.116 C 
BRANCH   2   3
ATOM      3  N   UNL A   1      31.441  28.925  25.344  1.00  0.00    -0.356 N 
ATOM      4  C   UNL A   1      32.052  28.710  24.146  1.00  0.00     0.227 C 
ATOM      5  O   UNL A   1      31.395  28.985  23.136  1.00  0.00    -0.274 OA
ATOM      6  H   UNL A   1      30.509  29.236  25.273  1.00  0.00     0.163 HD
BRANCH   4   7
ATOM      7  C   UNL A   1      33.479  28.154  24.003  1.00  0.00     0.105 C 
ATOM      8  C   UNL A   1      34.240  28.704  22.796  1.00  0.00     0.023 C 
BRANCH   7   9
ATOM      9  C   UNL A   1      33.561  26.653  24.223  1.00  0.00    -0.033 A 
ATOM     10  C   UNL A   1      33.861  23.814  24.505  1.00  0.00     0.018 A 
ATOM     11  C   UNL A   1      34.089  24.698  25.576  1.00  0.00     0.012 A 
ATOM     12  C   UNL A   1      33.456  24.398  23.296  1.00  0.00     0.131 A 
ATOM     13  C   UNL A   1      33.904  26.081  25.450  1.00  0.00     0.005 A 
ATOM     14  C   UNL A   1      33.326  25.783  23.147  1.00  0.00     0.044 A 
ATOM     15  F   UNL A   1      33.170  23.634  22.230  1.00  0.00    -0.206 F 
BRANCH  10  16
ATOM     16  C   UNL A   1      34.037  22.350  24.684  1.00  0.00    -0.008 A 
ATOM     17  C   UNL A   1      33.135  20.086  24.904  1.00  0.00     0.123 A 
ATOM     18  C   UNL A   1      34.433  19.580  24.990  1.00  0.00     0.092 A 
ATOM     19  C   UNL A   1      32.944  21.462  24.744  1.00  0.00     0.055 A 
ATOM     20  C   UNL A   1      35.537  20.424  24.922  1.00  0.00     0.123 A 
ATOM     21  C   UNL A   1      35.331  21.798  24.786  1.00  0.00     0.055 A 
BRANCH  17  22
ATOM     22  O   UNL A   1      32.153  19.138  24.998  1.00  0.00    -0.497 OA
ATOM     23  C   UNL A   1      32.565  17.786  25.132  1.00  0.00     0.278 C 
ENDBRANCH  17  22
BRANCH  20  24
ATOM     24  O   UNL A   1      36.752  19.802  25.003  1.00  0.00    -0.497 OA
ATOM     25  C   UNL A   1      37.905  20.636  25.000  1.00  0.00     0.278 C 
ENDBRANCH  20  24
ENDBRANCH  10  16
ENDBRANCH   7   9
ENDBRANCH   4   7
ENDBRANCH   2   3
ENDBRANCH   1   2
BRANCH   1  26
ATOM     26  C   UNL A   1      32.310  31.301  27.072  1.00  0.00     0.023 C 
BRANCH  26  27
ATOM     27  C   UNL A   1      33.311  32.423  27.321  1.00  0.00     0.116 C 
BRANCH  27  28
ATOM     28  N   UNL A   1      32.703  33.720  27.591  1.00  0.00    -0.352 N 
ATOM     29  C   UNL A   1      33.079  34.654  28.532  1.00  0.00     0.251 C 
ATOM     30  H   UNL A   1      31.929  33.958  27.031  1.00  0.00     0.163 HD
ATOM     31  O   UNL A   1      32.439  35.683  28.691  1.00  0.00    -0.269 OA
BRANCH  29  32
ATOM     32  C   UNL A   1      34.243  34.356  29.390  1.00  0.00     0.039 A 
ATOM     33  C   UNL A   1      34.030  33.754  30.631  1.00  0.00     0.014 A 
ATOM     34  C   UNL A   1      35.538  34.572  28.915  1.00  0.00     0.014 A 
ATOM     35  C   UNL A   1      35.121  33.268  31.354  1.00  0.00     0.010 A 
ATOM     36  C   UNL A   1      36.616  34.026  29.601  1.00  0.00     0.010 A 
ATOM     37  C   UNL A   1      36.415  33.351  30.815  1.00  0.00    -0.014 A 
BRANCH  37  38
ATOM     38  C   UNL A   1      37.576  32.709  31.478  1.00  0.00     0.031 A 
ATOM     39  C   UNL A   1      38.258  31.542  30.827  1.00  0.00     0.074 A 
ATOM     40  C   UNL A   1      37.946  33.110  32.709  1.00  0.00     0.049 A 
ATOM     41  N   UNL A   1      39.194  30.760  31.300  1.00  0.00    -0.248 NA
ATOM     42  C   UNL A   1      37.804  31.188  29.473  1.00  0.00     0.031 C 
ATOM     43  C   UNL A   1      37.333  34.205  33.464  1.00  0.00     0.029 A 
ATOM     44  N   UNL A   1      38.918  32.631  33.551  1.00  0.00    -0.354 N 
ATOM     45  C   UNL A   1      39.425  29.812  30.313  1.00  0.00     0.074 A 
ATOM     46  C   UNL A   1      38.498  30.087  29.235  1.00  0.00     0.031 C 
ATOM     47  C   UNL A   1      37.958  34.328  34.646  1.00  0.00     0.029 A 
ATOM     48  C   UNL A   1      38.984  33.295  34.751  1.00  0.00     0.049 A 
ATOM     49  H   UNL A   1      39.512  31.881  33.317  1.00  0.00     0.167 HD
ATOM     50  C   UNL A   1      40.342  28.816  30.299  1.00  0.00     0.037 A 
ATOM     51  C   UNL A   1      39.777  33.087  35.819  1.00  0.00     0.037 A 
ATOM     52  C   UNL A   1      41.280  28.564  31.359  1.00  0.00     0.049 A 
ATOM     53  C   UNL A   1      40.774  31.962  35.786  1.00  0.00     0.074 A 
ATOM     54  C   UNL A   1      42.293  27.623  31.410  1.00  0.00     0.029 A 
ATOM     55  N   UNL A   1      41.323  29.264  32.556  1.00  0.00    -0.354 N 
ATOM     56  N   UNL A   1      41.022  31.106  34.826  1.00  0.00    -0.248 NA
ATOM     57  C   UNL A   1      41.599  31.774  36.988  1.00  0.00     0.031 C 
ATOM     58  C   UNL A   1      42.926  27.730  32.655  1.00  0.00     0.029 A 
ATOM     59  C   UNL A   1      42.330  28.762  33.362  1.00  0.00     0.049 A 
ATOM     60  H   UNL A   1      40.723  30.008  32.797  1.00  0.00     0.167 HD
ATOM     61  C   UNL A   1      42.043  30.292  35.295  1.00  0.00     0.074 A 
ATOM     62  C   UNL A   1      42.377  30.762  36.623  1.00  0.00     0.031 C 
ATOM     63  C   UNL A   1      42.650  29.248  34.680  1.00  0.00     0.037 A 
BRANCH  50  64
ATOM     64  C   UNL A   1      40.371  27.928  29.091  1.00  0.00     0.064 A 
ATOM     65  C   UNL A   1      41.136  28.255  27.961  1.00  0.00     0.173 A 
ATOM     66  C   UNL A   1      39.638  26.733  29.066  1.00  0.00     0.173 A 
ATOM     67  F   UNL A   1      41.841  29.395  27.931  1.00  0.00    -0.203 F 
ATOM     68  C   UNL A   1      41.139  27.434  26.837  1.00  0.00     0.198 A 
ATOM     69  C   UNL A   1      39.665  25.900  27.950  1.00  0.00     0.198 A 
ATOM     70  F   UNL A   1      38.894  26.373  30.122  1.00  0.00    -0.203 F 
ATOM     71  F   UNL A   1      41.833  27.794  25.749  1.00  0.00    -0.200 F 
ATOM     72  C   UNL A   1      40.407  26.255  26.834  1.00  0.00     0.200 A 
ATOM     73  F   UNL A   1      38.965  24.757  27.952  1.00  0.00    -0.200 F 
ATOM     74  F   UNL A   1      40.410  25.467  25.750  1.00  0.00    -0.200 F 
ENDBRANCH  50  64
BRANCH  51  75
ATOM     75  C   UNL A   1      39.680  33.981  37.001  1.00  0.00     0.064 A 
ATOM     76  C   UNL A   1      40.376  35.196  37.034  1.00  0.00     0.173 A 
ATOM     77  C   UNL A   1      38.895  33.646  38.114  1.00  0.00     0.173 A 
ATOM     78  F   UNL A   1      41.157  35.547  36.002  1.00  0.00    -0.203 F 
ATOM     79  C   UNL A   1      40.301  36.039  38.140  1.00  0.00     0.198 A 
ATOM     80  C   UNL A   1      38.802  34.500  39.210  1.00  0.00     0.198 A 
ATOM     81  F   UNL A   1      38.207  32.494  38.129  1.00  0.00    -0.203 F 
ATOM     82  F   UNL A   1      41.004  37.179  38.160  1.00  0.00    -0.200 F 
ATOM     83  C   UNL A   1      39.510  35.693  39.226  1.00  0.00     0.200 A 
ATOM     84  F   UNL A   1      38.029  34.168  40.253  1.00  0.00    -0.200 F 
ATOM     85  F   UNL A   1      39.435  36.505  40.289  1.00  0.00    -0.200 F 
ENDBRANCH  51  75
BRANCH  63  86
ATOM     86  C   UNL A   1      43.755  28.563  35.424  1.00  0.00     0.064 A 
ATOM     87  C   UNL A   1      43.504  27.465  36.258  1.00  0.00     0.173 A 
ATOM     88  C   UNL A   1      45.085  28.978  35.261  1.00  0.00     0.173 A 
ATOM     89  F   UNL A   1      42.246  27.043  36.458  1.00  0.00    -0.203 F 
ATOM     90  C   UNL A   1      44.545  26.815  36.914  1.00  0.00     0.198 A 
ATOM     91  C   UNL A   1      46.126  28.311  35.901  1.00  0.00     0.198 A 
ATOM     92  F   UNL A   1      45.376  30.022  34.470  1.00  0.00    -0.203 F 
ATOM     93  F   UNL A   1      44.280  25.788  37.735  1.00  0.00    -0.200 F 
ATOM     94  C   UNL A   1      45.855  27.233  36.729  1.00  0.00     0.200 A 
ATOM     95  F   UNL A   1      47.392  28.711  35.714  1.00  0.00    -0.200 F 
ATOM     96  F   UNL A   1      46.856  26.599  37.356  1.00  0.00    -0.200 F 
ENDBRANCH  63  86
ENDBRANCH  37  38
ENDBRANCH  29  32
ENDBRANCH  27  28
ENDBRANCH  26  27
ENDBRANCH   1  26
TORSDOF 15
ENDMDL
MODEL 2
REMARK VINA RESULT:     -12.7      0.220      2.005
REMARK SMILES COc1cc(OC)cc(-c2ccc([C@@H](C)C(=O)NCCCCNC(=O)c3ccc(-c4c5nc(c(-c6c(F)c(F)c(F)c(F)c6F)c6ccc([nH]6)c(-c6c(F)c(F)c(F)c(F)c6F)c6nc(c(-c7c(F)c(F)c(F)c(F)c7F)c7ccc4[nH]7)C=C6)C=C5)cc3)cc2F)c1
REMARK SMILES IDX 20 1 19 2 18 3 16 4 17 5 14 7 15 8 13 9 10 10 11 11 90 12
REMARK SMILES IDX 12 13 89 14 91 15 9 16 3 17 4 18 92 19 5 20 8 21 2 22 1 23
REMARK SMILES IDX 6 24 7 25 21 26 22 27 23 28 24 29 25 31 26 32 27 33 88 34
REMARK SMILES IDX 28 35 87 36 29 37 30 38 31 39 81 40 32 41 86 42 80 43 82 44
REMARK SMILES IDX 33 45 85 46 79 47 78 48 34 50 66 51 46 52 65 53 47 54 50 55
REMARK SMILES IDX 64 56 83 57 48 58 49 59 63 61 84 62 51 63 35 64 36 65 44 66
REMARK SMILES IDX 37 67 38 68 42 69 45 70 39 71 40 72 43 73 41 74 67 75 68 76
REMARK SMILES IDX 76 77 69 78 70 79 74 80 77 81 71 82 72 83 75 84 73 85 52 86
REMARK SMILES IDX 53 87 61 88 54 89 55 90 59 91 62 92 56 93 57 94 60 95 58 96
REMARK H PARENT 18 6 23 30 82 49 50 60
REMARK Flexibility Score: inf
ROOT
ATOM      1  C   UNL A   1      32.735  30.158  26.403  1.00  0.00     0.023 C 
ENDROOT
BRANCH   1   2
ATOM      2  C   UNL A   1      31.730  29.024  26.198  1.00  0.00     0.116 C 
BRANCH   2   3
ATOM      3  N   UNL A   1      31.279  28.931  24.825  1.00  0.00    -0.356 N 
ATOM      4  C   UNL A   1      31.924  28.551  23.687  1.00  0.00     0.227 C 
ATOM      5  O   UNL A   1      31.278  28.635  22.636  1.00  0.00    -0.274 OA
ATOM      6  H   UNL A   1      30.339  29.189  24.690  1.00  0.00     0.163 HD
BRANCH   4   7
ATOM      7  C   UNL A   1      33.372  28.035  23.656  1.00  0.00     0.105 C 
ATOM      8  C   UNL A   1      34.205  28.595  22.502  1.00  0.00     0.023 C 
BRANCH   7   9
ATOM      9  C   UNL A   1      33.480  26.539  23.899  1.00  0.00    -0.033 A 
ATOM     10  C   UNL A   1      33.854  23.718  24.259  1.00  0.00     0.018 A 
ATOM     11  C   UNL A   1      33.808  24.609  25.347  1.00  0.00     0.012 A 
ATOM     12  C   UNL A   1      33.683  24.285  22.988  1.00  0.00     0.131 A 
ATOM     13  C   UNL A   1      33.587  25.982  25.175  1.00  0.00     0.005 A 
ATOM     14  C   UNL A   1      33.519  25.662  22.805  1.00  0.00     0.044 A 
ATOM     15  F   UNL A   1      33.665  23.511  21.891  1.00  0.00    -0.206 F 
BRANCH  10  16
ATOM     16  C   UNL A   1      34.061  22.264  24.481  1.00  0.00    -0.008 A 
ATOM     17  C   UNL A   1      35.516  20.326  24.815  1.00  0.00     0.123 A 
ATOM     18  C   UNL A   1      34.394  19.506  24.936  1.00  0.00     0.092 A 
ATOM     19  C   UNL A   1      35.346  21.697  24.597  1.00  0.00     0.055 A 
ATOM     20  C   UNL A   1      33.109  20.033  24.840  1.00  0.00     0.123 A 
ATOM     21  C   UNL A   1      32.954  21.398  24.600  1.00  0.00     0.055 A 
BRANCH  17  22
ATOM     22  O   UNL A   1      36.711  19.666  24.919  1.00  0.00    -0.497 OA
ATOM     23  C   UNL A   1      37.890  20.457  24.957  1.00  0.00     0.278 C 
ENDBRANCH  17  22
BRANCH  20  24
ATOM     24  O   UNL A   1      32.095  19.127  24.993  1.00  0.00    -0.497 OA
ATOM     25  C   UNL A   1      32.467  17.790  25.305  1.00  0.00     0.278 C 
ENDBRANCH  20  24
ENDBRANCH  10  16
ENDBRANCH   7   9
ENDBRANCH   4   7
ENDBRANCH   2   3
ENDBRANCH   1   2
BRANCH   1  26
ATOM     26  C   UNL A   1      32.140  31.459  26.939  1.00  0.00     0.023 C 
BRANCH  26  27
ATOM     27  C   UNL A   1      33.147  32.449  27.512  1.00  0.00     0.116 C 
BRANCH  27  28
ATOM     28  N   UNL A   1      32.621  33.794  27.705  1.00  0.00    -0.352 N 
ATOM     29  C   UNL A   1      33.083  34.770  28.562  1.00  0.00     0.251 C 
ATOM     30  H   UNL A   1      31.842  34.035  27.155  1.00  0.00     0.163 HD
ATOM     31  O   UNL A   1      32.507  35.844  28.665  1.00  0.00    -0.269 OA
BRANCH  29  32
ATOM     32  C   UNL A   1      34.260  34.469  29.401  1.00  0.00     0.039 A 
ATOM     33  C   UNL A   1      34.061  33.927  30.672  1.00  0.00     0.014 A 
ATOM     34  C   UNL A   1      35.548  34.620  28.883  1.00  0.00     0.014 A 
ATOM     35  C   UNL A   1      35.155  33.434  31.386  1.00  0.00     0.010 A 
ATOM     36  C   UNL A   1      36.625  34.066  29.563  1.00  0.00     0.010 A 
ATOM     37  C   UNL A   1      36.436  33.449  30.810  1.00  0.00    -0.014 A 
BRANCH  37  38
ATOM     38  C   UNL A   1      37.592  32.796  31.468  1.00  0.00     0.031 A 
ATOM     39  C   UNL A   1      38.262  31.624  30.814  1.00  0.00     0.074 A 
ATOM     40  C   UNL A   1      37.969  33.192  32.699  1.00  0.00     0.049 A 
ATOM     41  N   UNL A   1      39.192  30.832  31.283  1.00  0.00    -0.248 NA
ATOM     42  C   UNL A   1      37.801  31.276  29.461  1.00  0.00     0.031 C 
ATOM     43  C   UNL A   1      37.369  34.291  33.457  1.00  0.00     0.029 A 
ATOM     44  N   UNL A   1      38.939  32.703  33.538  1.00  0.00    -0.354 N 
ATOM     45  C   UNL A   1      39.411  29.883  30.294  1.00  0.00     0.074 A 
ATOM     46  C   UNL A   1      38.485  30.168  29.219  1.00  0.00     0.031 C 
ATOM     47  C   UNL A   1      37.998  34.406  34.638  1.00  0.00     0.029 A 
ATOM     48  C   UNL A   1      39.015  33.365  34.738  1.00  0.00     0.049 A 
ATOM     49  H   UNL A   1      39.525  31.947  33.301  1.00  0.00     0.167 HD
ATOM     50  C   UNL A   1      40.319  28.879  30.277  1.00  0.00     0.037 A 
ATOM     51  C   UNL A   1      39.809  33.148  35.805  1.00  0.00     0.037 A 
ATOM     52  C   UNL A   1      41.258  28.617  31.334  1.00  0.00     0.049 A 
ATOM     53  C   UNL A   1      40.795  32.014  35.767  1.00  0.00     0.074 A 
ATOM     54  C   UNL A   1      42.262  27.667  31.381  1.00  0.00     0.029 A 
ATOM     55  N   UNL A   1      41.310  29.315  32.532  1.00  0.00    -0.354 N 
ATOM     56  N   UNL A   1      41.033  31.156  34.805  1.00  0.00    -0.248 NA
ATOM     57  C   UNL A   1      41.621  31.815  36.967  1.00  0.00     0.031 C 
ATOM     58  C   UNL A   1      42.899  27.766  32.625  1.00  0.00     0.029 A 
ATOM     59  C   UNL A   1      42.315  28.802  33.335  1.00  0.00     0.049 A 
ATOM     60  H   UNL A   1      40.718  30.064  32.775  1.00  0.00     0.167 HD
ATOM     61  C   UNL A   1      42.047  30.332  35.270  1.00  0.00     0.074 A 
ATOM     62  C   UNL A   1      42.389  30.798  36.598  1.00  0.00     0.031 C 
ATOM     63  C   UNL A   1      42.643  29.284  34.652  1.00  0.00     0.037 A 
BRANCH  50  64
ATOM     64  C   UNL A   1      40.337  27.992  29.068  1.00  0.00     0.064 A 
ATOM     65  C   UNL A   1      41.084  28.325  27.927  1.00  0.00     0.173 A 
ATOM     66  C   UNL A   1      39.611  26.793  29.051  1.00  0.00     0.173 A 
ATOM     67  F   UNL A   1      41.782  29.470  27.889  1.00  0.00    -0.203 F 
ATOM     68  C   UNL A   1      41.076  27.506  26.802  1.00  0.00     0.198 A 
ATOM     69  C   UNL A   1      39.628  25.961  27.935  1.00  0.00     0.198 A 
ATOM     70  F   UNL A   1      38.884  26.427  30.117  1.00  0.00    -0.203 F 
ATOM     71  F   UNL A   1      41.753  27.872  25.705  1.00  0.00    -0.200 F 
ATOM     72  C   UNL A   1      40.352  26.323  26.809  1.00  0.00     0.200 A 
ATOM     73  F   UNL A   1      38.936  24.814  27.944  1.00  0.00    -0.200 F 
ATOM     74  F   UNL A   1      40.345  25.535  25.724  1.00  0.00    -0.200 F 
ENDBRANCH  50  64
BRANCH  51  75
ATOM     75  C   UNL A   1      39.723  34.040  36.988  1.00  0.00     0.064 A 
ATOM     76  C   UNL A   1      38.923  33.693  38.085  1.00  0.00     0.173 A 
ATOM     77  C   UNL A   1      40.432  35.248  37.051  1.00  0.00     0.173 A 
ATOM     78  F   UNL A   1      38.209  32.558  38.059  1.00  0.00    -0.203 F 
ATOM     79  C   UNL A   1      38.826  34.526  39.197  1.00  0.00     0.198 A 
ATOM     80  C   UNL A   1      40.352  36.069  38.174  1.00  0.00     0.198 A 
ATOM     81  F   UNL A   1      41.213  35.623  36.028  1.00  0.00    -0.203 F 
ATOM     82  F   UNL A   1      38.027  34.187  40.218  1.00  0.00    -0.200 F 
ATOM     83  C   UNL A   1      39.545  35.711  39.244  1.00  0.00     0.200 A 
ATOM     84  F   UNL A   1      41.056  37.208  38.220  1.00  0.00    -0.200 F 
ATOM     85  F   UNL A   1      39.454  36.510  40.315  1.00  0.00    -0.200 F 
ENDBRANCH  51  75
BRANCH  63  86
ATOM     86  C   UNL A   1      43.744  28.588  35.392  1.00  0.00     0.064 A 
ATOM     87  C   UNL A   1      45.083  28.974  35.243  1.00  0.00     0.173 A 
ATOM     88  C   UNL A   1      43.450  27.557  36.297  1.00  0.00     0.173 A 
ATOM     89  F   UNL A   1      45.414  29.944  34.376  1.00  0.00    -0.203 F 
ATOM     90  C   UNL A   1      46.092  28.343  35.965  1.00  0.00     0.198 A 
ATOM     91  C   UNL A   1      44.460  26.943  37.034  1.00  0.00     0.198 A 
ATOM     92  F   UNL A   1      42.183  27.154  36.476  1.00  0.00    -0.203 F 
ATOM     93  F   UNL A   1      47.370  28.704  35.783  1.00  0.00    -0.200 F 
ATOM     94  C   UNL A   1      45.779  27.334  36.865  1.00  0.00     0.200 A 
ATOM     95  F   UNL A   1      44.154  25.975  37.910  1.00  0.00    -0.200 F 
ATOM     96  F   UNL A   1      46.752  26.734  37.565  1.00  0.00    -0.200 F 
ENDBRANCH  63  86
ENDBRANCH  37  38
ENDBRANCH  29  32
ENDBRANCH  27  28
ENDBRANCH  26  27
ENDBRANCH   1  26
TORSDOF 15
ENDMDL
MODEL 3
REMARK VINA RESULT:     -12.5      3.671      8.674
REMARK SMILES COc1cc(OC)cc(-c2ccc([C@@H](C)C(=O)NCCCCNC(=O)c3ccc(-c4c5nc(c(-c6c(F)c(F)c(F)c(F)c6F)c6ccc([nH]6)c(-c6c(F)c(F)c(F)c(F)c6F)c6nc(c(-c7c(F)c(F)c(F)c(F)c7F)c7ccc4[nH]7)C=C6)C=C5)cc3)cc2F)c1
REMARK SMILES IDX 20 1 19 2 18 3 16 4 17 5 14 7 15 8 13 9 10 10 11 11 90 12
REMARK SMILES IDX 12 13 89 14 91 15 9 16 3 17 4 18 92 19 5 20 8 21 2 22 1 23
REMARK SMILES IDX 6 24 7 25 21 26 22 27 23 28 24 29 25 31 26 32 27 33 88 34
REMARK SMILES IDX 28 35 87 36 29 37 30 38 31 39 81 40 32 41 86 42 80 43 82 44
REMARK SMILES IDX 33 45 85 46 79 47 78 48 34 50 66 51 46 52 65 53 47 54 50 55
REMARK SMILES IDX 64 56 83 57 48 58 49 59 63 61 84 62 51 63 35 64 36 65 44 66
REMARK SMILES IDX 37 67 38 68 42 69 45 70 39 71 40 72 43 73 41 74 67 75 68 76
REMARK SMILES IDX 76 77 69 78 70 79 74 80 77 81 71 82 72 83 75 84 73 85 52 86
REMARK SMILES IDX 53 87 61 88 54 89 55 90 59 91 62 92 56 93 57 94 60 95 58 96
REMARK H PARENT 18 6 23 30 82 49 50 60
REMARK Flexibility Score: inf
ROOT
ATOM      1  C   UNL A   1      31.544  28.353  26.586  1.00  0.00     0.023 C 
ENDROOT
BRANCH   1   2
ATOM      2  C   UNL A   1      31.647  29.412  25.488  1.00  0.00     0.116 C 
BRANCH   2   3
ATOM      3  N   UNL A   1      31.144  28.936  24.217  1.00  0.00    -0.356 N 
ATOM      4  C   UNL A   1      31.754  28.275  23.194  1.00  0.00     0.227 C 
ATOM      5  O   UNL A   1      31.063  28.051  22.194  1.00  0.00    -0.274 OA
ATOM      6  H   UNL A   1      30.189  29.123  24.064  1.00  0.00     0.163 HD
BRANCH   4   7
ATOM      7  C   UNL A   1      33.219  27.807  23.233  1.00  0.00     0.105 C 
ATOM      8  C   UNL A   1      34.070  28.342  22.080  1.00  0.00     0.023 C 
BRANCH   7   9
ATOM      9  C   UNL A   1      33.367  26.328  23.549  1.00  0.00    -0.033 A 
ATOM     10  C   UNL A   1      33.807  23.535  24.032  1.00  0.00     0.018 A 
ATOM     11  C   UNL A   1      33.843  24.486  25.068  1.00  0.00     0.012 A 
ATOM     12  C   UNL A   1      33.520  24.027  22.750  1.00  0.00     0.131 A 
ATOM     13  C   UNL A   1      33.590  25.845  24.840  1.00  0.00     0.005 A 
ATOM     14  C   UNL A   1      33.323  25.391  22.506  1.00  0.00     0.044 A 
ATOM     15  F   UNL A   1      33.418  23.192  21.704  1.00  0.00    -0.206 F 
BRANCH  10  16
ATOM     16  C   UNL A   1      34.051  22.098  24.316  1.00  0.00    -0.008 A 
ATOM     17  C   UNL A   1      35.552  20.227  24.800  1.00  0.00     0.123 A 
ATOM     18  C   UNL A   1      34.453  19.370  24.884  1.00  0.00     0.092 A 
ATOM     19  C   UNL A   1      35.346  21.583  24.525  1.00  0.00     0.055 A 
ATOM     20  C   UNL A   1      33.159  19.846  24.697  1.00  0.00     0.123 A 
ATOM     21  C   UNL A   1      32.970  21.196  24.400  1.00  0.00     0.055 A 
BRANCH  17  22
ATOM     22  O   UNL A   1      36.760  19.615  24.995  1.00  0.00    -0.497 OA
ATOM     23  C   UNL A   1      37.910  20.447  25.042  1.00  0.00     0.278 C 
ENDBRANCH  17  22
BRANCH  20  24
ATOM     24  O   UNL A   1      32.170  18.909  24.823  1.00  0.00    -0.497 OA
ATOM     25  C   UNL A   1      32.565  17.606  25.236  1.00  0.00     0.278 C 
ENDBRANCH  20  24
ENDBRANCH  10  16
ENDBRANCH   7   9
ENDBRANCH   4   7
ENDBRANCH   2   3
ENDBRANCH   1   2
BRANCH   1  26
ATOM     26  C   UNL A   1      32.777  28.222  27.476  1.00  0.00     0.023 C 
BRANCH  26  27
ATOM     27  C   UNL A   1      33.938  29.145  27.123  1.00  0.00     0.116 C 
BRANCH  27  28
ATOM     28  N   UNL A   1      33.937  30.412  27.843  1.00  0.00    -0.352 N 
ATOM     29  C   UNL A   1      34.946  30.951  28.611  1.00  0.00     0.251 C 
ATOM     30  H   UNL A   1      33.115  30.948  27.771  1.00  0.00     0.163 HD
ATOM     31  O   UNL A   1      34.789  32.005  29.211  1.00  0.00    -0.269 OA
BRANCH  29  32
ATOM     32  C   UNL A   1      36.209  30.197  28.742  1.00  0.00     0.039 A 
ATOM     33  C   UNL A   1      37.170  30.312  27.735  1.00  0.00     0.014 A 
ATOM     34  C   UNL A   1      36.478  29.473  29.905  1.00  0.00     0.014 A 
ATOM     35  C   UNL A   1      38.446  29.787  27.943  1.00  0.00     0.010 A 
ATOM     36  C   UNL A   1      37.768  29.014  30.139  1.00  0.00     0.010 A 
ATOM     37  C   UNL A   1      38.769  29.186  29.170  1.00  0.00    -0.014 A 
BRANCH  37  38
ATOM     38  C   UNL A   1      40.152  28.759  29.487  1.00  0.00     0.031 A 
ATOM     39  C   UNL A   1      41.050  29.660  30.283  1.00  0.00     0.074 A 
ATOM     40  C   UNL A   1      40.630  27.610  28.971  1.00  0.00     0.049 A 
ATOM     41  N   UNL A   1      42.325  29.535  30.547  1.00  0.00    -0.248 NA
ATOM     42  C   UNL A   1      40.438  30.882  30.826  1.00  0.00     0.031 C 
ATOM     43  C   UNL A   1      39.868  26.669  28.147  1.00  0.00     0.029 A 
ATOM     44  N   UNL A   1      41.878  27.045  29.049  1.00  0.00    -0.354 N 
ATOM     45  C   UNL A   1      42.671  30.670  31.269  1.00  0.00     0.074 A 
ATOM     46  C   UNL A   1      41.484  31.494  31.359  1.00  0.00     0.031 C 
ATOM     47  C   UNL A   1      40.658  25.635  27.815  1.00  0.00     0.029 A 
ATOM     48  C   UNL A   1      41.991  25.860  28.365  1.00  0.00     0.049 A 
ATOM     49  H   UNL A   1      42.624  27.452  29.548  1.00  0.00     0.167 HD
ATOM     50  C   UNL A   1      43.865  30.984  31.824  1.00  0.00     0.037 A 
ATOM     51  C   UNL A   1      43.054  25.051  28.193  1.00  0.00     0.037 A 
ATOM     52  C   UNL A   1      45.034  30.149  31.757  1.00  0.00     0.049 A 
ATOM     53  C   UNL A   1      44.374  25.433  28.804  1.00  0.00     0.074 A 
ATOM     54  C   UNL A   1      46.271  30.347  32.344  1.00  0.00     0.029 A 
ATOM     55  N   UNL A   1      45.107  28.950  31.062  1.00  0.00    -0.354 N 
ATOM     56  N   UNL A   1      44.677  26.480  29.530  1.00  0.00    -0.248 NA
ATOM     57  C   UNL A   1      45.501  24.520  28.566  1.00  0.00     0.031 C 
ATOM     58  C   UNL A   1      47.105  29.284  31.974  1.00  0.00     0.029 A 
ATOM     59  C   UNL A   1      46.375  28.408  31.188  1.00  0.00     0.049 A 
ATOM     60  H   UNL A   1      44.367  28.546  30.554  1.00  0.00     0.167 HD
ATOM     61  C   UNL A   1      46.018  26.344  29.856  1.00  0.00     0.074 A 
ATOM     62  C   UNL A   1      46.471  25.107  29.256  1.00  0.00     0.031 C 
ATOM     63  C   UNL A   1      46.804  27.171  30.587  1.00  0.00     0.037 A 
BRANCH  50  64
ATOM     64  C   UNL A   1      43.959  32.290  32.555  1.00  0.00     0.064 A 
ATOM     65  C   UNL A   1      44.344  33.469  31.901  1.00  0.00     0.173 A 
ATOM     66  C   UNL A   1      43.649  32.366  33.920  1.00  0.00     0.173 A 
ATOM     67  F   UNL A   1      44.665  33.444  30.598  1.00  0.00    -0.203 F 
ATOM     68  C   UNL A   1      44.448  34.671  32.594  1.00  0.00     0.198 A 
ATOM     69  C   UNL A   1      43.727  33.576  34.605  1.00  0.00     0.198 A 
ATOM     70  F   UNL A   1      43.273  31.268  34.592  1.00  0.00    -0.203 F 
ATOM     71  F   UNL A   1      44.871  35.774  31.960  1.00  0.00    -0.200 F 
ATOM     72  C   UNL A   1      44.135  34.725  33.945  1.00  0.00     0.200 A 
ATOM     73  F   UNL A   1      43.417  33.629  35.908  1.00  0.00    -0.200 F 
ATOM     74  F   UNL A   1      44.237  35.883  34.611  1.00  0.00    -0.200 F 
ENDBRANCH  50  64
BRANCH  51  75
ATOM     75  C   UNL A   1      42.908  23.786  27.430  1.00  0.00     0.064 A 
ATOM     76  C   UNL A   1      42.413  22.633  28.052  1.00  0.00     0.173 A 
ATOM     77  C   UNL A   1      43.255  23.701  26.074  1.00  0.00     0.173 A 
ATOM     78  F   UNL A   1      42.089  22.662  29.353  1.00  0.00    -0.203 F 
ATOM     79  C   UNL A   1      42.280  21.437  27.350  1.00  0.00     0.198 A 
ATOM     80  C   UNL A   1      43.100  22.511  25.367  1.00  0.00     0.198 A 
ATOM     81  F   UNL A   1      43.731  24.778  25.433  1.00  0.00    -0.203 F 
ATOM     82  F   UNL A   1      41.836  20.340  27.978  1.00  0.00    -0.200 F 
ATOM     83  C   UNL A   1      42.618  21.378  26.007  1.00  0.00     0.200 A 
ATOM     84  F   UNL A   1      43.419  22.459  24.066  1.00  0.00    -0.200 F 
ATOM     85  F   UNL A   1      42.487  20.228  25.331  1.00  0.00    -0.200 F 
ENDBRANCH  51  75
BRANCH  63  86
ATOM     86  C   UNL A   1      48.226  26.750  30.803  1.00  0.00     0.064 A 
ATOM     87  C   UNL A   1      48.579  25.868  31.834  1.00  0.00     0.173 A 
ATOM     88  C   UNL A   1      49.238  27.196  29.940  1.00  0.00     0.173 A 
ATOM     89  F   UNL A   1      47.648  25.429  32.695  1.00  0.00    -0.203 F 
ATOM     90  C   UNL A   1      49.898  25.457  32.000  1.00  0.00     0.198 A 
ATOM     91  C   UNL A   1      50.552  26.764  30.096  1.00  0.00     0.198 A 
ATOM     92  F   UNL A   1      48.949  28.038  28.937  1.00  0.00    -0.203 F 
ATOM     93  F   UNL A   1      50.220  24.640  33.013  1.00  0.00    -0.200 F 
ATOM     94  C   UNL A   1      50.881  25.898  31.127  1.00  0.00     0.200 A 
ATOM     95  F   UNL A   1      51.499  27.185  29.245  1.00  0.00    -0.200 F 
ATOM     96  F   UNL A   1      52.149  25.494  31.285  1.00  0.00    -0.200 F 
ENDBRANCH  63  86
ENDBRANCH  37  38
ENDBRANCH  29  32
ENDBRANCH  27  28
ENDBRANCH  26  27
ENDBRANCH   1  26
TORSDOF 15
ENDMDL
