MODEL 1
REMARK VINA RESULT:     -11.6      0.000      0.000
REMARK SMILES CN(C)S(=O)(=O)c1ccc(-n2c(CCC(=O)NCCCCNC(=O)c3ccc(-c4c5nc(c(-c6c(F)c(F)c(F)c(F)c6F)c6ccc([nH]6)c(-c6c(F)c(F)c(F)c(F)c6F)c6nc(c(-c7c(F)c(F)c(F)c(F)c7F)c7ccc4[nH]7)C=C6)C=C5)cc3)ccc2-c2ccc(F)cc2)cc1
REMARK SMILES IDX 18 1 17 2 15 3 16 4 14 6 13 7 12 8 11 9 90 10 88 11 89 12
REMARK SMILES IDX 10 13 7 14 8 15 99 16 9 17 98 18 4 19 5 20 6 21 2 22 1 23
REMARK SMILES IDX 3 24 91 25 92 26 97 27 93 28 96 29 94 30 95 31 19 32 20 33
REMARK SMILES IDX 21 34 22 35 23 36 24 38 25 39 26 40 87 41 27 42 86 43 28 44
REMARK SMILES IDX 29 45 30 46 80 47 31 48 85 49 79 50 81 51 32 52 84 53 78 54
REMARK SMILES IDX 77 55 33 57 65 58 45 59 64 60 46 61 49 62 63 63 82 64 47 65
REMARK SMILES IDX 48 66 62 68 83 69 50 70 34 71 35 72 43 73 36 74 37 75 41 76
REMARK SMILES IDX 44 77 38 78 39 79 42 80 40 81 66 82 67 83 75 84 68 85 69 86
REMARK SMILES IDX 73 87 76 88 70 89 71 90 74 91 72 92 51 93 52 94 60 95 53 96
REMARK SMILES IDX 54 97 58 98 61 99 55 100 56 101 59 102 57 103
REMARK H PARENT 17 5 22 37 81 56 49 67
REMARK Flexibility Score: inf
ROOT
ATOM      1  C   UNL A   1      41.001  25.809  35.745  1.00  0.00     0.116 C 
ENDROOT
BRANCH   1   2
ATOM      2  N   UNL A   1      41.437  27.012  36.427  1.00  0.00    -0.356 N 
ATOM      3  C   UNL A   1      41.497  28.289  35.939  1.00  0.00     0.220 C 
ATOM      4  O   UNL A   1      42.065  29.140  36.624  1.00  0.00    -0.275 OA
ATOM      5  H   UNL A   1      41.727  26.896  37.360  1.00  0.00     0.163 HD
BRANCH   3   6
ATOM      6  C   UNL A   1      40.879  28.643  34.592  1.00  0.00     0.106 C 
BRANCH   6   7
ATOM      7  C   UNL A   1      41.311  29.987  33.961  1.00  0.00     0.064 C 
BRANCH   7   8
ATOM      8  C   UNL A   1      40.409  31.165  34.299  1.00  0.00     0.024 A 
ATOM      9  N   UNL A   1      39.378  31.780  33.527  1.00  0.00    -0.314 N 
ATOM     10  C   UNL A   1      38.865  32.845  34.326  1.00  0.00     0.053 A 
ATOM     11  C   UNL A   1      40.525  31.856  35.495  1.00  0.00     0.024 A 
ATOM     12  C   UNL A   1      39.589  32.889  35.507  1.00  0.00     0.029 A 
BRANCH   9  13
ATOM     13  C   UNL A   1      38.824  31.322  32.253  1.00  0.00     0.046 A 
ATOM     14  C   UNL A   1      37.531  30.767  29.779  1.00  0.00     0.082 A 
ATOM     15  C   UNL A   1      38.844  31.240  29.798  1.00  0.00     0.024 A 
ATOM     16  C   UNL A   1      36.895  30.492  30.977  1.00  0.00     0.024 A 
ATOM     17  C   UNL A   1      39.487  31.500  31.030  1.00  0.00     0.028 A 
ATOM     18  C   UNL A   1      37.539  30.772  32.182  1.00  0.00     0.028 A 
BRANCH  14  19
ATOM     19  S   UNL A   1      36.719  30.333  28.260  1.00  0.00     0.242 S 
ATOM     20  O   UNL A   1      35.716  29.319  28.575  1.00  0.00    -0.207 OA
ATOM     21  O   UNL A   1      37.731  30.083  27.273  1.00  0.00    -0.207 OA
BRANCH  19  22
ATOM     22  N   UNL A   1      35.858  31.748  27.789  1.00  0.00    -0.204 NA
ATOM     23  C   UNL A   1      34.392  31.565  27.986  1.00  0.00     0.124 C 
ATOM     24  C   UNL A   1      36.298  33.019  28.413  1.00  0.00     0.124 C 
ENDBRANCH  19  22
ENDBRANCH  14  19
ENDBRANCH   9  13
BRANCH  10  25
ATOM     25  C   UNL A   1      37.619  33.617  34.151  1.00  0.00    -0.001 A 
ATOM     26  C   UNL A   1      36.553  33.536  35.052  1.00  0.00     0.013 A 
ATOM     27  C   UNL A   1      37.419  34.333  32.968  1.00  0.00     0.013 A 
ATOM     28  C   UNL A   1      35.340  34.185  34.772  1.00  0.00     0.040 A 
ATOM     29  C   UNL A   1      36.218  34.971  32.672  1.00  0.00     0.040 A 
ATOM     30  C   UNL A   1      35.185  34.895  33.584  1.00  0.00     0.123 A 
ATOM     31  F   UNL A   1      34.022  35.502  33.313  1.00  0.00    -0.207 F 
ENDBRANCH  10  25
ENDBRANCH   7   8
ENDBRANCH   6   7
ENDBRANCH   3   6
ENDBRANCH   1   2
BRANCH   1  32
ATOM     32  C   UNL A   1      41.824  24.630  36.222  1.00  0.00     0.023 C 
BRANCH  32  33
ATOM     33  C   UNL A   1      42.314  23.687  35.128  1.00  0.00     0.023 C 
BRANCH  33  34
ATOM     34  C   UNL A   1      43.734  23.206  35.368  1.00  0.00     0.116 C 
BRANCH  34  35
ATOM     35  N   UNL A   1      44.508  23.969  36.356  1.00  0.00    -0.352 N 
ATOM     36  C   UNL A   1      45.307  25.070  36.150  1.00  0.00     0.251 C 
ATOM     37  H   UNL A   1      44.448  23.651  37.286  1.00  0.00     0.163 HD
ATOM     38  O   UNL A   1      46.027  25.522  37.029  1.00  0.00    -0.269 OA
BRANCH  36  39
ATOM     39  C   UNL A   1      45.300  25.657  34.809  1.00  0.00     0.039 A 
ATOM     40  C   UNL A   1      46.210  25.212  33.849  1.00  0.00     0.014 A 
ATOM     41  C   UNL A   1      44.258  26.528  34.492  1.00  0.00     0.014 A 
ATOM     42  C   UNL A   1      45.996  25.559  32.524  1.00  0.00     0.010 A 
ATOM     43  C   UNL A   1      43.957  26.745  33.173  1.00  0.00     0.010 A 
ATOM     44  C   UNL A   1      44.840  26.279  32.192  1.00  0.00    -0.014 A 
BRANCH  44  45
ATOM     45  C   UNL A   1      44.500  26.560  30.789  1.00  0.00     0.031 A 
ATOM     46  C   UNL A   1      44.494  28.048  30.456  1.00  0.00     0.074 A 
ATOM     47  C   UNL A   1      44.333  25.445  30.019  1.00  0.00     0.049 A 
ATOM     48  N   UNL A   1      43.877  28.665  29.500  1.00  0.00    -0.248 NA
ATOM     49  C   UNL A   1      45.217  29.005  31.336  1.00  0.00     0.031 C 
ATOM     50  C   UNL A   1      44.381  24.070  30.564  1.00  0.00     0.029 A 
ATOM     51  N   UNL A   1      44.125  25.201  28.679  1.00  0.00    -0.354 N 
ATOM     52  C   UNL A   1      44.266  30.019  29.542  1.00  0.00     0.074 A 
ATOM     53  C   UNL A   1      44.978  30.194  30.773  1.00  0.00     0.031 C 
ATOM     54  C   UNL A   1      44.190  23.161  29.598  1.00  0.00     0.029 A 
ATOM     55  C   UNL A   1      43.980  23.830  28.337  1.00  0.00     0.049 A 
ATOM     56  H   UNL A   1      44.080  25.922  28.009  1.00  0.00     0.167 HD
ATOM     57  C   UNL A   1      44.113  30.857  28.472  1.00  0.00     0.037 A 
ATOM     58  C   UNL A   1      43.661  23.258  27.137  1.00  0.00     0.037 A 
ATOM     59  C   UNL A   1      43.546  30.135  27.379  1.00  0.00     0.049 A 
ATOM     60  C   UNL A   1      43.661  24.355  26.157  1.00  0.00     0.074 A 
ATOM     61  C   UNL A   1      42.299  29.612  27.167  1.00  0.00     0.029 A 
ATOM     62  N   UNL A   1      44.434  29.555  26.502  1.00  0.00    -0.354 N 
ATOM     63  N   UNL A   1      44.730  24.952  25.720  1.00  0.00    -0.248 NA
ATOM     64  C   UNL A   1      42.378  24.925  25.730  1.00  0.00     0.031 C 
ATOM     65  C   UNL A   1      42.561  28.404  26.490  1.00  0.00     0.029 A 
ATOM     66  C   UNL A   1      43.912  28.344  26.127  1.00  0.00     0.049 A 
ATOM     67  H   UNL A   1      45.287  29.940  26.198  1.00  0.00     0.167 HD
ATOM     68  C   UNL A   1      44.229  26.150  25.262  1.00  0.00     0.074 A 
ATOM     69  C   UNL A   1      42.823  25.945  25.001  1.00  0.00     0.031 C 
ATOM     70  C   UNL A   1      44.812  27.306  25.676  1.00  0.00     0.037 A 
BRANCH  57  71
ATOM     71  C   UNL A   1      44.658  32.223  28.158  1.00  0.00     0.064 A 
ATOM     72  C   UNL A   1      43.780  33.331  28.287  1.00  0.00     0.173 A 
ATOM     73  C   UNL A   1      45.826  32.445  27.421  1.00  0.00     0.173 A 
ATOM     74  F   UNL A   1      42.653  33.233  29.013  1.00  0.00    -0.203 F 
ATOM     75  C   UNL A   1      43.987  34.525  27.600  1.00  0.00     0.198 A 
ATOM     76  C   UNL A   1      46.057  33.665  26.775  1.00  0.00     0.198 A 
ATOM     77  F   UNL A   1      46.715  31.465  27.216  1.00  0.00    -0.203 F 
ATOM     78  F   UNL A   1      43.051  35.485  27.630  1.00  0.00    -0.200 F 
ATOM     79  C   UNL A   1      45.119  34.684  26.828  1.00  0.00     0.200 A 
ATOM     80  F   UNL A   1      47.160  33.818  26.030  1.00  0.00    -0.200 F 
ATOM     81  F   UNL A   1      45.290  35.798  26.104  1.00  0.00    -0.200 F 
ENDBRANCH  57  71
BRANCH  58  82
ATOM     82  C   UNL A   1      43.213  21.888  26.682  1.00  0.00     0.064 A 
ATOM     83  C   UNL A   1      43.802  21.112  25.674  1.00  0.00     0.173 A 
ATOM     84  C   UNL A   1      42.152  21.233  27.363  1.00  0.00     0.173 A 
ATOM     85  F   UNL A   1      44.672  21.633  24.805  1.00  0.00    -0.203 F 
ATOM     86  C   UNL A   1      43.482  19.758  25.484  1.00  0.00     0.198 A 
ATOM     87  C   UNL A   1      41.850  19.881  27.197  1.00  0.00     0.198 A 
ATOM     88  F   UNL A   1      41.363  21.884  28.227  1.00  0.00    -0.203 F 
ATOM     89  F   UNL A   1      44.111  19.057  24.529  1.00  0.00    -0.200 F 
ATOM     90  C   UNL A   1      42.538  19.132  26.274  1.00  0.00     0.200 A 
ATOM     91  F   UNL A   1      40.903  19.317  27.959  1.00  0.00    -0.200 F 
ATOM     92  F   UNL A   1      42.276  17.827  26.131  1.00  0.00    -0.200 F 
ENDBRANCH  58  82
BRANCH  70  93
ATOM     93  C   UNL A   1      46.284  27.158  26.020  1.00  0.00     0.064 A 
ATOM     94  C   UNL A   1      47.217  26.894  25.000  1.00  0.00     0.173 A 
ATOM     95  C   UNL A   1      46.788  27.129  27.330  1.00  0.00     0.173 A 
ATOM     96  F   UNL A   1      46.834  26.939  23.715  1.00  0.00    -0.203 F 
ATOM     97  C   UNL A   1      48.548  26.571  25.281  1.00  0.00     0.198 A 
ATOM     98  C   UNL A   1      48.119  26.816  27.614  1.00  0.00     0.198 A 
ATOM     99  F   UNL A   1      46.001  27.408  28.367  1.00  0.00    -0.203 F 
ATOM    100  F   UNL A   1      49.397  26.303  24.279  1.00  0.00    -0.200 F 
ATOM    101  C   UNL A   1      48.997  26.524  26.589  1.00  0.00     0.200 A 
ATOM    102  F   UNL A   1      48.547  26.799  28.887  1.00  0.00    -0.200 F 
ATOM    103  F   UNL A   1      50.273  26.215  26.861  1.00  0.00    -0.200 F 
ENDBRANCH  70  93
ENDBRANCH  44  45
ENDBRANCH  36  39
ENDBRANCH  34  35
ENDBRANCH  33  34
ENDBRANCH  32  33
ENDBRANCH   1  32
TORSDOF 17
ENDMDL
MODEL 2
REMARK VINA RESULT:     -11.6      7.706     14.558
REMARK SMILES CN(C)S(=O)(=O)c1ccc(-n2c(CCC(=O)NCCCCNC(=O)c3ccc(-c4c5nc(c(-c6c(F)c(F)c(F)c(F)c6F)c6ccc([nH]6)c(-c6c(F)c(F)c(F)c(F)c6F)c6nc(c(-c7c(F)c(F)c(F)c(F)c7F)c7ccc4[nH]7)C=C6)C=C5)cc3)ccc2-c2ccc(F)cc2)cc1
REMARK SMILES IDX 18 1 17 2 15 3 16 4 14 6 13 7 12 8 11 9 90 10 88 11 89 12
REMARK SMILES IDX 10 13 7 14 8 15 99 16 9 17 98 18 4 19 5 20 6 21 2 22 1 23
REMARK SMILES IDX 3 24 91 25 92 26 97 27 93 28 96 29 94 30 95 31 19 32 20 33
REMARK SMILES IDX 21 34 22 35 23 36 24 38 25 39 26 40 87 41 27 42 86 43 28 44
REMARK SMILES IDX 29 45 30 46 80 47 31 48 85 49 79 50 81 51 32 52 84 53 78 54
REMARK SMILES IDX 77 55 33 57 65 58 45 59 64 60 46 61 49 62 63 63 82 64 47 65
REMARK SMILES IDX 48 66 62 68 83 69 50 70 34 71 35 72 43 73 36 74 37 75 41 76
REMARK SMILES IDX 44 77 38 78 39 79 42 80 40 81 66 82 67 83 75 84 68 85 69 86
REMARK SMILES IDX 73 87 76 88 70 89 71 90 74 91 72 92 51 93 52 94 60 95 53 96
REMARK SMILES IDX 54 97 58 98 61 99 55 100 56 101 59 102 57 103
REMARK H PARENT 17 5 22 37 81 56 49 67
REMARK Flexibility Score: inf
ROOT
ATOM      1  C   UNL A   1      42.569  40.358  28.324  1.00  0.00     0.116 C 
ENDROOT
BRANCH   1   2
ATOM      2  N   UNL A   1      44.007  40.519  28.238  1.00  0.00    -0.356 N 
ATOM      3  C   UNL A   1      44.777  40.685  27.119  1.00  0.00     0.220 C 
ATOM      4  O   UNL A   1      46.000  40.625  27.248  1.00  0.00    -0.275 OA
ATOM      5  H   UNL A   1      44.492  40.508  29.094  1.00  0.00     0.163 HD
BRANCH   3   6
ATOM      6  C   UNL A   1      44.138  40.935  25.758  1.00  0.00     0.106 C 
BRANCH   6   7
ATOM      7  C   UNL A   1      43.855  42.408  25.384  1.00  0.00     0.064 C 
BRANCH   7   8
ATOM      8  C   UNL A   1      43.155  42.600  24.047  1.00  0.00     0.024 A 
ATOM      9  N   UNL A   1      43.592  43.288  22.875  1.00  0.00    -0.314 N 
ATOM     10  C   UNL A   1      42.537  43.158  21.922  1.00  0.00     0.053 A 
ATOM     11  C   UNL A   1      41.881  42.108  23.811  1.00  0.00     0.024 A 
ATOM     12  C   UNL A   1      41.499  42.459  22.517  1.00  0.00     0.029 A 
BRANCH   9  13
ATOM     13  C   UNL A   1      44.912  43.863  22.617  1.00  0.00     0.046 A 
ATOM     14  C   UNL A   1      47.410  44.901  21.733  1.00  0.00     0.082 A 
ATOM     15  C   UNL A   1      46.364  45.764  22.063  1.00  0.00     0.024 A 
ATOM     16  C   UNL A   1      47.246  43.539  21.919  1.00  0.00     0.024 A 
ATOM     17  C   UNL A   1      45.131  45.245  22.516  1.00  0.00     0.028 A 
ATOM     18  C   UNL A   1      46.015  43.044  22.351  1.00  0.00     0.028 A 
BRANCH  14  19
ATOM     19  S   UNL A   1      49.008  45.511  21.254  1.00  0.00     0.242 S 
ATOM     20  O   UNL A   1      50.009  44.637  21.858  1.00  0.00    -0.207 OA
ATOM     21  O   UNL A   1      49.030  46.927  21.493  1.00  0.00    -0.207 OA
BRANCH  19  22
ATOM     22  N   UNL A   1      49.095  45.259  19.553  1.00  0.00    -0.204 NA
ATOM     23  C   UNL A   1      48.271  46.266  18.826  1.00  0.00     0.124 C 
ATOM     24  C   UNL A   1      50.456  45.203  18.968  1.00  0.00     0.124 C 
ENDBRANCH  19  22
ENDBRANCH  14  19
ENDBRANCH   9  13
BRANCH  10  25
ATOM     25  C   UNL A   1      42.564  43.421  20.469  1.00  0.00    -0.001 A 
ATOM     26  C   UNL A   1      43.753  43.640  19.768  1.00  0.00     0.013 A 
ATOM     27  C   UNL A   1      41.360  43.618  19.788  1.00  0.00     0.013 A 
ATOM     28  C   UNL A   1      43.717  44.016  18.416  1.00  0.00     0.040 A 
ATOM     29  C   UNL A   1      41.309  44.004  18.452  1.00  0.00     0.040 A 
ATOM     30  C   UNL A   1      42.495  44.196  17.773  1.00  0.00     0.123 A 
ATOM     31  F   UNL A   1      42.463  44.569  16.487  1.00  0.00    -0.207 F 
ENDBRANCH  10  25
ENDBRANCH   7   8
ENDBRANCH   6   7
ENDBRANCH   3   6
ENDBRANCH   1   2
BRANCH   1  32
ATOM     32  C   UNL A   1      42.222  38.883  28.302  1.00  0.00     0.023 C 
BRANCH  32  33
ATOM     33  C   UNL A   1      41.941  38.296  26.923  1.00  0.00     0.023 C 
BRANCH  33  34
ATOM     34  C   UNL A   1      42.755  37.043  26.648  1.00  0.00     0.116 C 
BRANCH  34  35
ATOM     35  N   UNL A   1      44.211  37.189  26.767  1.00  0.00    -0.352 N 
ATOM     36  C   UNL A   1      45.057  36.597  27.676  1.00  0.00     0.251 C 
ATOM     37  H   UNL A   1      44.637  37.787  26.111  1.00  0.00     0.163 HD
ATOM     38  O   UNL A   1      46.233  36.921  27.774  1.00  0.00    -0.269 OA
BRANCH  36  39
ATOM     39  C   UNL A   1      44.480  35.588  28.566  1.00  0.00     0.039 A 
ATOM     40  C   UNL A   1      43.987  35.964  29.817  1.00  0.00     0.014 A 
ATOM     41  C   UNL A   1      44.290  34.306  28.050  1.00  0.00     0.014 A 
ATOM     42  C   UNL A   1      43.188  35.066  30.509  1.00  0.00     0.010 A 
ATOM     43  C   UNL A   1      43.380  33.480  28.656  1.00  0.00     0.010 A 
ATOM     44  C   UNL A   1      42.849  33.852  29.897  1.00  0.00    -0.014 A 
BRANCH  44  45
ATOM     45  C   UNL A   1      41.902  32.923  30.531  1.00  0.00     0.031 A 
ATOM     46  C   UNL A   1      42.579  31.725  31.187  1.00  0.00     0.074 A 
ATOM     47  C   UNL A   1      40.601  33.337  30.494  1.00  0.00     0.049 A 
ATOM     48  N   UNL A   1      42.085  30.561  31.463  1.00  0.00    -0.248 NA
ATOM     49  C   UNL A   1      44.025  31.791  31.533  1.00  0.00     0.031 C 
ATOM     50  C   UNL A   1      40.160  34.558  29.785  1.00  0.00     0.029 A 
ATOM     51  N   UNL A   1      39.413  32.886  31.027  1.00  0.00    -0.354 N 
ATOM     52  C   UNL A   1      43.068  29.831  32.161  1.00  0.00     0.074 A 
ATOM     53  C   UNL A   1      44.282  30.585  32.050  1.00  0.00     0.031 C 
ATOM     54  C   UNL A   1      38.838  34.736  29.905  1.00  0.00     0.029 A 
ATOM     55  C   UNL A   1      38.273  33.657  30.680  1.00  0.00     0.049 A 
ATOM     56  H   UNL A   1      39.359  32.090  31.604  1.00  0.00     0.167 HD
ATOM     57  C   UNL A   1      42.763  28.736  32.921  1.00  0.00     0.037 A 
ATOM     58  C   UNL A   1      36.951  33.431  30.945  1.00  0.00     0.037 A 
ATOM     59  C   UNL A   1      41.354  28.513  32.890  1.00  0.00     0.049 A 
ATOM     60  C   UNL A   1      36.916  32.273  31.852  1.00  0.00     0.074 A 
ATOM     61  C   UNL A   1      40.510  28.079  31.903  1.00  0.00     0.029 A 
ATOM     62  N   UNL A   1      40.615  29.118  33.882  1.00  0.00    -0.354 N 
ATOM     63  N   UNL A   1      37.280  32.305  33.100  1.00  0.00    -0.248 NA
ATOM     64  C   UNL A   1      36.583  30.953  31.307  1.00  0.00     0.031 C 
ATOM     65  C   UNL A   1      39.345  28.846  32.107  1.00  0.00     0.029 A 
ATOM     66  C   UNL A   1      39.440  29.542  33.319  1.00  0.00     0.049 A 
ATOM     67  H   UNL A   1      40.882  29.226  34.822  1.00  0.00     0.167 HD
ATOM     68  C   UNL A   1      37.543  30.979  33.361  1.00  0.00     0.074 A 
ATOM     69  C   UNL A   1      36.814  30.206  32.382  1.00  0.00     0.031 C 
ATOM     70  C   UNL A   1      38.731  30.645  33.931  1.00  0.00     0.037 A 
BRANCH  57  71
ATOM     71  C   UNL A   1      43.540  27.955  33.945  1.00  0.00     0.064 A 
ATOM     72  C   UNL A   1      43.829  26.595  33.659  1.00  0.00     0.173 A 
ATOM     73  C   UNL A   1      43.685  28.349  35.280  1.00  0.00     0.173 A 
ATOM     74  F   UNL A   1      43.763  26.129  32.400  1.00  0.00    -0.203 F 
ATOM     75  C   UNL A   1      44.095  25.667  34.662  1.00  0.00     0.198 A 
ATOM     76  C   UNL A   1      44.005  27.423  36.279  1.00  0.00     0.198 A 
ATOM     77  F   UNL A   1      43.418  29.602  35.668  1.00  0.00    -0.203 F 
ATOM     78  F   UNL A   1      44.208  24.365  34.358  1.00  0.00    -0.200 F 
ATOM     79  C   UNL A   1      44.165  26.079  35.977  1.00  0.00     0.200 A 
ATOM     80  F   UNL A   1      44.077  27.827  37.555  1.00  0.00    -0.200 F 
ATOM     81  F   UNL A   1      44.345  25.183  36.956  1.00  0.00    -0.200 F 
ENDBRANCH  57  71
BRANCH  58  82
ATOM     82  C   UNL A   1      35.639  33.982  30.434  1.00  0.00     0.064 A 
ATOM     83  C   UNL A   1      34.598  34.507  31.212  1.00  0.00     0.173 A 
ATOM     84  C   UNL A   1      35.418  34.086  29.035  1.00  0.00     0.173 A 
ATOM     85  F   UNL A   1      34.544  34.318  32.532  1.00  0.00    -0.203 F 
ATOM     86  C   UNL A   1      33.527  35.222  30.650  1.00  0.00     0.198 A 
ATOM     87  C   UNL A   1      34.371  34.818  28.473  1.00  0.00     0.198 A 
ATOM     88  F   UNL A   1      36.218  33.479  28.149  1.00  0.00    -0.203 F 
ATOM     89  F   UNL A   1      32.583  35.737  31.451  1.00  0.00    -0.200 F 
ATOM     90  C   UNL A   1      33.437  35.414  29.285  1.00  0.00     0.200 A 
ATOM     91  F   UNL A   1      34.297  34.954  27.142  1.00  0.00    -0.200 F 
ATOM     92  F   UNL A   1      32.448  36.145  28.757  1.00  0.00    -0.200 F 
ENDBRANCH  58  82
BRANCH  70  93
ATOM     93  C   UNL A   1      39.321  31.742  34.801  1.00  0.00     0.064 A 
ATOM     94  C   UNL A   1      38.669  32.116  35.990  1.00  0.00     0.173 A 
ATOM     95  C   UNL A   1      40.424  32.528  34.436  1.00  0.00     0.173 A 
ATOM     96  F   UNL A   1      37.628  31.397  36.438  1.00  0.00    -0.203 F 
ATOM     97  C   UNL A   1      39.066  33.233  36.731  1.00  0.00     0.198 A 
ATOM     98  C   UNL A   1      40.830  33.640  35.178  1.00  0.00     0.198 A 
ATOM     99  F   UNL A   1      41.139  32.235  33.352  1.00  0.00    -0.203 F 
ATOM    100  F   UNL A   1      38.401  33.567  37.845  1.00  0.00    -0.200 F 
ATOM    101  C   UNL A   1      40.141  34.001  36.320  1.00  0.00     0.200 A 
ATOM    102  F   UNL A   1      41.891  34.361  34.781  1.00  0.00    -0.200 F 
ATOM    103  F   UNL A   1      40.524  35.073  37.028  1.00  0.00    -0.200 F 
ENDBRANCH  70  93
ENDBRANCH  44  45
ENDBRANCH  36  39
ENDBRANCH  34  35
ENDBRANCH  33  34
ENDBRANCH  32  33
ENDBRANCH   1  32
TORSDOF 17
ENDMDL
MODEL 3
REMARK VINA RESULT:     -11.5      2.133      3.534
REMARK SMILES CN(C)S(=O)(=O)c1ccc(-n2c(CCC(=O)NCCCCNC(=O)c3ccc(-c4c5nc(c(-c6c(F)c(F)c(F)c(F)c6F)c6ccc([nH]6)c(-c6c(F)c(F)c(F)c(F)c6F)c6nc(c(-c7c(F)c(F)c(F)c(F)c7F)c7ccc4[nH]7)C=C6)C=C5)cc3)ccc2-c2ccc(F)cc2)cc1
REMARK SMILES IDX 18 1 17 2 15 3 16 4 14 6 13 7 12 8 11 9 90 10 88 11 89 12
REMARK SMILES IDX 10 13 7 14 8 15 99 16 9 17 98 18 4 19 5 20 6 21 2 22 1 23
REMARK SMILES IDX 3 24 91 25 92 26 97 27 93 28 96 29 94 30 95 31 19 32 20 33
REMARK SMILES IDX 21 34 22 35 23 36 24 38 25 39 26 40 87 41 27 42 86 43 28 44
REMARK SMILES IDX 29 45 30 46 80 47 31 48 85 49 79 50 81 51 32 52 84 53 78 54
REMARK SMILES IDX 77 55 33 57 65 58 45 59 64 60 46 61 49 62 63 63 82 64 47 65
REMARK SMILES IDX 48 66 62 68 83 69 50 70 34 71 35 72 43 73 36 74 37 75 41 76
REMARK SMILES IDX 44 77 38 78 39 79 42 80 40 81 66 82 67 83 75 84 68 85 69 86
REMARK SMILES IDX 73 87 76 88 70 89 71 90 74 91 72 92 51 93 52 94 60 95 53 96
REMARK SMILES IDX 54 97 58 98 61 99 55 100 56 101 59 102 57 103
REMARK H PARENT 17 5 22 37 81 56 49 67
REMARK Flexibility Score: inf
ROOT
ATOM      1  C   UNL A   1      44.345  31.198  34.513  1.00  0.00     0.116 C 
ENDROOT
BRANCH   1   2
ATOM      2  N   UNL A   1      43.794  32.487  34.886  1.00  0.00    -0.356 N 
ATOM      3  C   UNL A   1      42.479  32.840  35.021  1.00  0.00     0.220 C 
ATOM      4  O   UNL A   1      42.217  34.034  35.172  1.00  0.00    -0.275 OA
ATOM      5  H   UNL A   1      44.449  33.199  35.064  1.00  0.00     0.163 HD
BRANCH   3   6
ATOM      6  C   UNL A   1      41.377  31.788  34.986  1.00  0.00     0.106 C 
BRANCH   6   7
ATOM      7  C   UNL A   1      40.528  31.713  33.696  1.00  0.00     0.064 C 
BRANCH   7   8
ATOM      8  C   UNL A   1      40.665  30.411  32.921  1.00  0.00     0.024 A 
ATOM      9  N   UNL A   1      39.824  29.855  31.910  1.00  0.00    -0.314 N 
ATOM     10  C   UNL A   1      40.422  28.614  31.536  1.00  0.00     0.053 A 
ATOM     11  C   UNL A   1      41.702  29.523  33.159  1.00  0.00     0.024 A 
ATOM     12  C   UNL A   1      41.548  28.420  32.320  1.00  0.00     0.029 A 
BRANCH   9  13
ATOM     13  C   UNL A   1      38.681  30.487  31.253  1.00  0.00     0.046 A 
ATOM     14  C   UNL A   1      36.488  31.428  29.702  1.00  0.00     0.082 A 
ATOM     15  C   UNL A   1      36.264  30.716  30.881  1.00  0.00     0.024 A 
ATOM     16  C   UNL A   1      37.786  31.743  29.340  1.00  0.00     0.024 A 
ATOM     17  C   UNL A   1      37.356  30.263  31.655  1.00  0.00     0.028 A 
ATOM     18  C   UNL A   1      38.851  31.273  30.108  1.00  0.00     0.028 A 
BRANCH  14  19
ATOM     19  S   UNL A   1      35.148  32.101  28.749  1.00  0.00     0.242 S 
ATOM     20  O   UNL A   1      35.732  32.828  27.626  1.00  0.00    -0.207 OA
ATOM     21  O   UNL A   1      34.245  32.753  29.656  1.00  0.00    -0.207 OA
BRANCH  19  22
ATOM     22  N   UNL A   1      34.337  30.735  28.085  1.00  0.00    -0.204 NA
ATOM     23  C   UNL A   1      33.244  31.164  27.167  1.00  0.00     0.124 C 
ATOM     24  C   UNL A   1      35.194  29.727  27.416  1.00  0.00     0.124 C 
ENDBRANCH  19  22
ENDBRANCH  14  19
ENDBRANCH   9  13
BRANCH  10  25
ATOM     25  C   UNL A   1      40.145  27.772  30.355  1.00  0.00    -0.001 A 
ATOM     26  C   UNL A   1      38.907  27.159  30.144  1.00  0.00     0.013 A 
ATOM     27  C   UNL A   1      41.193  27.438  29.493  1.00  0.00     0.013 A 
ATOM     28  C   UNL A   1      38.734  26.262  29.078  1.00  0.00     0.040 A 
ATOM     29  C   UNL A   1      41.040  26.541  28.440  1.00  0.00     0.040 A 
ATOM     30  C   UNL A   1      39.803  25.961  28.238  1.00  0.00     0.123 A 
ATOM     31  F   UNL A   1      39.641  25.095  27.230  1.00  0.00    -0.207 F 
ENDBRANCH  10  25
ENDBRANCH   7   8
ENDBRANCH   6   7
ENDBRANCH   3   6
ENDBRANCH   1   2
BRANCH   1  32
ATOM     32  C   UNL A   1      45.194  30.663  35.648  1.00  0.00     0.023 C 
BRANCH  32  33
ATOM     33  C   UNL A   1      44.904  29.224  36.061  1.00  0.00     0.023 C 
BRANCH  33  34
ATOM     34  C   UNL A   1      46.156  28.363  36.086  1.00  0.00     0.116 C 
BRANCH  34  35
ATOM     35  N   UNL A   1      46.052  27.107  36.839  1.00  0.00    -0.352 N 
ATOM     36  C   UNL A   1      45.564  25.893  36.412  1.00  0.00     0.251 C 
ATOM     37  H   UNL A   1      46.372  27.137  37.769  1.00  0.00     0.163 HD
ATOM     38  O   UNL A   1      45.382  24.960  37.182  1.00  0.00    -0.269 OA
BRANCH  36  39
ATOM     39  C   UNL A   1      45.221  25.774  34.994  1.00  0.00     0.039 A 
ATOM     40  C   UNL A   1      43.915  26.029  34.570  1.00  0.00     0.014 A 
ATOM     41  C   UNL A   1      46.266  25.573  34.093  1.00  0.00     0.014 A 
ATOM     42  C   UNL A   1      43.683  26.201  33.214  1.00  0.00     0.010 A 
ATOM     43  C   UNL A   1      46.070  25.893  32.775  1.00  0.00     0.010 A 
ATOM     44  C   UNL A   1      44.774  26.183  32.333  1.00  0.00    -0.014 A 
BRANCH  44  45
ATOM     45  C   UNL A   1      44.599  26.488  30.906  1.00  0.00     0.031 A 
ATOM     46  C   UNL A   1      44.748  27.971  30.582  1.00  0.00     0.074 A 
ATOM     47  C   UNL A   1      44.418  25.388  30.117  1.00  0.00     0.049 A 
ATOM     48  N   UNL A   1      44.282  28.634  29.573  1.00  0.00    -0.248 NA
ATOM     49  C   UNL A   1      45.457  28.867  31.535  1.00  0.00     0.031 C 
ATOM     50  C   UNL A   1      44.298  24.016  30.655  1.00  0.00     0.029 A 
ATOM     51  N   UNL A   1      44.325  25.160  28.760  1.00  0.00    -0.354 N 
ATOM     52  C   UNL A   1      44.775  29.951  29.662  1.00  0.00     0.074 A 
ATOM     53  C   UNL A   1      45.373  30.070  30.958  1.00  0.00     0.031 C 
ATOM     54  C   UNL A   1      44.129  23.123  29.670  1.00  0.00     0.029 A 
ATOM     55  C   UNL A   1      44.101  23.805  28.398  1.00  0.00     0.049 A 
ATOM     56  H   UNL A   1      44.406  25.880  28.094  1.00  0.00     0.167 HD
ATOM     57  C   UNL A   1      44.798  30.797  28.587  1.00  0.00     0.037 A 
ATOM     58  C   UNL A   1      43.857  23.258  27.169  1.00  0.00     0.037 A 
ATOM     59  C   UNL A   1      44.285  30.121  27.439  1.00  0.00     0.049 A 
ATOM     60  C   UNL A   1      44.045  24.349  26.200  1.00  0.00     0.074 A 
ATOM     61  C   UNL A   1      43.026  29.702  27.101  1.00  0.00     0.029 A 
ATOM     62  N   UNL A   1      45.205  29.469  26.651  1.00  0.00    -0.354 N 
ATOM     63  N   UNL A   1      45.197  24.855  25.875  1.00  0.00    -0.248 NA
ATOM     64  C   UNL A   1      42.862  25.022  25.651  1.00  0.00     0.031 C 
ATOM     65  C   UNL A   1      43.254  28.475  26.446  1.00  0.00     0.029 A 
ATOM     66  C   UNL A   1      44.625  28.304  26.219  1.00  0.00     0.049 A 
ATOM     67  H   UNL A   1      46.112  29.781  26.436  1.00  0.00     0.167 HD
ATOM     68  C   UNL A   1      44.845  26.089  25.377  1.00  0.00     0.074 A 
ATOM     69  C   UNL A   1      43.459  26.000  24.976  1.00  0.00     0.031 C 
ATOM     70  C   UNL A   1      45.477  27.194  25.853  1.00  0.00     0.037 A 
BRANCH  57  71
ATOM     71  C   UNL A   1      45.482  32.112  28.336  1.00  0.00     0.064 A 
ATOM     72  C   UNL A   1      44.678  33.208  27.924  1.00  0.00     0.173 A 
ATOM     73  C   UNL A   1      46.859  32.248  28.134  1.00  0.00     0.173 A 
ATOM     74  F   UNL A   1      43.348  33.194  28.116  1.00  0.00    -0.203 F 
ATOM     75  C   UNL A   1      45.203  34.290  27.222  1.00  0.00     0.198 A 
ATOM     76  C   UNL A   1      47.390  33.363  27.475  1.00  0.00     0.198 A 
ATOM     77  F   UNL A   1      47.710  31.269  28.464  1.00  0.00    -0.203 F 
ATOM     78  F   UNL A   1      44.382  35.223  26.719  1.00  0.00    -0.200 F 
ATOM     79  C   UNL A   1      46.560  34.358  26.982  1.00  0.00     0.200 A 
ATOM     80  F   UNL A   1      48.709  33.429  27.248  1.00  0.00    -0.200 F 
ATOM     81  F   UNL A   1      47.065  35.355  26.244  1.00  0.00    -0.200 F 
ENDBRANCH  57  71
BRANCH  58  82
ATOM     82  C   UNL A   1      43.346  21.929  26.663  1.00  0.00     0.064 A 
ATOM     83  C   UNL A   1      43.947  21.122  25.688  1.00  0.00     0.173 A 
ATOM     84  C   UNL A   1      42.195  21.346  27.259  1.00  0.00     0.173 A 
ATOM     85  F   UNL A   1      44.912  21.586  24.890  1.00  0.00    -0.203 F 
ATOM     86  C   UNL A   1      43.546  19.796  25.456  1.00  0.00     0.198 A 
ATOM     87  C   UNL A   1      41.809  20.021  27.053  1.00  0.00     0.198 A 
ATOM     88  F   UNL A   1      41.395  22.044  28.076  1.00  0.00    -0.203 F 
ATOM     89  F   UNL A   1      44.188  19.060  24.538  1.00  0.00    -0.200 F 
ATOM     90  C   UNL A   1      42.505  19.233  26.169  1.00  0.00     0.200 A 
ATOM     91  F   UNL A   1      40.773  19.519  27.738  1.00  0.00    -0.200 F 
ATOM     92  F   UNL A   1      42.161  17.951  25.989  1.00  0.00    -0.200 F 
ENDBRANCH  58  82
BRANCH  70  93
ATOM     93  C   UNL A   1      46.891  26.925  26.341  1.00  0.00     0.064 A 
ATOM     94  C   UNL A   1      47.884  26.537  25.423  1.00  0.00     0.173 A 
ATOM     95  C   UNL A   1      47.266  26.903  27.693  1.00  0.00     0.173 A 
ATOM     96  F   UNL A   1      47.627  26.566  24.106  1.00  0.00    -0.203 F 
ATOM     97  C   UNL A   1      49.147  26.106  25.839  1.00  0.00     0.198 A 
ATOM     98  C   UNL A   1      48.530  26.482  28.112  1.00  0.00     0.198 A 
ATOM     99  F   UNL A   1      46.417  27.294  28.640  1.00  0.00    -0.203 F 
ATOM    100  F   UNL A   1      50.055  25.721  24.932  1.00  0.00    -0.200 F 
ATOM    101  C   UNL A   1      49.467  26.070  27.185  1.00  0.00     0.200 A 
ATOM    102  F   UNL A   1      48.836  26.476  29.420  1.00  0.00    -0.200 F 
ATOM    103  F   UNL A   1      50.677  25.657  27.587  1.00  0.00    -0.200 F 
ENDBRANCH  70  93
ENDBRANCH  44  45
ENDBRANCH  36  39
ENDBRANCH  34  35
ENDBRANCH  33  34
ENDBRANCH  32  33
ENDBRANCH   1  32
TORSDOF 17
ENDMDL
