MODEL 1
REMARK VINA RESULT:     -13.5      0.000      0.000
REMARK SMILES Cc1ccccc1/C=C1\SC(=O)N(CC(=O)Nc2ccccc2C(=O)NCCCCNC(=O)c2ccc(-c3c4nc(c(-c5c(F)c(F)c(F)c(F)c5F)c5ccc([nH]5)c(-c5c(F)c(F)c(F)c(F)c5F)c5nc(c(-c6c(F)c(F)c(F)c(F)c6F)c6ccc3[nH]6)C=C5)C=C4)cc2)C1=O
REMARK SMILES IDX 27 1 26 2 24 3 25 4 23 6 18 7 19 8 20 9 22 10 21 11 17 12
REMARK SMILES IDX 15 13 16 14 14 16 13 17 8 18 9 19 10 20 97 21 11 22 98 23
REMARK SMILES IDX 12 24 7 25 1 26 2 27 3 28 4 29 6 30 5 31 28 32 29 33 30 34
REMARK SMILES IDX 31 35 32 36 33 38 34 39 35 40 96 41 36 42 95 43 37 44 38 45
REMARK SMILES IDX 39 46 89 47 40 48 94 49 88 50 90 51 41 52 93 53 87 54 86 55
REMARK SMILES IDX 42 57 74 58 54 59 73 60 55 61 58 62 72 63 91 64 56 65 57 66
REMARK SMILES IDX 71 68 92 69 59 70 43 71 44 72 52 73 45 74 46 75 50 76 53 77
REMARK SMILES IDX 47 78 48 79 51 80 49 81 75 82 76 83 84 84 77 85 78 86 82 87
REMARK SMILES IDX 85 88 79 89 80 90 83 91 81 92 60 93 61 94 69 95 62 96 63 97
REMARK SMILES IDX 67 98 70 99 64 100 65 101 68 102 66 103
REMARK H PARENT 26 5 17 15 31 37 90 56 58 67
REMARK Flexibility Score: inf
ROOT
ATOM      1  C   UNL A   1      35.689  24.147  25.394  1.00  0.00     0.116 C 
ENDROOT
BRANCH   1   2
ATOM      2  N   UNL A   1      35.402  23.969  23.968  1.00  0.00    -0.352 N 
ATOM      3  C   UNL A   1      34.634  23.073  23.234  1.00  0.00     0.253 C 
ATOM      4  O   UNL A   1      34.469  23.316  22.038  1.00  0.00    -0.269 OA
ATOM      5  H   UNL A   1      35.855  24.635  23.403  1.00  0.00     0.163 HD
BRANCH   3   6
ATOM      6  C   UNL A   1      34.012  21.844  23.795  1.00  0.00     0.063 A 
ATOM      7  C   UNL A   1      32.613  21.623  23.871  1.00  0.00     0.054 A 
ATOM      8  C   UNL A   1      32.142  20.475  24.546  1.00  0.00     0.027 A 
ATOM      9  C   UNL A   1      33.009  19.553  25.127  1.00  0.00     0.002 A 
ATOM     10  C   UNL A   1      34.849  20.966  24.510  1.00  0.00     0.016 A 
ATOM     11  C   UNL A   1      34.367  19.810  25.128  1.00  0.00     0.001 A 
BRANCH   7  12
ATOM     12  N   UNL A   1      31.588  22.562  23.637  1.00  0.00    -0.324 N 
ATOM     13  C   UNL A   1      31.290  23.802  24.101  1.00  0.00     0.244 C 
ATOM     14  O   UNL A   1      30.368  24.391  23.519  1.00  0.00    -0.273 OA
ATOM     15  H   UNL A   1      30.930  22.240  22.980  1.00  0.00     0.170 HD
BRANCH  13  16
ATOM     16  C   UNL A   1      32.083  24.530  25.168  1.00  0.00     0.230 C 
BRANCH  16  17
ATOM     17  N   UNL A   1      32.015  25.962  25.067  1.00  0.00    -0.259 N 
ATOM     18  C   UNL A   1      31.506  28.989  26.678  1.00  0.00     0.029 C 
ATOM     19  C   UNL A   1      31.515  28.155  25.632  1.00  0.00     0.083 C 
ATOM     20  S   UNL A   1      32.269  28.310  24.114  1.00  0.00    -0.022 SA
ATOM     21  C   UNL A   1      31.162  26.724  25.840  1.00  0.00     0.268 C 
ATOM     22  C   UNL A   1      32.643  26.608  24.050  1.00  0.00     0.294 C 
ATOM     23  O   UNL A   1      30.274  26.338  26.577  1.00  0.00    -0.268 OA
ATOM     24  O   UNL A   1      33.352  26.119  23.176  1.00  0.00    -0.261 OA
BRANCH  18  25
ATOM     25  C   UNL A   1      32.225  30.259  26.887  1.00  0.00    -0.021 A 
ATOM     26  C   UNL A   1      30.566  31.877  25.750  1.00  0.00     0.045 C 
ATOM     27  C   UNL A   1      31.782  31.554  26.570  1.00  0.00    -0.044 A 
ATOM     28  C   UNL A   1      32.550  32.644  27.004  1.00  0.00     0.004 A 
ATOM     29  C   UNL A   1      33.752  32.468  27.687  1.00  0.00     0.000 A 
ATOM     30  C   UNL A   1      33.463  30.106  27.555  1.00  0.00     0.008 A 
ATOM     31  C   UNL A   1      34.230  31.198  27.939  1.00  0.00     0.001 A 
ENDBRANCH  18  25
ENDBRANCH  16  17
ENDBRANCH  13  16
ENDBRANCH   7  12
ENDBRANCH   3   6
ENDBRANCH   1   2
BRANCH   1  32
ATOM     32  C   UNL A   1      37.096  23.802  25.910  1.00  0.00     0.023 C 
BRANCH  32  33
ATOM     33  C   UNL A   1      37.534  22.346  26.120  1.00  0.00     0.023 C 
BRANCH  33  34
ATOM     34  C   UNL A   1      38.957  21.997  25.741  1.00  0.00     0.116 C 
BRANCH  34  35
ATOM     35  N   UNL A   1      39.871  21.947  26.881  1.00  0.00    -0.352 N 
ATOM     36  C   UNL A   1      40.635  22.963  27.436  1.00  0.00     0.251 C 
ATOM     37  H   UNL A   1      39.955  21.068  27.318  1.00  0.00     0.163 HD
ATOM     38  O   UNL A   1      41.635  22.682  28.088  1.00  0.00    -0.269 OA
BRANCH  36  39
ATOM     39  C   UNL A   1      40.233  24.385  27.291  1.00  0.00     0.039 A 
ATOM     40  C   UNL A   1      40.661  25.195  26.219  1.00  0.00     0.014 A 
ATOM     41  C   UNL A   1      39.682  25.034  28.375  1.00  0.00     0.014 A 
ATOM     42  C   UNL A   1      40.737  26.590  26.424  1.00  0.00     0.010 A 
ATOM     43  C   UNL A   1      39.210  26.292  28.176  1.00  0.00     0.010 A 
ATOM     44  C   UNL A   1      40.154  27.089  27.576  1.00  0.00    -0.014 A 
BRANCH  44  45
ATOM     45  C   UNL A   1      40.473  28.226  28.430  1.00  0.00     0.031 A 
ATOM     46  C   UNL A   1      39.506  29.336  28.534  1.00  0.00     0.074 A 
ATOM     47  C   UNL A   1      41.321  27.979  29.464  1.00  0.00     0.049 A 
ATOM     48  N   UNL A   1      39.669  30.379  29.266  1.00  0.00    -0.248 NA
ATOM     49  C   UNL A   1      38.211  29.307  27.868  1.00  0.00     0.031 C 
ATOM     50  C   UNL A   1      41.447  28.660  30.755  1.00  0.00     0.029 A 
ATOM     51  N   UNL A   1      42.368  27.040  29.508  1.00  0.00    -0.354 N 
ATOM     52  C   UNL A   1      38.447  31.002  29.414  1.00  0.00     0.074 A 
ATOM     53  C   UNL A   1      37.593  30.336  28.459  1.00  0.00     0.031 C 
ATOM     54  C   UNL A   1      42.661  28.399  31.274  1.00  0.00     0.029 A 
ATOM     55  C   UNL A   1      43.396  27.670  30.257  1.00  0.00     0.049 A 
ATOM     56  H   UNL A   1      42.383  26.141  29.108  1.00  0.00     0.167 HD
ATOM     57  C   UNL A   1      38.317  31.932  30.408  1.00  0.00     0.037 A 
ATOM     58  C   UNL A   1      44.484  28.140  29.573  1.00  0.00     0.037 A 
ATOM     59  C   UNL A   1      39.625  32.172  31.042  1.00  0.00     0.049 A 
ATOM     60  C   UNL A   1      44.532  29.657  29.494  1.00  0.00     0.074 A 
ATOM     61  C   UNL A   1      40.231  31.797  32.230  1.00  0.00     0.029 A 
ATOM     62  N   UNL A   1      40.644  32.658  30.242  1.00  0.00    -0.354 N 
ATOM     63  N   UNL A   1      43.645  30.453  30.028  1.00  0.00    -0.248 NA
ATOM     64  C   UNL A   1      45.543  30.392  28.738  1.00  0.00     0.031 C 
ATOM     65  C   UNL A   1      41.645  31.968  32.070  1.00  0.00     0.029 A 
ATOM     66  C   UNL A   1      41.890  32.483  30.808  1.00  0.00     0.049 A 
ATOM     67  H   UNL A   1      40.496  33.082  29.366  1.00  0.00     0.167 HD
ATOM     68  C   UNL A   1      43.885  31.744  29.650  1.00  0.00     0.074 A 
ATOM     69  C   UNL A   1      45.085  31.652  28.832  1.00  0.00     0.031 C 
ATOM     70  C   UNL A   1      43.072  32.788  30.006  1.00  0.00     0.037 A 
BRANCH  57  71
ATOM     71  C   UNL A   1      37.035  32.567  30.930  1.00  0.00     0.064 A 
ATOM     72  C   UNL A   1      36.301  33.455  30.108  1.00  0.00     0.173 A 
ATOM     73  C   UNL A   1      36.479  32.392  32.215  1.00  0.00     0.173 A 
ATOM     74  F   UNL A   1      36.659  33.689  28.838  1.00  0.00    -0.203 F 
ATOM     75  C   UNL A   1      35.160  34.139  30.550  1.00  0.00     0.198 A 
ATOM     76  C   UNL A   1      35.341  33.077  32.658  1.00  0.00     0.198 A 
ATOM     77  F   UNL A   1      36.981  31.536  33.102  1.00  0.00    -0.203 F 
ATOM     78  F   UNL A   1      34.526  34.978  29.719  1.00  0.00    -0.200 F 
ATOM     79  C   UNL A   1      34.686  33.959  31.830  1.00  0.00     0.200 A 
ATOM     80  F   UNL A   1      34.886  32.866  33.903  1.00  0.00    -0.200 F 
ATOM     81  F   UNL A   1      33.600  34.616  32.259  1.00  0.00    -0.200 F 
ENDBRANCH  57  71
BRANCH  58  82
ATOM     82  C   UNL A   1      44.845  27.176  28.481  1.00  0.00     0.064 A 
ATOM     83  C   UNL A   1      45.204  25.868  28.881  1.00  0.00     0.173 A 
ATOM     84  C   UNL A   1      44.342  27.335  27.182  1.00  0.00     0.173 A 
ATOM     85  F   UNL A   1      45.686  25.655  30.118  1.00  0.00    -0.203 F 
ATOM     86  C   UNL A   1      44.893  24.759  28.097  1.00  0.00     0.198 A 
ATOM     87  C   UNL A   1      44.079  26.222  26.380  1.00  0.00     0.198 A 
ATOM     88  F   UNL A   1      43.966  28.545  26.742  1.00  0.00    -0.203 F 
ATOM     89  F   UNL A   1      45.065  23.523  28.589  1.00  0.00    -0.200 F 
ATOM     90  C   UNL A   1      44.307  24.938  26.856  1.00  0.00     0.200 A 
ATOM     91  F   UNL A   1      43.502  26.389  25.181  1.00  0.00    -0.200 F 
ATOM     92  F   UNL A   1      43.925  23.877  26.135  1.00  0.00    -0.200 F 
ENDBRANCH  58  82
BRANCH  70  93
ATOM     93  C   UNL A   1      43.353  34.205  29.582  1.00  0.00     0.064 A 
ATOM     94  C   UNL A   1      43.498  35.239  30.519  1.00  0.00     0.173 A 
ATOM     95  C   UNL A   1      43.400  34.596  28.225  1.00  0.00     0.173 A 
ATOM     96  F   UNL A   1      43.362  35.000  31.831  1.00  0.00    -0.203 F 
ATOM     97  C   UNL A   1      43.775  36.550  30.130  1.00  0.00     0.198 A 
ATOM     98  C   UNL A   1      43.597  35.920  27.839  1.00  0.00     0.198 A 
ATOM     99  F   UNL A   1      43.296  33.709  27.226  1.00  0.00    -0.203 F 
ATOM    100  F   UNL A   1      44.003  37.484  31.064  1.00  0.00    -0.200 F 
ATOM    101  C   UNL A   1      43.816  36.892  28.790  1.00  0.00     0.200 A 
ATOM    102  F   UNL A   1      43.590  36.238  26.537  1.00  0.00    -0.200 F 
ATOM    103  F   UNL A   1      44.069  38.153  28.418  1.00  0.00    -0.200 F 
ENDBRANCH  70  93
ENDBRANCH  44  45
ENDBRANCH  36  39
ENDBRANCH  34  35
ENDBRANCH  33  34
ENDBRANCH  32  33
ENDBRANCH   1  32
TORSDOF 15
ENDMDL
MODEL 2
REMARK VINA RESULT:     -13.5      1.800      2.541
REMARK SMILES Cc1ccccc1/C=C1\SC(=O)N(CC(=O)Nc2ccccc2C(=O)NCCCCNC(=O)c2ccc(-c3c4nc(c(-c5c(F)c(F)c(F)c(F)c5F)c5ccc([nH]5)c(-c5c(F)c(F)c(F)c(F)c5F)c5nc(c(-c6c(F)c(F)c(F)c(F)c6F)c6ccc3[nH]6)C=C5)C=C4)cc2)C1=O
REMARK SMILES IDX 27 1 26 2 24 3 25 4 23 6 18 7 19 8 20 9 22 10 21 11 17 12
REMARK SMILES IDX 15 13 16 14 14 16 13 17 8 18 9 19 10 20 97 21 11 22 98 23
REMARK SMILES IDX 12 24 7 25 1 26 2 27 3 28 4 29 6 30 5 31 28 32 29 33 30 34
REMARK SMILES IDX 31 35 32 36 33 38 34 39 35 40 96 41 36 42 95 43 37 44 38 45
REMARK SMILES IDX 39 46 89 47 40 48 94 49 88 50 90 51 41 52 93 53 87 54 86 55
REMARK SMILES IDX 42 57 74 58 54 59 73 60 55 61 58 62 72 63 91 64 56 65 57 66
REMARK SMILES IDX 71 68 92 69 59 70 43 71 44 72 52 73 45 74 46 75 50 76 53 77
REMARK SMILES IDX 47 78 48 79 51 80 49 81 75 82 76 83 84 84 77 85 78 86 82 87
REMARK SMILES IDX 85 88 79 89 80 90 83 91 81 92 60 93 61 94 69 95 62 96 63 97
REMARK SMILES IDX 67 98 70 99 64 100 65 101 68 102 66 103
REMARK H PARENT 26 5 17 15 31 37 90 56 58 67
REMARK Flexibility Score: inf
ROOT
ATOM      1  C   UNL A   1      37.686  21.579  25.491  1.00  0.00     0.116 C 
ENDROOT
BRANCH   1   2
ATOM      2  N   UNL A   1      36.656  22.378  26.159  1.00  0.00    -0.352 N 
ATOM      3  C   UNL A   1      35.282  22.251  26.328  1.00  0.00     0.253 C 
ATOM      4  O   UNL A   1      34.733  23.030  27.108  1.00  0.00    -0.269 OA
ATOM      5  H   UNL A   1      37.018  23.189  26.584  1.00  0.00     0.163 HD
BRANCH   3   6
ATOM      6  C   UNL A   1      34.439  21.248  25.625  1.00  0.00     0.063 A 
ATOM      7  C   UNL A   1      33.021  21.236  25.658  1.00  0.00     0.054 A 
ATOM      8  C   UNL A   1      32.337  20.155  25.060  1.00  0.00     0.027 A 
ATOM      9  C   UNL A   1      33.011  19.111  24.432  1.00  0.00     0.002 A 
ATOM     10  C   UNL A   1      35.087  20.111  25.104  1.00  0.00     0.016 A 
ATOM     11  C   UNL A   1      34.392  19.078  24.473  1.00  0.00     0.001 A 
BRANCH   7  12
ATOM     12  N   UNL A   1      32.181  22.003  26.491  1.00  0.00    -0.324 N 
ATOM     13  C   UNL A   1      31.315  23.031  26.305  1.00  0.00     0.244 C 
ATOM     14  O   UNL A   1      30.621  23.338  27.285  1.00  0.00    -0.273 OA
ATOM     15  H   UNL A   1      32.237  21.725  27.434  1.00  0.00     0.170 HD
BRANCH  13  16
ATOM     16  C   UNL A   1      31.069  23.713  24.974  1.00  0.00     0.230 C 
BRANCH  16  17
ATOM     17  N   UNL A   1      31.676  25.012  24.867  1.00  0.00    -0.259 N 
ATOM     18  C   UNL A   1      31.873  28.258  26.066  1.00  0.00     0.029 C 
ATOM     19  C   UNL A   1      31.978  27.294  25.144  1.00  0.00     0.083 C 
ATOM     20  S   UNL A   1      33.302  26.845  24.174  1.00  0.00    -0.022 SA
ATOM     21  C   UNL A   1      30.993  26.179  25.144  1.00  0.00     0.268 C 
ATOM     22  C   UNL A   1      32.893  25.153  24.280  1.00  0.00     0.294 C 
ATOM     23  O   UNL A   1      29.803  26.316  25.362  1.00  0.00    -0.268 OA
ATOM     24  O   UNL A   1      33.624  24.268  23.848  1.00  0.00    -0.261 OA
BRANCH  18  25
ATOM     25  C   UNL A   1      32.897  29.172  26.605  1.00  0.00    -0.021 A 
ATOM     26  C   UNL A   1      31.585  31.392  26.498  1.00  0.00     0.045 C 
ATOM     27  C   UNL A   1      32.757  30.540  26.893  1.00  0.00    -0.044 A 
ATOM     28  C   UNL A   1      33.805  31.190  27.559  1.00  0.00     0.004 A 
ATOM     29  C   UNL A   1      34.986  30.528  27.888  1.00  0.00     0.000 A 
ATOM     30  C   UNL A   1      34.118  28.530  26.923  1.00  0.00     0.008 A 
ATOM     31  C   UNL A   1      35.161  29.204  27.545  1.00  0.00     0.001 A 
ENDBRANCH  18  25
ENDBRANCH  16  17
ENDBRANCH  13  16
ENDBRANCH   7  12
ENDBRANCH   3   6
ENDBRANCH   1   2
BRANCH   1  32
ATOM     32  C   UNL A   1      39.161  21.841  25.837  1.00  0.00     0.023 C 
BRANCH  32  33
ATOM     33  C   UNL A   1      40.106  20.695  26.222  1.00  0.00     0.023 C 
BRANCH  33  34
ATOM     34  C   UNL A   1      40.806  20.802  27.560  1.00  0.00     0.116 C 
BRANCH  34  35
ATOM     35  N   UNL A   1      42.232  21.107  27.450  1.00  0.00    -0.352 N 
ATOM     36  C   UNL A   1      42.848  22.248  26.957  1.00  0.00     0.251 C 
ATOM     37  H   UNL A   1      42.841  20.403  27.772  1.00  0.00     0.163 HD
ATOM     38  O   UNL A   1      44.003  22.183  26.548  1.00  0.00    -0.269 OA
BRANCH  36  39
ATOM     39  C   UNL A   1      42.147  23.556  26.962  1.00  0.00     0.039 A 
ATOM     40  C   UNL A   1      42.158  24.433  25.859  1.00  0.00     0.014 A 
ATOM     41  C   UNL A   1      41.726  24.080  28.166  1.00  0.00     0.014 A 
ATOM     42  C   UNL A   1      41.994  25.815  26.101  1.00  0.00     0.010 A 
ATOM     43  C   UNL A   1      40.979  25.213  28.126  1.00  0.00     0.010 A 
ATOM     44  C   UNL A   1      41.588  26.186  27.371  1.00  0.00    -0.014 A 
BRANCH  44  45
ATOM     45  C   UNL A   1      41.850  27.367  28.185  1.00  0.00     0.031 A 
ATOM     46  C   UNL A   1      40.826  28.426  28.259  1.00  0.00     0.074 A 
ATOM     47  C   UNL A   1      42.716  27.201  29.221  1.00  0.00     0.049 A 
ATOM     48  N   UNL A   1      40.937  29.501  28.954  1.00  0.00    -0.248 NA
ATOM     49  C   UNL A   1      39.531  28.306  27.603  1.00  0.00     0.031 C 
ATOM     50  C   UNL A   1      42.811  27.930  30.488  1.00  0.00     0.029 A 
ATOM     51  N   UNL A   1      43.812  26.321  29.289  1.00  0.00    -0.354 N 
ATOM     52  C   UNL A   1      39.684  30.062  29.090  1.00  0.00     0.074 A 
ATOM     53  C   UNL A   1      38.862  29.319  28.163  1.00  0.00     0.031 C 
ATOM     54  C   UNL A   1      44.040  27.752  31.007  1.00  0.00     0.029 A 
ATOM     55  C   UNL A   1      44.808  27.030  30.010  1.00  0.00     0.049 A 
ATOM     56  H   UNL A   1      43.873  25.411  28.919  1.00  0.00     0.167 HD
ATOM     57  C   UNL A   1      39.509  31.017  30.053  1.00  0.00     0.037 A 
ATOM     58  C   UNL A   1      45.867  27.533  29.303  1.00  0.00     0.037 A 
ATOM     59  C   UNL A   1      40.806  31.347  30.670  1.00  0.00     0.049 A 
ATOM     60  C   UNL A   1      45.833  29.048  29.173  1.00  0.00     0.074 A 
ATOM     61  C   UNL A   1      41.436  31.046  31.865  1.00  0.00     0.029 A 
ATOM     62  N   UNL A   1      41.793  31.860  29.847  1.00  0.00    -0.354 N 
ATOM     63  N   UNL A   1      44.907  29.813  29.686  1.00  0.00    -0.248 NA
ATOM     64  C   UNL A   1      46.799  29.810  28.386  1.00  0.00     0.031 C 
ATOM     65  C   UNL A   1      42.839  31.287  31.690  1.00  0.00     0.029 A 
ATOM     66  C   UNL A   1      43.049  31.771  30.410  1.00  0.00     0.049 A 
ATOM     67  H   UNL A   1      41.618  32.246  28.958  1.00  0.00     0.167 HD
ATOM     68  C   UNL A   1      45.076  31.102  29.264  1.00  0.00     0.074 A 
ATOM     69  C   UNL A   1      46.274  31.046  28.442  1.00  0.00     0.031 C 
ATOM     70  C   UNL A   1      44.209  32.111  29.590  1.00  0.00     0.037 A 
BRANCH  57  71
ATOM     71  C   UNL A   1      38.197  31.600  30.562  1.00  0.00     0.064 A 
ATOM     72  C   UNL A   1      37.482  32.530  29.769  1.00  0.00     0.173 A 
ATOM     73  C   UNL A   1      37.593  31.335  31.810  1.00  0.00     0.173 A 
ATOM     74  F   UNL A   1      37.886  32.849  28.533  1.00  0.00    -0.203 F 
ATOM     75  C   UNL A   1      36.314  33.168  30.207  1.00  0.00     0.198 A 
ATOM     76  C   UNL A   1      36.428  31.975  32.249  1.00  0.00     0.198 A 
ATOM     77  F   UNL A   1      38.074  30.430  32.660  1.00  0.00    -0.203 F 
ATOM     78  F   UNL A   1      35.700  34.050  29.407  1.00  0.00    -0.200 F 
ATOM     79  C   UNL A   1      35.793  32.900  31.453  1.00  0.00     0.200 A 
ATOM     80  F   UNL A   1      35.928  31.678  33.458  1.00  0.00    -0.200 F 
ATOM     81  F   UNL A   1      34.681  33.513  31.879  1.00  0.00    -0.200 F 
ENDBRANCH  57  71
BRANCH  58  82
ATOM     82  C   UNL A   1      46.273  26.554  28.241  1.00  0.00     0.064 A 
ATOM     83  C   UNL A   1      45.899  26.867  26.913  1.00  0.00     0.173 A 
ATOM     84  C   UNL A   1      47.384  25.719  28.416  1.00  0.00     0.173 A 
ATOM     85  F   UNL A   1      44.844  27.669  26.686  1.00  0.00    -0.203 F 
ATOM     86  C   UNL A   1      46.708  26.523  25.833  1.00  0.00     0.198 A 
ATOM     87  C   UNL A   1      48.164  25.335  27.323  1.00  0.00     0.198 A 
ATOM     88  F   UNL A   1      47.805  25.395  29.648  1.00  0.00    -0.203 F 
ATOM     89  F   UNL A   1      46.431  27.003  24.611  1.00  0.00    -0.200 F 
ATOM     90  C   UNL A   1      47.855  25.778  26.044  1.00  0.00     0.200 A 
ATOM     91  F   UNL A   1      49.282  24.621  27.521  1.00  0.00    -0.200 F 
ATOM     92  F   UNL A   1      48.683  25.519  25.024  1.00  0.00    -0.200 F 
ENDBRANCH  58  82
BRANCH  70  93
ATOM     93  C   UNL A   1      44.412  33.526  29.117  1.00  0.00     0.064 A 
ATOM     94  C   UNL A   1      44.157  33.903  27.790  1.00  0.00     0.173 A 
ATOM     95  C   UNL A   1      44.948  34.535  29.948  1.00  0.00     0.173 A 
ATOM     96  F   UNL A   1      43.749  33.000  26.887  1.00  0.00    -0.203 F 
ATOM     97  C   UNL A   1      44.328  35.217  27.353  1.00  0.00     0.198 A 
ATOM     98  C   UNL A   1      45.193  35.826  29.488  1.00  0.00     0.198 A 
ATOM     99  F   UNL A   1      45.220  34.319  31.243  1.00  0.00    -0.203 F 
ATOM    100  F   UNL A   1      43.978  35.550  26.103  1.00  0.00    -0.200 F 
ATOM    101  C   UNL A   1      44.853  36.177  28.199  1.00  0.00     0.200 A 
ATOM    102  F   UNL A   1      45.743  36.730  30.311  1.00  0.00    -0.200 F 
ATOM    103  F   UNL A   1      45.029  37.435  27.775  1.00  0.00    -0.200 F 
ENDBRANCH  70  93
ENDBRANCH  44  45
ENDBRANCH  36  39
ENDBRANCH  34  35
ENDBRANCH  33  34
ENDBRANCH  32  33
ENDBRANCH   1  32
TORSDOF 15
ENDMDL
MODEL 3
REMARK VINA RESULT:     -13.4      1.325      4.549
REMARK SMILES Cc1ccccc1/C=C1\SC(=O)N(CC(=O)Nc2ccccc2C(=O)NCCCCNC(=O)c2ccc(-c3c4nc(c(-c5c(F)c(F)c(F)c(F)c5F)c5ccc([nH]5)c(-c5c(F)c(F)c(F)c(F)c5F)c5nc(c(-c6c(F)c(F)c(F)c(F)c6F)c6ccc3[nH]6)C=C5)C=C4)cc2)C1=O
REMARK SMILES IDX 27 1 26 2 24 3 25 4 23 6 18 7 19 8 20 9 22 10 21 11 17 12
REMARK SMILES IDX 15 13 16 14 14 16 13 17 8 18 9 19 10 20 97 21 11 22 98 23
REMARK SMILES IDX 12 24 7 25 1 26 2 27 3 28 4 29 6 30 5 31 28 32 29 33 30 34
REMARK SMILES IDX 31 35 32 36 33 38 34 39 35 40 96 41 36 42 95 43 37 44 38 45
REMARK SMILES IDX 39 46 89 47 40 48 94 49 88 50 90 51 41 52 93 53 87 54 86 55
REMARK SMILES IDX 42 57 74 58 54 59 73 60 55 61 58 62 72 63 91 64 56 65 57 66
REMARK SMILES IDX 71 68 92 69 59 70 43 71 44 72 52 73 45 74 46 75 50 76 53 77
REMARK SMILES IDX 47 78 48 79 51 80 49 81 75 82 76 83 84 84 77 85 78 86 82 87
REMARK SMILES IDX 85 88 79 89 80 90 83 91 81 92 60 93 61 94 69 95 62 96 63 97
REMARK SMILES IDX 67 98 70 99 64 100 65 101 68 102 66 103
REMARK H PARENT 26 5 17 15 31 37 90 56 58 67
REMARK Flexibility Score: inf
ROOT
ATOM      1  C   UNL A   1      35.442  24.635  25.503  1.00  0.00     0.116 C 
ENDROOT
BRANCH   1   2
ATOM      2  N   UNL A   1      34.566  25.167  24.456  1.00  0.00    -0.352 N 
ATOM      3  C   UNL A   1      33.680  26.235  24.377  1.00  0.00     0.253 C 
ATOM      4  O   UNL A   1      33.222  26.511  23.268  1.00  0.00    -0.269 OA
ATOM      5  H   UNL A   1      34.616  24.651  23.619  1.00  0.00     0.163 HD
BRANCH   3   6
ATOM      6  C   UNL A   1      33.247  27.053  25.541  1.00  0.00     0.063 A 
ATOM      7  C   UNL A   1      31.892  27.273  25.900  1.00  0.00     0.054 A 
ATOM      8  C   UNL A   1      31.604  28.177  26.946  1.00  0.00     0.027 A 
ATOM      9  C   UNL A   1      32.608  28.847  27.639  1.00  0.00     0.002 A 
ATOM     10  C   UNL A   1      34.223  27.850  26.170  1.00  0.00     0.016 A 
ATOM     11  C   UNL A   1      33.922  28.699  27.236  1.00  0.00     0.001 A 
BRANCH   7  12
ATOM     12  N   UNL A   1      30.747  26.952  25.143  1.00  0.00    -0.324 N 
ATOM     13  C   UNL A   1      29.929  25.874  25.038  1.00  0.00     0.244 C 
ATOM     14  O   UNL A   1      28.903  26.036  24.363  1.00  0.00    -0.273 OA
ATOM     15  H   UNL A   1      30.475  27.688  24.548  1.00  0.00     0.170 HD
BRANCH  13  16
ATOM     16  C   UNL A   1      30.135  24.569  25.781  1.00  0.00     0.230 C 
BRANCH  16  17
ATOM     17  N   UNL A   1      31.115  23.706  25.180  1.00  0.00    -0.259 N 
ATOM     18  C   UNL A   1      33.346  21.083  25.581  1.00  0.00     0.029 C 
ATOM     19  C   UNL A   1      32.870  22.199  25.017  1.00  0.00     0.083 C 
ATOM     20  S   UNL A   1      32.493  22.529  23.390  1.00  0.00    -0.022 SA
ATOM     21  C   UNL A   1      32.205  23.220  25.872  1.00  0.00     0.268 C 
ATOM     22  C   UNL A   1      31.118  23.504  23.836  1.00  0.00     0.294 C 
ATOM     23  O   UNL A   1      32.587  23.535  26.985  1.00  0.00    -0.268 OA
ATOM     24  O   UNL A   1      30.319  23.937  23.011  1.00  0.00    -0.261 OA
BRANCH  18  25
ATOM     25  C   UNL A   1      33.600  19.756  24.993  1.00  0.00    -0.021 A 
ATOM     26  C   UNL A   1      36.178  19.831  24.877  1.00  0.00     0.045 C 
ATOM     27  C   UNL A   1      34.846  19.147  24.764  1.00  0.00    -0.044 A 
ATOM     28  C   UNL A   1      34.865  17.808  24.348  1.00  0.00     0.004 A 
ATOM     29  C   UNL A   1      33.690  17.097  24.112  1.00  0.00     0.000 A 
ATOM     30  C   UNL A   1      32.422  19.022  24.717  1.00  0.00     0.008 A 
ATOM     31  C   UNL A   1      32.463  17.710  24.265  1.00  0.00     0.001 A 
ENDBRANCH  18  25
ENDBRANCH  16  17
ENDBRANCH  13  16
ENDBRANCH   7  12
ENDBRANCH   3   6
ENDBRANCH   1   2
BRANCH   1  32
ATOM     32  C   UNL A   1      36.582  23.687  25.098  1.00  0.00     0.023 C 
BRANCH  32  33
ATOM     33  C   UNL A   1      37.902  23.645  25.881  1.00  0.00     0.023 C 
BRANCH  33  34
ATOM     34  C   UNL A   1      38.636  22.321  25.917  1.00  0.00     0.116 C 
BRANCH  34  35
ATOM     35  N   UNL A   1      39.668  22.254  26.951  1.00  0.00    -0.352 N 
ATOM     36  C   UNL A   1      40.522  23.249  27.402  1.00  0.00     0.251 C 
ATOM     37  H   UNL A   1      39.771  21.377  27.389  1.00  0.00     0.163 HD
ATOM     38  O   UNL A   1      41.578  22.941  27.945  1.00  0.00    -0.269 OA
BRANCH  36  39
ATOM     39  C   UNL A   1      40.153  24.682  27.280  1.00  0.00     0.039 A 
ATOM     40  C   UNL A   1      40.682  25.526  26.282  1.00  0.00     0.014 A 
ATOM     41  C   UNL A   1      39.519  25.298  28.339  1.00  0.00     0.014 A 
ATOM     42  C   UNL A   1      40.759  26.911  26.549  1.00  0.00     0.010 A 
ATOM     43  C   UNL A   1      39.084  26.570  28.151  1.00  0.00     0.010 A 
ATOM     44  C   UNL A   1      40.086  27.374  27.666  1.00  0.00    -0.014 A 
BRANCH  44  45
ATOM     45  C   UNL A   1      40.345  28.472  28.589  1.00  0.00     0.031 A 
ATOM     46  C   UNL A   1      39.380  29.585  28.666  1.00  0.00     0.074 A 
ATOM     47  C   UNL A   1      41.111  28.174  29.673  1.00  0.00     0.049 A 
ATOM     48  N   UNL A   1      39.493  30.595  29.451  1.00  0.00    -0.248 NA
ATOM     49  C   UNL A   1      38.140  29.596  27.903  1.00  0.00     0.031 C 
ATOM     50  C   UNL A   1      41.141  28.799  30.998  1.00  0.00     0.029 A 
ATOM     51  N   UNL A   1      42.145  27.225  29.757  1.00  0.00    -0.354 N 
ATOM     52  C   UNL A   1      38.267  31.223  29.532  1.00  0.00     0.074 A 
ATOM     53  C   UNL A   1      37.485  30.605  28.487  1.00  0.00     0.031 C 
ATOM     54  C   UNL A   1      42.311  28.505  31.596  1.00  0.00     0.029 A 
ATOM     55  C   UNL A   1      43.117  27.813  30.609  1.00  0.00     0.049 A 
ATOM     56  H   UNL A   1      42.185  26.342  29.321  1.00  0.00     0.167 HD
ATOM     57  C   UNL A   1      38.067  32.112  30.552  1.00  0.00     0.037 A 
ATOM     58  C   UNL A   1      44.257  28.300  30.030  1.00  0.00     0.037 A 
ATOM     59  C   UNL A   1      39.324  32.313  31.293  1.00  0.00     0.049 A 
ATOM     60  C   UNL A   1      44.320  29.820  30.019  1.00  0.00     0.074 A 
ATOM     61  C   UNL A   1      39.835  31.883  32.507  1.00  0.00     0.029 A 
ATOM     62  N   UNL A   1      40.404  32.822  30.594  1.00  0.00    -0.354 N 
ATOM     63  N   UNL A   1      43.400  30.601  30.517  1.00  0.00    -0.248 NA
ATOM     64  C   UNL A   1      45.391  30.576  29.373  1.00  0.00     0.031 C 
ATOM     65  C   UNL A   1      41.258  32.048  32.463  1.00  0.00     0.029 A 
ATOM     66  C   UNL A   1      41.602  32.612  31.246  1.00  0.00     0.049 A 
ATOM     67  H   UNL A   1      40.327  33.284  29.728  1.00  0.00     0.167 HD
ATOM     68  C   UNL A   1      43.676  31.904  30.213  1.00  0.00     0.074 A 
ATOM     69  C   UNL A   1      44.934  31.835  29.486  1.00  0.00     0.031 C 
ATOM     70  C   UNL A   1      42.844  32.939  30.550  1.00  0.00     0.037 A 
BRANCH  57  71
ATOM     71  C   UNL A   1      36.752  32.736  31.001  1.00  0.00     0.064 A 
ATOM     72  C   UNL A   1      36.072  33.640  30.149  1.00  0.00     0.173 A 
ATOM     73  C   UNL A   1      36.114  32.537  32.243  1.00  0.00     0.173 A 
ATOM     74  F   UNL A   1      36.512  33.897  28.910  1.00  0.00    -0.203 F 
ATOM     75  C   UNL A   1      34.904  34.315  30.528  1.00  0.00     0.198 A 
ATOM     76  C   UNL A   1      34.949  33.213  32.624  1.00  0.00     0.198 A 
ATOM     77  F   UNL A   1      36.558  31.664  33.145  1.00  0.00    -0.203 F 
ATOM     78  F   UNL A   1      34.324  35.169  29.674  1.00  0.00    -0.200 F 
ATOM     79  C   UNL A   1      34.348  34.110  31.771  1.00  0.00     0.200 A 
ATOM     80  F   UNL A   1      34.414  32.978  33.832  1.00  0.00    -0.200 F 
ATOM     81  F   UNL A   1      33.235  34.759  32.140  1.00  0.00    -0.200 F 
ENDBRANCH  57  71
BRANCH  58  82
ATOM     82  C   UNL A   1      44.694  27.380  28.928  1.00  0.00     0.064 A 
ATOM     83  C   UNL A   1      45.007  26.051  29.298  1.00  0.00     0.173 A 
ATOM     84  C   UNL A   1      44.298  27.601  27.602  1.00  0.00     0.173 A 
ATOM     85  F   UNL A   1      45.387  25.780  30.559  1.00  0.00    -0.203 F 
ATOM     86  C   UNL A   1      44.750  24.982  28.444  1.00  0.00     0.198 A 
ATOM     87  C   UNL A   1      44.090  26.527  26.734  1.00  0.00     0.198 A 
ATOM     88  F   UNL A   1      43.971  28.834  27.187  1.00  0.00    -0.203 F 
ATOM     89  F   UNL A   1      44.870  23.724  28.894  1.00  0.00    -0.200 F 
ATOM     90  C   UNL A   1      44.266  25.221  27.170  1.00  0.00     0.200 A 
ATOM     91  F   UNL A   1      43.612  26.752  25.501  1.00  0.00    -0.200 F 
ATOM     92  F   UNL A   1      43.933  24.197  26.375  1.00  0.00    -0.200 F 
ENDBRANCH  58  82
BRANCH  70  93
ATOM     93  C   UNL A   1      43.165  34.370  30.209  1.00  0.00     0.064 A 
ATOM     94  C   UNL A   1      43.243  34.811  28.879  1.00  0.00     0.173 A 
ATOM     95  C   UNL A   1      43.491  35.330  31.192  1.00  0.00     0.173 A 
ATOM     96  F   UNL A   1      43.060  33.957  27.861  1.00  0.00    -0.203 F 
ATOM     97  C   UNL A   1      43.524  36.140  28.560  1.00  0.00     0.198 A 
ATOM     98  C   UNL A   1      43.849  36.637  30.868  1.00  0.00     0.198 A 
ATOM     99  F   UNL A   1      43.439  35.051  32.502  1.00  0.00    -0.203 F 
ATOM    100  F   UNL A   1      43.490  36.535  27.280  1.00  0.00    -0.200 F 
ATOM    101  C   UNL A   1      43.835  37.051  29.554  1.00  0.00     0.200 A 
ATOM    102  F   UNL A   1      44.190  37.492  31.842  1.00  0.00    -0.200 F 
ATOM    103  F   UNL A   1      44.117  38.323  29.245  1.00  0.00    -0.200 F 
ENDBRANCH  70  93
ENDBRANCH  44  45
ENDBRANCH  36  39
ENDBRANCH  34  35
ENDBRANCH  33  34
ENDBRANCH  32  33
ENDBRANCH   1  32
TORSDOF 15
ENDMDL
