MODEL 1
REMARK VINA RESULT:     -13.4      0.000      0.000
REMARK SMILES COc1ccc(Cl)c2c1N[C@@H](c1ccc(C(=O)NCCCCNC(=O)c3ccc(-c4c5nc(c(-c6c(F)c(F)c(F)c(F)c6F)c6ccc([nH]6)c(-c6c(F)c(F)c(F)c(F)c6F)c6nc(c(-c7c(F)c(F)c(F)c(F)c7F)c7ccc4[nH]7)C=C6)C=C5)cc3)cc1)[C@@H]1CC=C[C@H]21
REMARK SMILES IDX 20 1 19 2 18 3 16 4 17 5 15 7 12 8 13 9 90 10 14 11 89 12
REMARK SMILES IDX 11 13 3 14 4 15 9 16 5 17 8 18 10 19 6 20 95 21 7 23 91 24
REMARK SMILES IDX 94 25 92 26 93 27 2 28 1 29 21 30 22 31 23 32 24 33 25 35
REMARK SMILES IDX 26 36 27 37 88 38 28 39 87 40 29 41 30 42 31 43 81 44 32 45
REMARK SMILES IDX 86 46 80 47 82 48 33 49 85 50 79 51 78 52 34 54 66 55 46 56
REMARK SMILES IDX 65 57 47 58 50 59 64 60 83 61 48 62 49 63 63 65 84 66 51 67
REMARK SMILES IDX 35 68 36 69 44 70 37 71 38 72 42 73 45 74 39 75 40 76 43 77
REMARK SMILES IDX 41 78 67 79 68 80 76 81 69 82 70 83 74 84 77 85 71 86 72 87
REMARK SMILES IDX 75 88 73 89 52 90 53 91 61 92 54 93 55 94 59 95 62 96 56 97
REMARK SMILES IDX 57 98 60 99 58 100
REMARK H PARENT 18 6 10 22 23 34 82 53 50 64
REMARK Flexibility Score: inf
ROOT
ATOM      1  C   UNL A   1      37.323  21.338  24.669  1.00  0.00     0.023 C 
ENDROOT
BRANCH   1   2
ATOM      2  C   UNL A   1      35.805  21.166  24.738  1.00  0.00     0.116 C 
BRANCH   2   3
ATOM      3  N   UNL A   1      35.353  21.092  26.113  1.00  0.00    -0.352 N 
ATOM      4  C   UNL A   1      34.581  21.949  26.856  1.00  0.00     0.251 C 
ATOM      5  O   UNL A   1      34.282  21.612  28.001  1.00  0.00    -0.269 OA
ATOM      6  H   UNL A   1      35.653  20.289  26.598  1.00  0.00     0.163 HD
BRANCH   4   7
ATOM      7  C   UNL A   1      34.058  23.236  26.319  1.00  0.00     0.039 A 
ATOM      8  C   UNL A   1      32.926  25.654  25.377  1.00  0.00    -0.025 A 
ATOM      9  C   UNL A   1      32.124  24.671  25.976  1.00  0.00     0.006 A 
ATOM     10  C   UNL A   1      34.302  25.415  25.276  1.00  0.00     0.006 A 
ATOM     11  C   UNL A   1      32.687  23.484  26.456  1.00  0.00     0.014 A 
ATOM     12  C   UNL A   1      34.858  24.226  25.748  1.00  0.00     0.014 A 
BRANCH   8  13
ATOM     13  C   UNL A   1      32.365  26.974  24.865  1.00  0.00     0.114 C 
ATOM     14  C   UNL A   1      32.196  30.265  26.585  1.00  0.00     0.142 A 
ATOM     15  C   UNL A   1      31.606  31.519  26.469  1.00  0.00     0.050 A 
ATOM     16  C   UNL A   1      31.822  29.196  25.747  1.00  0.00     0.083 A 
ATOM     17  C   UNL A   1      30.652  31.735  25.482  1.00  0.00     0.025 A 
ATOM     18  C   UNL A   1      30.857  29.410  24.745  1.00  0.00     0.005 A 
ATOM     19  N   UNL A   1      32.376  27.940  25.942  1.00  0.00    -0.375 N 
ATOM     20  C   UNL A   1      30.280  30.692  24.626  1.00  0.00     0.047 A 
ATOM     21  C   UNL A   1      30.419  28.257  23.871  1.00  0.00     0.051 C 
ATOM     22  H   UNL A   1      32.777  27.708  26.812  1.00  0.00     0.161 HD
ATOM     23  Cl  UNL A   1      29.057  31.045  23.454  1.00  0.00    -0.084 Cl
ATOM     24  C   UNL A   1      30.938  26.856  24.292  1.00  0.00     0.031 C 
ATOM     25  C   UNL A   1      30.892  28.325  22.439  1.00  0.00    -0.023 C 
ATOM     26  C   UNL A   1      30.884  26.053  22.978  1.00  0.00     0.034 C 
ATOM     27  C   UNL A   1      31.134  27.105  21.946  1.00  0.00    -0.030 C 
BRANCH  14  28
ATOM     28  O   UNL A   1      33.120  30.090  27.589  1.00  0.00    -0.495 OA
ATOM     29  C   UNL A   1      33.790  31.318  27.881  1.00  0.00     0.278 C 
ENDBRANCH  14  28
ENDBRANCH   8  13
ENDBRANCH   4   7
ENDBRANCH   2   3
ENDBRANCH   1   2
BRANCH   1  30
ATOM     30  C   UNL A   1      38.125  20.079  24.989  1.00  0.00     0.023 C 
BRANCH  30  31
ATOM     31  C   UNL A   1      39.230  20.270  26.017  1.00  0.00     0.116 C 
BRANCH  31  32
ATOM     32  N   UNL A   1      40.218  19.203  25.997  1.00  0.00    -0.352 N 
ATOM     33  C   UNL A   1      41.580  19.319  26.129  1.00  0.00     0.251 C 
ATOM     34  H   UNL A   1      39.870  18.290  25.874  1.00  0.00     0.163 HD
ATOM     35  O   UNL A   1      42.317  18.352  26.010  1.00  0.00    -0.269 OA
BRANCH  33  36
ATOM     36  C   UNL A   1      42.137  20.657  26.391  1.00  0.00     0.039 A 
ATOM     37  C   UNL A   1      42.276  21.547  25.326  1.00  0.00     0.014 A 
ATOM     38  C   UNL A   1      42.453  21.037  27.698  1.00  0.00     0.014 A 
ATOM     39  C   UNL A   1      42.698  22.851  25.578  1.00  0.00     0.010 A 
ATOM     40  C   UNL A   1      42.829  22.348  27.955  1.00  0.00     0.010 A 
ATOM     41  C   UNL A   1      42.961  23.260  26.895  1.00  0.00    -0.014 A 
BRANCH  41  42
ATOM     42  C   UNL A   1      43.447  24.626  27.182  1.00  0.00     0.031 A 
ATOM     43  C   UNL A   1      42.488  25.638  27.735  1.00  0.00     0.074 A 
ATOM     44  C   UNL A   1      44.720  24.961  26.908  1.00  0.00     0.049 A 
ATOM     45  N   UNL A   1      42.679  26.905  27.994  1.00  0.00    -0.248 NA
ATOM     46  C   UNL A   1      41.123  25.163  28.017  1.00  0.00     0.031 C 
ATOM     47  C   UNL A   1      45.731  24.061  26.352  1.00  0.00     0.029 A 
ATOM     48  N   UNL A   1      45.377  26.156  27.052  1.00  0.00    -0.354 N 
ATOM     49  C   UNL A   1      41.463  27.376  28.467  1.00  0.00     0.074 A 
ATOM     50  C   UNL A   1      40.526  26.276  28.411  1.00  0.00     0.031 C 
ATOM     51  C   UNL A   1      46.887  24.733  26.216  1.00  0.00     0.029 A 
ATOM     52  C   UNL A   1      46.688  26.114  26.648  1.00  0.00     0.049 A 
ATOM     53  H   UNL A   1      44.949  26.967  27.412  1.00  0.00     0.167 HD
ATOM     54  C   UNL A   1      41.166  28.611  28.933  1.00  0.00     0.037 A 
ATOM     55  C   UNL A   1      47.618  27.088  26.629  1.00  0.00     0.037 A 
ATOM     56  C   UNL A   1      42.105  29.695  29.000  1.00  0.00     0.049 A 
ATOM     57  C   UNL A   1      47.249  28.463  27.117  1.00  0.00     0.074 A 
ATOM     58  C   UNL A   1      41.912  30.977  29.482  1.00  0.00     0.029 A 
ATOM     59  N   UNL A   1      43.422  29.620  28.569  1.00  0.00    -0.354 N 
ATOM     60  N   UNL A   1      46.107  28.892  27.596  1.00  0.00    -0.248 NA
ATOM     61  C   UNL A   1      48.299  29.490  27.060  1.00  0.00     0.031 C 
ATOM     62  C   UNL A   1      43.105  31.689  29.315  1.00  0.00     0.029 A 
ATOM     63  C   UNL A   1      44.050  30.840  28.761  1.00  0.00     0.049 A 
ATOM     64  H   UNL A   1      43.848  28.820  28.185  1.00  0.00     0.167 HD
ATOM     65  C   UNL A   1      46.303  30.229  27.915  1.00  0.00     0.074 A 
ATOM     66  C   UNL A   1      47.680  30.538  27.587  1.00  0.00     0.031 C 
ATOM     67  C   UNL A   1      45.423  31.121  28.428  1.00  0.00     0.037 A 
BRANCH  54  68
ATOM     68  C   UNL A   1      39.767  28.844  29.415  1.00  0.00     0.064 A 
ATOM     69  C   UNL A   1      39.424  28.667  30.764  1.00  0.00     0.173 A 
ATOM     70  C   UNL A   1      38.767  29.274  28.533  1.00  0.00     0.173 A 
ATOM     71  F   UNL A   1      40.344  28.239  31.643  1.00  0.00    -0.203 F 
ATOM     72  C   UNL A   1      38.125  28.894  31.208  1.00  0.00     0.198 A 
ATOM     73  C   UNL A   1      37.474  29.524  28.984  1.00  0.00     0.198 A 
ATOM     74  F   UNL A   1      39.045  29.456  27.233  1.00  0.00    -0.203 F 
ATOM     75  F   UNL A   1      37.811  28.680  32.494  1.00  0.00    -0.200 F 
ATOM     76  C   UNL A   1      37.152  29.329  30.320  1.00  0.00     0.200 A 
ATOM     77  F   UNL A   1      36.536  29.951  28.127  1.00  0.00    -0.200 F 
ATOM     78  F   UNL A   1      35.904  29.553  30.749  1.00  0.00    -0.200 F 
ENDBRANCH  54  68
BRANCH  55  79
ATOM     79  C   UNL A   1      48.994  26.789  26.159  1.00  0.00     0.064 A 
ATOM     80  C   UNL A   1      49.956  26.280  27.043  1.00  0.00     0.173 A 
ATOM     81  C   UNL A   1      49.375  26.999  24.827  1.00  0.00     0.173 A 
ATOM     82  F   UNL A   1      49.642  26.084  28.332  1.00  0.00    -0.203 F 
ATOM     83  C   UNL A   1      51.252  26.004  26.615  1.00  0.00     0.198 A 
ATOM     84  C   UNL A   1      50.666  26.702  24.394  1.00  0.00     0.198 A 
ATOM     85  F   UNL A   1      48.490  27.483  23.944  1.00  0.00    -0.203 F 
ATOM     86  F   UNL A   1      52.161  25.550  27.487  1.00  0.00    -0.200 F 
ATOM     87  C   UNL A   1      51.605  26.211  25.289  1.00  0.00     0.200 A 
ATOM     88  F   UNL A   1      51.002  26.894  23.111  1.00  0.00    -0.200 F 
ATOM     89  F   UNL A   1      52.850  25.940  24.875  1.00  0.00    -0.200 F 
ENDBRANCH  55  79
BRANCH  67  90
ATOM     90  C   UNL A   1      45.921  32.512  28.682  1.00  0.00     0.064 A 
ATOM     91  C   UNL A   1      46.559  32.850  29.884  1.00  0.00     0.173 A 
ATOM     92  C   UNL A   1      45.819  33.496  27.688  1.00  0.00     0.173 A 
ATOM     93  F   UNL A   1      46.666  31.945  30.868  1.00  0.00    -0.203 F 
ATOM     94  C   UNL A   1      47.067  34.130  30.086  1.00  0.00     0.198 A 
ATOM     95  C   UNL A   1      46.351  34.768  27.885  1.00  0.00     0.198 A 
ATOM     96  F   UNL A   1      45.223  33.218  26.518  1.00  0.00    -0.203 F 
ATOM     97  F   UNL A   1      47.646  34.441  31.254  1.00  0.00    -0.200 F 
ATOM     98  C   UNL A   1      46.970  35.084  29.084  1.00  0.00     0.200 A 
ATOM     99  F   UNL A   1      46.268  35.685  26.910  1.00  0.00    -0.200 F 
ATOM    100  F   UNL A   1      47.472  36.311  29.276  1.00  0.00    -0.200 F 
ENDBRANCH  67  90
ENDBRANCH  41  42
ENDBRANCH  33  36
ENDBRANCH  31  32
ENDBRANCH  30  31
ENDBRANCH   1  30
TORSDOF 13
ENDMDL
MODEL 2
REMARK VINA RESULT:     -13.1      0.542      7.099
REMARK SMILES COc1ccc(Cl)c2c1N[C@@H](c1ccc(C(=O)NCCCCNC(=O)c3ccc(-c4c5nc(c(-c6c(F)c(F)c(F)c(F)c6F)c6ccc([nH]6)c(-c6c(F)c(F)c(F)c(F)c6F)c6nc(c(-c7c(F)c(F)c(F)c(F)c7F)c7ccc4[nH]7)C=C6)C=C5)cc3)cc1)[C@@H]1CC=C[C@H]21
REMARK SMILES IDX 20 1 19 2 18 3 16 4 17 5 15 7 12 8 13 9 90 10 14 11 89 12
REMARK SMILES IDX 11 13 3 14 4 15 9 16 5 17 8 18 10 19 6 20 95 21 7 23 91 24
REMARK SMILES IDX 94 25 92 26 93 27 2 28 1 29 21 30 22 31 23 32 24 33 25 35
REMARK SMILES IDX 26 36 27 37 88 38 28 39 87 40 29 41 30 42 31 43 81 44 32 45
REMARK SMILES IDX 86 46 80 47 82 48 33 49 85 50 79 51 78 52 34 54 66 55 46 56
REMARK SMILES IDX 65 57 47 58 50 59 64 60 83 61 48 62 49 63 63 65 84 66 51 67
REMARK SMILES IDX 35 68 36 69 44 70 37 71 38 72 42 73 45 74 39 75 40 76 43 77
REMARK SMILES IDX 41 78 67 79 68 80 76 81 69 82 70 83 74 84 77 85 71 86 72 87
REMARK SMILES IDX 75 88 73 89 52 90 53 91 61 92 54 93 55 94 59 95 62 96 56 97
REMARK SMILES IDX 57 98 60 99 58 100
REMARK H PARENT 18 6 10 22 23 34 82 53 50 64
REMARK Flexibility Score: inf
ROOT
ATOM      1  C   UNL A   1      37.385  21.139  24.513  1.00  0.00     0.023 C 
ENDROOT
BRANCH   1   2
ATOM      2  C   UNL A   1      37.028  22.178  25.579  1.00  0.00     0.116 C 
BRANCH   2   3
ATOM      3  N   UNL A   1      36.037  21.658  26.498  1.00  0.00    -0.352 N 
ATOM      4  C   UNL A   1      34.796  22.128  26.847  1.00  0.00     0.251 C 
ATOM      5  O   UNL A   1      34.116  21.449  27.615  1.00  0.00    -0.269 OA
ATOM      6  H   UNL A   1      36.299  20.824  26.952  1.00  0.00     0.163 HD
BRANCH   4   7
ATOM      7  C   UNL A   1      34.229  23.394  26.301  1.00  0.00     0.039 A 
ATOM      8  C   UNL A   1      33.027  25.779  25.365  1.00  0.00    -0.025 A 
ATOM      9  C   UNL A   1      32.299  24.866  26.144  1.00  0.00     0.006 A 
ATOM     10  C   UNL A   1      34.366  25.488  25.081  1.00  0.00     0.006 A 
ATOM     11  C   UNL A   1      32.900  23.696  26.620  1.00  0.00     0.014 A 
ATOM     12  C   UNL A   1      34.959  24.316  25.550  1.00  0.00     0.014 A 
BRANCH   8  13
ATOM     13  C   UNL A   1      32.427  27.079  24.847  1.00  0.00     0.114 C 
ATOM     14  C   UNL A   1      32.202  30.383  26.536  1.00  0.00     0.142 A 
ATOM     15  C   UNL A   1      31.580  31.622  26.416  1.00  0.00     0.050 A 
ATOM     16  C   UNL A   1      31.842  29.298  25.714  1.00  0.00     0.083 A 
ATOM     17  C   UNL A   1      30.607  31.804  25.440  1.00  0.00     0.025 A 
ATOM     18  C   UNL A   1      30.858  29.477  24.724  1.00  0.00     0.005 A 
ATOM     19  N   UNL A   1      32.429  28.058  25.915  1.00  0.00    -0.375 N 
ATOM     20  C   UNL A   1      30.249  30.744  24.601  1.00  0.00     0.047 A 
ATOM     21  C   UNL A   1      30.436  28.304  23.868  1.00  0.00     0.051 C 
ATOM     22  H   UNL A   1      32.848  27.844  26.780  1.00  0.00     0.161 HD
ATOM     23  Cl  UNL A   1      29.001  31.055  23.442  1.00  0.00    -0.084 Cl
ATOM     24  C   UNL A   1      30.995  26.922  24.297  1.00  0.00     0.031 C 
ATOM     25  C   UNL A   1      30.887  28.369  22.429  1.00  0.00    -0.023 C 
ATOM     26  C   UNL A   1      30.942  26.103  22.991  1.00  0.00     0.034 C 
ATOM     27  C   UNL A   1      31.152  27.150  21.945  1.00  0.00    -0.030 C 
BRANCH  14  28
ATOM     28  O   UNL A   1      33.143  30.242  27.528  1.00  0.00    -0.495 OA
ATOM     29  C   UNL A   1      33.797  31.486  27.789  1.00  0.00     0.278 C 
ENDBRANCH  14  28
ENDBRANCH   8  13
ENDBRANCH   4   7
ENDBRANCH   2   3
ENDBRANCH   1   2
BRANCH   1  30
ATOM     30  C   UNL A   1      38.113  19.905  25.042  1.00  0.00     0.023 C 
BRANCH  30  31
ATOM     31  C   UNL A   1      39.261  20.200  25.994  1.00  0.00     0.116 C 
BRANCH  31  32
ATOM     32  N   UNL A   1      40.326  19.212  25.926  1.00  0.00    -0.352 N 
ATOM     33  C   UNL A   1      41.676  19.424  26.061  1.00  0.00     0.251 C 
ATOM     34  H   UNL A   1      40.046  18.282  25.766  1.00  0.00     0.163 HD
ATOM     35  O   UNL A   1      42.483  18.521  25.899  1.00  0.00    -0.269 OA
BRANCH  33  36
ATOM     36  C   UNL A   1      42.133  20.787  26.378  1.00  0.00     0.039 A 
ATOM     37  C   UNL A   1      42.331  21.690  25.333  1.00  0.00     0.014 A 
ATOM     38  C   UNL A   1      42.296  21.175  27.711  1.00  0.00     0.014 A 
ATOM     39  C   UNL A   1      42.657  23.013  25.628  1.00  0.00     0.010 A 
ATOM     40  C   UNL A   1      42.574  22.503  28.005  1.00  0.00     0.010 A 
ATOM     41  C   UNL A   1      42.764  23.427  26.965  1.00  0.00    -0.014 A 
BRANCH  41  42
ATOM     42  C   UNL A   1      43.147  24.815  27.301  1.00  0.00     0.031 A 
ATOM     43  C   UNL A   1      44.557  25.261  27.052  1.00  0.00     0.074 A 
ATOM     44  C   UNL A   1      42.250  25.645  27.861  1.00  0.00     0.049 A 
ATOM     45  N   UNL A   1      45.125  26.404  27.334  1.00  0.00    -0.248 NA
ATOM     46  C   UNL A   1      45.453  24.280  26.418  1.00  0.00     0.031 C 
ATOM     47  C   UNL A   1      40.858  25.308  28.162  1.00  0.00     0.029 A 
ATOM     48  N   UNL A   1      42.381  26.942  28.285  1.00  0.00    -0.354 N 
ATOM     49  C   UNL A   1      46.441  26.279  26.913  1.00  0.00     0.074 A 
ATOM     50  C   UNL A   1      46.604  24.935  26.406  1.00  0.00     0.031 C 
ATOM     51  C   UNL A   1      40.258  26.380  28.710  1.00  0.00     0.029 A 
ATOM     52  C   UNL A   1      41.230  27.464  28.822  1.00  0.00     0.049 A 
ATOM     53  H   UNL A   1      43.220  27.452  28.210  1.00  0.00     0.167 HD
ATOM     54  C   UNL A   1      47.418  27.215  26.925  1.00  0.00     0.037 A 
ATOM     55  C   UNL A   1      40.997  28.681  29.348  1.00  0.00     0.037 A 
ATOM     56  C   UNL A   1      47.247  28.554  27.416  1.00  0.00     0.049 A 
ATOM     57  C   UNL A   1      42.113  29.690  29.384  1.00  0.00     0.074 A 
ATOM     58  C   UNL A   1      48.164  29.587  27.445  1.00  0.00     0.029 A 
ATOM     59  N   UNL A   1      46.070  29.043  27.966  1.00  0.00    -0.354 N 
ATOM     60  N   UNL A   1      43.345  29.577  28.952  1.00  0.00    -0.248 NA
ATOM     61  C   UNL A   1      41.804  30.997  29.982  1.00  0.00     0.031 C 
ATOM     62  C   UNL A   1      47.553  30.695  28.042  1.00  0.00     0.029 A 
ATOM     63  C   UNL A   1      46.244  30.362  28.352  1.00  0.00     0.049 A 
ATOM     64  H   UNL A   1      45.236  28.530  28.067  1.00  0.00     0.167 HD
ATOM     65  C   UNL A   1      43.954  30.798  29.206  1.00  0.00     0.074 A 
ATOM     66  C   UNL A   1      42.950  31.645  29.819  1.00  0.00     0.031 C 
ATOM     67  C   UNL A   1      45.229  31.184  28.959  1.00  0.00     0.037 A 
BRANCH  54  68
ATOM     68  C   UNL A   1      48.755  26.819  26.377  1.00  0.00     0.064 A 
ATOM     69  C   UNL A   1      49.700  26.156  27.175  1.00  0.00     0.173 A 
ATOM     70  C   UNL A   1      49.086  27.077  25.040  1.00  0.00     0.173 A 
ATOM     71  F   UNL A   1      49.435  25.904  28.466  1.00  0.00    -0.203 F 
ATOM     72  C   UNL A   1      50.937  25.784  26.658  1.00  0.00     0.198 A 
ATOM     73  C   UNL A   1      50.315  26.681  24.519  1.00  0.00     0.198 A 
ATOM     74  F   UNL A   1      48.217  27.709  24.238  1.00  0.00    -0.203 F 
ATOM     75  F   UNL A   1      51.841  25.188  27.449  1.00  0.00    -0.200 F 
ATOM     76  C   UNL A   1      51.242  26.039  25.329  1.00  0.00     0.200 A 
ATOM     77  F   UNL A   1      50.606  26.922  23.233  1.00  0.00    -0.200 F 
ATOM     78  F   UNL A   1      52.430  25.674  24.831  1.00  0.00    -0.200 F 
ENDBRANCH  54  68
BRANCH  55  79
ATOM     79  C   UNL A   1      39.644  29.021  29.855  1.00  0.00     0.064 A 
ATOM     80  C   UNL A   1      39.316  28.825  31.204  1.00  0.00     0.173 A 
ATOM     81  C   UNL A   1      38.656  29.548  29.012  1.00  0.00     0.173 A 
ATOM     82  F   UNL A   1      40.223  28.303  32.043  1.00  0.00    -0.203 F 
ATOM     83  C   UNL A   1      38.048  29.133  31.689  1.00  0.00     0.198 A 
ATOM     84  C   UNL A   1      37.394  29.876  29.502  1.00  0.00     0.198 A 
ATOM     85  F   UNL A   1      38.921  29.755  27.714  1.00  0.00    -0.203 F 
ATOM     86  F   UNL A   1      37.751  28.906  32.975  1.00  0.00    -0.200 F 
ATOM     87  C   UNL A   1      37.088  29.663  30.839  1.00  0.00     0.200 A 
ATOM     88  F   UNL A   1      36.471  30.397  28.681  1.00  0.00    -0.200 F 
ATOM     89  F   UNL A   1      35.869  29.964  31.306  1.00  0.00    -0.200 F 
ENDBRANCH  55  79
BRANCH  67  90
ATOM     90  C   UNL A   1      45.611  32.583  29.337  1.00  0.00     0.064 A 
ATOM     91  C   UNL A   1      45.355  33.664  28.482  1.00  0.00     0.173 A 
ATOM     92  C   UNL A   1      46.177  32.851  30.591  1.00  0.00     0.173 A 
ATOM     93  F   UNL A   1      44.828  33.453  27.267  1.00  0.00    -0.203 F 
ATOM     94  C   UNL A   1      45.663  34.966  28.866  1.00  0.00     0.198 A 
ATOM     95  C   UNL A   1      46.461  34.157  30.982  1.00  0.00     0.198 A 
ATOM     96  F   UNL A   1      46.434  31.850  31.446  1.00  0.00    -0.203 F 
ATOM     97  F   UNL A   1      45.438  35.982  28.022  1.00  0.00    -0.200 F 
ATOM     98  C   UNL A   1      46.208  35.211  30.118  1.00  0.00     0.200 A 
ATOM     99  F   UNL A   1      46.975  34.394  32.197  1.00  0.00    -0.200 F 
ATOM    100  F   UNL A   1      46.491  36.466  30.491  1.00  0.00    -0.200 F 
ENDBRANCH  67  90
ENDBRANCH  41  42
ENDBRANCH  33  36
ENDBRANCH  31  32
ENDBRANCH  30  31
ENDBRANCH   1  30
TORSDOF 13
ENDMDL
MODEL 3
REMARK VINA RESULT:     -12.9      0.459      2.003
REMARK SMILES COc1ccc(Cl)c2c1N[C@@H](c1ccc(C(=O)NCCCCNC(=O)c3ccc(-c4c5nc(c(-c6c(F)c(F)c(F)c(F)c6F)c6ccc([nH]6)c(-c6c(F)c(F)c(F)c(F)c6F)c6nc(c(-c7c(F)c(F)c(F)c(F)c7F)c7ccc4[nH]7)C=C6)C=C5)cc3)cc1)[C@@H]1CC=C[C@H]21
REMARK SMILES IDX 20 1 19 2 18 3 16 4 17 5 15 7 12 8 13 9 90 10 14 11 89 12
REMARK SMILES IDX 11 13 3 14 4 15 9 16 5 17 8 18 10 19 6 20 95 21 7 23 91 24
REMARK SMILES IDX 94 25 92 26 93 27 2 28 1 29 21 30 22 31 23 32 24 33 25 35
REMARK SMILES IDX 26 36 27 37 88 38 28 39 87 40 29 41 30 42 31 43 81 44 32 45
REMARK SMILES IDX 86 46 80 47 82 48 33 49 85 50 79 51 78 52 34 54 66 55 46 56
REMARK SMILES IDX 65 57 47 58 50 59 64 60 83 61 48 62 49 63 63 65 84 66 51 67
REMARK SMILES IDX 35 68 36 69 44 70 37 71 38 72 42 73 45 74 39 75 40 76 43 77
REMARK SMILES IDX 41 78 67 79 68 80 76 81 69 82 70 83 74 84 77 85 71 86 72 87
REMARK SMILES IDX 75 88 73 89 52 90 53 91 61 92 54 93 55 94 59 95 62 96 56 97
REMARK SMILES IDX 57 98 60 99 58 100
REMARK H PARENT 18 6 10 22 23 34 82 53 50 64
REMARK Flexibility Score: inf
ROOT
ATOM      1  C   UNL A   1      38.250  21.862  25.483  1.00  0.00     0.023 C 
ENDROOT
BRANCH   1   2
ATOM      2  C   UNL A   1      36.777  22.005  25.097  1.00  0.00     0.116 C 
BRANCH   2   3
ATOM      3  N   UNL A   1      35.913  21.585  26.181  1.00  0.00    -0.352 N 
ATOM      4  C   UNL A   1      34.774  22.150  26.697  1.00  0.00     0.251 C 
ATOM      5  O   UNL A   1      34.183  21.544  27.591  1.00  0.00    -0.269 OA
ATOM      6  H   UNL A   1      36.191  20.751  26.624  1.00  0.00     0.163 HD
BRANCH   4   7
ATOM      7  C   UNL A   1      34.208  23.432  26.192  1.00  0.00     0.039 A 
ATOM      8  C   UNL A   1      33.006  25.847  25.332  1.00  0.00    -0.025 A 
ATOM      9  C   UNL A   1      32.279  24.911  26.084  1.00  0.00     0.006 A 
ATOM     10  C   UNL A   1      34.345  25.562  25.036  1.00  0.00     0.006 A 
ATOM     11  C   UNL A   1      32.879  23.726  26.523  1.00  0.00     0.014 A 
ATOM     12  C   UNL A   1      34.937  24.376  25.468  1.00  0.00     0.014 A 
BRANCH   8  13
ATOM     13  C   UNL A   1      32.407  27.162  24.856  1.00  0.00     0.114 C 
ATOM     14  C   UNL A   1      32.290  30.443  26.601  1.00  0.00     0.142 A 
ATOM     15  C   UNL A   1      31.681  31.692  26.522  1.00  0.00     0.050 A 
ATOM     16  C   UNL A   1      31.885  29.375  25.777  1.00  0.00     0.083 A 
ATOM     17  C   UNL A   1      30.677  31.902  25.584  1.00  0.00     0.025 A 
ATOM     18  C   UNL A   1      30.869  29.583  24.825  1.00  0.00     0.005 A 
ATOM     19  N   UNL A   1      32.461  28.124  25.937  1.00  0.00    -0.375 N 
ATOM     20  C   UNL A   1      30.274  30.860  24.743  1.00  0.00     0.047 A 
ATOM     21  C   UNL A   1      30.400  28.430  23.968  1.00  0.00     0.051 C 
ATOM     22  H   UNL A   1      32.907  27.891  26.784  1.00  0.00     0.161 HD
ATOM     23  Cl  UNL A   1      28.990  31.205  23.634  1.00  0.00    -0.084 Cl
ATOM     24  C   UNL A   1      30.954  27.033  24.355  1.00  0.00     0.031 C 
ATOM     25  C   UNL A   1      30.800  28.510  22.514  1.00  0.00    -0.023 C 
ATOM     26  C   UNL A   1      30.843  26.235  23.040  1.00  0.00     0.034 C 
ATOM     27  C   UNL A   1      31.030  27.295  22.003  1.00  0.00    -0.030 C 
BRANCH  14  28
ATOM     28  O   UNL A   1      33.264  30.273  27.556  1.00  0.00    -0.495 OA
ATOM     29  C   UNL A   1      33.885  31.520  27.875  1.00  0.00     0.278 C 
ENDBRANCH  14  28
ENDBRANCH   8  13
ENDBRANCH   4   7
ENDBRANCH   2   3
ENDBRANCH   1   2
BRANCH   1  30
ATOM     30  C   UNL A   1      38.831  20.463  25.283  1.00  0.00     0.023 C 
BRANCH  30  31
ATOM     31  C   UNL A   1      39.561  19.897  26.490  1.00  0.00     0.116 C 
BRANCH  31  32
ATOM     32  N   UNL A   1      40.680  19.040  26.129  1.00  0.00    -0.352 N 
ATOM     33  C   UNL A   1      41.998  19.397  25.990  1.00  0.00     0.251 C 
ATOM     34  H   UNL A   1      40.467  18.093  25.966  1.00  0.00     0.163 HD
ATOM     35  O   UNL A   1      42.837  18.600  25.597  1.00  0.00    -0.269 OA
BRANCH  33  36
ATOM     36  C   UNL A   1      42.374  20.787  26.299  1.00  0.00     0.039 A 
ATOM     37  C   UNL A   1      42.601  21.142  27.629  1.00  0.00     0.014 A 
ATOM     38  C   UNL A   1      42.560  21.706  25.262  1.00  0.00     0.014 A 
ATOM     39  C   UNL A   1      43.062  22.424  27.922  1.00  0.00     0.010 A 
ATOM     40  C   UNL A   1      43.063  22.967  25.551  1.00  0.00     0.010 A 
ATOM     41  C   UNL A   1      43.309  23.335  26.883  1.00  0.00    -0.014 A 
BRANCH  41  42
ATOM     42  C   UNL A   1      43.762  24.712  27.173  1.00  0.00     0.031 A 
ATOM     43  C   UNL A   1      42.755  25.729  27.623  1.00  0.00     0.074 A 
ATOM     44  C   UNL A   1      45.050  25.051  26.992  1.00  0.00     0.049 A 
ATOM     45  N   UNL A   1      42.917  27.004  27.864  1.00  0.00    -0.248 NA
ATOM     46  C   UNL A   1      41.375  25.249  27.808  1.00  0.00     0.031 C 
ATOM     47  C   UNL A   1      46.108  24.147  26.542  1.00  0.00     0.029 A 
ATOM     48  N   UNL A   1      45.685  26.255  27.157  1.00  0.00    -0.354 N 
ATOM     49  C   UNL A   1      41.663  27.476  28.227  1.00  0.00     0.074 A 
ATOM     50  C   UNL A   1      40.741  26.367  28.124  1.00  0.00     0.031 C 
ATOM     51  C   UNL A   1      47.266  24.826  26.481  1.00  0.00     0.029 A 
ATOM     52  C   UNL A   1      47.025  26.215  26.861  1.00  0.00     0.049 A 
ATOM     53  H   UNL A   1      45.225  27.071  27.462  1.00  0.00     0.167 HD
ATOM     54  C   UNL A   1      41.321  28.719  28.636  1.00  0.00     0.037 A 
ATOM     55  C   UNL A   1      47.946  27.196  26.891  1.00  0.00     0.037 A 
ATOM     56  C   UNL A   1      42.245  29.813  28.750  1.00  0.00     0.049 A 
ATOM     57  C   UNL A   1      47.530  28.580  27.312  1.00  0.00     0.074 A 
ATOM     58  C   UNL A   1      42.006  31.104  29.183  1.00  0.00     0.029 A 
ATOM     59  N   UNL A   1      43.593  29.739  28.427  1.00  0.00    -0.354 N 
ATOM     60  N   UNL A   1      46.351  29.011  27.688  1.00  0.00    -0.248 NA
ATOM     61  C   UNL A   1      48.575  29.614  27.313  1.00  0.00     0.031 C 
ATOM     62  C   UNL A   1      43.203  31.822  29.092  1.00  0.00     0.029 A 
ATOM     63  C   UNL A   1      44.195  30.968  28.637  1.00  0.00     0.049 A 
ATOM     64  H   UNL A   1      44.053  28.933  28.098  1.00  0.00     0.167 HD
ATOM     65  C   UNL A   1      46.512  30.356  27.988  1.00  0.00     0.074 A 
ATOM     66  C   UNL A   1      47.909  30.669  27.763  1.00  0.00     0.031 C 
ATOM     67  C   UNL A   1      45.588  31.254  28.407  1.00  0.00     0.037 A 
BRANCH  54  68
ATOM     68  C   UNL A   1      39.887  28.952  29.000  1.00  0.00     0.064 A 
ATOM     69  C   UNL A   1      38.947  29.349  28.036  1.00  0.00     0.173 A 
ATOM     70  C   UNL A   1      39.440  28.751  30.313  1.00  0.00     0.173 A 
ATOM     71  F   UNL A   1      39.333  29.572  26.770  1.00  0.00    -0.203 F 
ATOM     72  C   UNL A   1      37.615  29.556  28.380  1.00  0.00     0.198 A 
ATOM     73  C   UNL A   1      38.100  28.935  30.648  1.00  0.00     0.198 A 
ATOM     74  F   UNL A   1      40.300  28.373  31.270  1.00  0.00    -0.203 F 
ATOM     75  F   UNL A   1      36.743  29.974  27.451  1.00  0.00    -0.200 F 
ATOM     76  C   UNL A   1      37.191  29.342  29.682  1.00  0.00     0.200 A 
ATOM     77  F   UNL A   1      37.690  28.721  31.905  1.00  0.00    -0.200 F 
ATOM     78  F   UNL A   1      35.907  29.535  30.010  1.00  0.00    -0.200 F 
ENDBRANCH  54  68
BRANCH  55  79
ATOM     79  C   UNL A   1      49.357  26.898  26.539  1.00  0.00     0.064 A 
ATOM     80  C   UNL A   1      49.793  26.970  25.209  1.00  0.00     0.173 A 
ATOM     81  C   UNL A   1      50.296  26.539  27.516  1.00  0.00     0.173 A 
ATOM     82  F   UNL A   1      48.924  27.288  24.238  1.00  0.00    -0.203 F 
ATOM     83  C   UNL A   1      51.112  26.684  24.866  1.00  0.00     0.198 A 
ATOM     84  C   UNL A   1      51.621  26.274  27.176  1.00  0.00     0.198 A 
ATOM     85  F   UNL A   1      49.929  26.457  28.803  1.00  0.00    -0.203 F 
ATOM     86  F   UNL A   1      51.495  26.729  23.584  1.00  0.00    -0.200 F 
ATOM     87  C   UNL A   1      52.027  26.341  25.851  1.00  0.00     0.200 A 
ATOM     88  F   UNL A   1      52.505  25.952  28.131  1.00  0.00    -0.200 F 
ATOM     89  F   UNL A   1      53.298  26.071  25.523  1.00  0.00    -0.200 F 
ENDBRANCH  55  79
BRANCH  67  90
ATOM     90  C   UNL A   1      46.055  32.654  28.664  1.00  0.00     0.064 A 
ATOM     91  C   UNL A   1      45.999  33.635  27.664  1.00  0.00     0.173 A 
ATOM     92  C   UNL A   1      46.498  33.034  29.939  1.00  0.00     0.173 A 
ATOM     93  F   UNL A   1      45.595  33.315  26.426  1.00  0.00    -0.203 F 
ATOM     94  C   UNL A   1      46.383  34.947  27.929  1.00  0.00     0.198 A 
ATOM     95  C   UNL A   1      46.858  34.352  30.207  1.00  0.00     0.198 A 
ATOM     96  F   UNL A   1      46.563  32.132  30.930  1.00  0.00    -0.203 F 
ATOM     97  F   UNL A   1      46.351  35.862  26.951  1.00  0.00    -0.200 F 
ATOM     98  C   UNL A   1      46.804  35.305  29.202  1.00  0.00     0.200 A 
ATOM     99  F   UNL A   1      47.252  34.700  31.440  1.00  0.00    -0.200 F 
ATOM    100  F   UNL A   1      47.160  36.571  29.458  1.00  0.00    -0.200 F 
ENDBRANCH  67  90
ENDBRANCH  41  42
ENDBRANCH  33  36
ENDBRANCH  31  32
ENDBRANCH  30  31
ENDBRANCH   1  30
TORSDOF 13
ENDMDL
