MODEL 1
REMARK VINA RESULT:     -12.8      0.000      0.000
REMARK SMILES Cn1cc(Cl)c(C(=O)N2CCC[C@H](c3ccc(C(=O)NCCCCNC(=O)c4ccc(-c5c6nc(c(-c7c(F)c(F)c(F)c(F)c7F)c7ccc([nH]7)c(-c7c(F)c(F)c(F)c(F)c7F)c7nc(c(-c8c(F)c(F)c(F)c(F)c8F)c8ccc5[nH]8)C=C7)C=C6)cc4)cc3)C2)n1
REMARK SMILES IDX 22 1 21 2 20 3 18 4 19 5 17 7 14 8 15 9 92 10 16 11 91 12
REMARK SMILES IDX 13 13 9 14 10 15 93 16 11 17 12 18 7 19 8 20 6 21 1 22 2 23
REMARK SMILES IDX 3 24 94 25 4 26 5 27 23 28 24 29 25 30 26 31 27 33 28 34
REMARK SMILES IDX 29 35 90 36 30 37 89 38 31 39 32 40 33 41 83 42 34 43 88 44
REMARK SMILES IDX 82 45 84 46 35 47 87 48 81 49 80 50 36 52 68 53 48 54 67 55
REMARK SMILES IDX 49 56 52 57 66 58 85 59 50 60 51 61 65 63 86 64 53 65 37 66
REMARK SMILES IDX 38 67 46 68 39 69 40 70 44 71 47 72 41 73 42 74 45 75 43 76
REMARK SMILES IDX 69 77 70 78 78 79 71 80 72 81 76 82 79 83 73 84 74 85 77 86
REMARK SMILES IDX 75 87 54 88 55 89 63 90 56 91 57 92 61 93 64 94 58 95 59 96
REMARK SMILES IDX 62 97 60 98
REMARK H PARENT 20 6 25 32 84 51 52 62
REMARK Flexibility Score: inf
ROOT
ATOM      1  C   UNL A   1      40.912  21.036  26.479  1.00  0.00     0.023 C 
ENDROOT
BRANCH   1   2
ATOM      2  C   UNL A   1      39.496  21.493  26.120  1.00  0.00     0.116 C 
BRANCH   2   3
ATOM      3  N   UNL A   1      39.275  22.844  26.587  1.00  0.00    -0.352 N 
ATOM      4  C   UNL A   1      38.251  23.728  26.358  1.00  0.00     0.251 C 
ATOM      5  O   UNL A   1      38.341  24.844  26.869  1.00  0.00    -0.269 OA
ATOM      6  H   UNL A   1      39.986  23.191  27.173  1.00  0.00     0.163 HD
BRANCH   4   7
ATOM      7  C   UNL A   1      37.026  23.375  25.587  1.00  0.00     0.039 A 
ATOM      8  C   UNL A   1      34.635  22.529  24.312  1.00  0.00    -0.043 A 
ATOM      9  C   UNL A   1      34.708  22.641  25.703  1.00  0.00     0.005 A 
ATOM     10  C   UNL A   1      35.755  22.926  23.568  1.00  0.00     0.005 A 
ATOM     11  C   UNL A   1      35.888  23.053  26.332  1.00  0.00     0.014 A 
ATOM     12  C   UNL A   1      36.927  23.359  24.196  1.00  0.00     0.014 A 
BRANCH   8  13
ATOM     13  C   UNL A   1      33.420  21.984  23.568  1.00  0.00     0.039 C 
ATOM     14  N   UNL A   1      32.264  23.987  22.573  1.00  0.00    -0.337 N 
ATOM     15  C   UNL A   1      31.158  23.887  23.517  1.00  0.00     0.120 C 
ATOM     16  C   UNL A   1      32.994  22.746  22.287  1.00  0.00     0.128 C 
ATOM     17  C   UNL A   1      31.571  23.206  24.813  1.00  0.00     0.022 C 
ATOM     18  C   UNL A   1      32.209  21.849  24.520  1.00  0.00     0.012 C 
BRANCH  14  19
ATOM     19  C   UNL A   1      32.544  25.247  22.029  1.00  0.00     0.275 C 
ATOM     20  O   UNL A   1      33.278  25.350  21.043  1.00  0.00    -0.267 OA
BRANCH  19  21
ATOM     21  C   UNL A   1      31.996  26.457  22.670  1.00  0.00     0.168 A 
ATOM     22  C   UNL A   1      30.263  29.464  22.227  1.00  0.00     0.173 C 
ATOM     23  N   UNL A   1      30.983  28.331  22.760  1.00  0.00    -0.273 N 
ATOM     24  C   UNL A   1      31.723  28.300  23.901  1.00  0.00     0.129 A 
ATOM     25  N   UNL A   1      31.059  27.201  22.041  1.00  0.00    -0.166 NA
ATOM     26  C   UNL A   1      32.428  27.121  23.854  1.00  0.00     0.092 A 
ATOM     27  Cl  UNL A   1      33.654  26.667  24.935  1.00  0.00    -0.080 Cl
ENDBRANCH  19  21
ENDBRANCH  14  19
ENDBRANCH   8  13
ENDBRANCH   4   7
ENDBRANCH   2   3
ENDBRANCH   1   2
BRANCH   1  28
ATOM     28  C   UNL A   1      41.210  19.578  26.123  1.00  0.00     0.023 C 
BRANCH  28  29
ATOM     29  C   UNL A   1      42.599  19.103  26.523  1.00  0.00     0.116 C 
BRANCH  29  30
ATOM     30  N   UNL A   1      43.403  18.672  25.392  1.00  0.00    -0.352 N 
ATOM     31  C   UNL A   1      44.251  19.425  24.616  1.00  0.00     0.251 C 
ATOM     32  H   UNL A   1      43.333  17.720  25.152  1.00  0.00     0.163 HD
ATOM     33  O   UNL A   1      44.778  18.948  23.622  1.00  0.00    -0.269 OA
BRANCH  31  34
ATOM     34  C   UNL A   1      44.484  20.837  24.981  1.00  0.00     0.039 A 
ATOM     35  C   UNL A   1      43.940  21.836  24.173  1.00  0.00     0.014 A 
ATOM     36  C   UNL A   1      45.213  21.165  26.127  1.00  0.00     0.014 A 
ATOM     37  C   UNL A   1      44.089  23.173  24.542  1.00  0.00     0.010 A 
ATOM     38  C   UNL A   1      45.294  22.492  26.534  1.00  0.00     0.010 A 
ATOM     39  C   UNL A   1      44.747  23.508  25.737  1.00  0.00    -0.014 A 
BRANCH  39  40
ATOM     40  C   UNL A   1      44.918  24.922  26.147  1.00  0.00     0.031 A 
ATOM     41  C   UNL A   1      46.271  25.569  26.039  1.00  0.00     0.074 A 
ATOM     42  C   UNL A   1      43.875  25.603  26.662  1.00  0.00     0.049 A 
ATOM     43  N   UNL A   1      46.650  26.765  26.410  1.00  0.00    -0.248 NA
ATOM     44  C   UNL A   1      47.350  24.748  25.465  1.00  0.00     0.031 C 
ATOM     45  C   UNL A   1      42.529  25.066  26.863  1.00  0.00     0.029 A 
ATOM     46  N   UNL A   1      43.792  26.893  27.122  1.00  0.00    -0.354 N 
ATOM     47  C   UNL A   1      48.007  26.835  26.124  1.00  0.00     0.074 A 
ATOM     48  C   UNL A   1      48.401  25.540  25.612  1.00  0.00     0.031 C 
ATOM     49  C   UNL A   1      41.749  26.023  27.390  1.00  0.00     0.029 A 
ATOM     50  C   UNL A   1      42.545  27.229  27.593  1.00  0.00     0.049 A 
ATOM     51  H   UNL A   1      44.551  27.519  27.114  1.00  0.00     0.167 HD
ATOM     52  C   UNL A   1      48.844  27.891  26.246  1.00  0.00     0.037 A 
ATOM     53  C   UNL A   1      42.104  28.381  28.131  1.00  0.00     0.037 A 
ATOM     54  C   UNL A   1      48.442  29.184  26.734  1.00  0.00     0.049 A 
ATOM     55  C   UNL A   1      43.051  29.546  28.244  1.00  0.00     0.074 A 
ATOM     56  C   UNL A   1      49.204  30.330  26.874  1.00  0.00     0.029 A 
ATOM     57  N   UNL A   1      47.159  29.501  27.154  1.00  0.00    -0.354 N 
ATOM     58  N   UNL A   1      44.320  29.616  27.920  1.00  0.00    -0.248 NA
ATOM     59  C   UNL A   1      42.499  30.798  28.780  1.00  0.00     0.031 C 
ATOM     60  C   UNL A   1      48.389  31.333  27.410  1.00  0.00     0.029 A 
ATOM     61  C   UNL A   1      47.108  30.825  27.555  1.00  0.00     0.049 A 
ATOM     62  H   UNL A   1      46.398  28.877  27.167  1.00  0.00     0.167 HD
ATOM     63  C   UNL A   1      44.708  30.924  28.178  1.00  0.00     0.074 A 
ATOM     64  C   UNL A   1      43.536  31.617  28.673  1.00  0.00     0.031 C 
ATOM     65  C   UNL A   1      45.924  31.502  28.020  1.00  0.00     0.037 A 
BRANCH  52  66
ATOM     66  C   UNL A   1      50.272  27.696  25.828  1.00  0.00     0.064 A 
ATOM     67  C   UNL A   1      51.285  27.468  26.774  1.00  0.00     0.173 A 
ATOM     68  C   UNL A   1      50.631  27.705  24.473  1.00  0.00     0.173 A 
ATOM     69  F   UNL A   1      50.997  27.466  28.085  1.00  0.00    -0.203 F 
ATOM     70  C   UNL A   1      52.607  27.285  26.378  1.00  0.00     0.198 A 
ATOM     71  C   UNL A   1      51.950  27.489  24.080  1.00  0.00     0.198 A 
ATOM     72  F   UNL A   1      49.702  27.915  23.528  1.00  0.00    -0.203 F 
ATOM     73  F   UNL A   1      53.564  27.120  27.303  1.00  0.00    -0.200 F 
ATOM     74  C   UNL A   1      52.937  27.287  25.033  1.00  0.00     0.200 A 
ATOM     75  F   UNL A   1      52.265  27.479  22.777  1.00  0.00    -0.200 F 
ATOM     76  F   UNL A   1      54.209  27.102  24.652  1.00  0.00    -0.200 F 
ENDBRANCH  52  66
BRANCH  53  77
ATOM     77  C   UNL A   1      40.691  28.501  28.580  1.00  0.00     0.064 A 
ATOM     78  C   UNL A   1      39.697  28.978  27.713  1.00  0.00     0.173 A 
ATOM     79  C   UNL A   1      40.310  28.163  29.885  1.00  0.00     0.173 A 
ATOM     80  F   UNL A   1      40.014  29.331  26.460  1.00  0.00    -0.203 F 
ATOM     81  C   UNL A   1      38.382  29.140  28.146  1.00  0.00     0.198 A 
ATOM     82  C   UNL A   1      38.989  28.296  30.308  1.00  0.00     0.198 A 
ATOM     83  F   UNL A   1      41.221  27.694  30.752  1.00  0.00    -0.203 F 
ATOM     84  F   UNL A   1      37.464  29.650  27.313  1.00  0.00    -0.200 F 
ATOM     85  C   UNL A   1      38.028  28.795  29.441  1.00  0.00     0.200 A 
ATOM     86  F   UNL A   1      38.648  27.948  31.556  1.00  0.00    -0.200 F 
ATOM     87  F   UNL A   1      36.764  28.954  29.857  1.00  0.00    -0.200 F 
ENDBRANCH  53  77
BRANCH  65  88
ATOM     88  C   UNL A   1      46.036  32.967  28.327  1.00  0.00     0.064 A 
ATOM     89  C   UNL A   1      46.401  33.430  29.599  1.00  0.00     0.173 A 
ATOM     90  C   UNL A   1      45.811  33.916  27.318  1.00  0.00     0.173 A 
ATOM     91  F   UNL A   1      46.616  32.563  30.599  1.00  0.00    -0.203 F 
ATOM     92  C   UNL A   1      46.508  34.794  29.858  1.00  0.00     0.198 A 
ATOM     93  C   UNL A   1      45.949  35.278  27.573  1.00  0.00     0.198 A 
ATOM     94  F   UNL A   1      45.467  33.523  26.083  1.00  0.00    -0.203 F 
ATOM     95  F   UNL A   1      46.808  35.218  31.093  1.00  0.00    -0.200 F 
ATOM     96  C   UNL A   1      46.288  35.715  28.844  1.00  0.00     0.200 A 
ATOM     97  F   UNL A   1      45.750  36.165  26.589  1.00  0.00    -0.200 F 
ATOM     98  F   UNL A   1      46.398  37.027  29.094  1.00  0.00    -0.200 F 
ENDBRANCH  65  88
ENDBRANCH  39  40
ENDBRANCH  31  34
ENDBRANCH  29  30
ENDBRANCH  28  29
ENDBRANCH   1  28
TORSDOF 14
ENDMDL
MODEL 2
REMARK VINA RESULT:     -12.8      6.614     12.190
REMARK SMILES Cn1cc(Cl)c(C(=O)N2CCC[C@H](c3ccc(C(=O)NCCCCNC(=O)c4ccc(-c5c6nc(c(-c7c(F)c(F)c(F)c(F)c7F)c7ccc([nH]7)c(-c7c(F)c(F)c(F)c(F)c7F)c7nc(c(-c8c(F)c(F)c(F)c(F)c8F)c8ccc5[nH]8)C=C7)C=C6)cc4)cc3)C2)n1
REMARK SMILES IDX 22 1 21 2 20 3 18 4 19 5 17 7 14 8 15 9 92 10 16 11 91 12
REMARK SMILES IDX 13 13 9 14 10 15 93 16 11 17 12 18 7 19 8 20 6 21 1 22 2 23
REMARK SMILES IDX 3 24 94 25 4 26 5 27 23 28 24 29 25 30 26 31 27 33 28 34
REMARK SMILES IDX 29 35 90 36 30 37 89 38 31 39 32 40 33 41 83 42 34 43 88 44
REMARK SMILES IDX 82 45 84 46 35 47 87 48 81 49 80 50 36 52 68 53 48 54 67 55
REMARK SMILES IDX 49 56 52 57 66 58 85 59 50 60 51 61 65 63 86 64 53 65 37 66
REMARK SMILES IDX 38 67 46 68 39 69 40 70 44 71 47 72 41 73 42 74 45 75 43 76
REMARK SMILES IDX 69 77 70 78 78 79 71 80 72 81 76 82 79 83 73 84 74 85 77 86
REMARK SMILES IDX 75 87 54 88 55 89 63 90 56 91 57 92 61 93 64 94 58 95 59 96
REMARK SMILES IDX 62 97 60 98
REMARK H PARENT 20 6 25 32 84 51 52 62
REMARK Flexibility Score: inf
ROOT
ATOM      1  C   UNL A   1      34.098  33.454  28.640  1.00  0.00     0.023 C 
ENDROOT
BRANCH   1   2
ATOM      2  C   UNL A   1      33.675  32.129  28.003  1.00  0.00     0.116 C 
BRANCH   2   3
ATOM      3  N   UNL A   1      34.765  31.180  28.056  1.00  0.00    -0.352 N 
ATOM      4  C   UNL A   1      34.863  29.884  27.618  1.00  0.00     0.251 C 
ATOM      5  O   UNL A   1      35.922  29.293  27.827  1.00  0.00    -0.269 OA
ATOM      6  H   UNL A   1      35.582  31.525  28.484  1.00  0.00     0.163 HD
BRANCH   4   7
ATOM      7  C   UNL A   1      33.783  29.198  26.854  1.00  0.00     0.039 A 
ATOM      8  C   UNL A   1      31.733  28.097  25.228  1.00  0.00    -0.043 A 
ATOM      9  C   UNL A   1      32.800  28.801  24.663  1.00  0.00     0.005 A 
ATOM     10  C   UNL A   1      31.755  27.885  26.615  1.00  0.00     0.005 A 
ATOM     11  C   UNL A   1      33.807  29.347  25.464  1.00  0.00     0.014 A 
ATOM     12  C   UNL A   1      32.775  28.413  27.413  1.00  0.00     0.014 A 
BRANCH   8  13
ATOM     13  C   UNL A   1      30.546  27.569  24.428  1.00  0.00     0.039 C 
ATOM     14  N   UNL A   1      30.543  25.073  24.763  1.00  0.00    -0.337 N 
ATOM     15  C   UNL A   1      30.986  24.834  23.395  1.00  0.00     0.120 C 
ATOM     16  C   UNL A   1      29.819  26.328  25.006  1.00  0.00     0.128 C 
ATOM     17  C   UNL A   1      31.765  26.012  22.830  1.00  0.00     0.022 C 
ATOM     18  C   UNL A   1      30.952  27.298  22.961  1.00  0.00     0.012 C 
BRANCH  14  19
ATOM     19  C   UNL A   1      30.850  24.104  25.727  1.00  0.00     0.275 C 
ATOM     20  O   UNL A   1      30.176  24.014  26.755  1.00  0.00    -0.267 OA
BRANCH  19  21
ATOM     21  C   UNL A   1      32.015  23.220  25.528  1.00  0.00     0.168 A 
ATOM     22  C   UNL A   1      33.280  19.966  25.750  1.00  0.00     0.173 C 
ATOM     23  N   UNL A   1      33.096  21.384  25.538  1.00  0.00    -0.273 N 
ATOM     24  C   UNL A   1      34.065  22.338  25.526  1.00  0.00     0.129 A 
ATOM     25  N   UNL A   1      31.853  21.880  25.453  1.00  0.00    -0.166 NA
ATOM     26  C   UNL A   1      33.402  23.541  25.566  1.00  0.00     0.092 A 
ATOM     27  Cl  UNL A   1      34.134  25.058  25.765  1.00  0.00    -0.080 Cl
ENDBRANCH  19  21
ENDBRANCH  14  19
ENDBRANCH   8  13
ENDBRANCH   4   7
ENDBRANCH   2   3
ENDBRANCH   1   2
BRANCH   1  28
ATOM     28  C   UNL A   1      33.019  34.539  28.608  1.00  0.00     0.023 C 
BRANCH  28  29
ATOM     29  C   UNL A   1      33.416  35.843  29.285  1.00  0.00     0.116 C 
BRANCH  29  30
ATOM     30  N   UNL A   1      32.529  36.213  30.375  1.00  0.00    -0.352 N 
ATOM     31  C   UNL A   1      32.630  35.879  31.703  1.00  0.00     0.251 C 
ATOM     32  H   UNL A   1      31.758  36.776  30.130  1.00  0.00     0.163 HD
ATOM     33  O   UNL A   1      31.743  36.171  32.491  1.00  0.00    -0.269 OA
BRANCH  31  34
ATOM     34  C   UNL A   1      33.814  35.124  32.159  1.00  0.00     0.039 A 
ATOM     35  C   UNL A   1      33.653  33.792  32.544  1.00  0.00     0.014 A 
ATOM     36  C   UNL A   1      35.076  35.722  32.180  1.00  0.00     0.014 A 
ATOM     37  C   UNL A   1      34.771  33.043  32.908  1.00  0.00     0.010 A 
ATOM     38  C   UNL A   1      36.198  34.954  32.468  1.00  0.00     0.010 A 
ATOM     39  C   UNL A   1      36.054  33.612  32.850  1.00  0.00    -0.014 A 
BRANCH  39  40
ATOM     40  C   UNL A   1      37.256  32.834  33.234  1.00  0.00     0.031 A 
ATOM     41  C   UNL A   1      37.954  33.138  34.530  1.00  0.00     0.074 A 
ATOM     42  C   UNL A   1      37.744  31.897  32.398  1.00  0.00     0.049 A 
ATOM     43  N   UNL A   1      39.057  32.629  35.017  1.00  0.00    -0.248 NA
ATOM     44  C   UNL A   1      37.348  34.177  35.378  1.00  0.00     0.031 C 
ATOM     45  C   UNL A   1      37.182  31.550  31.093  1.00  0.00     0.029 A 
ATOM     46  N   UNL A   1      38.835  31.074  32.521  1.00  0.00    -0.354 N 
ATOM     47  C   UNL A   1      39.279  33.291  36.218  1.00  0.00     0.074 A 
ATOM     48  C   UNL A   1      38.236  34.284  36.355  1.00  0.00     0.031 C 
ATOM     49  C   UNL A   1      37.923  30.575  30.542  1.00  0.00     0.029 A 
ATOM     50  C   UNL A   1      39.027  30.250  31.439  1.00  0.00     0.049 A 
ATOM     51  H   UNL A   1      39.424  31.073  33.310  1.00  0.00     0.167 HD
ATOM     52  C   UNL A   1      40.245  33.069  37.139  1.00  0.00     0.037 A 
ATOM     53  C   UNL A   1      39.990  29.340  31.202  1.00  0.00     0.037 A 
ATOM     54  C   UNL A   1      41.266  32.063  37.009  1.00  0.00     0.049 A 
ATOM     55  C   UNL A   1      41.046  29.103  32.249  1.00  0.00     0.074 A 
ATOM     56  C   UNL A   1      42.277  31.739  37.896  1.00  0.00     0.029 A 
ATOM     57  N   UNL A   1      41.397  31.213  35.921  1.00  0.00    -0.354 N 
ATOM     58  N   UNL A   1      41.214  29.698  33.405  1.00  0.00    -0.248 NA
ATOM     59  C   UNL A   1      42.035  28.054  31.966  1.00  0.00     0.031 C 
ATOM     60  C   UNL A   1      43.041  30.713  37.329  1.00  0.00     0.029 A 
ATOM     61  C   UNL A   1      42.474  30.364  36.114  1.00  0.00     0.049 A 
ATOM     62  H   UNL A   1      40.812  31.214  35.130  1.00  0.00     0.167 HD
ATOM     63  C   UNL A   1      42.302  29.074  34.001  1.00  0.00     0.074 A 
ATOM     64  C   UNL A   1      42.746  28.045  33.084  1.00  0.00     0.031 C 
ATOM     65  C   UNL A   1      42.883  29.329  35.199  1.00  0.00     0.037 A 
BRANCH  52  66
ATOM     66  C   UNL A   1      40.231  33.919  38.376  1.00  0.00     0.064 A 
ATOM     67  C   UNL A   1      39.453  33.571  39.493  1.00  0.00     0.173 A 
ATOM     68  C   UNL A   1      41.023  35.073  38.462  1.00  0.00     0.173 A 
ATOM     69  F   UNL A   1      38.666  32.485  39.455  1.00  0.00    -0.203 F 
ATOM     70  C   UNL A   1      39.449  34.364  40.637  1.00  0.00     0.198 A 
ATOM     71  C   UNL A   1      41.040  35.845  39.622  1.00  0.00     0.198 A 
ATOM     72  F   UNL A   1      41.787  35.449  37.426  1.00  0.00    -0.203 F 
ATOM     73  F   UNL A   1      38.659  34.039  41.671  1.00  0.00    -0.200 F 
ATOM     74  C   UNL A   1      40.247  35.494  40.705  1.00  0.00     0.200 A 
ATOM     75  F   UNL A   1      41.823  36.931  39.690  1.00  0.00    -0.200 F 
ATOM     76  F   UNL A   1      40.249  36.251  41.810  1.00  0.00    -0.200 F 
ENDBRANCH  52  66
BRANCH  53  77
ATOM     77  C   UNL A   1      39.987  28.564  29.933  1.00  0.00     0.064 A 
ATOM     78  C   UNL A   1      39.390  27.296  29.864  1.00  0.00     0.173 A 
ATOM     79  C   UNL A   1      40.595  29.062  28.773  1.00  0.00     0.173 A 
ATOM     80  F   UNL A   1      38.811  26.769  30.952  1.00  0.00    -0.203 F 
ATOM     81  C   UNL A   1      39.430  26.545  28.691  1.00  0.00     0.198 A 
ATOM     82  C   UNL A   1      40.608  28.323  27.592  1.00  0.00     0.198 A 
ATOM     83  F   UNL A   1      41.173  30.273  28.784  1.00  0.00    -0.203 F 
ATOM     84  F   UNL A   1      38.901  25.314  28.669  1.00  0.00    -0.200 F 
ATOM     85  C   UNL A   1      40.035  27.060  27.555  1.00  0.00     0.200 A 
ATOM     86  F   UNL A   1      41.181  28.831  26.492  1.00  0.00    -0.200 F 
ATOM     87  F   UNL A   1      40.075  26.336  26.428  1.00  0.00    -0.200 F 
ENDBRANCH  53  77
BRANCH  65  88
ATOM     88  C   UNL A   1      44.021  28.444  35.615  1.00  0.00     0.064 A 
ATOM     89  C   UNL A   1      45.348  28.734  35.271  1.00  0.00     0.173 A 
ATOM     90  C   UNL A   1      43.777  27.309  36.405  1.00  0.00     0.173 A 
ATOM     91  F   UNL A   1      45.631  29.800  34.508  1.00  0.00    -0.203 F 
ATOM     92  C   UNL A   1      46.389  27.902  35.676  1.00  0.00     0.198 A 
ATOM     93  C   UNL A   1      44.823  26.497  36.834  1.00  0.00     0.198 A 
ATOM     94  F   UNL A   1      42.525  26.993  36.768  1.00  0.00    -0.203 F 
ATOM     95  F   UNL A   1      47.645  28.169  35.293  1.00  0.00    -0.200 F 
ATOM     96  C   UNL A   1      46.126  26.789  36.462  1.00  0.00     0.200 A 
ATOM     97  F   UNL A   1      44.569  25.432  37.606  1.00  0.00    -0.200 F 
ATOM     98  F   UNL A   1      47.131  25.995  36.857  1.00  0.00    -0.200 F 
ENDBRANCH  65  88
ENDBRANCH  39  40
ENDBRANCH  31  34
ENDBRANCH  29  30
ENDBRANCH  28  29
ENDBRANCH   1  28
TORSDOF 14
ENDMDL
MODEL 3
REMARK VINA RESULT:     -12.8      6.587     12.131
REMARK SMILES Cn1cc(Cl)c(C(=O)N2CCC[C@H](c3ccc(C(=O)NCCCCNC(=O)c4ccc(-c5c6nc(c(-c7c(F)c(F)c(F)c(F)c7F)c7ccc([nH]7)c(-c7c(F)c(F)c(F)c(F)c7F)c7nc(c(-c8c(F)c(F)c(F)c(F)c8F)c8ccc5[nH]8)C=C7)C=C6)cc4)cc3)C2)n1
REMARK SMILES IDX 22 1 21 2 20 3 18 4 19 5 17 7 14 8 15 9 92 10 16 11 91 12
REMARK SMILES IDX 13 13 9 14 10 15 93 16 11 17 12 18 7 19 8 20 6 21 1 22 2 23
REMARK SMILES IDX 3 24 94 25 4 26 5 27 23 28 24 29 25 30 26 31 27 33 28 34
REMARK SMILES IDX 29 35 90 36 30 37 89 38 31 39 32 40 33 41 83 42 34 43 88 44
REMARK SMILES IDX 82 45 84 46 35 47 87 48 81 49 80 50 36 52 68 53 48 54 67 55
REMARK SMILES IDX 49 56 52 57 66 58 85 59 50 60 51 61 65 63 86 64 53 65 37 66
REMARK SMILES IDX 38 67 46 68 39 69 40 70 44 71 47 72 41 73 42 74 45 75 43 76
REMARK SMILES IDX 69 77 70 78 78 79 71 80 72 81 76 82 79 83 73 84 74 85 77 86
REMARK SMILES IDX 75 87 54 88 55 89 63 90 56 91 57 92 61 93 64 94 58 95 59 96
REMARK SMILES IDX 62 97 60 98
REMARK H PARENT 20 6 25 32 84 51 52 62
REMARK Flexibility Score: inf
ROOT
ATOM      1  C   UNL A   1      34.137  33.486  28.860  1.00  0.00     0.023 C 
ENDROOT
BRANCH   1   2
ATOM      2  C   UNL A   1      33.958  32.353  27.847  1.00  0.00     0.116 C 
BRANCH   2   3
ATOM      3  N   UNL A   1      35.049  31.411  27.954  1.00  0.00    -0.352 N 
ATOM      4  C   UNL A   1      35.116  30.065  27.697  1.00  0.00     0.251 C 
ATOM      5  O   UNL A   1      36.188  29.499  27.911  1.00  0.00    -0.269 OA
ATOM      6  H   UNL A   1      35.895  31.805  28.268  1.00  0.00     0.163 HD
BRANCH   4   7
ATOM      7  C   UNL A   1      33.984  29.289  27.118  1.00  0.00     0.039 A 
ATOM      8  C   UNL A   1      31.987  27.752  25.809  1.00  0.00    -0.043 A 
ATOM      9  C   UNL A   1      33.333  27.376  25.760  1.00  0.00     0.005 A 
ATOM     10  C   UNL A   1      31.652  28.866  26.593  1.00  0.00     0.005 A 
ATOM     11  C   UNL A   1      34.317  28.135  26.401  1.00  0.00     0.014 A 
ATOM     12  C   UNL A   1      32.634  29.612  27.252  1.00  0.00     0.014 A 
BRANCH   8  13
ATOM     13  C   UNL A   1      30.878  27.035  25.047  1.00  0.00     0.039 C 
ATOM     14  N   UNL A   1      31.996  25.914  23.089  1.00  0.00    -0.337 N 
ATOM     15  C   UNL A   1      31.411  26.857  22.144  1.00  0.00     0.120 C 
ATOM     16  C   UNL A   1      31.264  25.708  24.346  1.00  0.00     0.128 C 
ATOM     17  C   UNL A   1      31.088  28.194  22.794  1.00  0.00     0.022 C 
ATOM     18  C   UNL A   1      30.211  27.987  24.027  1.00  0.00     0.012 C 
BRANCH  14  19
ATOM     19  C   UNL A   1      33.202  25.296  22.732  1.00  0.00     0.275 C 
ATOM     20  O   UNL A   1      34.001  25.874  21.992  1.00  0.00    -0.267 OA
BRANCH  19  21
ATOM     21  C   UNL A   1      33.489  23.929  23.205  1.00  0.00     0.168 A 
ATOM     22  C   UNL A   1      32.363  20.625  23.440  1.00  0.00     0.173 C 
ATOM     23  N   UNL A   1      33.118  21.854  23.522  1.00  0.00    -0.273 N 
ATOM     24  C   UNL A   1      34.076  22.162  24.438  1.00  0.00     0.129 A 
ATOM     25  N   UNL A   1      32.806  22.874  22.708  1.00  0.00    -0.166 NA
ATOM     26  C   UNL A   1      34.308  23.509  24.293  1.00  0.00     0.092 A 
ATOM     27  Cl  UNL A   1      35.272  24.453  25.320  1.00  0.00    -0.080 Cl
ENDBRANCH  19  21
ENDBRANCH  14  19
ENDBRANCH   8  13
ENDBRANCH   4   7
ENDBRANCH   2   3
ENDBRANCH   1   2
BRANCH   1  28
ATOM     28  C   UNL A   1      33.061  34.572  28.785  1.00  0.00     0.023 C 
BRANCH  28  29
ATOM     29  C   UNL A   1      33.433  35.875  29.476  1.00  0.00     0.116 C 
BRANCH  29  30
ATOM     30  N   UNL A   1      32.550  36.206  30.583  1.00  0.00    -0.352 N 
ATOM     31  C   UNL A   1      32.672  35.848  31.903  1.00  0.00     0.251 C 
ATOM     32  H   UNL A   1      31.765  36.757  30.357  1.00  0.00     0.163 HD
ATOM     33  O   UNL A   1      31.787  36.106  32.706  1.00  0.00    -0.269 OA
BRANCH  31  34
ATOM     34  C   UNL A   1      33.876  35.108  32.332  1.00  0.00     0.039 A 
ATOM     35  C   UNL A   1      33.727  33.805  32.810  1.00  0.00     0.014 A 
ATOM     36  C   UNL A   1      35.142  35.691  32.235  1.00  0.00     0.014 A 
ATOM     37  C   UNL A   1      34.859  33.067  33.151  1.00  0.00     0.010 A 
ATOM     38  C   UNL A   1      36.272  34.928  32.502  1.00  0.00     0.010 A 
ATOM     39  C   UNL A   1      36.141  33.615  32.977  1.00  0.00    -0.014 A 
BRANCH  39  40
ATOM     40  C   UNL A   1      37.358  32.848  33.334  1.00  0.00     0.031 A 
ATOM     41  C   UNL A   1      38.069  33.142  34.626  1.00  0.00     0.074 A 
ATOM     42  C   UNL A   1      37.849  31.930  32.479  1.00  0.00     0.049 A 
ATOM     43  N   UNL A   1      39.184  32.640  35.092  1.00  0.00    -0.248 NA
ATOM     44  C   UNL A   1      37.459  34.160  35.497  1.00  0.00     0.031 C 
ATOM     45  C   UNL A   1      37.275  31.595  31.175  1.00  0.00     0.029 A 
ATOM     46  N   UNL A   1      38.952  31.120  32.576  1.00  0.00    -0.354 N 
ATOM     47  C   UNL A   1      39.412  33.287  36.299  1.00  0.00     0.074 A 
ATOM     48  C   UNL A   1      38.358  34.264  36.464  1.00  0.00     0.031 C 
ATOM     49  C   UNL A   1      38.021  30.638  30.601  1.00  0.00     0.029 A 
ATOM     50  C   UNL A   1      39.140  30.314  31.479  1.00  0.00     0.049 A 
ATOM     51  H   UNL A   1      39.550  31.115  33.357  1.00  0.00     0.167 HD
ATOM     52  C   UNL A   1      40.393  33.065  37.205  1.00  0.00     0.037 A 
ATOM     53  C   UNL A   1      40.113  29.421  31.216  1.00  0.00     0.037 A 
ATOM     54  C   UNL A   1      41.426  32.075  37.047  1.00  0.00     0.049 A 
ATOM     55  C   UNL A   1      41.185  29.183  32.246  1.00  0.00     0.074 A 
ATOM     56  C   UNL A   1      42.452  31.752  37.916  1.00  0.00     0.029 A 
ATOM     57  N   UNL A   1      41.554  31.243  35.945  1.00  0.00    -0.354 N 
ATOM     58  N   UNL A   1      41.360  29.763  33.409  1.00  0.00    -0.248 NA
ATOM     59  C   UNL A   1      42.184  28.151  31.935  1.00  0.00     0.031 C 
ATOM     60  C   UNL A   1      43.222  30.744  37.325  1.00  0.00     0.029 A 
ATOM     61  C   UNL A   1      42.645  30.406  36.112  1.00  0.00     0.049 A 
ATOM     62  H   UNL A   1      40.959  31.247  35.161  1.00  0.00     0.167 HD
ATOM     63  C   UNL A   1      42.463  29.145  33.983  1.00  0.00     0.074 A 
ATOM     64  C   UNL A   1      42.909  28.136  33.045  1.00  0.00     0.031 C 
ATOM     65  C   UNL A   1      43.055  29.390  35.177  1.00  0.00     0.037 A 
BRANCH  52  66
ATOM     66  C   UNL A   1      40.383  33.896  38.455  1.00  0.00     0.064 A 
ATOM     67  C   UNL A   1      41.123  35.086  38.546  1.00  0.00     0.173 A 
ATOM     68  C   UNL A   1      39.606  33.522  39.559  1.00  0.00     0.173 A 
ATOM     69  F   UNL A   1      41.896  35.481  37.522  1.00  0.00    -0.203 F 
ATOM     70  C   UNL A   1      41.106  35.853  39.708  1.00  0.00     0.198 A 
ATOM     71  C   UNL A   1      39.566  34.309  40.708  1.00  0.00     0.198 A 
ATOM     72  F   UNL A   1      38.876  32.396  39.524  1.00  0.00    -0.203 F 
ATOM     73  F   UNL A   1      41.861  36.958  39.789  1.00  0.00    -0.200 F 
ATOM     74  C   UNL A   1      40.322  35.470  40.783  1.00  0.00     0.200 A 
ATOM     75  F   UNL A   1      38.797  33.943  41.743  1.00  0.00    -0.200 F 
ATOM     76  F   UNL A   1      40.300  36.213  41.898  1.00  0.00    -0.200 F 
ENDBRANCH  52  66
BRANCH  53  77
ATOM     77  C   UNL A   1      40.104  28.664  29.936  1.00  0.00     0.064 A 
ATOM     78  C   UNL A   1      39.451  27.427  29.834  1.00  0.00     0.173 A 
ATOM     79  C   UNL A   1      40.761  29.149  28.798  1.00  0.00     0.173 A 
ATOM     80  F   UNL A   1      38.822  26.911  30.900  1.00  0.00    -0.203 F 
ATOM     81  C   UNL A   1      39.484  26.691  28.651  1.00  0.00     0.198 A 
ATOM     82  C   UNL A   1      40.768  28.428  27.607  1.00  0.00     0.198 A 
ATOM     83  F   UNL A   1      41.394  30.332  28.840  1.00  0.00    -0.203 F 
ATOM     84  F   UNL A   1      38.900  25.486  28.599  1.00  0.00    -0.200 F 
ATOM     85  C   UNL A   1      40.139  27.193  27.537  1.00  0.00     0.200 A 
ATOM     86  F   UNL A   1      41.390  28.923  26.528  1.00  0.00    -0.200 F 
ATOM     87  F   UNL A   1      40.173  26.484  26.401  1.00  0.00    -0.200 F 
ENDBRANCH  53  77
BRANCH  65  88
ATOM     88  C   UNL A   1      44.210  28.514  35.565  1.00  0.00     0.064 A 
ATOM     89  C   UNL A   1      45.531  28.834  35.221  1.00  0.00     0.173 A 
ATOM     90  C   UNL A   1      43.990  27.357  36.329  1.00  0.00     0.173 A 
ATOM     91  F   UNL A   1      45.792  29.923  34.482  1.00  0.00    -0.203 F 
ATOM     92  C   UNL A   1      46.588  28.011  35.601  1.00  0.00     0.198 A 
ATOM     93  C   UNL A   1      45.052  26.553  36.733  1.00  0.00     0.198 A 
ATOM     94  F   UNL A   1      42.745  27.011  36.691  1.00  0.00    -0.203 F 
ATOM     95  F   UNL A   1      47.837  28.308  35.217  1.00  0.00    -0.200 F 
ATOM     96  C   UNL A   1      46.348  26.875  36.361  1.00  0.00     0.200 A 
ATOM     97  F   UNL A   1      44.819  25.465  37.480  1.00  0.00    -0.200 F 
ATOM     98  F   UNL A   1      47.367  26.088  36.731  1.00  0.00    -0.200 F 
ENDBRANCH  65  88
ENDBRANCH  39  40
ENDBRANCH  31  34
ENDBRANCH  29  30
ENDBRANCH  28  29
ENDBRANCH   1  28
TORSDOF 14
ENDMDL
