MODEL 1
REMARK VINA RESULT:     -13.1      0.000      0.000
REMARK SMILES O=C(NCCCCNC(=O)c1cccc(Nc2ccc([N+](=O)[O-])cc2)c1)c1ccc(-c2c3nc(c(-c4c(F)c(F)c(F)c(F)c4F)c4ccc([nH]4)c(-c4c(F)c(F)c(F)c(F)c4F)c4nc(c(-c5c(F)c(F)c(F)c(F)c5F)c5ccc2[nH]5)C=C4)C=C3)cc1
REMARK SMILES IDX 6 1 5 2 4 3 3 4 1 5 2 6 27 8 28 9 89 10 29 11 88 12 30 13
REMARK SMILES IDX 31 14 32 15 82 16 33 17 87 18 81 19 83 20 34 21 86 22 80 23
REMARK SMILES IDX 79 24 35 26 67 27 47 28 66 29 48 30 51 31 65 32 84 33 49 34
REMARK SMILES IDX 50 35 64 37 85 38 52 39 36 40 37 41 45 42 38 43 39 44 43 45
REMARK SMILES IDX 46 46 40 47 41 48 44 49 42 50 68 51 69 52 77 53 70 54 71 55
REMARK SMILES IDX 75 56 78 57 72 58 73 59 76 60 74 61 53 62 54 63 62 64 55 65
REMARK SMILES IDX 56 66 60 67 63 68 57 69 58 70 61 71 59 72 7 73 8 74 9 75
REMARK SMILES IDX 10 77 11 78 12 79 26 80 13 81 15 82 14 83 16 84 17 86 18 87
REMARK SMILES IDX 25 88 19 89 24 90 20 91 21 92 22 93 23 94
REMARK H PARENT 3 7 83 25 51 36 8 76 16 85
REMARK Flexibility Score: inf
ROOT
ATOM      1  C   UNL A   1      36.893  20.400  25.001  1.00  0.00     0.023 C 
ENDROOT
BRANCH   1   2
ATOM      2  C   UNL A   1      38.165  19.578  24.816  1.00  0.00     0.023 C 
BRANCH   2   3
ATOM      3  C   UNL A   1      39.312  19.935  25.751  1.00  0.00     0.116 C 
BRANCH   3   4
ATOM      4  N   UNL A   1      40.343  18.911  25.817  1.00  0.00    -0.352 N 
ATOM      5  O   UNL A   1      42.442  18.084  25.946  1.00  0.00    -0.269 OA
ATOM      6  C   UNL A   1      41.694  19.053  26.036  1.00  0.00     0.251 C 
ATOM      7  H   UNL A   1      40.031  17.987  25.685  1.00  0.00     0.163 HD
BRANCH   6   8
ATOM      8  C   UNL A   1      42.248  20.388  26.346  1.00  0.00     0.039 A 
ATOM      9  C   UNL A   1      42.306  20.843  27.664  1.00  0.00     0.014 A 
ATOM     10  C   UNL A   1      42.693  21.205  25.302  1.00  0.00     0.014 A 
ATOM     11  C   UNL A   1      42.646  22.165  27.921  1.00  0.00     0.010 A 
ATOM     12  C   UNL A   1      43.127  22.506  25.573  1.00  0.00     0.010 A 
ATOM     13  C   UNL A   1      43.070  23.010  26.881  1.00  0.00    -0.014 A 
BRANCH  13  14
ATOM     14  C   UNL A   1      43.492  24.395  27.212  1.00  0.00     0.031 A 
ATOM     15  C   UNL A   1      44.885  24.881  26.929  1.00  0.00     0.074 A 
ATOM     16  C   UNL A   1      42.572  25.238  27.720  1.00  0.00     0.049 A 
ATOM     17  N   UNL A   1      45.391  26.078  27.099  1.00  0.00    -0.248 NA
ATOM     18  C   UNL A   1      45.842  23.900  26.394  1.00  0.00     0.031 C 
ATOM     19  C   UNL A   1      41.193  24.872  28.056  1.00  0.00     0.029 A 
ATOM     20  N   UNL A   1      42.641  26.576  28.012  1.00  0.00    -0.354 N 
ATOM     21  C   UNL A   1      46.719  25.993  26.702  1.00  0.00     0.074 A 
ATOM     22  C   UNL A   1      46.954  24.620  26.310  1.00  0.00     0.031 C 
ATOM     23  C   UNL A   1      40.532  25.968  28.454  1.00  0.00     0.029 A 
ATOM     24  C   UNL A   1      41.452  27.099  28.456  1.00  0.00     0.049 A 
ATOM     25  H   UNL A   1      43.463  27.108  27.914  1.00  0.00     0.167 HD
ATOM     26  C   UNL A   1      47.650  26.977  26.657  1.00  0.00     0.037 A 
ATOM     27  C   UNL A   1      41.136  28.352  28.832  1.00  0.00     0.037 A 
ATOM     28  C   UNL A   1      47.410  28.346  27.038  1.00  0.00     0.049 A 
ATOM     29  C   UNL A   1      42.188  29.420  28.766  1.00  0.00     0.074 A 
ATOM     30  C   UNL A   1      48.289  29.415  27.025  1.00  0.00     0.029 A 
ATOM     31  N   UNL A   1      46.195  28.836  27.497  1.00  0.00    -0.354 N 
ATOM     32  N   UNL A   1      43.434  29.327  28.371  1.00  0.00    -0.248 NA
ATOM     33  C   UNL A   1      41.790  30.766  29.196  1.00  0.00     0.031 C 
ATOM     34  C   UNL A   1      47.617  30.545  27.507  1.00  0.00     0.029 A 
ATOM     35  C   UNL A   1      46.306  30.188  27.780  1.00  0.00     0.049 A 
ATOM     36  H   UNL A   1      45.376  28.301  27.606  1.00  0.00     0.167 HD
ATOM     37  C   UNL A   1      43.969  30.600  28.502  1.00  0.00     0.074 A 
ATOM     38  C   UNL A   1      42.901  31.455  28.979  1.00  0.00     0.031 C 
ATOM     39  C   UNL A   1      45.235  31.021  28.260  1.00  0.00     0.037 A 
BRANCH  26  40
ATOM     40  C   UNL A   1      49.027  26.612  26.180  1.00  0.00     0.064 A 
ATOM     41  C   UNL A   1      49.421  26.821  24.849  1.00  0.00     0.173 A 
ATOM     42  C   UNL A   1      49.983  26.109  27.075  1.00  0.00     0.173 A 
ATOM     43  F   UNL A   1      48.541  27.292  23.952  1.00  0.00    -0.203 F 
ATOM     44  C   UNL A   1      50.715  26.526  24.429  1.00  0.00     0.198 A 
ATOM     45  C   UNL A   1      51.284  25.837  26.658  1.00  0.00     0.198 A 
ATOM     46  F   UNL A   1      49.661  25.897  28.359  1.00  0.00    -0.203 F 
ATOM     47  F   UNL A   1      51.058  26.703  23.147  1.00  0.00    -0.200 F 
ATOM     48  C   UNL A   1      51.648  26.041  25.335  1.00  0.00     0.200 A 
ATOM     49  F   UNL A   1      52.187  25.379  27.536  1.00  0.00    -0.200 F 
ATOM     50  F   UNL A   1      52.896  25.767  24.932  1.00  0.00    -0.200 F 
ENDBRANCH  26  40
BRANCH  27  51
ATOM     51  C   UNL A   1      39.760  28.653  29.304  1.00  0.00     0.064 A 
ATOM     52  C   UNL A   1      38.778  29.125  28.423  1.00  0.00     0.173 A 
ATOM     53  C   UNL A   1      39.399  28.460  30.646  1.00  0.00     0.173 A 
ATOM     54  F   UNL A   1      39.082  29.341  27.135  1.00  0.00    -0.203 F 
ATOM     55  C   UNL A   1      37.489  29.408  28.870  1.00  0.00     0.198 A 
ATOM     56  C   UNL A   1      38.103  28.713  31.085  1.00  0.00     0.198 A 
ATOM     57  F   UNL A   1      40.301  28.003  31.526  1.00  0.00    -0.203 F 
ATOM     58  F   UNL A   1      36.580  29.897  28.017  1.00  0.00    -0.200 F 
ATOM     59  C   UNL A   1      37.151  29.196  30.199  1.00  0.00     0.200 A 
ATOM     60  F   UNL A   1      37.775  28.489  32.364  1.00  0.00    -0.200 F 
ATOM     61  F   UNL A   1      35.909  29.459  30.626  1.00  0.00    -0.200 F 
ENDBRANCH  27  51
BRANCH  39  62
ATOM     62  C   UNL A   1      45.520  32.473  28.499  1.00  0.00     0.064 A 
ATOM     63  C   UNL A   1      45.998  32.929  29.737  1.00  0.00     0.173 A 
ATOM     64  C   UNL A   1      45.321  33.417  27.481  1.00  0.00     0.173 A 
ATOM     65  F   UNL A   1      46.186  32.066  30.747  1.00  0.00    -0.203 F 
ATOM     66  C   UNL A   1      46.237  34.282  29.956  1.00  0.00     0.198 A 
ATOM     67  C   UNL A   1      45.586  34.766  27.695  1.00  0.00     0.198 A 
ATOM     68  F   UNL A   1      44.870  33.029  26.279  1.00  0.00    -0.203 F 
ATOM     69  F   UNL A   1      46.641  34.703  31.163  1.00  0.00    -0.200 F 
ATOM     70  C   UNL A   1      46.034  35.199  28.934  1.00  0.00     0.200 A 
ATOM     71  F   UNL A   1      45.398  35.649  26.706  1.00  0.00    -0.200 F 
ATOM     72  F   UNL A   1      46.262  36.502  29.148  1.00  0.00    -0.200 F 
ENDBRANCH  39  62
ENDBRANCH  13  14
ENDBRANCH   6   8
ENDBRANCH   3   4
ENDBRANCH   2   3
ENDBRANCH   1   2
BRANCH   1  73
ATOM     73  C   UNL A   1      37.095  21.911  25.047  1.00  0.00     0.116 C 
BRANCH  73  74
ATOM     74  N   UNL A   1      36.281  22.555  26.065  1.00  0.00    -0.352 N 
ATOM     75  C   UNL A   1      35.007  23.055  25.967  1.00  0.00     0.251 C 
ATOM     76  H   UNL A   1      36.703  22.645  26.949  1.00  0.00     0.163 HD
ATOM     77  O   UNL A   1      34.521  23.703  26.889  1.00  0.00    -0.269 OA
BRANCH  75  78
ATOM     78  C   UNL A   1      34.227  22.825  24.738  1.00  0.00     0.041 A 
ATOM     79  C   UNL A   1      34.228  23.806  23.748  1.00  0.00     0.014 A 
ATOM     80  C   UNL A   1      33.496  21.642  24.574  1.00  0.00     0.039 A 
ATOM     81  C   UNL A   1      33.544  23.571  22.561  1.00  0.00     0.003 A 
ATOM     82  C   UNL A   1      32.811  21.389  23.381  1.00  0.00     0.039 A 
ATOM     83  C   UNL A   1      32.859  22.365  22.376  1.00  0.00     0.026 A 
BRANCH  82  84
ATOM     84  N   UNL A   1      32.153  20.155  23.225  1.00  0.00    -0.356 N 
ATOM     85  H   UNL A   1      31.323  20.189  22.696  1.00  0.00     0.167 HD
BRANCH  84  86
ATOM     86  C   UNL A   1      32.500  18.884  23.708  1.00  0.00     0.039 A 
ATOM     87  C   UNL A   1      33.127  17.979  22.841  1.00  0.00     0.033 A 
ATOM     88  C   UNL A   1      32.340  18.530  25.054  1.00  0.00     0.033 A 
ATOM     89  C   UNL A   1      33.624  16.762  23.312  1.00  0.00     0.088 A 
ATOM     90  C   UNL A   1      32.820  17.311  25.539  1.00  0.00     0.088 A 
ATOM     91  C   UNL A   1      33.481  16.439  24.666  1.00  0.00     0.269 A 
BRANCH  91  92
ATOM     92  N   UNL A   1      34.055  15.189  25.179  1.00  0.00     0.062 N 
ATOM     93  O   UNL A   1      33.284  14.239  25.376  1.00  0.00    -0.258 OA
ATOM     94  O   UNL A   1      35.278  15.154  25.376  1.00  0.00    -0.258 OA
ENDBRANCH  91  92
ENDBRANCH  84  86
ENDBRANCH  82  84
ENDBRANCH  75  78
ENDBRANCH  73  74
ENDBRANCH   1  73
TORSDOF 14
ENDMDL
MODEL 2
REMARK VINA RESULT:     -13.0      6.685     12.142
REMARK SMILES O=C(NCCCCNC(=O)c1cccc(Nc2ccc([N+](=O)[O-])cc2)c1)c1ccc(-c2c3nc(c(-c4c(F)c(F)c(F)c(F)c4F)c4ccc([nH]4)c(-c4c(F)c(F)c(F)c(F)c4F)c4nc(c(-c5c(F)c(F)c(F)c(F)c5F)c5ccc2[nH]5)C=C4)C=C3)cc1
REMARK SMILES IDX 6 1 5 2 4 3 3 4 1 5 2 6 27 8 28 9 89 10 29 11 88 12 30 13
REMARK SMILES IDX 31 14 32 15 82 16 33 17 87 18 81 19 83 20 34 21 86 22 80 23
REMARK SMILES IDX 79 24 35 26 67 27 47 28 66 29 48 30 51 31 65 32 84 33 49 34
REMARK SMILES IDX 50 35 64 37 85 38 52 39 36 40 37 41 45 42 38 43 39 44 43 45
REMARK SMILES IDX 46 46 40 47 41 48 44 49 42 50 68 51 69 52 77 53 70 54 71 55
REMARK SMILES IDX 75 56 78 57 72 58 73 59 76 60 74 61 53 62 54 63 62 64 55 65
REMARK SMILES IDX 56 66 60 67 63 68 57 69 58 70 61 71 59 72 7 73 8 74 9 75
REMARK SMILES IDX 10 77 11 78 12 79 26 80 13 81 15 82 14 83 16 84 17 86 18 87
REMARK SMILES IDX 25 88 19 89 24 90 20 91 21 92 22 93 23 94
REMARK H PARENT 3 7 83 25 51 36 8 76 16 85
REMARK Flexibility Score: inf
ROOT
ATOM      1  C   UNL A   1      31.593  30.797  26.069  1.00  0.00     0.023 C 
ENDROOT
BRANCH   1   2
ATOM      2  C   UNL A   1      31.328  32.139  26.744  1.00  0.00     0.023 C 
BRANCH   2   3
ATOM      3  C   UNL A   1      32.562  32.860  27.267  1.00  0.00     0.116 C 
BRANCH   3   4
ATOM      4  N   UNL A   1      32.310  34.244  27.639  1.00  0.00    -0.352 N 
ATOM      5  O   UNL A   1      32.534  36.144  28.840  1.00  0.00    -0.269 OA
ATOM      6  C   UNL A   1      32.953  35.022  28.571  1.00  0.00     0.251 C 
ATOM      7  H   UNL A   1      31.574  34.683  27.155  1.00  0.00     0.163 HD
BRANCH   6   8
ATOM      8  C   UNL A   1      34.137  34.489  29.279  1.00  0.00     0.039 A 
ATOM      9  C   UNL A   1      35.416  34.652  28.746  1.00  0.00     0.014 A 
ATOM     10  C   UNL A   1      33.961  33.793  30.480  1.00  0.00     0.014 A 
ATOM     11  C   UNL A   1      36.490  33.983  29.317  1.00  0.00     0.010 A 
ATOM     12  C   UNL A   1      35.061  33.199  31.106  1.00  0.00     0.010 A 
ATOM     13  C   UNL A   1      36.329  33.256  30.509  1.00  0.00    -0.014 A 
BRANCH  13  14
ATOM     14  C   UNL A   1      37.520  32.615  31.122  1.00  0.00     0.031 A 
ATOM     15  C   UNL A   1      37.982  32.976  32.506  1.00  0.00     0.074 A 
ATOM     16  C   UNL A   1      38.150  31.646  30.430  1.00  0.00     0.049 A 
ATOM     17  N   UNL A   1      38.963  32.463  33.207  1.00  0.00    -0.248 NA
ATOM     18  C   UNL A   1      37.260  34.057  33.193  1.00  0.00     0.031 C 
ATOM     19  C   UNL A   1      37.804  31.225  29.070  1.00  0.00     0.029 A 
ATOM     20  N   UNL A   1      39.186  30.819  30.780  1.00  0.00    -0.354 N 
ATOM     21  C   UNL A   1      38.981  33.159  34.408  1.00  0.00     0.074 A 
ATOM     22  C   UNL A   1      37.933  34.155  34.332  1.00  0.00     0.031 C 
ATOM     23  C   UNL A   1      38.573  30.184  28.722  1.00  0.00     0.029 A 
ATOM     24  C   UNL A   1      39.503  29.901  29.809  1.00  0.00     0.049 A 
ATOM     25  H   UNL A   1      39.657  30.878  31.642  1.00  0.00     0.167 HD
ATOM     26  C   UNL A   1      39.791  32.974  35.479  1.00  0.00     0.037 A 
ATOM     27  C   UNL A   1      40.445  28.940  29.790  1.00  0.00     0.037 A 
ATOM     28  C   UNL A   1      40.827  31.975  35.554  1.00  0.00     0.049 A 
ATOM     29  C   UNL A   1      41.322  28.756  30.994  1.00  0.00     0.074 A 
ATOM     30  C   UNL A   1      41.697  31.708  36.598  1.00  0.00     0.029 A 
ATOM     31  N   UNL A   1      41.128  31.072  34.544  1.00  0.00    -0.354 N 
ATOM     32  N   UNL A   1      41.315  29.412  32.128  1.00  0.00    -0.248 NA
ATOM     33  C   UNL A   1      42.337  27.699  30.915  1.00  0.00     0.031 C 
ATOM     34  C   UNL A   1      42.547  30.665  36.207  1.00  0.00     0.029 A 
ATOM     35  C   UNL A   1      42.178  30.255  34.936  1.00  0.00     0.049 A 
ATOM     36  H   UNL A   1      40.665  31.020  33.678  1.00  0.00     0.167 HD
ATOM     37  C   UNL A   1      42.319  28.847  32.899  1.00  0.00     0.074 A 
ATOM     38  C   UNL A   1      42.892  27.770  32.116  1.00  0.00     0.031 C 
ATOM     39  C   UNL A   1      42.738  29.194  34.141  1.00  0.00     0.037 A 
BRANCH  26  40
ATOM     40  C   UNL A   1      39.596  33.874  36.666  1.00  0.00     0.064 A 
ATOM     41  C   UNL A   1      38.795  33.490  37.752  1.00  0.00     0.173 A 
ATOM     42  C   UNL A   1      40.266  35.104  36.747  1.00  0.00     0.173 A 
ATOM     43  F   UNL A   1      38.125  32.327  37.719  1.00  0.00    -0.203 F 
ATOM     44  C   UNL A   1      38.660  34.311  38.869  1.00  0.00     0.198 A 
ATOM     45  C   UNL A   1      40.148  35.912  37.875  1.00  0.00     0.198 A 
ATOM     46  F   UNL A   1      41.048  35.515  35.739  1.00  0.00    -0.203 F 
ATOM     47  F   UNL A   1      37.865  33.938  39.880  1.00  0.00    -0.200 F 
ATOM     48  C   UNL A   1      39.342  35.518  38.933  1.00  0.00     0.200 A 
ATOM     49  F   UNL A   1      40.816  37.071  37.941  1.00  0.00    -0.200 F 
ATOM     50  F   UNL A   1      39.221  36.302  40.013  1.00  0.00    -0.200 F 
ENDBRANCH  26  40
BRANCH  27  51
ATOM     51  C   UNL A   1      40.599  28.085  28.586  1.00  0.00     0.064 A 
ATOM     52  C   UNL A   1      41.402  28.484  27.510  1.00  0.00     0.173 A 
ATOM     53  C   UNL A   1      39.954  26.842  28.496  1.00  0.00     0.173 A 
ATOM     54  F   UNL A   1      42.025  29.671  27.544  1.00  0.00    -0.203 F 
ATOM     55  C   UNL A   1      41.543  27.679  26.382  1.00  0.00     0.198 A 
ATOM     56  C   UNL A   1      40.119  26.025  27.382  1.00  0.00     0.198 A 
ATOM     57  F   UNL A   1      39.180  26.412  29.503  1.00  0.00    -0.203 F 
ATOM     58  F   UNL A   1      42.284  28.102  25.350  1.00  0.00    -0.200 F 
ATOM     59  C   UNL A   1      40.907  26.447  26.321  1.00  0.00     0.200 A 
ATOM     60  F   UNL A   1      39.520  24.828  27.336  1.00  0.00    -0.200 F 
ATOM     61  F   UNL A   1      41.051  25.669  25.240  1.00  0.00    -0.200 F 
ENDBRANCH  27  51
BRANCH  39  62
ATOM     62  C   UNL A   1      43.862  28.391  34.723  1.00  0.00     0.064 A 
ATOM     63  C   UNL A   1      45.200  28.781  34.559  1.00  0.00     0.173 A 
ATOM     64  C   UNL A   1      43.600  27.226  35.459  1.00  0.00     0.173 A 
ATOM     65  F   UNL A   1      45.500  29.879  33.848  1.00  0.00    -0.203 F 
ATOM     66  C   UNL A   1      46.236  28.016  35.084  1.00  0.00     0.198 A 
ATOM     67  C   UNL A   1      44.639  26.477  36.005  1.00  0.00     0.198 A 
ATOM     68  F   UNL A   1      42.337  26.815  35.647  1.00  0.00    -0.203 F 
ATOM     69  F   UNL A   1      47.509  28.378  34.869  1.00  0.00    -0.200 F 
ATOM     70  C   UNL A   1      45.955  26.867  35.809  1.00  0.00     0.200 A 
ATOM     71  F   UNL A   1      44.366  25.372  36.712  1.00  0.00    -0.200 F 
ATOM     72  F   UNL A   1      46.955  26.130  36.310  1.00  0.00    -0.200 F 
ENDBRANCH  39  62
ENDBRANCH  13  14
ENDBRANCH   6   8
ENDBRANCH   3   4
ENDBRANCH   2   3
ENDBRANCH   1   2
BRANCH   1  73
ATOM     73  C   UNL A   1      32.591  29.893  26.787  1.00  0.00     0.116 C 
BRANCH  73  74
ATOM     74  N   UNL A   1      33.568  29.309  25.883  1.00  0.00    -0.352 N 
ATOM     75  C   UNL A   1      33.483  28.159  25.139  1.00  0.00     0.251 C 
ATOM     76  H   UNL A   1      34.411  29.810  25.791  1.00  0.00     0.163 HD
ATOM     77  O   UNL A   1      34.466  27.732  24.540  1.00  0.00    -0.269 OA
BRANCH  75  78
ATOM     78  C   UNL A   1      32.207  27.425  25.079  1.00  0.00     0.041 A 
ATOM     79  C   UNL A   1      32.011  26.345  25.938  1.00  0.00     0.014 A 
ATOM     80  C   UNL A   1      31.213  27.806  24.169  1.00  0.00     0.039 A 
ATOM     81  C   UNL A   1      30.788  25.684  25.928  1.00  0.00     0.003 A 
ATOM     82  C   UNL A   1      29.975  27.157  24.155  1.00  0.00     0.039 A 
ATOM     83  C   UNL A   1      29.776  26.102  25.057  1.00  0.00     0.026 A 
BRANCH  82  84
ATOM     84  N   UNL A   1      28.976  27.620  23.280  1.00  0.00    -0.356 N 
ATOM     85  H   UNL A   1      28.383  26.923  22.917  1.00  0.00     0.167 HD
BRANCH  84  86
ATOM     86  C   UNL A   1      28.694  28.925  22.848  1.00  0.00     0.039 A 
ATOM     87  C   UNL A   1      27.687  29.651  23.498  1.00  0.00     0.033 A 
ATOM     88  C   UNL A   1      29.459  29.564  21.863  1.00  0.00     0.033 A 
ATOM     89  C   UNL A   1      27.471  30.999  23.205  1.00  0.00     0.088 A 
ATOM     90  C   UNL A   1      29.248  30.910  21.549  1.00  0.00     0.088 A 
ATOM     91  C   UNL A   1      28.265  31.628  22.239  1.00  0.00     0.269 A 
BRANCH  91  92
ATOM     92  N   UNL A   1      28.084  33.060  21.970  1.00  0.00     0.062 N 
ATOM     93  O   UNL A   1      28.508  33.862  22.813  1.00  0.00    -0.258 OA
ATOM     94  O   UNL A   1      27.527  33.382  20.910  1.00  0.00    -0.258 OA
ENDBRANCH  91  92
ENDBRANCH  84  86
ENDBRANCH  82  84
ENDBRANCH  75  78
ENDBRANCH  73  74
ENDBRANCH   1  73
TORSDOF 14
ENDMDL
MODEL 3
REMARK VINA RESULT:     -13.0      0.351      1.324
REMARK SMILES O=C(NCCCCNC(=O)c1cccc(Nc2ccc([N+](=O)[O-])cc2)c1)c1ccc(-c2c3nc(c(-c4c(F)c(F)c(F)c(F)c4F)c4ccc([nH]4)c(-c4c(F)c(F)c(F)c(F)c4F)c4nc(c(-c5c(F)c(F)c(F)c(F)c5F)c5ccc2[nH]5)C=C4)C=C3)cc1
REMARK SMILES IDX 6 1 5 2 4 3 3 4 1 5 2 6 27 8 28 9 89 10 29 11 88 12 30 13
REMARK SMILES IDX 31 14 32 15 82 16 33 17 87 18 81 19 83 20 34 21 86 22 80 23
REMARK SMILES IDX 79 24 35 26 67 27 47 28 66 29 48 30 51 31 65 32 84 33 49 34
REMARK SMILES IDX 50 35 64 37 85 38 52 39 36 40 37 41 45 42 38 43 39 44 43 45
REMARK SMILES IDX 46 46 40 47 41 48 44 49 42 50 68 51 69 52 77 53 70 54 71 55
REMARK SMILES IDX 75 56 78 57 72 58 73 59 76 60 74 61 53 62 54 63 62 64 55 65
REMARK SMILES IDX 56 66 60 67 63 68 57 69 58 70 61 71 59 72 7 73 8 74 9 75
REMARK SMILES IDX 10 77 11 78 12 79 26 80 13 81 15 82 14 83 16 84 17 86 18 87
REMARK SMILES IDX 25 88 19 89 24 90 20 91 21 92 22 93 23 94
REMARK H PARENT 3 7 83 25 51 36 8 76 16 85
REMARK Flexibility Score: inf
ROOT
ATOM      1  C   UNL A   1      36.948  20.178  24.892  1.00  0.00     0.023 C 
ENDROOT
BRANCH   1   2
ATOM      2  C   UNL A   1      38.136  19.230  25.022  1.00  0.00     0.023 C 
BRANCH   2   3
ATOM      3  C   UNL A   1      39.246  19.701  25.950  1.00  0.00     0.116 C 
BRANCH   3   4
ATOM      4  N   UNL A   1      40.461  18.906  25.847  1.00  0.00    -0.352 N 
ATOM      5  O   UNL A   1      42.684  18.518  25.744  1.00  0.00    -0.269 OA
ATOM      6  C   UNL A   1      41.771  19.304  25.975  1.00  0.00     0.251 C 
ATOM      7  H   UNL A   1      40.325  17.949  25.659  1.00  0.00     0.163 HD
BRANCH   6   8
ATOM      8  C   UNL A   1      42.078  20.699  26.357  1.00  0.00     0.039 A 
ATOM      9  C   UNL A   1      42.176  21.696  25.386  1.00  0.00     0.014 A 
ATOM     10  C   UNL A   1      42.296  21.008  27.704  1.00  0.00     0.014 A 
ATOM     11  C   UNL A   1      42.652  22.953  25.735  1.00  0.00     0.010 A 
ATOM     12  C   UNL A   1      42.683  22.301  28.067  1.00  0.00     0.010 A 
ATOM     13  C   UNL A   1      42.903  23.275  27.081  1.00  0.00    -0.014 A 
BRANCH  13  14
ATOM     14  C   UNL A   1      43.343  24.653  27.415  1.00  0.00     0.031 A 
ATOM     15  C   UNL A   1      44.733  25.131  27.102  1.00  0.00     0.074 A 
ATOM     16  C   UNL A   1      42.444  25.498  27.954  1.00  0.00     0.049 A 
ATOM     17  N   UNL A   1      45.252  26.323  27.271  1.00  0.00    -0.248 NA
ATOM     18  C   UNL A   1      45.668  24.149  26.533  1.00  0.00     0.031 C 
ATOM     19  C   UNL A   1      41.071  25.140  28.322  1.00  0.00     0.029 A 
ATOM     20  N   UNL A   1      42.531  26.832  28.258  1.00  0.00    -0.354 N 
ATOM     21  C   UNL A   1      46.569  26.232  26.839  1.00  0.00     0.074 A 
ATOM     22  C   UNL A   1      46.783  24.860  26.428  1.00  0.00     0.031 C 
ATOM     23  C   UNL A   1      40.429  26.236  28.747  1.00  0.00     0.029 A 
ATOM     24  C   UNL A   1      41.357  27.360  28.737  1.00  0.00     0.049 A 
ATOM     25  H   UNL A   1      43.354  27.359  28.145  1.00  0.00     0.167 HD
ATOM     26  C   UNL A   1      47.507  27.208  26.780  1.00  0.00     0.037 A 
ATOM     27  C   UNL A   1      41.060  28.611  29.133  1.00  0.00     0.037 A 
ATOM     28  C   UNL A   1      47.287  28.575  27.181  1.00  0.00     0.049 A 
ATOM     29  C   UNL A   1      42.119  29.672  29.051  1.00  0.00     0.074 A 
ATOM     30  C   UNL A   1      48.175  29.637  27.156  1.00  0.00     0.029 A 
ATOM     31  N   UNL A   1      46.088  29.070  27.676  1.00  0.00    -0.354 N 
ATOM     32  N   UNL A   1      43.354  29.574  28.624  1.00  0.00    -0.248 NA
ATOM     33  C   UNL A   1      41.743  31.017  29.503  1.00  0.00     0.031 C 
ATOM     34  C   UNL A   1      47.524  30.768  27.666  1.00  0.00     0.029 A 
ATOM     35  C   UNL A   1      46.217  30.419  27.969  1.00  0.00     0.049 A 
ATOM     36  H   UNL A   1      45.268  28.541  27.800  1.00  0.00     0.167 HD
ATOM     37  C   UNL A   1      43.902  30.841  28.753  1.00  0.00     0.074 A 
ATOM     38  C   UNL A   1      42.853  31.699  29.265  1.00  0.00     0.031 C 
ATOM     39  C   UNL A   1      45.165  31.255  28.483  1.00  0.00     0.037 A 
BRANCH  26  40
ATOM     40  C   UNL A   1      48.869  26.838  26.265  1.00  0.00     0.064 A 
ATOM     41  C   UNL A   1      49.211  27.006  24.915  1.00  0.00     0.173 A 
ATOM     42  C   UNL A   1      49.861  26.371  27.141  1.00  0.00     0.173 A 
ATOM     43  F   UNL A   1      48.295  27.441  24.036  1.00  0.00    -0.203 F 
ATOM     44  C   UNL A   1      50.492  26.706  24.458  1.00  0.00     0.198 A 
ATOM     45  C   UNL A   1      51.147  26.094  26.685  1.00  0.00     0.198 A 
ATOM     46  F   UNL A   1      49.587  26.199  28.442  1.00  0.00    -0.203 F 
ATOM     47  F   UNL A   1      50.787  26.844  23.159  1.00  0.00    -0.200 F 
ATOM     48  C   UNL A   1      51.461  26.257  25.344  1.00  0.00     0.200 A 
ATOM     49  F   UNL A   1      52.086  25.672  27.543  1.00  0.00    -0.200 F 
ATOM     50  F   UNL A   1      52.696  25.979  24.905  1.00  0.00    -0.200 F 
ENDBRANCH  26  40
BRANCH  27  51
ATOM     51  C   UNL A   1      39.700  28.919  29.642  1.00  0.00     0.064 A 
ATOM     52  C   UNL A   1      39.364  28.712  30.986  1.00  0.00     0.173 A 
ATOM     53  C   UNL A   1      38.712  29.441  28.793  1.00  0.00     0.173 A 
ATOM     54  F   UNL A   1      40.270  28.199  31.831  1.00  0.00    -0.203 F 
ATOM     55  C   UNL A   1      38.085  29.000  31.459  1.00  0.00     0.198 A 
ATOM     56  C   UNL A   1      37.445  29.757  29.273  1.00  0.00     0.198 A 
ATOM     57  F   UNL A   1      38.987  29.664  27.499  1.00  0.00    -0.203 F 
ATOM     58  F   UNL A   1      37.778  28.755  32.739  1.00  0.00    -0.200 F 
ATOM     59  C   UNL A   1      37.129  29.529  30.604  1.00  0.00     0.200 A 
ATOM     60  F   UNL A   1      36.531  30.286  28.449  1.00  0.00    -0.200 F 
ATOM     61  F   UNL A   1      35.903  29.815  31.062  1.00  0.00    -0.200 F 
ENDBRANCH  27  51
BRANCH  39  62
ATOM     62  C   UNL A   1      45.467  32.702  28.730  1.00  0.00     0.064 A 
ATOM     63  C   UNL A   1      45.977  33.143  29.961  1.00  0.00     0.173 A 
ATOM     64  C   UNL A   1      45.254  33.657  27.725  1.00  0.00     0.173 A 
ATOM     65  F   UNL A   1      46.180  32.268  30.958  1.00  0.00    -0.203 F 
ATOM     66  C   UNL A   1      46.232  34.491  30.186  1.00  0.00     0.198 A 
ATOM     67  C   UNL A   1      45.535  35.002  27.946  1.00  0.00     0.198 A 
ATOM     68  F   UNL A   1      44.772  33.284  26.530  1.00  0.00    -0.203 F 
ATOM     69  F   UNL A   1      46.667  34.897  31.388  1.00  0.00    -0.200 F 
ATOM     70  C   UNL A   1      46.014  35.419  29.178  1.00  0.00     0.200 A 
ATOM     71  F   UNL A   1      45.332  35.896  26.969  1.00  0.00    -0.200 F 
ATOM     72  F   UNL A   1      46.257  36.718  29.399  1.00  0.00    -0.200 F 
ENDBRANCH  39  62
ENDBRANCH  13  14
ENDBRANCH   6   8
ENDBRANCH   3   4
ENDBRANCH   2   3
ENDBRANCH   1   2
BRANCH   1  73
ATOM     73  C   UNL A   1      37.293  21.664  24.945  1.00  0.00     0.116 C 
BRANCH  73  74
ATOM     74  N   UNL A   1      36.601  22.361  26.016  1.00  0.00    -0.352 N 
ATOM     75  C   UNL A   1      35.357  22.942  26.012  1.00  0.00     0.251 C 
ATOM     76  H   UNL A   1      37.094  22.427  26.865  1.00  0.00     0.163 HD
ATOM     77  O   UNL A   1      34.986  23.622  26.963  1.00  0.00    -0.269 OA
BRANCH  75  78
ATOM     78  C   UNL A   1      34.473  22.758  24.847  1.00  0.00     0.041 A 
ATOM     79  C   UNL A   1      34.426  23.755  23.875  1.00  0.00     0.014 A 
ATOM     80  C   UNL A   1      33.691  21.602  24.727  1.00  0.00     0.039 A 
ATOM     81  C   UNL A   1      33.641  23.563  22.744  1.00  0.00     0.003 A 
ATOM     82  C   UNL A   1      32.905  21.391  23.591  1.00  0.00     0.039 A 
ATOM     83  C   UNL A   1      32.903  22.383  22.599  1.00  0.00     0.026 A 
BRANCH  82  84
ATOM     84  N   UNL A   1      32.195  20.183  23.471  1.00  0.00    -0.356 N 
ATOM     85  H   UNL A   1      31.326  20.253  23.014  1.00  0.00     0.167 HD
BRANCH  84  86
ATOM     86  C   UNL A   1      32.538  18.892  23.904  1.00  0.00     0.039 A 
ATOM     87  C   UNL A   1      33.136  18.011  22.994  1.00  0.00     0.033 A 
ATOM     88  C   UNL A   1      32.403  18.496  25.241  1.00  0.00     0.033 A 
ATOM     89  C   UNL A   1      33.630  16.774  23.413  1.00  0.00     0.088 A 
ATOM     90  C   UNL A   1      32.880  17.256  25.674  1.00  0.00     0.088 A 
ATOM     91  C   UNL A   1      33.512  16.406  24.758  1.00  0.00     0.269 A 
BRANCH  91  92
ATOM     92  N   UNL A   1      34.083  15.135  25.217  1.00  0.00     0.062 N 
ATOM     93  O   UNL A   1      35.311  15.078  25.376  1.00  0.00    -0.258 OA
ATOM     94  O   UNL A   1      33.303  14.195  25.429  1.00  0.00    -0.258 OA
ENDBRANCH  91  92
ENDBRANCH  84  86
ENDBRANCH  82  84
ENDBRANCH  75  78
ENDBRANCH  73  74
ENDBRANCH   1  73
TORSDOF 14
ENDMDL
