MODEL 1
REMARK VINA RESULT:     -13.2      0.000      0.000
REMARK SMILES O=C(NCCCCNC(=O)c1ccc(Nc2c([N+](=O)[O-])c(=O)oc3ccccc23)cc1O)c1ccc(-c2c3nc(c(-c4c(F)c(F)c(F)c(F)c4F)c4ccc([nH]4)c(-c4c(F)c(F)c(F)c(F)c4F)c4nc(c(-c5c(F)c(F)c(F)c(F)c5F)c5ccc2[nH]5)C=C4)C=C3)cc1
REMARK SMILES IDX 6 1 5 2 4 3 3 4 1 5 2 6 33 8 34 9 95 10 35 11 94 12 36 13
REMARK SMILES IDX 37 14 38 15 88 16 39 17 93 18 87 19 89 20 40 21 92 22 86 23
REMARK SMILES IDX 85 24 41 26 73 27 53 28 72 29 54 30 57 31 71 32 90 33 55 34
REMARK SMILES IDX 56 35 70 37 91 38 58 39 42 40 43 41 51 42 44 43 45 44 49 45
REMARK SMILES IDX 52 46 46 47 47 48 50 49 48 50 74 51 75 52 83 53 76 54 77 55
REMARK SMILES IDX 81 56 84 57 78 58 79 59 82 60 80 61 59 62 60 63 68 64 61 65
REMARK SMILES IDX 62 66 66 67 69 68 63 69 64 70 67 71 65 72 7 73 8 74 9 75
REMARK SMILES IDX 10 77 11 78 12 79 31 80 13 81 30 82 14 83 32 84 15 86 16 88
REMARK SMILES IDX 17 89 29 90 21 91 24 92 28 93 22 94 23 95 25 96 27 97 26 98
REMARK SMILES IDX 18 99 19 100 20 101
REMARK H PARENT 3 7 89 25 57 36 8 76 32 85 15 87
REMARK Flexibility Score: inf
ROOT
ATOM      1  C   UNL A   1      31.411  30.288  26.619  1.00  0.00     0.023 C 
ENDROOT
BRANCH   1   2
ATOM      2  C   UNL A   1      31.396  31.807  26.501  1.00  0.00     0.023 C 
BRANCH   2   3
ATOM      3  C   UNL A   1      32.702  32.491  26.876  1.00  0.00     0.116 C 
BRANCH   3   4
ATOM      4  N   UNL A   1      32.511  33.828  27.418  1.00  0.00    -0.352 N 
ATOM      5  O   UNL A   1      32.803  35.539  28.868  1.00  0.00    -0.269 OA
ATOM      6  C   UNL A   1      33.182  34.452  28.443  1.00  0.00     0.251 C 
ATOM      7  H   UNL A   1      31.802  34.361  26.989  1.00  0.00     0.163 HD
BRANCH   6   8
ATOM      8  C   UNL A   1      34.354  33.789  29.050  1.00  0.00     0.039 A 
ATOM      9  C   UNL A   1      34.180  32.720  29.932  1.00  0.00     0.014 A 
ATOM     10  C   UNL A   1      35.639  34.252  28.752  1.00  0.00     0.014 A 
ATOM     11  C   UNL A   1      35.267  32.227  30.638  1.00  0.00     0.010 A 
ATOM     12  C   UNL A   1      36.745  33.678  29.384  1.00  0.00     0.010 A 
ATOM     13  C   UNL A   1      36.566  32.678  30.353  1.00  0.00    -0.014 A 
BRANCH  13  14
ATOM     14  C   UNL A   1      37.718  32.015  31.014  1.00  0.00     0.031 A 
ATOM     15  C   UNL A   1      38.145  32.382  32.407  1.00  0.00     0.074 A 
ATOM     16  C   UNL A   1      38.363  31.044  30.338  1.00  0.00     0.049 A 
ATOM     17  N   UNL A   1      39.128  31.891  33.122  1.00  0.00    -0.248 NA
ATOM     18  C   UNL A   1      37.382  33.439  33.088  1.00  0.00     0.031 C 
ATOM     19  C   UNL A   1      38.041  30.613  28.975  1.00  0.00     0.029 A 
ATOM     20  N   UNL A   1      39.409  30.235  30.700  1.00  0.00    -0.354 N 
ATOM     21  C   UNL A   1      39.113  32.587  34.322  1.00  0.00     0.074 A 
ATOM     22  C   UNL A   1      38.038  33.553  34.236  1.00  0.00     0.031 C 
ATOM     23  C   UNL A   1      38.839  29.593  28.633  1.00  0.00     0.029 A 
ATOM     24  C   UNL A   1      39.780  29.349  29.718  1.00  0.00     0.049 A 
ATOM     25  H   UNL A   1      39.852  30.285  31.577  1.00  0.00     0.167 HD
ATOM     26  C   UNL A   1      39.923  32.426  35.398  1.00  0.00     0.037 A 
ATOM     27  C   UNL A   1      40.786  28.458  29.679  1.00  0.00     0.037 A 
ATOM     28  C   UNL A   1      40.982  31.449  35.477  1.00  0.00     0.049 A 
ATOM     29  C   UNL A   1      41.686  28.332  30.876  1.00  0.00     0.074 A 
ATOM     30  C   UNL A   1      41.826  31.179  36.541  1.00  0.00     0.029 A 
ATOM     31  N   UNL A   1      41.346  30.588  34.452  1.00  0.00    -0.354 N 
ATOM     32  N   UNL A   1      41.631  28.963  32.022  1.00  0.00    -0.248 NA
ATOM     33  C   UNL A   1      42.791  27.370  30.769  1.00  0.00     0.031 C 
ATOM     34  C   UNL A   1      42.740  30.200  36.139  1.00  0.00     0.029 A 
ATOM     35  C   UNL A   1      42.425  29.811  34.847  1.00  0.00     0.049 A 
ATOM     36  H   UNL A   1      40.905  30.537  33.573  1.00  0.00     0.167 HD
ATOM     37  C   UNL A   1      42.677  28.461  32.783  1.00  0.00     0.074 A 
ATOM     38  C   UNL A   1      43.333  27.453  31.976  1.00  0.00     0.031 C 
ATOM     39  C   UNL A   1      43.063  28.807  34.035  1.00  0.00     0.037 A 
BRANCH  26  40
ATOM     40  C   UNL A   1      39.722  33.330  36.581  1.00  0.00     0.064 A 
ATOM     41  C   UNL A   1      40.357  34.577  36.675  1.00  0.00     0.173 A 
ATOM     42  C   UNL A   1      38.807  32.983  37.588  1.00  0.00     0.173 A 
ATOM     43  F   UNL A   1      41.245  34.955  35.743  1.00  0.00    -0.203 F 
ATOM     44  C   UNL A   1      40.094  35.436  37.740  1.00  0.00     0.198 A 
ATOM     45  C   UNL A   1      38.525  33.857  38.635  1.00  0.00     0.198 A 
ATOM     46  F   UNL A   1      38.164  31.807  37.542  1.00  0.00    -0.203 F 
ATOM     47  F   UNL A   1      40.733  36.611  37.824  1.00  0.00    -0.200 F 
ATOM     48  C   UNL A   1      39.171  35.082  38.712  1.00  0.00     0.200 A 
ATOM     49  F   UNL A   1      37.619  33.518  39.564  1.00  0.00    -0.200 F 
ATOM     50  F   UNL A   1      38.903  35.920  39.723  1.00  0.00    -0.200 F 
ENDBRANCH  26  40
BRANCH  27  51
ATOM     51  C   UNL A   1      41.010  27.639  28.459  1.00  0.00     0.064 A 
ATOM     52  C   UNL A   1      41.885  28.064  27.451  1.00  0.00     0.173 A 
ATOM     53  C   UNL A   1      40.336  26.423  28.268  1.00  0.00     0.173 A 
ATOM     54  F   UNL A   1      42.539  29.227  27.578  1.00  0.00    -0.203 F 
ATOM     55  C   UNL A   1      42.053  27.320  26.285  1.00  0.00     0.198 A 
ATOM     56  C   UNL A   1      40.535  25.661  27.119  1.00  0.00     0.198 A 
ATOM     57  F   UNL A   1      39.492  25.966  29.205  1.00  0.00    -0.203 F 
ATOM     58  F   UNL A   1      42.849  27.780  25.309  1.00  0.00    -0.200 F 
ATOM     59  C   UNL A   1      41.382  26.116  26.123  1.00  0.00     0.200 A 
ATOM     60  F   UNL A   1      39.900  24.489  26.978  1.00  0.00    -0.200 F 
ATOM     61  F   UNL A   1      41.545  25.402  25.001  1.00  0.00    -0.200 F 
ENDBRANCH  27  51
BRANCH  39  62
ATOM     62  C   UNL A   1      44.226  28.061  34.620  1.00  0.00     0.064 A 
ATOM     63  C   UNL A   1      45.540  28.539  34.511  1.00  0.00     0.173 A 
ATOM     64  C   UNL A   1      44.020  26.860  35.317  1.00  0.00     0.173 A 
ATOM     65  F   UNL A   1      45.793  29.672  33.839  1.00  0.00    -0.203 F 
ATOM     66  C   UNL A   1      46.608  27.826  35.049  1.00  0.00     0.198 A 
ATOM     67  C   UNL A   1      45.086  26.168  35.884  1.00  0.00     0.198 A 
ATOM     68  F   UNL A   1      42.782  26.362  35.455  1.00  0.00    -0.203 F 
ATOM     69  F   UNL A   1      47.861  28.271  34.880  1.00  0.00    -0.200 F 
ATOM     70  C   UNL A   1      46.380  26.645  35.741  1.00  0.00     0.200 A 
ATOM     71  F   UNL A   1      44.861  25.036  36.566  1.00  0.00    -0.200 F 
ATOM     72  F   UNL A   1      47.409  25.964  36.263  1.00  0.00    -0.200 F 
ENDBRANCH  39  62
ENDBRANCH  13  14
ENDBRANCH   6   8
ENDBRANCH   3   4
ENDBRANCH   2   3
ENDBRANCH   1   2
BRANCH   1  73
ATOM     73  C   UNL A   1      31.822  29.545  25.353  1.00  0.00     0.116 C 
BRANCH  73  74
ATOM     74  N   UNL A   1      31.011  29.891  24.199  1.00  0.00    -0.352 N 
ATOM     75  C   UNL A   1      30.500  29.054  23.237  1.00  0.00     0.255 C 
ATOM     76  H   UNL A   1      30.800  30.847  24.092  1.00  0.00     0.163 HD
ATOM     77  O   UNL A   1      29.860  29.511  22.293  1.00  0.00    -0.269 OA
BRANCH  75  78
ATOM     78  C   UNL A   1      30.812  27.614  23.282  1.00  0.00     0.081 A 
ATOM     79  C   UNL A   1      32.123  27.246  22.986  1.00  0.00     0.020 A 
ATOM     80  C   UNL A   1      29.879  26.636  23.644  1.00  0.00     0.130 A 
ATOM     81  C   UNL A   1      32.518  25.915  23.124  1.00  0.00     0.027 A 
ATOM     82  C   UNL A   1      30.285  25.309  23.804  1.00  0.00     0.073 A 
ATOM     83  C   UNL A   1      31.614  24.934  23.561  1.00  0.00     0.042 A 
BRANCH  80  84
ATOM     84  O   UNL A   1      28.575  26.978  23.876  1.00  0.00    -0.507 OA
ATOM     85  H   UNL A   1      27.950  26.938  23.179  1.00  0.00     0.293 HD
ENDBRANCH  80  84
BRANCH  83  86
ATOM     86  N   UNL A   1      32.010  23.610  23.835  1.00  0.00    -0.349 N 
ATOM     87  H   UNL A   1      31.698  22.915  23.212  1.00  0.00     0.167 HD
BRANCH  86  88
ATOM     88  C   UNL A   1      32.795  23.193  24.898  1.00  0.00     0.137 A 
ATOM     89  C   UNL A   1      32.416  22.986  26.173  1.00  0.00     0.377 A 
ATOM     90  C   UNL A   1      34.237  23.013  24.615  1.00  0.00     0.048 A 
ATOM     91  C   UNL A   1      33.294  22.651  27.292  1.00  0.00     0.417 A 
ATOM     92  C   UNL A   1      35.119  22.836  25.683  1.00  0.00     0.141 A 
ATOM     93  C   UNL A   1      34.786  23.062  23.323  1.00  0.00     0.014 A 
ATOM     94  O   UNL A   1      32.903  22.348  28.408  1.00  0.00    -0.238 OA
ATOM     95  O   UNL A   1      34.655  22.711  27.006  1.00  0.00    -0.418 OA
ATOM     96  C   UNL A   1      36.499  22.752  25.504  1.00  0.00     0.048 A 
ATOM     97  C   UNL A   1      36.167  22.953  23.126  1.00  0.00     0.001 A 
ATOM     98  C   UNL A   1      37.023  22.811  24.216  1.00  0.00     0.004 A 
BRANCH  89  99
ATOM     99  N   UNL A   1      31.022  23.079  26.489  1.00  0.00     0.073 N 
ATOM    100  O   UNL A   1      30.282  22.174  26.075  1.00  0.00    -0.258 OA
ATOM    101  O   UNL A   1      30.655  24.065  27.142  1.00  0.00    -0.258 OA
ENDBRANCH  89  99
ENDBRANCH  86  88
ENDBRANCH  83  86
ENDBRANCH  75  78
ENDBRANCH  73  74
ENDBRANCH   1  73
TORSDOF 15
ENDMDL
MODEL 2
REMARK VINA RESULT:     -13.2      0.267      1.225
REMARK SMILES O=C(NCCCCNC(=O)c1ccc(Nc2c([N+](=O)[O-])c(=O)oc3ccccc23)cc1O)c1ccc(-c2c3nc(c(-c4c(F)c(F)c(F)c(F)c4F)c4ccc([nH]4)c(-c4c(F)c(F)c(F)c(F)c4F)c4nc(c(-c5c(F)c(F)c(F)c(F)c5F)c5ccc2[nH]5)C=C4)C=C3)cc1
REMARK SMILES IDX 6 1 5 2 4 3 3 4 1 5 2 6 33 8 34 9 95 10 35 11 94 12 36 13
REMARK SMILES IDX 37 14 38 15 88 16 39 17 93 18 87 19 89 20 40 21 92 22 86 23
REMARK SMILES IDX 85 24 41 26 73 27 53 28 72 29 54 30 57 31 71 32 90 33 55 34
REMARK SMILES IDX 56 35 70 37 91 38 58 39 42 40 43 41 51 42 44 43 45 44 49 45
REMARK SMILES IDX 52 46 46 47 47 48 50 49 48 50 74 51 75 52 83 53 76 54 77 55
REMARK SMILES IDX 81 56 84 57 78 58 79 59 82 60 80 61 59 62 60 63 68 64 61 65
REMARK SMILES IDX 62 66 66 67 69 68 63 69 64 70 67 71 65 72 7 73 8 74 9 75
REMARK SMILES IDX 10 77 11 78 12 79 31 80 13 81 30 82 14 83 32 84 15 86 16 88
REMARK SMILES IDX 17 89 29 90 21 91 24 92 28 93 22 94 23 95 25 96 27 97 26 98
REMARK SMILES IDX 18 99 19 100 20 101
REMARK H PARENT 3 7 89 25 57 36 8 76 32 85 15 87
REMARK Flexibility Score: inf
ROOT
ATOM      1  C   UNL A   1      31.425  30.302  26.662  1.00  0.00     0.023 C 
ENDROOT
BRANCH   1   2
ATOM      2  C   UNL A   1      31.415  31.820  26.523  1.00  0.00     0.023 C 
BRANCH   2   3
ATOM      3  C   UNL A   1      32.680  32.514  27.003  1.00  0.00     0.116 C 
BRANCH   3   4
ATOM      4  N   UNL A   1      32.444  33.874  27.464  1.00  0.00    -0.352 N 
ATOM      5  O   UNL A   1      32.656  35.669  28.824  1.00  0.00    -0.269 OA
ATOM      6  C   UNL A   1      33.070  34.569  28.472  1.00  0.00     0.251 C 
ATOM      7  H   UNL A   1      31.738  34.367  26.985  1.00  0.00     0.163 HD
BRANCH   6   8
ATOM      8  C   UNL A   1      34.237  33.967  29.149  1.00  0.00     0.039 A 
ATOM      9  C   UNL A   1      35.532  34.330  28.777  1.00  0.00     0.014 A 
ATOM     10  C   UNL A   1      34.035  33.013  30.152  1.00  0.00     0.014 A 
ATOM     11  C   UNL A   1      36.616  33.628  29.283  1.00  0.00     0.010 A 
ATOM     12  C   UNL A   1      35.135  32.384  30.740  1.00  0.00     0.010 A 
ATOM     13  C   UNL A   1      36.435  32.666  30.291  1.00  0.00    -0.014 A 
BRANCH  13  14
ATOM     14  C   UNL A   1      37.631  32.051  30.919  1.00  0.00     0.031 A 
ATOM     15  C   UNL A   1      38.091  32.448  32.293  1.00  0.00     0.074 A 
ATOM     16  C   UNL A   1      38.287  31.096  30.230  1.00  0.00     0.049 A 
ATOM     17  N   UNL A   1      39.114  31.999  32.979  1.00  0.00    -0.248 NA
ATOM     18  C   UNL A   1      37.314  33.485  32.989  1.00  0.00     0.031 C 
ATOM     19  C   UNL A   1      37.935  30.639  28.883  1.00  0.00     0.029 A 
ATOM     20  N   UNL A   1      39.372  30.328  30.565  1.00  0.00    -0.354 N 
ATOM     21  C   UNL A   1      39.114  32.707  34.172  1.00  0.00     0.074 A 
ATOM     22  C   UNL A   1      38.004  33.633  34.113  1.00  0.00     0.031 C 
ATOM     23  C   UNL A   1      38.756  29.644  28.525  1.00  0.00     0.029 A 
ATOM     24  C   UNL A   1      39.741  29.445  29.580  1.00  0.00     0.049 A 
ATOM     25  H   UNL A   1      39.842  30.403  31.426  1.00  0.00     0.167 HD
ATOM     26  C   UNL A   1      39.965  32.586  35.221  1.00  0.00     0.037 A 
ATOM     27  C   UNL A   1      40.777  28.589  29.516  1.00  0.00     0.037 A 
ATOM     28  C   UNL A   1      41.060  31.647  35.275  1.00  0.00     0.049 A 
ATOM     29  C   UNL A   1      41.720  28.508  30.682  1.00  0.00     0.074 A 
ATOM     30  C   UNL A   1      41.948  31.419  36.312  1.00  0.00     0.029 A 
ATOM     31  N   UNL A   1      41.420  30.789  34.246  1.00  0.00    -0.354 N 
ATOM     32  N   UNL A   1      41.681  29.149  31.823  1.00  0.00    -0.248 NA
ATOM     33  C   UNL A   1      42.854  27.584  30.548  1.00  0.00     0.031 C 
ATOM     34  C   UNL A   1      42.882  30.469  35.888  1.00  0.00     0.029 A 
ATOM     35  C   UNL A   1      42.538  30.054  34.612  1.00  0.00     0.049 A 
ATOM     36  H   UNL A   1      40.951  30.713  33.383  1.00  0.00     0.167 HD
ATOM     37  C   UNL A   1      42.768  28.692  32.553  1.00  0.00     0.074 A 
ATOM     38  C   UNL A   1      43.432  27.699  31.734  1.00  0.00     0.031 C 
ATOM     39  C   UNL A   1      43.184  29.065  33.788  1.00  0.00     0.037 A 
BRANCH  26  40
ATOM     40  C   UNL A   1      39.772  33.495  36.402  1.00  0.00     0.064 A 
ATOM     41  C   UNL A   1      40.361  34.766  36.460  1.00  0.00     0.173 A 
ATOM     42  C   UNL A   1      38.908  33.125  37.445  1.00  0.00     0.173 A 
ATOM     43  F   UNL A   1      41.199  35.168  35.493  1.00  0.00    -0.203 F 
ATOM     44  C   UNL A   1      40.103  35.627  37.525  1.00  0.00     0.198 A 
ATOM     45  C   UNL A   1      38.629  33.999  38.493  1.00  0.00     0.198 A 
ATOM     46  F   UNL A   1      38.309  31.924  37.434  1.00  0.00    -0.203 F 
ATOM     47  F   UNL A   1      40.698  36.827  37.574  1.00  0.00    -0.200 F 
ATOM     48  C   UNL A   1      39.230  35.249  38.534  1.00  0.00     0.200 A 
ATOM     49  F   UNL A   1      37.772  33.637  39.457  1.00  0.00    -0.200 F 
ATOM     50  F   UNL A   1      38.966  36.087  39.545  1.00  0.00    -0.200 F 
ENDBRANCH  26  40
BRANCH  27  51
ATOM     51  C   UNL A   1      40.988  27.766  28.296  1.00  0.00     0.064 A 
ATOM     52  C   UNL A   1      40.379  26.513  28.152  1.00  0.00     0.173 A 
ATOM     53  C   UNL A   1      41.822  28.209  27.258  1.00  0.00     0.173 A 
ATOM     54  F   UNL A   1      39.587  26.037  29.124  1.00  0.00    -0.203 F 
ATOM     55  C   UNL A   1      40.621  25.721  27.032  1.00  0.00     0.198 A 
ATOM     56  C   UNL A   1      42.032  27.433  26.120  1.00  0.00     0.198 A 
ATOM     57  F   UNL A   1      42.425  29.405  27.341  1.00  0.00    -0.203 F 
ATOM     58  F   UNL A   1      40.075  24.500  26.947  1.00  0.00    -0.200 F 
ATOM     59  C   UNL A   1      41.443  26.184  26.014  1.00  0.00     0.200 A 
ATOM     60  F   UNL A   1      42.809  27.896  25.132  1.00  0.00    -0.200 F 
ATOM     61  F   UNL A   1      41.674  25.422  24.937  1.00  0.00    -0.200 F 
ENDBRANCH  27  51
BRANCH  39  62
ATOM     62  C   UNL A   1      44.392  28.366  34.341  1.00  0.00     0.064 A 
ATOM     63  C   UNL A   1      45.684  28.888  34.181  1.00  0.00     0.173 A 
ATOM     64  C   UNL A   1      44.251  27.167  35.058  1.00  0.00     0.173 A 
ATOM     65  F   UNL A   1      45.874  30.021  33.489  1.00  0.00    -0.203 F 
ATOM     66  C   UNL A   1      46.793  28.219  34.690  1.00  0.00     0.198 A 
ATOM     67  C   UNL A   1      45.359  26.520  35.595  1.00  0.00     0.198 A 
ATOM     68  F   UNL A   1      43.037  26.629  35.244  1.00  0.00    -0.203 F 
ATOM     69  F   UNL A   1      48.024  28.704  34.473  1.00  0.00    -0.200 F 
ATOM     70  C   UNL A   1      46.630  27.040  35.403  1.00  0.00     0.200 A 
ATOM     71  F   UNL A   1      45.197  25.390  36.297  1.00  0.00    -0.200 F 
ATOM     72  F   UNL A   1      47.699  26.400  35.896  1.00  0.00    -0.200 F 
ENDBRANCH  39  62
ENDBRANCH  13  14
ENDBRANCH   6   8
ENDBRANCH   3   4
ENDBRANCH   2   3
ENDBRANCH   1   2
BRANCH   1  73
ATOM     73  C   UNL A   1      31.853  29.542  25.413  1.00  0.00     0.116 C 
BRANCH  73  74
ATOM     74  N   UNL A   1      31.075  29.892  24.236  1.00  0.00    -0.352 N 
ATOM     75  C   UNL A   1      30.595  29.060  23.254  1.00  0.00     0.255 C 
ATOM     76  H   UNL A   1      30.866  30.848  24.128  1.00  0.00     0.163 HD
ATOM     77  O   UNL A   1      29.983  29.521  22.294  1.00  0.00    -0.269 OA
BRANCH  75  78
ATOM     78  C   UNL A   1      30.908  27.620  23.302  1.00  0.00     0.081 A 
ATOM     79  C   UNL A   1      32.231  27.256  23.054  1.00  0.00     0.020 A 
ATOM     80  C   UNL A   1      29.965  26.638  23.619  1.00  0.00     0.130 A 
ATOM     81  C   UNL A   1      32.623  25.926  23.198  1.00  0.00     0.027 A 
ATOM     82  C   UNL A   1      30.367  25.310  23.786  1.00  0.00     0.073 A 
ATOM     83  C   UNL A   1      31.706  24.940  23.592  1.00  0.00     0.042 A 
BRANCH  80  84
ATOM     84  O   UNL A   1      28.652  26.975  23.803  1.00  0.00    -0.507 OA
ATOM     85  H   UNL A   1      28.130  26.505  24.424  1.00  0.00     0.293 HD
ENDBRANCH  80  84
BRANCH  83  86
ATOM     86  N   UNL A   1      32.093  23.614  23.871  1.00  0.00    -0.349 N 
ATOM     87  H   UNL A   1      31.806  22.923  23.232  1.00  0.00     0.167 HD
BRANCH  86  88
ATOM     88  C   UNL A   1      32.838  23.191  24.960  1.00  0.00     0.137 A 
ATOM     89  C   UNL A   1      32.409  22.967  26.217  1.00  0.00     0.377 A 
ATOM     90  C   UNL A   1      34.291  23.024  24.734  1.00  0.00     0.048 A 
ATOM     91  C   UNL A   1      33.244  22.626  27.367  1.00  0.00     0.417 A 
ATOM     92  C   UNL A   1      35.131  22.843  25.835  1.00  0.00     0.141 A 
ATOM     93  C   UNL A   1      34.892  23.093  23.467  1.00  0.00     0.014 A 
ATOM     94  O   UNL A   1      32.810  22.307  28.462  1.00  0.00    -0.238 OA
ATOM     95  O   UNL A   1      34.615  22.699  27.137  1.00  0.00    -0.418 OA
ATOM     96  C   UNL A   1      36.518  22.770  25.711  1.00  0.00     0.048 A 
ATOM     97  C   UNL A   1      36.280  22.996  23.324  1.00  0.00     0.001 A 
ATOM     98  C   UNL A   1      37.093  22.848  24.446  1.00  0.00     0.004 A 
BRANCH  89  99
ATOM     99  N   UNL A   1      31.003  23.046  26.477  1.00  0.00     0.073 N 
ATOM    100  O   UNL A   1      30.290  22.128  26.043  1.00  0.00    -0.258 OA
ATOM    101  O   UNL A   1      30.599  24.034  27.105  1.00  0.00    -0.258 OA
ENDBRANCH  89  99
ENDBRANCH  86  88
ENDBRANCH  83  86
ENDBRANCH  75  78
ENDBRANCH  73  74
ENDBRANCH   1  73
TORSDOF 15
ENDMDL
MODEL 3
REMARK VINA RESULT:     -13.2      3.570      8.673
REMARK SMILES O=C(NCCCCNC(=O)c1ccc(Nc2c([N+](=O)[O-])c(=O)oc3ccccc23)cc1O)c1ccc(-c2c3nc(c(-c4c(F)c(F)c(F)c(F)c4F)c4ccc([nH]4)c(-c4c(F)c(F)c(F)c(F)c4F)c4nc(c(-c5c(F)c(F)c(F)c(F)c5F)c5ccc2[nH]5)C=C4)C=C3)cc1
REMARK SMILES IDX 6 1 5 2 4 3 3 4 1 5 2 6 33 8 34 9 95 10 35 11 94 12 36 13
REMARK SMILES IDX 37 14 38 15 88 16 39 17 93 18 87 19 89 20 40 21 92 22 86 23
REMARK SMILES IDX 85 24 41 26 73 27 53 28 72 29 54 30 57 31 71 32 90 33 55 34
REMARK SMILES IDX 56 35 70 37 91 38 58 39 42 40 43 41 51 42 44 43 45 44 49 45
REMARK SMILES IDX 52 46 46 47 47 48 50 49 48 50 74 51 75 52 83 53 76 54 77 55
REMARK SMILES IDX 81 56 84 57 78 58 79 59 82 60 80 61 59 62 60 63 68 64 61 65
REMARK SMILES IDX 62 66 66 67 69 68 63 69 64 70 67 71 65 72 7 73 8 74 9 75
REMARK SMILES IDX 10 77 11 78 12 79 31 80 13 81 30 82 14 83 32 84 15 86 16 88
REMARK SMILES IDX 17 89 29 90 21 91 24 92 28 93 22 94 23 95 25 96 27 97 26 98
REMARK SMILES IDX 18 99 19 100 20 101
REMARK H PARENT 3 7 89 25 57 36 8 76 32 85 15 87
REMARK Flexibility Score: inf
ROOT
ATOM      1  C   UNL A   1      35.353  21.954  26.160  1.00  0.00     0.023 C 
ENDROOT
BRANCH   1   2
ATOM      2  C   UNL A   1      35.426  23.472  26.034  1.00  0.00     0.023 C 
BRANCH   2   3
ATOM      3  C   UNL A   1      36.809  24.022  25.723  1.00  0.00     0.116 C 
BRANCH   3   4
ATOM      4  N   UNL A   1      37.841  22.995  25.706  1.00  0.00    -0.352 N 
ATOM      5  O   UNL A   1      39.925  22.148  25.927  1.00  0.00    -0.269 OA
ATOM      6  C   UNL A   1      39.143  23.068  26.140  1.00  0.00     0.251 C 
ATOM      7  H   UNL A   1      37.567  22.126  25.331  1.00  0.00     0.163 HD
BRANCH   6   8
ATOM      8  C   UNL A   1      39.603  24.281  26.847  1.00  0.00     0.039 A 
ATOM      9  C   UNL A   1      39.334  24.449  28.206  1.00  0.00     0.014 A 
ATOM     10  C   UNL A   1      40.292  25.271  26.139  1.00  0.00     0.014 A 
ATOM     11  C   UNL A   1      39.602  25.665  28.816  1.00  0.00     0.010 A 
ATOM     12  C   UNL A   1      40.659  26.454  26.786  1.00  0.00     0.010 A 
ATOM     13  C   UNL A   1      40.293  26.673  28.123  1.00  0.00    -0.014 A 
BRANCH  13  14
ATOM     14  C   UNL A   1      40.702  27.897  28.856  1.00  0.00     0.031 A 
ATOM     15  C   UNL A   1      42.102  28.077  29.370  1.00  0.00     0.074 A 
ATOM     16  C   UNL A   1      39.783  28.868  29.030  1.00  0.00     0.049 A 
ATOM     17  N   UNL A   1      42.614  29.090  30.025  1.00  0.00    -0.248 NA
ATOM     18  C   UNL A   1      43.053  26.981  29.129  1.00  0.00     0.031 C 
ATOM     19  C   UNL A   1      38.390  28.796  28.582  1.00  0.00     0.029 A 
ATOM     20  N   UNL A   1      39.879  30.106  29.611  1.00  0.00    -0.354 N 
ATOM     21  C   UNL A   1      43.933  28.749  30.288  1.00  0.00     0.074 A 
ATOM     22  C   UNL A   1      44.143  27.425  29.743  1.00  0.00     0.031 C 
ATOM     23  C   UNL A   1      37.774  29.951  28.864  1.00  0.00     0.029 A 
ATOM     24  C   UNL A   1      38.703  30.815  29.580  1.00  0.00     0.049 A 
ATOM     25  H   UNL A   1      40.708  30.452  30.012  1.00  0.00     0.167 HD
ATOM     26  C   UNL A   1      44.881  29.483  30.923  1.00  0.00     0.037 A 
ATOM     27  C   UNL A   1      38.393  32.017  30.099  1.00  0.00     0.037 A 
ATOM     28  C   UNL A   1      44.664  30.809  31.449  1.00  0.00     0.049 A 
ATOM     29  C   UNL A   1      39.458  32.786  30.828  1.00  0.00     0.074 A 
ATOM     30  C   UNL A   1      45.573  31.649  32.068  1.00  0.00     0.029 A 
ATOM     31  N   UNL A   1      43.451  31.483  31.425  1.00  0.00    -0.354 N 
ATOM     32  N   UNL A   1      40.714  32.471  31.028  1.00  0.00    -0.248 NA
ATOM     33  C   UNL A   1      39.060  34.075  31.406  1.00  0.00     0.031 C 
ATOM     34  C   UNL A   1      44.898  32.804  32.473  1.00  0.00     0.029 A 
ATOM     35  C   UNL A   1      43.583  32.715  32.049  1.00  0.00     0.049 A 
ATOM     36  H   UNL A   1      42.620  31.139  31.025  1.00  0.00     0.167 HD
ATOM     37  C   UNL A   1      41.263  33.532  31.734  1.00  0.00     0.074 A 
ATOM     38  C   UNL A   1      40.209  34.510  31.903  1.00  0.00     0.031 C 
ATOM     39  C   UNL A   1      42.525  33.681  32.204  1.00  0.00     0.037 A 
BRANCH  26  40
ATOM     40  C   UNL A   1      46.242  28.876  31.110  1.00  0.00     0.064 A 
ATOM     41  C   UNL A   1      46.560  28.105  32.237  1.00  0.00     0.173 A 
ATOM     42  C   UNL A   1      47.212  28.990  30.100  1.00  0.00     0.173 A 
ATOM     43  F   UNL A   1      45.673  27.968  33.234  1.00  0.00    -0.203 F 
ATOM     44  C   UNL A   1      47.802  27.482  32.352  1.00  0.00     0.198 A 
ATOM     45  C   UNL A   1      48.440  28.342  30.205  1.00  0.00     0.198 A 
ATOM     46  F   UNL A   1      46.956  29.708  28.995  1.00  0.00    -0.203 F 
ATOM     47  F   UNL A   1      48.094  26.773  33.451  1.00  0.00    -0.200 F 
ATOM     48  C   UNL A   1      48.736  27.592  31.333  1.00  0.00     0.200 A 
ATOM     49  F   UNL A   1      49.333  28.436  29.210  1.00  0.00    -0.200 F 
ATOM     50  F   UNL A   1      49.920  26.973  31.436  1.00  0.00    -0.200 F 
ENDBRANCH  26  40
BRANCH  27  51
ATOM     51  C   UNL A   1      37.012  32.550  29.971  1.00  0.00     0.064 A 
ATOM     52  C   UNL A   1      36.613  33.266  28.836  1.00  0.00     0.173 A 
ATOM     53  C   UNL A   1      36.067  32.370  30.994  1.00  0.00     0.173 A 
ATOM     54  F   UNL A   1      37.483  33.480  27.838  1.00  0.00    -0.203 F 
ATOM     55  C   UNL A   1      35.333  33.809  28.741  1.00  0.00     0.198 A 
ATOM     56  C   UNL A   1      34.776  32.880  30.882  1.00  0.00     0.198 A 
ATOM     57  F   UNL A   1      36.394  31.685  32.101  1.00  0.00    -0.203 F 
ATOM     58  F   UNL A   1      34.996  34.543  27.672  1.00  0.00    -0.200 F 
ATOM     59  C   UNL A   1      34.414  33.611  29.762  1.00  0.00     0.200 A 
ATOM     60  F   UNL A   1      33.887  32.666  31.861  1.00  0.00    -0.200 F 
ATOM     61  F   UNL A   1      33.184  34.133  29.670  1.00  0.00    -0.200 F 
ENDBRANCH  27  51
BRANCH  39  62
ATOM     62  C   UNL A   1      42.842  34.965  32.914  1.00  0.00     0.064 A 
ATOM     63  C   UNL A   1      43.373  36.072  32.236  1.00  0.00     0.173 A 
ATOM     64  C   UNL A   1      42.592  35.095  34.289  1.00  0.00     0.173 A 
ATOM     65  F   UNL A   1      43.647  35.993  30.925  1.00  0.00    -0.203 F 
ATOM     66  C   UNL A   1      43.673  37.250  32.914  1.00  0.00     0.198 A 
ATOM     67  C   UNL A   1      42.860  36.286  34.956  1.00  0.00     0.198 A 
ATOM     68  F   UNL A   1      42.080  34.068  34.984  1.00  0.00    -0.203 F 
ATOM     69  F   UNL A   1      44.236  38.274  32.257  1.00  0.00    -0.200 F 
ATOM     70  C   UNL A   1      43.410  37.359  34.271  1.00  0.00     0.200 A 
ATOM     71  F   UNL A   1      42.590  36.394  36.265  1.00  0.00    -0.200 F 
ATOM     72  F   UNL A   1      43.694  38.496  34.921  1.00  0.00    -0.200 F 
ENDBRANCH  39  62
ENDBRANCH  13  14
ENDBRANCH   6   8
ENDBRANCH   3   4
ENDBRANCH   2   3
ENDBRANCH   1   2
BRANCH   1  73
ATOM     73  C   UNL A   1      34.224  21.433  27.042  1.00  0.00     0.116 C 
BRANCH  73  74
ATOM     74  N   UNL A   1      33.510  20.312  26.453  1.00  0.00    -0.352 N 
ATOM     75  C   UNL A   1      32.509  20.341  25.514  1.00  0.00     0.255 C 
ATOM     76  H   UNL A   1      33.779  19.419  26.768  1.00  0.00     0.163 HD
ATOM     77  O   UNL A   1      31.975  19.299  25.144  1.00  0.00    -0.269 OA
BRANCH  75  78
ATOM     78  C   UNL A   1      32.002  21.637  25.027  1.00  0.00     0.081 A 
ATOM     79  C   UNL A   1      31.469  22.502  25.982  1.00  0.00     0.020 A 
ATOM     80  C   UNL A   1      32.074  22.038  23.689  1.00  0.00     0.130 A 
ATOM     81  C   UNL A   1      31.080  23.789  25.612  1.00  0.00     0.027 A 
ATOM     82  C   UNL A   1      31.706  23.336  23.327  1.00  0.00     0.073 A 
ATOM     83  C   UNL A   1      31.218  24.234  24.288  1.00  0.00     0.042 A 
BRANCH  80  84
ATOM     84  O   UNL A   1      32.537  21.175  22.734  1.00  0.00    -0.507 OA
ATOM     85  H   UNL A   1      32.109  21.124  21.902  1.00  0.00     0.293 HD
ENDBRANCH  80  84
BRANCH  83  86
ATOM     86  N   UNL A   1      30.957  25.564  23.906  1.00  0.00    -0.349 N 
ATOM     87  H   UNL A   1      30.024  25.790  23.691  1.00  0.00     0.167 HD
BRANCH  86  88
ATOM     88  C   UNL A   1      31.888  26.585  23.804  1.00  0.00     0.137 A 
ATOM     89  C   UNL A   1      32.658  26.898  22.745  1.00  0.00     0.377 A 
ATOM     90  C   UNL A   1      32.113  27.391  25.025  1.00  0.00     0.048 A 
ATOM     91  C   UNL A   1      33.708  27.913  22.708  1.00  0.00     0.417 A 
ATOM     92  C   UNL A   1      33.201  28.265  25.069  1.00  0.00     0.141 A 
ATOM     93  C   UNL A   1      31.318  27.290  26.178  1.00  0.00     0.014 A 
ATOM     94  O   UNL A   1      34.300  28.256  21.697  1.00  0.00    -0.238 OA
ATOM     95  O   UNL A   1      34.016  28.480  23.942  1.00  0.00    -0.418 OA
ATOM     96  C   UNL A   1      33.531  28.988  26.214  1.00  0.00     0.048 A 
ATOM     97  C   UNL A   1      31.621  28.029  27.327  1.00  0.00     0.001 A 
ATOM     98  C   UNL A   1      32.734  28.867  27.349  1.00  0.00     0.004 A 
BRANCH  89  99
ATOM     99  N   UNL A   1      32.435  26.196  21.515  1.00  0.00     0.073 N 
ATOM    100  O   UNL A   1      31.332  26.343  20.967  1.00  0.00    -0.258 OA
ATOM    101  O   UNL A   1      33.357  25.483  21.097  1.00  0.00    -0.258 OA
ENDBRANCH  89  99
ENDBRANCH  86  88
ENDBRANCH  83  86
ENDBRANCH  75  78
ENDBRANCH  73  74
ENDBRANCH   1  73
TORSDOF 15
ENDMDL
