MODEL 1
REMARK VINA RESULT:     -10.4      0.000      0.000
REMARK SMILES COc1cc(C(=O)CCC(=O)NCCCCNC(=O)c2ccc(-c3c4nc(c(-c5c(F)c(F)c(F)c(F)c5F)c5ccc([nH]5)c(-c5c(F)c(F)c(F)c(F)c5F)c5nc(c(-c6c(F)c(F)c(F)c(F)c6F)c6ccc3[nH]6)C=C5)C=C4)cc2)cc(OC)c1OC
REMARK SMILES IDX 13 1 12 2 10 3 11 4 9 6 8 7 6 8 7 9 5 10 3 11 4 12 87 13
REMARK SMILES IDX 84 14 83 15 2 16 1 17 88 18 89 19 85 20 86 21 14 22 15 23
REMARK SMILES IDX 16 24 17 25 18 26 19 28 20 29 21 30 82 31 22 32 81 33 23 34
REMARK SMILES IDX 24 35 25 36 75 37 26 38 80 39 74 40 76 41 27 42 79 43 73 44
REMARK SMILES IDX 72 45 28 47 60 48 40 49 59 50 41 51 44 52 58 53 77 54 42 55
REMARK SMILES IDX 43 56 57 58 78 59 45 60 29 61 30 62 38 63 31 64 32 65 36 66
REMARK SMILES IDX 39 67 33 68 34 69 37 70 35 71 61 72 62 73 70 74 63 75 64 76
REMARK SMILES IDX 68 77 71 78 65 79 66 80 69 81 67 82 46 83 47 84 55 85 48 86
REMARK SMILES IDX 49 87 53 88 56 89 50 90 51 91 54 92 52 93
REMARK H PARENT 12 5 17 27 76 46 44 57
REMARK Flexibility Score: inf
ROOT
ATOM      1  C   UNL A   1      39.912  21.083  26.224  1.00  0.00     0.116 C 
ENDROOT
BRANCH   1   2
ATOM      2  N   UNL A   1      39.739  22.482  26.577  1.00  0.00    -0.356 N 
ATOM      3  C   UNL A   1      38.656  23.291  26.406  1.00  0.00     0.220 C 
ATOM      4  O   UNL A   1      38.766  24.484  26.691  1.00  0.00    -0.275 OA
ATOM      5  H   UNL A   1      40.519  22.907  27.001  1.00  0.00     0.163 HD
BRANCH   3   6
ATOM      6  C   UNL A   1      37.354  22.728  25.877  1.00  0.00     0.108 C 
BRANCH   6   7
ATOM      7  C   UNL A   1      36.643  23.698  24.934  1.00  0.00     0.091 C 
BRANCH   7   8
ATOM      8  C   UNL A   1      35.245  24.039  25.427  1.00  0.00     0.163 C 
ATOM      9  O   UNL A   1      34.720  23.359  26.311  1.00  0.00    -0.294 OA
BRANCH   8  10
ATOM     10  C   UNL A   1      34.438  25.124  24.772  1.00  0.00     0.025 A 
ATOM     11  C   UNL A   1      32.762  26.878  24.988  1.00  0.00     0.165 A 
ATOM     12  C   UNL A   1      33.640  25.958  25.576  1.00  0.00     0.062 A 
ATOM     13  C   UNL A   1      32.673  26.981  23.591  1.00  0.00     0.203 A 
ATOM     14  C   UNL A   1      33.488  26.167  22.795  1.00  0.00     0.165 A 
ATOM     15  C   UNL A   1      34.373  25.257  23.385  1.00  0.00     0.062 A 
BRANCH  11  16
ATOM     16  O   UNL A   1      32.077  27.765  25.778  1.00  0.00    -0.493 OA
ATOM     17  C   UNL A   1      32.750  28.048  27.004  1.00  0.00     0.278 C 
ENDBRANCH  11  16
BRANCH  13  18
ATOM     18  O   UNL A   1      31.888  27.928  22.986  1.00  0.00    -0.490 OA
ATOM     19  C   UNL A   1      30.545  27.490  22.789  1.00  0.00     0.278 C 
ENDBRANCH  13  18
BRANCH  14  20
ATOM     20  O   UNL A   1      33.554  26.195  21.426  1.00  0.00    -0.493 OA
ATOM     21  C   UNL A   1      32.644  25.323  20.766  1.00  0.00     0.278 C 
ENDBRANCH  14  20
ENDBRANCH   8  10
ENDBRANCH   7   8
ENDBRANCH   6   7
ENDBRANCH   3   6
ENDBRANCH   1   2
BRANCH   1  22
ATOM     22  C   UNL A   1      41.384  20.689  26.242  1.00  0.00     0.023 C 
BRANCH  22  23
ATOM     23  C   UNL A   1      41.627  19.249  25.800  1.00  0.00     0.023 C 
BRANCH  23  24
ATOM     24  C   UNL A   1      43.009  18.748  26.190  1.00  0.00     0.116 C 
BRANCH  24  25
ATOM     25  N   UNL A   1      43.896  18.606  25.041  1.00  0.00    -0.352 N 
ATOM     26  C   UNL A   1      44.674  19.490  24.331  1.00  0.00     0.251 C 
ATOM     27  H   UNL A   1      43.950  17.683  24.702  1.00  0.00     0.163 HD
ATOM     28  O   UNL A   1      45.200  19.104  23.294  1.00  0.00    -0.269 OA
BRANCH  26  29
ATOM     29  C   UNL A   1      44.857  20.900  24.752  1.00  0.00     0.039 A 
ATOM     30  C   UNL A   1      44.259  21.912  23.988  1.00  0.00     0.014 A 
ATOM     31  C   UNL A   1      45.628  21.257  25.852  1.00  0.00     0.014 A 
ATOM     32  C   UNL A   1      44.388  23.253  24.366  1.00  0.00     0.010 A 
ATOM     33  C   UNL A   1      45.627  22.566  26.317  1.00  0.00     0.010 A 
ATOM     34  C   UNL A   1      45.043  23.588  25.560  1.00  0.00    -0.014 A 
BRANCH  34  35
ATOM     35  C   UNL A   1      45.207  24.994  26.009  1.00  0.00     0.031 A 
ATOM     36  C   UNL A   1      46.560  25.655  25.913  1.00  0.00     0.074 A 
ATOM     37  C   UNL A   1      44.176  25.648  26.578  1.00  0.00     0.049 A 
ATOM     38  N   UNL A   1      46.955  26.816  26.372  1.00  0.00    -0.248 NA
ATOM     39  C   UNL A   1      47.629  24.881  25.261  1.00  0.00     0.031 C 
ATOM     40  C   UNL A   1      42.833  25.103  26.784  1.00  0.00     0.029 A 
ATOM     41  N   UNL A   1      44.103  26.916  27.095  1.00  0.00    -0.354 N 
ATOM     42  C   UNL A   1      48.316  26.883  26.104  1.00  0.00     0.074 A 
ATOM     43  C   UNL A   1      48.696  25.619  25.517  1.00  0.00     0.031 C 
ATOM     44  C   UNL A   1      42.059  26.044  27.347  1.00  0.00     0.029 A 
ATOM     45  C   UNL A   1      42.860  27.242  27.579  1.00  0.00     0.049 A 
ATOM     46  H   UNL A   1      44.869  27.534  27.119  1.00  0.00     0.167 HD
ATOM     47  C   UNL A   1      49.170  27.919  26.291  1.00  0.00     0.037 A 
ATOM     48  C   UNL A   1      42.418  28.383  28.141  1.00  0.00     0.037 A 
ATOM     49  C   UNL A   1      48.772  29.200  26.809  1.00  0.00     0.049 A 
ATOM     50  C   UNL A   1      43.372  29.535  28.303  1.00  0.00     0.074 A 
ATOM     51  C   UNL A   1      49.532  30.346  26.962  1.00  0.00     0.029 A 
ATOM     52  N   UNL A   1      47.492  29.505  27.251  1.00  0.00    -0.354 N 
ATOM     53  N   UNL A   1      44.643  29.610  27.989  1.00  0.00    -0.248 NA
ATOM     54  C   UNL A   1      42.825  30.765  28.891  1.00  0.00     0.031 C 
ATOM     55  C   UNL A   1      48.720  31.334  27.530  1.00  0.00     0.029 A 
ATOM     56  C   UNL A   1      47.444  30.818  27.689  1.00  0.00     0.049 A 
ATOM     57  H   UNL A   1      46.731  28.880  27.251  1.00  0.00     0.167 HD
ATOM     58  C   UNL A   1      45.042  30.899  28.316  1.00  0.00     0.074 A 
ATOM     59  C   UNL A   1      43.872  31.577  28.836  1.00  0.00     0.031 C 
ATOM     60  C   UNL A   1      46.266  31.471  28.201  1.00  0.00     0.037 A 
BRANCH  47  61
ATOM     61  C   UNL A   1      50.609  27.705  25.912  1.00  0.00     0.064 A 
ATOM     62  C   UNL A   1      51.057  27.860  24.590  1.00  0.00     0.173 A 
ATOM     63  C   UNL A   1      51.553  27.333  26.882  1.00  0.00     0.173 A 
ATOM     64  F   UNL A   1      50.193  28.199  23.621  1.00  0.00    -0.203 F 
ATOM     65  C   UNL A   1      52.381  27.601  24.244  1.00  0.00     0.198 A 
ATOM     66  C   UNL A   1      52.885  27.112  26.539  1.00  0.00     0.198 A 
ATOM     67  F   UNL A   1      51.184  27.176  28.162  1.00  0.00    -0.203 F 
ATOM     68  F   UNL A   1      52.764  27.680  22.962  1.00  0.00    -0.200 F 
ATOM     69  C   UNL A   1      53.295  27.232  25.219  1.00  0.00     0.200 A 
ATOM     70  F   UNL A   1      53.770  26.767  27.484  1.00  0.00    -0.200 F 
ATOM     71  F   UNL A   1      54.567  26.978  24.885  1.00  0.00    -0.200 F 
ENDBRANCH  47  61
BRANCH  48  72
ATOM     72  C   UNL A   1      40.992  28.507  28.540  1.00  0.00     0.064 A 
ATOM     73  C   UNL A   1      40.575  28.124  29.822  1.00  0.00     0.173 A 
ATOM     74  C   UNL A   1      40.024  29.014  27.662  1.00  0.00     0.173 A 
ATOM     75  F   UNL A   1      41.463  27.615  30.690  1.00  0.00    -0.203 F 
ATOM     76  C   UNL A   1      39.241  28.229  30.207  1.00  0.00     0.198 A 
ATOM     77  C   UNL A   1      38.694  29.142  28.057  1.00  0.00     0.198 A 
ATOM     78  F   UNL A   1      40.375  29.402  26.428  1.00  0.00    -0.203 F 
ATOM     79  F   UNL A   1      38.863  27.818  31.426  1.00  0.00    -0.200 F 
ATOM     80  C   UNL A   1      38.301  28.743  29.326  1.00  0.00     0.200 A 
ATOM     81  F   UNL A   1      37.791  29.652  27.207  1.00  0.00    -0.200 F 
ATOM     82  F   UNL A   1      37.019  28.847  29.698  1.00  0.00    -0.200 F 
ENDBRANCH  48  72
BRANCH  60  83
ATOM     83  C   UNL A   1      46.392  32.906  28.620  1.00  0.00     0.064 A 
ATOM     84  C   UNL A   1      46.164  33.957  27.719  1.00  0.00     0.173 A 
ATOM     85  C   UNL A   1      46.716  33.234  29.945  1.00  0.00     0.173 A 
ATOM     86  F   UNL A   1      45.865  33.695  26.438  1.00  0.00    -0.203 F 
ATOM     87  C   UNL A   1      46.284  35.283  28.123  1.00  0.00     0.198 A 
ATOM     88  C   UNL A   1      46.805  34.561  30.353  1.00  0.00     0.198 A 
ATOM     89  F   UNL A   1      46.936  32.266  30.848  1.00  0.00    -0.203 F 
ATOM     90  F   UNL A   1      46.113  36.271  27.233  1.00  0.00    -0.200 F 
ATOM     91  C   UNL A   1      46.598  35.584  29.440  1.00  0.00     0.200 A 
ATOM     92  F   UNL A   1      47.095  34.850  31.629  1.00  0.00    -0.200 F 
ATOM     93  F   UNL A   1      46.710  36.863  29.828  1.00  0.00    -0.200 F 
ENDBRANCH  60  83
ENDBRANCH  34  35
ENDBRANCH  26  29
ENDBRANCH  24  25
ENDBRANCH  23  24
ENDBRANCH  22  23
ENDBRANCH   1  22
TORSDOF 17
ENDMDL
MODEL 2
REMARK VINA RESULT:     -10.3      6.115     10.802
REMARK SMILES COc1cc(C(=O)CCC(=O)NCCCCNC(=O)c2ccc(-c3c4nc(c(-c5c(F)c(F)c(F)c(F)c5F)c5ccc([nH]5)c(-c5c(F)c(F)c(F)c(F)c5F)c5nc(c(-c6c(F)c(F)c(F)c(F)c6F)c6ccc3[nH]6)C=C5)C=C4)cc2)cc(OC)c1OC
REMARK SMILES IDX 13 1 12 2 10 3 11 4 9 6 8 7 6 8 7 9 5 10 3 11 4 12 87 13
REMARK SMILES IDX 84 14 83 15 2 16 1 17 88 18 89 19 85 20 86 21 14 22 15 23
REMARK SMILES IDX 16 24 17 25 18 26 19 28 20 29 21 30 82 31 22 32 81 33 23 34
REMARK SMILES IDX 24 35 25 36 75 37 26 38 80 39 74 40 76 41 27 42 79 43 73 44
REMARK SMILES IDX 72 45 28 47 60 48 40 49 59 50 41 51 44 52 58 53 77 54 42 55
REMARK SMILES IDX 43 56 57 58 78 59 45 60 29 61 30 62 38 63 31 64 32 65 36 66
REMARK SMILES IDX 39 67 33 68 34 69 37 70 35 71 61 72 62 73 70 74 63 75 64 76
REMARK SMILES IDX 68 77 71 78 65 79 66 80 69 81 67 82 46 83 47 84 55 85 48 86
REMARK SMILES IDX 49 87 53 88 56 89 50 90 51 91 54 92 52 93
REMARK H PARENT 12 5 17 27 76 46 44 57
REMARK Flexibility Score: inf
ROOT
ATOM      1  C   UNL A   1      31.471  29.833  25.504  1.00  0.00     0.116 C 
ENDROOT
BRANCH   1   2
ATOM      2  N   UNL A   1      32.607  29.696  24.607  1.00  0.00    -0.356 N 
ATOM      3  C   UNL A   1      33.101  28.581  23.999  1.00  0.00     0.220 C 
ATOM      4  O   UNL A   1      34.144  28.680  23.353  1.00  0.00    -0.275 OA
ATOM      5  H   UNL A   1      33.090  30.531  24.411  1.00  0.00     0.163 HD
BRANCH   3   6
ATOM      6  C   UNL A   1      32.378  27.256  24.123  1.00  0.00     0.108 C 
BRANCH   6   7
ATOM      7  C   UNL A   1      32.006  26.668  22.763  1.00  0.00     0.091 C 
BRANCH   7   8
ATOM      8  C   UNL A   1      32.960  25.560  22.348  1.00  0.00     0.163 C 
ATOM      9  O   UNL A   1      33.509  25.600  21.245  1.00  0.00    -0.294 OA
BRANCH   8  10
ATOM     10  C   UNL A   1      33.159  24.347  23.212  1.00  0.00     0.025 A 
ATOM     11  C   UNL A   1      32.231  22.779  24.830  1.00  0.00     0.165 A 
ATOM     12  C   UNL A   1      32.054  23.813  23.901  1.00  0.00     0.062 A 
ATOM     13  C   UNL A   1      33.512  22.262  25.079  1.00  0.00     0.203 A 
ATOM     14  C   UNL A   1      34.605  22.779  24.373  1.00  0.00     0.165 A 
ATOM     15  C   UNL A   1      34.424  23.802  23.437  1.00  0.00     0.062 A 
BRANCH  11  16
ATOM     16  O   UNL A   1      31.137  22.188  25.407  1.00  0.00    -0.493 OA
ATOM     17  C   UNL A   1      30.616  22.940  26.501  1.00  0.00     0.278 C 
ENDBRANCH  11  16
BRANCH  13  18
ATOM     18  O   UNL A   1      33.708  21.195  25.918  1.00  0.00    -0.490 OA
ATOM     19  C   UNL A   1      34.079  21.589  27.237  1.00  0.00     0.278 C 
ENDBRANCH  13  18
BRANCH  14  20
ATOM     20  O   UNL A   1      35.900  22.337  24.467  1.00  0.00    -0.493 OA
ATOM     21  C   UNL A   1      36.731  22.683  23.365  1.00  0.00     0.278 C 
ENDBRANCH  14  20
ENDBRANCH   8  10
ENDBRANCH   7   8
ENDBRANCH   6   7
ENDBRANCH   3   6
ENDBRANCH   1   2
BRANCH   1  22
ATOM     22  C   UNL A   1      31.883  30.493  26.814  1.00  0.00     0.023 C 
BRANCH  22  23
ATOM     23  C   UNL A   1      31.476  31.961  26.903  1.00  0.00     0.023 C 
BRANCH  23  24
ATOM     24  C   UNL A   1      32.664  32.901  26.783  1.00  0.00     0.116 C 
BRANCH  24  25
ATOM     25  N   UNL A   1      32.482  34.133  27.541  1.00  0.00    -0.352 N 
ATOM     26  C   UNL A   1      33.084  34.652  28.662  1.00  0.00     0.251 C 
ATOM     27  H   UNL A   1      31.779  34.717  27.173  1.00  0.00     0.163 HD
ATOM     28  O   UNL A   1      32.603  35.656  29.174  1.00  0.00    -0.269 OA
BRANCH  26  29
ATOM     29  C   UNL A   1      34.262  34.012  29.298  1.00  0.00     0.039 A 
ATOM     30  C   UNL A   1      35.538  34.513  29.006  1.00  0.00     0.014 A 
ATOM     31  C   UNL A   1      34.149  32.911  30.139  1.00  0.00     0.014 A 
ATOM     32  C   UNL A   1      36.671  33.952  29.603  1.00  0.00     0.010 A 
ATOM     33  C   UNL A   1      35.251  32.456  30.852  1.00  0.00     0.010 A 
ATOM     34  C   UNL A   1      36.533  32.940  30.565  1.00  0.00    -0.014 A 
BRANCH  34  35
ATOM     35  C   UNL A   1      37.701  32.311  31.230  1.00  0.00     0.031 A 
ATOM     36  C   UNL A   1      38.487  31.245  30.508  1.00  0.00     0.074 A 
ATOM     37  C   UNL A   1      38.006  32.627  32.504  1.00  0.00     0.049 A 
ATOM     38  N   UNL A   1      39.448  30.473  30.950  1.00  0.00    -0.248 NA
ATOM     39  C   UNL A   1      38.103  30.973  29.112  1.00  0.00     0.031 C 
ATOM     40  C   UNL A   1      37.291  33.596  33.334  1.00  0.00     0.029 A 
ATOM     41  N   UNL A   1      38.999  32.154  33.325  1.00  0.00    -0.354 N 
ATOM     42  C   UNL A   1      39.742  29.603  29.908  1.00  0.00     0.074 A 
ATOM     43  C   UNL A   1      38.809  29.887  28.842  1.00  0.00     0.031 C 
ATOM     44  C   UNL A   1      37.892  33.676  34.533  1.00  0.00     0.029 A 
ATOM     45  C   UNL A   1      39.007  32.736  34.568  1.00  0.00     0.049 A 
ATOM     46  H   UNL A   1      39.644  31.463  33.049  1.00  0.00     0.167 HD
ATOM     47  C   UNL A   1      40.728  28.678  29.825  1.00  0.00     0.037 A 
ATOM     48  C   UNL A   1      39.828  32.534  35.616  1.00  0.00     0.037 A 
ATOM     49  C   UNL A   1      41.699  28.448  30.861  1.00  0.00     0.049 A 
ATOM     50  C   UNL A   1      40.941  31.529  35.491  1.00  0.00     0.074 A 
ATOM     51  C   UNL A   1      42.789  27.597  30.851  1.00  0.00     0.029 A 
ATOM     52  N   UNL A   1      41.699  29.088  32.092  1.00  0.00    -0.354 N 
ATOM     53  N   UNL A   1      41.249  30.756  34.477  1.00  0.00    -0.248 NA
ATOM     54  C   UNL A   1      41.825  31.376  36.654  1.00  0.00     0.031 C 
ATOM     55  C   UNL A   1      43.429  27.695  32.093  1.00  0.00     0.029 A 
ATOM     56  C   UNL A   1      42.762  28.640  32.858  1.00  0.00     0.049 A 
ATOM     57  H   UNL A   1      41.040  29.760  32.379  1.00  0.00     0.167 HD
ATOM     58  C   UNL A   1      42.375  30.044  34.868  1.00  0.00     0.074 A 
ATOM     59  C   UNL A   1      42.706  30.493  36.206  1.00  0.00     0.031 C 
ATOM     60  C   UNL A   1      43.072  29.103  34.186  1.00  0.00     0.037 A 
BRANCH  47  61
ATOM     61  C   UNL A   1      40.807  27.863  28.564  1.00  0.00     0.064 A 
ATOM     62  C   UNL A   1      40.116  26.649  28.423  1.00  0.00     0.173 A 
ATOM     63  C   UNL A   1      41.589  28.298  27.483  1.00  0.00     0.173 A 
ATOM     64  F   UNL A   1      39.366  26.179  29.431  1.00  0.00    -0.203 F 
ATOM     65  C   UNL A   1      40.245  25.877  27.271  1.00  0.00     0.198 A 
ATOM     66  C   UNL A   1      41.686  27.542  26.316  1.00  0.00     0.198 A 
ATOM     67  F   UNL A   1      42.267  29.453  27.558  1.00  0.00    -0.203 F 
ATOM     68  F   UNL A   1      39.638  24.685  27.194  1.00  0.00    -0.200 F 
ATOM     69  C   UNL A   1      41.026  26.326  26.217  1.00  0.00     0.200 A 
ATOM     70  F   UNL A   1      42.432  27.982  25.294  1.00  0.00    -0.200 F 
ATOM     71  F   UNL A   1      41.154  25.580  25.112  1.00  0.00    -0.200 F 
ENDBRANCH  47  61
BRANCH  48  72
ATOM     72  C   UNL A   1      39.659  33.339  36.853  1.00  0.00     0.064 A 
ATOM     73  C   UNL A   1      40.351  34.547  37.016  1.00  0.00     0.173 A 
ATOM     74  C   UNL A   1      38.806  32.931  37.887  1.00  0.00     0.173 A 
ATOM     75  F   UNL A   1      41.194  34.970  36.062  1.00  0.00    -0.203 F 
ATOM     76  C   UNL A   1      40.208  35.309  38.174  1.00  0.00     0.198 A 
ATOM     77  C   UNL A   1      38.644  33.706  39.034  1.00  0.00     0.198 A 
ATOM     78  F   UNL A   1      38.116  31.786  37.776  1.00  0.00    -0.203 F 
ATOM     79  F   UNL A   1      40.913  36.440  38.320  1.00  0.00    -0.200 F 
ATOM     80  C   UNL A   1      39.351  34.890  39.180  1.00  0.00     0.200 A 
ATOM     81  F   UNL A   1      37.804  33.305  39.999  1.00  0.00    -0.200 F 
ATOM     82  F   UNL A   1      39.211  35.625  40.291  1.00  0.00    -0.200 F 
ENDBRANCH  48  72
BRANCH  60  83
ATOM     83  C   UNL A   1      44.275  28.516  34.866  1.00  0.00     0.064 A 
ATOM     84  C   UNL A   1      44.185  27.352  35.642  1.00  0.00     0.173 A 
ATOM     85  C   UNL A   1      45.537  29.110  34.713  1.00  0.00     0.173 A 
ATOM     86  F   UNL A   1      42.998  26.756  35.829  1.00  0.00    -0.203 F 
ATOM     87  C   UNL A   1      45.310  26.819  36.265  1.00  0.00     0.198 A 
ATOM     88  C   UNL A   1      46.665  28.558  35.313  1.00  0.00     0.198 A 
ATOM     89  F   UNL A   1      45.678  30.221  33.974  1.00  0.00    -0.203 F 
ATOM     90  F   UNL A   1      45.191  25.736  37.045  1.00  0.00    -0.200 F 
ATOM     91  C   UNL A   1      46.549  27.419  36.095  1.00  0.00     0.200 A 
ATOM     92  F   UNL A   1      47.864  29.130  35.136  1.00  0.00    -0.200 F 
ATOM     93  F   UNL A   1      47.632  26.902  36.693  1.00  0.00    -0.200 F 
ENDBRANCH  60  83
ENDBRANCH  34  35
ENDBRANCH  26  29
ENDBRANCH  24  25
ENDBRANCH  23  24
ENDBRANCH  22  23
ENDBRANCH   1  22
TORSDOF 17
ENDMDL
MODEL 3
REMARK VINA RESULT:     -10.2      1.831      7.765
REMARK SMILES COc1cc(C(=O)CCC(=O)NCCCCNC(=O)c2ccc(-c3c4nc(c(-c5c(F)c(F)c(F)c(F)c5F)c5ccc([nH]5)c(-c5c(F)c(F)c(F)c(F)c5F)c5nc(c(-c6c(F)c(F)c(F)c(F)c6F)c6ccc3[nH]6)C=C5)C=C4)cc2)cc(OC)c1OC
REMARK SMILES IDX 13 1 12 2 10 3 11 4 9 6 8 7 6 8 7 9 5 10 3 11 4 12 87 13
REMARK SMILES IDX 84 14 83 15 2 16 1 17 88 18 89 19 85 20 86 21 14 22 15 23
REMARK SMILES IDX 16 24 17 25 18 26 19 28 20 29 21 30 82 31 22 32 81 33 23 34
REMARK SMILES IDX 24 35 25 36 75 37 26 38 80 39 74 40 76 41 27 42 79 43 73 44
REMARK SMILES IDX 72 45 28 47 60 48 40 49 59 50 41 51 44 52 58 53 77 54 42 55
REMARK SMILES IDX 43 56 57 58 78 59 45 60 29 61 30 62 38 63 31 64 32 65 36 66
REMARK SMILES IDX 39 67 33 68 34 69 37 70 35 71 61 72 62 73 70 74 63 75 64 76
REMARK SMILES IDX 68 77 71 78 65 79 66 80 69 81 67 82 46 83 47 84 55 85 48 86
REMARK SMILES IDX 49 87 53 88 56 89 50 90 51 91 54 92 52 93
REMARK H PARENT 12 5 17 27 76 46 44 57
REMARK Flexibility Score: inf
ROOT
ATOM      1  C   UNL A   1      36.458  21.470  25.751  1.00  0.00     0.116 C 
ENDROOT
BRANCH   1   2
ATOM      2  N   UNL A   1      35.169  20.803  25.661  1.00  0.00    -0.356 N 
ATOM      3  C   UNL A   1      33.981  21.133  26.241  1.00  0.00     0.220 C 
ATOM      4  O   UNL A   1      33.031  20.361  26.108  1.00  0.00    -0.275 OA
ATOM      5  H   UNL A   1      35.154  19.994  25.100  1.00  0.00     0.163 HD
BRANCH   3   6
ATOM      6  C   UNL A   1      33.843  22.419  27.029  1.00  0.00     0.108 C 
BRANCH   6   7
ATOM      7  C   UNL A   1      33.678  23.639  26.125  1.00  0.00     0.091 C 
BRANCH   7   8
ATOM      8  C   UNL A   1      32.385  24.384  26.415  1.00  0.00     0.163 C 
ATOM      9  O   UNL A   1      31.593  23.944  27.251  1.00  0.00    -0.294 OA
BRANCH   8  10
ATOM     10  C   UNL A   1      31.993  25.594  25.614  1.00  0.00     0.025 A 
ATOM     11  C   UNL A   1      31.635  26.605  23.427  1.00  0.00     0.165 A 
ATOM     12  C   UNL A   1      31.850  25.470  24.219  1.00  0.00     0.062 A 
ATOM     13  C   UNL A   1      31.555  27.877  24.016  1.00  0.00     0.203 A 
ATOM     14  C   UNL A   1      31.672  27.992  25.407  1.00  0.00     0.165 A 
ATOM     15  C   UNL A   1      31.875  26.856  26.197  1.00  0.00     0.062 A 
BRANCH  11  16
ATOM     16  O   UNL A   1      31.380  26.461  22.087  1.00  0.00    -0.493 OA
ATOM     17  C   UNL A   1      32.498  25.947  21.365  1.00  0.00     0.278 C 
ENDBRANCH  11  16
BRANCH  13  18
ATOM     18  O   UNL A   1      31.261  28.995  23.279  1.00  0.00    -0.490 OA
ATOM     19  C   UNL A   1      29.906  29.415  23.428  1.00  0.00     0.278 C 
ENDBRANCH  13  18
BRANCH  14  20
ATOM     20  O   UNL A   1      31.558  29.154  26.125  1.00  0.00    -0.493 OA
ATOM     21  C   UNL A   1      32.763  29.899  26.252  1.00  0.00     0.278 C 
ENDBRANCH  14  20
ENDBRANCH   8  10
ENDBRANCH   7   8
ENDBRANCH   6   7
ENDBRANCH   3   6
ENDBRANCH   1   2
BRANCH   1  22
ATOM     22  C   UNL A   1      37.361  21.078  24.589  1.00  0.00     0.023 C 
BRANCH  22  23
ATOM     23  C   UNL A   1      38.129  19.781  24.833  1.00  0.00     0.023 C 
BRANCH  23  24
ATOM     24  C   UNL A   1      38.952  19.826  26.110  1.00  0.00     0.116 C 
BRANCH  24  25
ATOM     25  N   UNL A   1      40.180  19.044  26.012  1.00  0.00    -0.352 N 
ATOM     26  C   UNL A   1      41.514  19.371  26.042  1.00  0.00     0.251 C 
ATOM     27  H   UNL A   1      40.019  18.079  25.901  1.00  0.00     0.163 HD
ATOM     28  O   UNL A   1      42.335  18.503  25.770  1.00  0.00    -0.269 OA
BRANCH  26  29
ATOM     29  C   UNL A   1      41.988  20.744  26.342  1.00  0.00     0.039 A 
ATOM     30  C   UNL A   1      42.483  21.018  27.624  1.00  0.00     0.014 A 
ATOM     31  C   UNL A   1      41.923  21.776  25.413  1.00  0.00     0.014 A 
ATOM     32  C   UNL A   1      42.960  22.295  27.939  1.00  0.00     0.010 A 
ATOM     33  C   UNL A   1      42.538  22.994  25.671  1.00  0.00     0.010 A 
ATOM     34  C   UNL A   1      43.028  23.286  26.949  1.00  0.00    -0.014 A 
BRANCH  34  35
ATOM     35  C   UNL A   1      43.528  24.656  27.229  1.00  0.00     0.031 A 
ATOM     36  C   UNL A   1      42.594  25.686  27.815  1.00  0.00     0.074 A 
ATOM     37  C   UNL A   1      44.782  25.004  26.881  1.00  0.00     0.049 A 
ATOM     38  N   UNL A   1      42.780  26.967  28.006  1.00  0.00    -0.248 NA
ATOM     39  C   UNL A   1      41.246  25.221  28.185  1.00  0.00     0.031 C 
ATOM     40  C   UNL A   1      45.766  24.121  26.254  1.00  0.00     0.029 A 
ATOM     41  N   UNL A   1      45.440  26.201  27.002  1.00  0.00    -0.354 N 
ATOM     42  C   UNL A   1      41.567  27.459  28.471  1.00  0.00     0.074 A 
ATOM     43  C   UNL A   1      40.630  26.360  28.458  1.00  0.00     0.031 C 
ATOM     44  C   UNL A   1      46.915  24.795  26.081  1.00  0.00     0.029 A 
ATOM     45  C   UNL A   1      46.734  26.166  26.548  1.00  0.00     0.049 A 
ATOM     46  H   UNL A   1      45.023  27.010  27.379  1.00  0.00     0.167 HD
ATOM     47  C   UNL A   1      41.266  28.705  28.910  1.00  0.00     0.037 A 
ATOM     48  C   UNL A   1      47.671  27.132  26.517  1.00  0.00     0.037 A 
ATOM     49  C   UNL A   1      42.220  29.778  28.989  1.00  0.00     0.049 A 
ATOM     50  C   UNL A   1      47.329  28.499  27.046  1.00  0.00     0.074 A 
ATOM     51  C   UNL A   1      42.049  31.054  29.495  1.00  0.00     0.029 A 
ATOM     52  N   UNL A   1      43.536  29.691  28.556  1.00  0.00    -0.354 N 
ATOM     53  N   UNL A   1      46.196  28.937  27.542  1.00  0.00    -0.248 NA
ATOM     54  C   UNL A   1      48.401  29.503  27.019  1.00  0.00     0.031 C 
ATOM     55  C   UNL A   1      43.252  31.751  29.335  1.00  0.00     0.029 A 
ATOM     56  C   UNL A   1      44.185  30.895  28.770  1.00  0.00     0.049 A 
ATOM     57  H   UNL A   1      43.948  28.891  28.156  1.00  0.00     0.167 HD
ATOM     58  C   UNL A   1      46.424  30.256  27.908  1.00  0.00     0.074 A 
ATOM     59  C   UNL A   1      47.810  30.541  27.594  1.00  0.00     0.031 C 
ATOM     60  C   UNL A   1      45.566  31.154  28.452  1.00  0.00     0.037 A 
BRANCH  47  61
ATOM     61  C   UNL A   1      39.852  28.959  29.353  1.00  0.00     0.064 A 
ATOM     62  C   UNL A   1      39.439  28.732  30.676  1.00  0.00     0.173 A 
ATOM     63  C   UNL A   1      38.893  29.428  28.442  1.00  0.00     0.173 A 
ATOM     64  F   UNL A   1      40.312  28.268  31.585  1.00  0.00    -0.203 F 
ATOM     65  C   UNL A   1      38.113  28.915  31.058  1.00  0.00     0.198 A 
ATOM     66  C   UNL A   1      37.575  29.647  28.837  1.00  0.00     0.198 A 
ATOM     67  F   UNL A   1      39.231  29.668  27.166  1.00  0.00    -0.203 F 
ATOM     68  F   UNL A   1      37.729  28.616  32.307  1.00  0.00    -0.200 F 
ATOM     69  C   UNL A   1      37.183  29.377  30.139  1.00  0.00     0.200 A 
ATOM     70  F   UNL A   1      36.680  30.105  27.951  1.00  0.00    -0.200 F 
ATOM     71  F   UNL A   1      35.906  29.549  30.506  1.00  0.00    -0.200 F 
ENDBRANCH  47  61
BRANCH  48  72
ATOM     72  C   UNL A   1      49.036  26.825  26.017  1.00  0.00     0.064 A 
ATOM     73  C   UNL A   1      50.016  26.322  26.885  1.00  0.00     0.173 A 
ATOM     74  C   UNL A   1      49.388  27.014  24.674  1.00  0.00     0.173 A 
ATOM     75  F   UNL A   1      49.731  26.143  28.183  1.00  0.00    -0.203 F 
ATOM     76  C   UNL A   1      51.301  26.036  26.431  1.00  0.00     0.198 A 
ATOM     77  C   UNL A   1      50.667  26.703  24.215  1.00  0.00     0.198 A 
ATOM     78  F   UNL A   1      48.483  27.484  23.803  1.00  0.00    -0.203 F 
ATOM     79  F   UNL A   1      52.230  25.595  27.291  1.00  0.00    -0.200 F 
ATOM     80  C   UNL A   1      51.625  26.222  25.095  1.00  0.00     0.200 A 
ATOM     81  F   UNL A   1      50.971  26.871  22.921  1.00  0.00    -0.200 F 
ATOM     82  F   UNL A   1      52.860  25.942  24.659  1.00  0.00    -0.200 F 
ENDBRANCH  48  72
BRANCH  60  83
ATOM     83  C   UNL A   1      46.110  32.517  28.765  1.00  0.00     0.064 A 
ATOM     84  C   UNL A   1      46.034  33.569  27.840  1.00  0.00     0.173 A 
ATOM     85  C   UNL A   1      46.687  32.781  30.016  1.00  0.00     0.173 A 
ATOM     86  F   UNL A   1      45.504  33.362  26.625  1.00  0.00    -0.203 F 
ATOM     87  C   UNL A   1      46.542  34.828  28.146  1.00  0.00     0.198 A 
ATOM     88  C   UNL A   1      47.166  34.049  30.330  1.00  0.00     0.198 A 
ATOM     89  F   UNL A   1      46.776  31.812  30.939  1.00  0.00    -0.203 F 
ATOM     90  F   UNL A   1      46.506  35.803  27.228  1.00  0.00    -0.200 F 
ATOM     91  C   UNL A   1      47.102  35.069  29.392  1.00  0.00     0.200 A 
ATOM     92  F   UNL A   1      47.694  34.284  31.539  1.00  0.00    -0.200 F 
ATOM     93  F   UNL A   1      47.587  36.283  29.686  1.00  0.00    -0.200 F 
ENDBRANCH  60  83
ENDBRANCH  34  35
ENDBRANCH  26  29
ENDBRANCH  24  25
ENDBRANCH  23  24
ENDBRANCH  22  23
ENDBRANCH   1  22
TORSDOF 17
ENDMDL
