MODEL 1
REMARK VINA RESULT:     -12.5      0.000      0.000
REMARK SMILES Cc1csc([C@H](C)Nc2cc(C)c(N)c(C(=O)NCCCCNC(=O)c3ccc(-c4c5nc(c(-c6c(F)c(F)c(F)c(F)c6F)c6ccc([nH]6)c(-c6c(F)c(F)c(F)c(F)c6F)c6nc(c(-c7c(F)c(F)c(F)c(F)c7F)c7ccc4[nH]7)C=C6)C=C5)cc3)c2)n1
REMARK SMILES IDX 20 1 19 2 18 3 16 4 17 5 15 7 9 8 10 9 89 10 11 11 12 12
REMARK SMILES IDX 13 13 8 14 6 16 7 17 5 18 1 19 2 20 3 21 90 22 4 23 14 24
REMARK SMILES IDX 21 27 22 28 23 29 24 30 25 32 26 33 27 34 88 35 28 36 87 37
REMARK SMILES IDX 29 38 30 39 31 40 81 41 32 42 86 43 80 44 82 45 33 46 85 47
REMARK SMILES IDX 79 48 78 49 34 51 66 52 46 53 65 54 47 55 50 56 64 57 83 58
REMARK SMILES IDX 48 59 49 60 63 62 84 63 51 64 35 65 36 66 44 67 37 68 38 69
REMARK SMILES IDX 42 70 45 71 39 72 40 73 43 74 41 75 67 76 68 77 76 78 69 79
REMARK SMILES IDX 70 80 74 81 77 82 71 83 72 84 75 85 73 86 52 87 53 88 61 89
REMARK SMILES IDX 54 90 55 91 59 92 62 93 56 94 57 95 60 96 58 97
REMARK H PARENT 18 6 8 15 14 25 14 26 23 31 82 50 50 61
REMARK Flexibility Score: inf
ROOT
ATOM      1  C   UNL A   1      31.750  30.513  26.711  1.00  0.00     0.023 C 
ENDROOT
BRANCH   1   2
ATOM      2  C   UNL A   1      33.212  30.058  26.782  1.00  0.00     0.116 C 
BRANCH   2   3
ATOM      3  N   UNL A   1      33.697  29.700  25.464  1.00  0.00    -0.352 N 
ATOM      4  C   UNL A   1      33.352  28.720  24.563  1.00  0.00     0.253 C 
ATOM      5  O   UNL A   1      34.029  28.692  23.531  1.00  0.00    -0.269 OA
ATOM      6  H   UNL A   1      34.427  30.281  25.148  1.00  0.00     0.163 HD
BRANCH   4   7
ATOM      7  C   UNL A   1      32.224  27.739  24.748  1.00  0.00     0.065 A 
ATOM      8  C   UNL A   1      31.274  25.748  25.827  1.00  0.00     0.036 A 
ATOM      9  C   UNL A   1      30.080  25.956  25.148  1.00  0.00     0.031 A 
ATOM     10  C   UNL A   1      32.329  26.632  25.598  1.00  0.00     0.041 A 
ATOM     11  C   UNL A   1      29.947  27.010  24.225  1.00  0.00    -0.025 A 
ATOM     12  C   UNL A   1      28.638  27.171  23.501  1.00  0.00     0.046 C 
ATOM     13  C   UNL A   1      31.022  27.905  24.009  1.00  0.00     0.047 A 
BRANCH   8  14
ATOM     14  N   UNL A   1      31.411  24.846  26.871  1.00  0.00    -0.376 N 
ATOM     15  H   UNL A   1      31.303  25.168  27.795  1.00  0.00     0.161 HD
BRANCH  14  16
ATOM     16  C   UNL A   1      31.711  23.423  26.648  1.00  0.00     0.135 C 
ATOM     17  C   UNL A   1      30.345  22.718  26.621  1.00  0.00     0.039 C 
BRANCH  16  18
ATOM     18  C   UNL A   1      32.523  23.169  25.379  1.00  0.00     0.115 A 
ATOM     19  C   UNL A   1      35.762  22.956  23.802  1.00  0.00     0.067 C 
ATOM     20  C   UNL A   1      34.298  22.953  24.051  1.00  0.00     0.049 A 
ATOM     21  C   UNL A   1      33.306  22.645  23.141  1.00  0.00     0.090 A 
ATOM     22  N   UNL A   1      33.840  23.275  25.317  1.00  0.00    -0.244 NA
ATOM     23  S   UNL A   1      31.776  22.677  23.904  1.00  0.00    -0.125 S 
ENDBRANCH  16  18
ENDBRANCH  14  16
ENDBRANCH   8  14
BRANCH  13  24
ATOM     24  N   UNL A   1      30.819  29.030  23.197  1.00  0.00    -0.398 N 
ATOM     25  H   UNL A   1      30.682  29.914  23.607  1.00  0.00     0.156 HD
ATOM     26  H   UNL A   1      30.811  28.935  22.217  1.00  0.00     0.156 HD
ENDBRANCH  13  24
ENDBRANCH   4   7
ENDBRANCH   2   3
ENDBRANCH   1   2
BRANCH   1  27
ATOM     27  C   UNL A   1      31.562  32.033  26.718  1.00  0.00     0.023 C 
BRANCH  27  28
ATOM     28  C   UNL A   1      32.740  32.819  27.282  1.00  0.00     0.116 C 
BRANCH  28  29
ATOM     29  N   UNL A   1      32.408  34.194  27.624  1.00  0.00    -0.352 N 
ATOM     30  C   UNL A   1      32.986  35.002  28.572  1.00  0.00     0.251 C 
ATOM     31  H   UNL A   1      31.673  34.596  27.108  1.00  0.00     0.163 HD
ATOM     32  O   UNL A   1      32.528  36.110  28.811  1.00  0.00    -0.269 OA
BRANCH  30  33
ATOM     33  C   UNL A   1      34.143  34.496  29.338  1.00  0.00     0.039 A 
ATOM     34  C   UNL A   1      33.909  33.850  30.555  1.00  0.00     0.014 A 
ATOM     35  C   UNL A   1      35.443  34.625  28.844  1.00  0.00     0.014 A 
ATOM     36  C   UNL A   1      34.977  33.277  31.247  1.00  0.00     0.010 A 
ATOM     37  C   UNL A   1      36.496  33.995  29.499  1.00  0.00     0.010 A 
ATOM     38  C   UNL A   1      36.272  33.315  30.705  1.00  0.00    -0.014 A 
BRANCH  38  39
ATOM     39  C   UNL A   1      37.406  32.645  31.386  1.00  0.00     0.031 A 
ATOM     40  C   UNL A   1      38.113  31.498  30.721  1.00  0.00     0.074 A 
ATOM     41  C   UNL A   1      37.753  33.027  32.630  1.00  0.00     0.049 A 
ATOM     42  N   UNL A   1      39.081  30.746  31.179  1.00  0.00    -0.248 NA
ATOM     43  C   UNL A   1      37.649  31.127  29.375  1.00  0.00     0.031 C 
ATOM     44  C   UNL A   1      37.104  34.089  33.400  1.00  0.00     0.029 A 
ATOM     45  N   UNL A   1      38.729  32.556  33.472  1.00  0.00    -0.354 N 
ATOM     46  C   UNL A   1      39.330  29.807  30.186  1.00  0.00     0.074 A 
ATOM     47  C   UNL A   1      38.377  30.050  29.125  1.00  0.00     0.031 C 
ATOM     48  C   UNL A   1      37.712  34.202  34.592  1.00  0.00     0.029 A 
ATOM     49  C   UNL A   1      38.771  33.202  34.682  1.00  0.00     0.049 A 
ATOM     50  H   UNL A   1      39.342  31.824  33.230  1.00  0.00     0.167 HD
ATOM     51  C   UNL A   1      40.282  28.845  30.155  1.00  0.00     0.037 A 
ATOM     52  C   UNL A   1      39.573  33.007  35.746  1.00  0.00     0.037 A 
ATOM     53  C   UNL A   1      41.246  28.627  31.201  1.00  0.00     0.049 A 
ATOM     54  C   UNL A   1      40.633  31.942  35.678  1.00  0.00     0.074 A 
ATOM     55  C   UNL A   1      42.293  27.722  31.235  1.00  0.00     0.029 A 
ATOM     56  N   UNL A   1      41.279  29.323  32.400  1.00  0.00    -0.354 N 
ATOM     57  N   UNL A   1      40.909  31.110  34.704  1.00  0.00    -0.248 NA
ATOM     58  C   UNL A   1      41.501  31.796  36.854  1.00  0.00     0.031 C 
ATOM     59  C   UNL A   1      42.935  27.844  32.472  1.00  0.00     0.029 A 
ATOM     60  C   UNL A   1      42.317  28.856  33.190  1.00  0.00     0.049 A 
ATOM     61  H   UNL A   1      40.656  30.042  32.654  1.00  0.00     0.167 HD
ATOM     62  C   UNL A   1      41.995  30.361  35.136  1.00  0.00     0.074 A 
ATOM     63  C   UNL A   1      42.338  30.849  36.456  1.00  0.00     0.031 C 
ATOM     64  C   UNL A   1      42.649  29.360  34.498  1.00  0.00     0.037 A 
BRANCH  51  65
ATOM     65  C   UNL A   1      40.331  27.959  28.945  1.00  0.00     0.064 A 
ATOM     66  C   UNL A   1      39.618  26.751  28.890  1.00  0.00     0.173 A 
ATOM     67  C   UNL A   1      41.071  28.335  27.815  1.00  0.00     0.173 A 
ATOM     68  F   UNL A   1      38.904  26.339  29.949  1.00  0.00    -0.203 F 
ATOM     69  C   UNL A   1      39.670  25.937  27.761  1.00  0.00     0.198 A 
ATOM     70  C   UNL A   1      41.097  27.534  26.676  1.00  0.00     0.198 A 
ATOM     71  F   UNL A   1      41.766  29.482  27.812  1.00  0.00    -0.203 F 
ATOM     72  F   UNL A   1      39.022  24.765  27.751  1.00  0.00    -0.200 F 
ATOM     73  C   UNL A   1      40.404  26.333  26.653  1.00  0.00     0.200 A 
ATOM     74  F   UNL A   1      41.796  27.923  25.600  1.00  0.00    -0.200 F 
ATOM     75  F   UNL A   1      40.447  25.553  25.564  1.00  0.00    -0.200 F 
ENDBRANCH  51  65
BRANCH  52  76
ATOM     76  C   UNL A   1      39.426  33.860  36.953  1.00  0.00     0.064 A 
ATOM     77  C   UNL A   1      38.687  33.417  38.059  1.00  0.00     0.173 A 
ATOM     78  C   UNL A   1      40.017  35.129  37.027  1.00  0.00     0.173 A 
ATOM     79  F   UNL A   1      38.088  32.218  38.026  1.00  0.00    -0.203 F 
ATOM     80  C   UNL A   1      38.528  34.221  39.186  1.00  0.00     0.198 A 
ATOM     81  C   UNL A   1      39.879  35.920  38.165  1.00  0.00     0.198 A 
ATOM     82  F   UNL A   1      40.739  35.595  35.998  1.00  0.00    -0.203 F 
ATOM     83  F   UNL A   1      37.779  33.792  40.211  1.00  0.00    -0.200 F 
ATOM     84  C   UNL A   1      39.128  35.470  39.240  1.00  0.00     0.200 A 
ATOM     85  F   UNL A   1      40.472  37.121  38.220  1.00  0.00    -0.200 F 
ATOM     86  F   UNL A   1      38.977  36.241  40.326  1.00  0.00    -0.200 F 
ENDBRANCH  52  76
BRANCH  64  87
ATOM     87  C   UNL A   1      43.824  28.748  35.204  1.00  0.00     0.064 A 
ATOM     88  C   UNL A   1      45.120  29.261  35.055  1.00  0.00     0.173 A 
ATOM     89  C   UNL A   1      43.641  27.658  36.068  1.00  0.00     0.173 A 
ATOM     90  F   UNL A   1      45.348  30.292  34.227  1.00  0.00    -0.203 F 
ATOM     91  C   UNL A   1      46.196  28.688  35.728  1.00  0.00     0.198 A 
ATOM     92  C   UNL A   1      44.714  27.107  36.762  1.00  0.00     0.198 A 
ATOM     93  F   UNL A   1      42.419  27.134  36.249  1.00  0.00    -0.203 F 
ATOM     94  F   UNL A   1      47.434  29.165  35.536  1.00  0.00    -0.200 F 
ATOM     95  C   UNL A   1      45.992  27.618  36.585  1.00  0.00     0.200 A 
ATOM     96  F   UNL A   1      44.513  26.081  37.599  1.00  0.00    -0.200 F 
ATOM     97  F   UNL A   1      47.027  27.073  37.238  1.00  0.00    -0.200 F 
ENDBRANCH  64  87
ENDBRANCH  38  39
ENDBRANCH  30  33
ENDBRANCH  28  29
ENDBRANCH  27  28
ENDBRANCH   1  27
TORSDOF 15
ENDMDL
MODEL 2
REMARK VINA RESULT:     -12.4      0.953      7.347
REMARK SMILES Cc1csc([C@H](C)Nc2cc(C)c(N)c(C(=O)NCCCCNC(=O)c3ccc(-c4c5nc(c(-c6c(F)c(F)c(F)c(F)c6F)c6ccc([nH]6)c(-c6c(F)c(F)c(F)c(F)c6F)c6nc(c(-c7c(F)c(F)c(F)c(F)c7F)c7ccc4[nH]7)C=C6)C=C5)cc3)c2)n1
REMARK SMILES IDX 20 1 19 2 18 3 16 4 17 5 15 7 9 8 10 9 89 10 11 11 12 12
REMARK SMILES IDX 13 13 8 14 6 16 7 17 5 18 1 19 2 20 3 21 90 22 4 23 14 24
REMARK SMILES IDX 21 27 22 28 23 29 24 30 25 32 26 33 27 34 88 35 28 36 87 37
REMARK SMILES IDX 29 38 30 39 31 40 81 41 32 42 86 43 80 44 82 45 33 46 85 47
REMARK SMILES IDX 79 48 78 49 34 51 66 52 46 53 65 54 47 55 50 56 64 57 83 58
REMARK SMILES IDX 48 59 49 60 63 62 84 63 51 64 35 65 36 66 44 67 37 68 38 69
REMARK SMILES IDX 42 70 45 71 39 72 40 73 43 74 41 75 67 76 68 77 76 78 69 79
REMARK SMILES IDX 70 80 74 81 77 82 71 83 72 84 75 85 73 86 52 87 53 88 61 89
REMARK SMILES IDX 54 90 55 91 59 92 62 93 56 94 57 95 60 96 58 97
REMARK H PARENT 18 6 8 15 14 25 14 26 23 31 82 50 50 61
REMARK Flexibility Score: inf
ROOT
ATOM      1  C   UNL A   1      31.469  30.526  26.493  1.00  0.00     0.023 C 
ENDROOT
BRANCH   1   2
ATOM      2  C   UNL A   1      32.867  29.901  26.448  1.00  0.00     0.116 C 
BRANCH   2   3
ATOM      3  N   UNL A   1      33.316  29.758  25.077  1.00  0.00    -0.352 N 
ATOM      4  C   UNL A   1      32.829  29.072  23.990  1.00  0.00     0.253 C 
ATOM      5  O   UNL A   1      33.517  29.150  22.967  1.00  0.00    -0.269 OA
ATOM      6  H   UNL A   1      34.144  30.256  24.886  1.00  0.00     0.163 HD
BRANCH   4   7
ATOM      7  C   UNL A   1      31.543  28.289  23.971  1.00  0.00     0.065 A 
ATOM      8  C   UNL A   1      30.244  26.292  24.570  1.00  0.00     0.036 A 
ATOM      9  C   UNL A   1      29.113  26.864  24.004  1.00  0.00     0.031 A 
ATOM     10  C   UNL A   1      31.441  27.007  24.525  1.00  0.00     0.041 A 
ATOM     11  C   UNL A   1      29.178  28.118  23.368  1.00  0.00    -0.025 A 
ATOM     12  C   UNL A   1      27.924  28.677  22.750  1.00  0.00     0.046 C 
ATOM     13  C   UNL A   1      30.396  28.837  23.336  1.00  0.00     0.047 A 
BRANCH   8  14
ATOM     14  N   UNL A   1      30.209  25.153  25.360  1.00  0.00    -0.376 N 
ATOM     15  H   UNL A   1      29.763  25.196  26.236  1.00  0.00     0.161 HD
BRANCH  14  16
ATOM     16  C   UNL A   1      30.814  23.881  24.935  1.00  0.00     0.135 C 
ATOM     17  C   UNL A   1      30.845  23.939  23.399  1.00  0.00     0.039 C 
BRANCH  16  18
ATOM     18  C   UNL A   1      32.199  23.640  25.536  1.00  0.00     0.115 A 
ATOM     19  C   UNL A   1      35.775  24.029  25.248  1.00  0.00     0.067 C 
ATOM     20  C   UNL A   1      34.417  23.667  25.730  1.00  0.00     0.049 A 
ATOM     21  C   UNL A   1      34.102  23.048  26.923  1.00  0.00     0.090 A 
ATOM     22  N   UNL A   1      33.327  23.978  24.934  1.00  0.00    -0.244 NA
ATOM     23  S   UNL A   1      32.405  22.927  27.092  1.00  0.00    -0.125 S 
ENDBRANCH  16  18
ENDBRANCH  14  16
ENDBRANCH   8  14
BRANCH  13  24
ATOM     24  N   UNL A   1      30.403  30.143  22.828  1.00  0.00    -0.398 N 
ATOM     25  H   UNL A   1      30.185  30.304  21.882  1.00  0.00     0.156 HD
ATOM     26  H   UNL A   1      30.628  30.899  23.417  1.00  0.00     0.156 HD
ENDBRANCH  13  24
ENDBRANCH   4   7
ENDBRANCH   2   3
ENDBRANCH   1   2
BRANCH   1  27
ATOM     27  C   UNL A   1      31.463  32.058  26.491  1.00  0.00     0.023 C 
BRANCH  27  28
ATOM     28  C   UNL A   1      32.617  32.701  27.249  1.00  0.00     0.116 C 
BRANCH  28  29
ATOM     29  N   UNL A   1      32.366  34.085  27.622  1.00  0.00    -0.352 N 
ATOM     30  C   UNL A   1      33.023  34.852  28.553  1.00  0.00     0.251 C 
ATOM     31  H   UNL A   1      31.629  34.529  27.143  1.00  0.00     0.163 HD
ATOM     32  O   UNL A   1      32.629  35.977  28.825  1.00  0.00    -0.269 OA
BRANCH  30  33
ATOM     33  C   UNL A   1      34.188  34.281  29.260  1.00  0.00     0.039 A 
ATOM     34  C   UNL A   1      33.963  33.494  30.392  1.00  0.00     0.014 A 
ATOM     35  C   UNL A   1      35.486  34.492  28.791  1.00  0.00     0.014 A 
ATOM     36  C   UNL A   1      35.039  32.864  31.018  1.00  0.00     0.010 A 
ATOM     37  C   UNL A   1      36.549  33.809  29.373  1.00  0.00     0.010 A 
ATOM     38  C   UNL A   1      36.335  32.989  30.490  1.00  0.00    -0.014 A 
BRANCH  38  39
ATOM     39  C   UNL A   1      37.479  32.265  31.094  1.00  0.00     0.031 A 
ATOM     40  C   UNL A   1      37.966  32.636  32.467  1.00  0.00     0.074 A 
ATOM     41  C   UNL A   1      38.121  31.321  30.379  1.00  0.00     0.049 A 
ATOM     42  N   UNL A   1      38.986  32.164  33.138  1.00  0.00    -0.248 NA
ATOM     43  C   UNL A   1      37.226  33.698  33.165  1.00  0.00     0.031 C 
ATOM     44  C   UNL A   1      37.776  30.916  29.015  1.00  0.00     0.029 A 
ATOM     45  N   UNL A   1      39.204  30.541  30.693  1.00  0.00    -0.354 N 
ATOM     46  C   UNL A   1      39.019  32.882  34.326  1.00  0.00     0.074 A 
ATOM     47  C   UNL A   1      37.950  33.856  34.263  1.00  0.00     0.031 C 
ATOM     48  C   UNL A   1      38.619  29.948  28.618  1.00  0.00     0.029 A 
ATOM     49  C   UNL A   1      39.580  29.688  29.685  1.00  0.00     0.049 A 
ATOM     50  H   UNL A   1      39.669  30.589  31.561  1.00  0.00     0.167 HD
ATOM     51  C   UNL A   1      39.850  32.727  35.383  1.00  0.00     0.037 A 
ATOM     52  C   UNL A   1      40.589  28.799  29.629  1.00  0.00     0.037 A 
ATOM     53  C   UNL A   1      40.893  31.737  35.452  1.00  0.00     0.049 A 
ATOM     54  C   UNL A   1      41.489  28.635  30.823  1.00  0.00     0.074 A 
ATOM     55  C   UNL A   1      41.746  31.454  36.505  1.00  0.00     0.029 A 
ATOM     56  N   UNL A   1      41.224  30.867  34.424  1.00  0.00    -0.354 N 
ATOM     57  N   UNL A   1      41.463  29.266  31.972  1.00  0.00    -0.248 NA
ATOM     58  C   UNL A   1      42.551  27.626  30.718  1.00  0.00     0.031 C 
ATOM     59  C   UNL A   1      42.620  30.440  36.099  1.00  0.00     0.029 A 
ATOM     60  C   UNL A   1      42.281  30.059  34.810  1.00  0.00     0.049 A 
ATOM     61  H   UNL A   1      40.775  30.829  33.549  1.00  0.00     0.167 HD
ATOM     62  C   UNL A   1      42.485  28.716  32.733  1.00  0.00     0.074 A 
ATOM     63  C   UNL A   1      43.102  27.687  31.922  1.00  0.00     0.031 C 
ATOM     64  C   UNL A   1      42.877  29.034  33.992  1.00  0.00     0.037 A 
BRANCH  51  65
ATOM     65  C   UNL A   1      39.662  33.646  36.554  1.00  0.00     0.064 A 
ATOM     66  C   UNL A   1      40.279  34.905  36.606  1.00  0.00     0.173 A 
ATOM     67  C   UNL A   1      38.830  33.279  37.622  1.00  0.00     0.173 A 
ATOM     68  F   UNL A   1      41.094  35.300  35.616  1.00  0.00    -0.203 F 
ATOM     69  C   UNL A   1      40.094  35.750  37.697  1.00  0.00     0.198 A 
ATOM     70  C   UNL A   1      38.623  34.138  38.698  1.00  0.00     0.198 A 
ATOM     71  F   UNL A   1      38.212  32.089  37.620  1.00  0.00    -0.203 F 
ATOM     72  F   UNL A   1      40.733  36.927  37.747  1.00  0.00    -0.200 F 
ATOM     73  C   UNL A   1      39.262  35.369  38.738  1.00  0.00     0.200 A 
ATOM     74  F   UNL A   1      37.809  33.775  39.698  1.00  0.00    -0.200 F 
ATOM     75  F   UNL A   1      39.080  36.186  39.785  1.00  0.00    -0.200 F 
ENDBRANCH  51  65
BRANCH  52  76
ATOM     76  C   UNL A   1      40.782  27.972  28.410  1.00  0.00     0.064 A 
ATOM     77  C   UNL A   1      40.181  26.711  28.295  1.00  0.00     0.173 A 
ATOM     78  C   UNL A   1      41.569  28.422  27.340  1.00  0.00     0.173 A 
ATOM     79  F   UNL A   1      39.435  26.232  29.301  1.00  0.00    -0.203 F 
ATOM     80  C   UNL A   1      40.375  25.922  27.164  1.00  0.00     0.198 A 
ATOM     81  C   UNL A   1      41.741  27.642  26.198  1.00  0.00     0.198 A 
ATOM     82  F   UNL A   1      42.160  29.623  27.399  1.00  0.00    -0.203 F 
ATOM     83  F   UNL A   1      39.825  24.702  27.099  1.00  0.00    -0.200 F 
ATOM     84  C   UNL A   1      41.151  26.390  26.114  1.00  0.00     0.200 A 
ATOM     85  F   UNL A   1      42.480  28.103  25.179  1.00  0.00    -0.200 F 
ATOM     86  F   UNL A   1      41.335  25.631  25.024  1.00  0.00    -0.200 F 
ENDBRANCH  52  76
BRANCH  64  87
ATOM     87  C   UNL A   1      44.004  28.238  34.581  1.00  0.00     0.064 A 
ATOM     88  C   UNL A   1      45.335  28.673  34.497  1.00  0.00     0.173 A 
ATOM     89  C   UNL A   1      43.743  27.044  35.271  1.00  0.00     0.173 A 
ATOM     90  F   UNL A   1      45.636  29.800  33.834  1.00  0.00    -0.203 F 
ATOM     91  C   UNL A   1      46.367  27.928  35.061  1.00  0.00     0.198 A 
ATOM     92  C   UNL A   1      44.774  26.318  35.858  1.00  0.00     0.198 A 
ATOM     93  F   UNL A   1      42.487  26.588  35.384  1.00  0.00    -0.203 F 
ATOM     94  F   UNL A   1      47.635  28.339  34.929  1.00  0.00    -0.200 F 
ATOM     95  C   UNL A   1      46.086  26.756  35.747  1.00  0.00     0.200 A 
ATOM     96  F   UNL A   1      44.500  25.192  36.532  1.00  0.00    -0.200 F 
ATOM     97  F   UNL A   1      47.080  26.045  36.295  1.00  0.00    -0.200 F 
ENDBRANCH  64  87
ENDBRANCH  38  39
ENDBRANCH  30  33
ENDBRANCH  28  29
ENDBRANCH  27  28
ENDBRANCH   1  27
TORSDOF 15
ENDMDL
MODEL 3
REMARK VINA RESULT:     -12.4      5.717     11.183
REMARK SMILES Cc1csc([C@H](C)Nc2cc(C)c(N)c(C(=O)NCCCCNC(=O)c3ccc(-c4c5nc(c(-c6c(F)c(F)c(F)c(F)c6F)c6ccc([nH]6)c(-c6c(F)c(F)c(F)c(F)c6F)c6nc(c(-c7c(F)c(F)c(F)c(F)c7F)c7ccc4[nH]7)C=C6)C=C5)cc3)c2)n1
REMARK SMILES IDX 20 1 19 2 18 3 16 4 17 5 15 7 9 8 10 9 89 10 11 11 12 12
REMARK SMILES IDX 13 13 8 14 6 16 7 17 5 18 1 19 2 20 3 21 90 22 4 23 14 24
REMARK SMILES IDX 21 27 22 28 23 29 24 30 25 32 26 33 27 34 88 35 28 36 87 37
REMARK SMILES IDX 29 38 30 39 31 40 81 41 32 42 86 43 80 44 82 45 33 46 85 47
REMARK SMILES IDX 79 48 78 49 34 51 66 52 46 53 65 54 47 55 50 56 64 57 83 58
REMARK SMILES IDX 48 59 49 60 63 62 84 63 51 64 35 65 36 66 44 67 37 68 38 69
REMARK SMILES IDX 42 70 45 71 39 72 40 73 43 74 41 75 67 76 68 77 76 78 69 79
REMARK SMILES IDX 70 80 74 81 77 82 71 83 72 84 75 85 73 86 52 87 53 88 61 89
REMARK SMILES IDX 54 90 55 91 59 92 62 93 56 94 57 95 60 96 58 97
REMARK H PARENT 18 6 8 15 14 25 14 26 23 31 82 50 50 61
REMARK Flexibility Score: inf
ROOT
ATOM      1  C   UNL A   1      37.094  21.165  24.452  1.00  0.00     0.023 C 
ENDROOT
BRANCH   1   2
ATOM      2  C   UNL A   1      36.929  22.316  25.450  1.00  0.00     0.116 C 
BRANCH   2   3
ATOM      3  N   UNL A   1      36.012  21.943  26.509  1.00  0.00    -0.352 N 
ATOM      4  C   UNL A   1      34.655  21.725  26.552  1.00  0.00     0.253 C 
ATOM      5  O   UNL A   1      34.200  21.455  27.668  1.00  0.00    -0.269 OA
ATOM      6  H   UNL A   1      36.455  21.820  27.381  1.00  0.00     0.163 HD
BRANCH   4   7
ATOM      7  C   UNL A   1      33.738  21.768  25.359  1.00  0.00     0.065 A 
ATOM      8  C   UNL A   1      32.389  23.031  23.741  1.00  0.00     0.036 A 
ATOM      9  C   UNL A   1      32.089  21.850  23.076  1.00  0.00     0.031 A 
ATOM     10  C   UNL A   1      33.191  22.965  24.880  1.00  0.00     0.041 A 
ATOM     11  C   UNL A   1      32.552  20.611  23.558  1.00  0.00    -0.025 A 
ATOM     12  C   UNL A   1      32.173  19.361  22.810  1.00  0.00     0.046 C 
ATOM     13  C   UNL A   1      33.372  20.558  24.710  1.00  0.00     0.047 A 
BRANCH   8  14
ATOM     14  N   UNL A   1      32.116  24.289  23.223  1.00  0.00    -0.376 N 
ATOM     15  H   UNL A   1      31.183  24.600  23.197  1.00  0.00     0.161 HD
BRANCH  14  16
ATOM     16  C   UNL A   1      33.173  25.175  22.711  1.00  0.00     0.135 C 
ATOM     17  C   UNL A   1      32.856  25.367  21.219  1.00  0.00     0.039 C 
BRANCH  16  18
ATOM     18  C   UNL A   1      33.265  26.503  23.462  1.00  0.00     0.115 A 
ATOM     19  C   UNL A   1      34.061  28.247  26.519  1.00  0.00     0.067 C 
ATOM     20  C   UNL A   1      33.637  27.929  25.131  1.00  0.00     0.049 A 
ATOM     21  C   UNL A   1      33.269  28.830  24.153  1.00  0.00     0.090 A 
ATOM     22  N   UNL A   1      33.608  26.602  24.735  1.00  0.00    -0.244 NA
ATOM     23  S   UNL A   1      32.959  28.012  22.684  1.00  0.00    -0.125 S 
ENDBRANCH  16  18
ENDBRANCH  14  16
ENDBRANCH   8  14
BRANCH  13  24
ATOM     24  N   UNL A   1      33.939  19.333  25.087  1.00  0.00    -0.398 N 
ATOM     25  H   UNL A   1      34.116  19.144  26.036  1.00  0.00     0.156 HD
ATOM     26  H   UNL A   1      34.161  18.663  24.400  1.00  0.00     0.156 HD
ENDBRANCH  13  24
ENDBRANCH   4   7
ENDBRANCH   2   3
ENDBRANCH   1   2
BRANCH   1  27
ATOM     27  C   UNL A   1      37.873  19.965  24.999  1.00  0.00     0.023 C 
BRANCH  27  28
ATOM     28  C   UNL A   1      39.152  20.321  25.746  1.00  0.00     0.116 C 
BRANCH  28  29
ATOM     29  N   UNL A   1      40.095  19.216  25.839  1.00  0.00    -0.352 N 
ATOM     30  C   UNL A   1      41.443  19.263  26.103  1.00  0.00     0.251 C 
ATOM     31  H   UNL A   1      39.717  18.319  25.695  1.00  0.00     0.163 HD
ATOM     32  O   UNL A   1      42.124  18.250  26.051  1.00  0.00    -0.269 OA
BRANCH  30  33
ATOM     33  C   UNL A   1      42.070  20.566  26.404  1.00  0.00     0.039 A 
ATOM     34  C   UNL A   1      42.436  21.394  25.339  1.00  0.00     0.014 A 
ATOM     35  C   UNL A   1      42.264  20.982  27.723  1.00  0.00     0.014 A 
ATOM     36  C   UNL A   1      42.939  22.669  25.600  1.00  0.00     0.010 A 
ATOM     37  C   UNL A   1      42.700  22.277  27.980  1.00  0.00     0.010 A 
ATOM     38  C   UNL A   1      43.041  23.131  26.922  1.00  0.00    -0.014 A 
BRANCH  38  39
ATOM     39  C   UNL A   1      43.499  24.511  27.216  1.00  0.00     0.031 A 
ATOM     40  C   UNL A   1      42.533  25.528  27.754  1.00  0.00     0.074 A 
ATOM     41  C   UNL A   1      44.768  24.864  26.934  1.00  0.00     0.049 A 
ATOM     42  N   UNL A   1      42.726  26.795  28.015  1.00  0.00    -0.248 NA
ATOM     43  C   UNL A   1      41.159  25.064  28.005  1.00  0.00     0.031 C 
ATOM     44  C   UNL A   1      45.782  23.980  26.355  1.00  0.00     0.029 A 
ATOM     45  N   UNL A   1      45.419  26.062  27.083  1.00  0.00    -0.354 N 
ATOM     46  C   UNL A   1      41.498  27.282  28.443  1.00  0.00     0.074 A 
ATOM     47  C   UNL A   1      40.555  26.189  28.358  1.00  0.00     0.031 C 
ATOM     48  C   UNL A   1      46.931  24.661  26.217  1.00  0.00     0.029 A 
ATOM     49  C   UNL A   1      46.727  26.034  26.668  1.00  0.00     0.049 A 
ATOM     50  H   UNL A   1      44.988  26.867  27.453  1.00  0.00     0.167 HD
ATOM     51  C   UNL A   1      41.192  28.524  28.889  1.00  0.00     0.037 A 
ATOM     52  C   UNL A   1      47.655  27.009  26.650  1.00  0.00     0.037 A 
ATOM     53  C   UNL A   1      42.141  29.600  28.999  1.00  0.00     0.049 A 
ATOM     54  C   UNL A   1      47.293  28.375  27.166  1.00  0.00     0.074 A 
ATOM     55  C   UNL A   1      41.946  30.875  29.501  1.00  0.00     0.029 A 
ATOM     56  N   UNL A   1      43.467  29.526  28.599  1.00  0.00    -0.354 N 
ATOM     57  N   UNL A   1      46.149  28.805  27.640  1.00  0.00    -0.248 NA
ATOM     58  C   UNL A   1      48.356  29.390  27.154  1.00  0.00     0.031 C 
ATOM     59  C   UNL A   1      43.144  31.585  29.368  1.00  0.00     0.029 A 
ATOM     60  C   UNL A   1      44.098  30.738  28.826  1.00  0.00     0.049 A 
ATOM     61  H   UNL A   1      43.897  28.730  28.211  1.00  0.00     0.167 HD
ATOM     62  C   UNL A   1      46.359  30.127  28.006  1.00  0.00     0.074 A 
ATOM     63  C   UNL A   1      47.746  30.425  27.714  1.00  0.00     0.031 C 
ATOM     64  C   UNL A   1      45.482  31.014  28.537  1.00  0.00     0.037 A 
BRANCH  51  65
ATOM     65  C   UNL A   1      39.771  28.783  29.296  1.00  0.00     0.064 A 
ATOM     66  C   UNL A   1      38.818  29.253  28.380  1.00  0.00     0.173 A 
ATOM     67  C   UNL A   1      39.349  28.528  30.609  1.00  0.00     0.173 A 
ATOM     68  F   UNL A   1      39.174  29.524  27.115  1.00  0.00    -0.203 F 
ATOM     69  C   UNL A   1      37.502  29.487  28.770  1.00  0.00     0.198 A 
ATOM     70  C   UNL A   1      38.025  28.735  30.989  1.00  0.00     0.198 A 
ATOM     71  F   UNL A   1      40.217  28.073  31.524  1.00  0.00    -0.203 F 
ATOM     72  F   UNL A   1      36.622  29.983  27.890  1.00  0.00    -0.200 F 
ATOM     73  C   UNL A   1      37.105  29.221  30.072  1.00  0.00     0.200 A 
ATOM     74  F   UNL A   1      37.639  28.466  32.244  1.00  0.00    -0.200 F 
ATOM     75  F   UNL A   1      35.836  29.441  30.444  1.00  0.00    -0.200 F 
ENDBRANCH  51  65
BRANCH  52  76
ATOM     76  C   UNL A   1      49.026  26.720  26.157  1.00  0.00     0.064 A 
ATOM     77  C   UNL A   1      49.396  27.031  24.841  1.00  0.00     0.173 A 
ATOM     78  C   UNL A   1      49.991  26.128  26.985  1.00  0.00     0.173 A 
ATOM     79  F   UNL A   1      48.502  27.581  24.007  1.00  0.00    -0.203 F 
ATOM     80  C   UNL A   1      50.674  26.744  24.366  1.00  0.00     0.198 A 
ATOM     81  C   UNL A   1      51.276  25.865  26.516  1.00  0.00     0.198 A 
ATOM     82  F   UNL A   1      49.688  25.816  28.253  1.00  0.00    -0.203 F 
ATOM     83  F   UNL A   1      50.988  27.011  23.091  1.00  0.00    -0.200 F 
ATOM     84  C   UNL A   1      51.615  26.165  25.205  1.00  0.00     0.200 A 
ATOM     85  F   UNL A   1      52.187  25.318  27.333  1.00  0.00    -0.200 F 
ATOM     86  F   UNL A   1      52.844  25.891  24.748  1.00  0.00    -0.200 F 
ENDBRANCH  52  76
BRANCH  64  87
ATOM     87  C   UNL A   1      46.005  32.381  28.868  1.00  0.00     0.064 A 
ATOM     88  C   UNL A   1      46.587  32.665  30.112  1.00  0.00     0.173 A 
ATOM     89  C   UNL A   1      45.955  33.408  27.913  1.00  0.00     0.173 A 
ATOM     90  F   UNL A   1      46.644  31.720  31.062  1.00  0.00    -0.203 F 
ATOM     91  C   UNL A   1      47.079  33.936  30.396  1.00  0.00     0.198 A 
ATOM     92  C   UNL A   1      46.474  34.669  28.192  1.00  0.00     0.198 A 
ATOM     93  F   UNL A   1      45.413  33.186  26.707  1.00  0.00    -0.203 F 
ATOM     94  F   UNL A   1      47.590  34.197  31.608  1.00  0.00    -0.200 F 
ATOM     95  C   UNL A   1      47.029  34.934  29.435  1.00  0.00     0.200 A 
ATOM     96  F   UNL A   1      46.436  35.629  27.258  1.00  0.00    -0.200 F 
ATOM     97  F   UNL A   1      47.509  36.154  29.709  1.00  0.00    -0.200 F 
ENDBRANCH  64  87
ENDBRANCH  38  39
ENDBRANCH  30  33
ENDBRANCH  28  29
ENDBRANCH  27  28
ENDBRANCH   1  27
TORSDOF 15
ENDMDL
