MODEL 1
REMARK VINA RESULT:     -13.0      0.000      0.000
REMARK SMILES Cc1cc(C)n2nc(SCC(=O)N3CCC(C(=O)NCCCCNC(=O)c4ccc(-c5c6nc(c(-c7c(F)c(F)c(F)c(F)c7F)c7ccc([nH]7)c(-c7c(F)c(F)c(F)c(F)c7F)c7nc(c(-c8c(F)c(F)c(F)c(F)c8F)c8ccc5[nH]8)C=C7)C=C6)cc4)CC3)nc2n1
REMARK SMILES IDX 21 1 20 2 19 3 17 4 18 5 16 7 11 8 12 9 13 10 14 11 91 12
REMARK SMILES IDX 15 13 90 14 10 15 9 16 8 17 1 18 2 19 3 20 94 21 4 22 93 23
REMARK SMILES IDX 5 24 6 25 92 26 7 27 22 28 23 29 24 30 25 31 26 33 27 34
REMARK SMILES IDX 28 35 89 36 29 37 88 38 30 39 31 40 32 41 82 42 33 43 87 44
REMARK SMILES IDX 81 45 83 46 34 47 86 48 80 49 79 50 35 52 67 53 47 54 66 55
REMARK SMILES IDX 48 56 51 57 65 58 84 59 49 60 50 61 64 63 85 64 52 65 36 66
REMARK SMILES IDX 37 67 45 68 38 69 39 70 43 71 46 72 40 73 41 74 44 75 42 76
REMARK SMILES IDX 68 77 69 78 77 79 70 80 71 81 75 82 78 83 72 84 73 85 76 86
REMARK SMILES IDX 74 87 53 88 54 89 62 90 55 91 56 92 60 93 63 94 57 95 58 96
REMARK SMILES IDX 61 97 59 98
REMARK H PARENT 19 6 24 32 83 51 51 62
REMARK Flexibility Score: inf
ROOT
ATOM      1  C   UNL A   1      40.800  20.689  26.699  1.00  0.00     0.023 C 
ENDROOT
BRANCH   1   2
ATOM      2  C   UNL A   1      39.742  21.274  25.753  1.00  0.00     0.116 C 
BRANCH   2   3
ATOM      3  N   UNL A   1      39.209  22.543  26.225  1.00  0.00    -0.356 N 
ATOM      4  C   UNL A   1      38.040  23.184  25.943  1.00  0.00     0.223 C 
ATOM      5  O   UNL A   1      37.844  24.275  26.485  1.00  0.00    -0.275 OA
ATOM      6  H   UNL A   1      39.794  23.021  26.857  1.00  0.00     0.163 HD
BRANCH   4   7
ATOM      7  C   UNL A   1      36.987  22.587  25.016  1.00  0.00     0.082 C 
ATOM      8  C   UNL A   1      33.091  22.248  25.549  1.00  0.00     0.233 C 
ATOM      9  O   UNL A   1      33.102  21.795  26.700  1.00  0.00    -0.274 OA
ATOM     10  N   UNL A   1      34.183  22.049  24.708  1.00  0.00    -0.342 N 
ATOM     11  C   UNL A   1      35.057  20.910  24.943  1.00  0.00     0.120 C 
ATOM     12  C   UNL A   1      34.770  23.070  23.852  1.00  0.00     0.120 C 
ATOM     13  C   UNL A   1      36.359  21.318  25.610  1.00  0.00     0.035 C 
ATOM     14  C   UNL A   1      35.997  23.665  24.538  1.00  0.00     0.035 C 
BRANCH   8  15
ATOM     15  C   UNL A   1      31.783  22.735  24.936  1.00  0.00     0.178 C 
BRANCH  15  16
ATOM     16  S   UNL A   1      30.542  23.430  26.023  1.00  0.00    -0.074 SA
BRANCH  16  17
ATOM     17  C   UNL A   1      30.723  25.146  25.851  1.00  0.00     0.211 A 
ATOM     18  C   UNL A   1      32.410  30.549  26.811  1.00  0.00     0.067 C 
ATOM     19  C   UNL A   1      31.818  29.297  26.216  1.00  0.00     0.043 A 
ATOM     20  C   UNL A   1      31.259  29.389  24.828  1.00  0.00     0.047 A 
ATOM     21  N   UNL A   1      31.825  28.221  26.946  1.00  0.00    -0.216 NA
ATOM     22  C   UNL A   1      30.771  28.251  24.300  1.00  0.00     0.045 A 
ATOM     23  C   UNL A   1      31.326  27.090  26.371  1.00  0.00     0.253 A 
ATOM     24  C   UNL A   1      30.191  28.178  22.922  1.00  0.00     0.067 C 
ATOM     25  N   UNL A   1      30.811  27.082  25.067  1.00  0.00    -0.200 N 
ATOM     26  N   UNL A   1      31.253  25.878  26.867  1.00  0.00    -0.183 NA
ATOM     27  N   UNL A   1      30.408  25.825  24.751  1.00  0.00    -0.138 NA
ENDBRANCH  16  17
ENDBRANCH  15  16
ENDBRANCH   8  15
ENDBRANCH   4   7
ENDBRANCH   2   3
ENDBRANCH   1   2
BRANCH   1  28
ATOM     28  C   UNL A   1      41.562  19.457  26.196  1.00  0.00     0.023 C 
BRANCH  28  29
ATOM     29  C   UNL A   1      43.015  19.401  26.634  1.00  0.00     0.116 C 
BRANCH  29  30
ATOM     30  N   UNL A   1      43.963  19.373  25.514  1.00  0.00    -0.352 N 
ATOM     31  C   UNL A   1      44.375  20.431  24.729  1.00  0.00     0.251 C 
ATOM     32  H   UNL A   1      44.352  18.496  25.297  1.00  0.00     0.163 HD
ATOM     33  O   UNL A   1      44.933  20.256  23.644  1.00  0.00    -0.269 OA
BRANCH  31  34
ATOM     34  C   UNL A   1      44.176  21.793  25.234  1.00  0.00     0.039 A 
ATOM     35  C   UNL A   1      43.146  22.625  24.783  1.00  0.00     0.014 A 
ATOM     36  C   UNL A   1      45.050  22.214  26.230  1.00  0.00     0.014 A 
ATOM     37  C   UNL A   1      42.983  23.867  25.393  1.00  0.00     0.010 A 
ATOM     38  C   UNL A   1      44.742  23.311  26.976  1.00  0.00     0.010 A 
ATOM     39  C   UNL A   1      43.787  24.193  26.498  1.00  0.00    -0.014 A 
BRANCH  39  40
ATOM     40  C   UNL A   1      43.627  25.436  27.232  1.00  0.00     0.031 A 
ATOM     41  C   UNL A   1      44.623  26.481  26.896  1.00  0.00     0.074 A 
ATOM     42  C   UNL A   1      42.533  25.678  27.988  1.00  0.00     0.049 A 
ATOM     43  N   UNL A   1      45.540  26.957  27.669  1.00  0.00    -0.248 NA
ATOM     44  C   UNL A   1      44.717  26.947  25.503  1.00  0.00     0.031 C 
ATOM     45  C   UNL A   1      41.331  24.850  28.166  1.00  0.00     0.029 A 
ATOM     46  N   UNL A   1      42.222  26.794  28.698  1.00  0.00    -0.354 N 
ATOM     47  C   UNL A   1      46.206  27.926  26.926  1.00  0.00     0.074 A 
ATOM     48  C   UNL A   1      45.782  27.750  25.562  1.00  0.00     0.031 C 
ATOM     49  C   UNL A   1      40.346  25.585  28.726  1.00  0.00     0.029 A 
ATOM     50  C   UNL A   1      40.893  26.873  29.103  1.00  0.00     0.049 A 
ATOM     51  H   UNL A   1      42.884  27.491  28.908  1.00  0.00     0.167 HD
ATOM     52  C   UNL A   1      46.871  28.940  27.547  1.00  0.00     0.037 A 
ATOM     53  C   UNL A   1      40.292  27.945  29.677  1.00  0.00     0.037 A 
ATOM     54  C   UNL A   1      47.077  28.640  28.942  1.00  0.00     0.049 A 
ATOM     55  C   UNL A   1      41.375  28.792  30.245  1.00  0.00     0.074 A 
ATOM     56  C   UNL A   1      47.744  27.638  29.620  1.00  0.00     0.029 A 
ATOM     57  N   UNL A   1      46.209  29.194  29.853  1.00  0.00    -0.354 N 
ATOM     58  N   UNL A   1      42.130  28.413  31.242  1.00  0.00    -0.248 NA
ATOM     59  C   UNL A   1      41.946  29.814  29.380  1.00  0.00     0.031 C 
ATOM     60  C   UNL A   1      46.898  27.314  30.720  1.00  0.00     0.029 A 
ATOM     61  C   UNL A   1      45.814  28.194  30.705  1.00  0.00     0.049 A 
ATOM     62  H   UNL A   1      45.923  30.135  29.887  1.00  0.00     0.167 HD
ATOM     63  C   UNL A   1      43.410  28.814  30.886  1.00  0.00     0.074 A 
ATOM     64  C   UNL A   1      43.225  29.728  29.758  1.00  0.00     0.031 C 
ATOM     65  C   UNL A   1      44.512  28.140  31.330  1.00  0.00     0.037 A 
BRANCH  52  66
ATOM     66  C   UNL A   1      47.012  30.337  27.003  1.00  0.00     0.064 A 
ATOM     67  C   UNL A   1      48.277  30.959  27.034  1.00  0.00     0.173 A 
ATOM     68  C   UNL A   1      45.922  31.191  26.734  1.00  0.00     0.173 A 
ATOM     69  F   UNL A   1      49.383  30.245  27.299  1.00  0.00    -0.203 F 
ATOM     70  C   UNL A   1      48.424  32.340  26.888  1.00  0.00     0.198 A 
ATOM     71  C   UNL A   1      46.079  32.561  26.534  1.00  0.00     0.198 A 
ATOM     72  F   UNL A   1      44.654  30.761  26.766  1.00  0.00    -0.203 F 
ATOM     73  F   UNL A   1      49.630  32.900  27.054  1.00  0.00    -0.200 F 
ATOM     74  C   UNL A   1      47.325  33.140  26.643  1.00  0.00     0.200 A 
ATOM     75  F   UNL A   1      44.997  33.322  26.317  1.00  0.00    -0.200 F 
ATOM     76  F   UNL A   1      47.454  34.471  26.564  1.00  0.00    -0.200 F 
ENDBRANCH  52  66
BRANCH  53  77
ATOM     77  C   UNL A   1      38.909  28.436  29.453  1.00  0.00     0.064 A 
ATOM     78  C   UNL A   1      38.034  28.679  30.525  1.00  0.00     0.173 A 
ATOM     79  C   UNL A   1      38.506  28.935  28.197  1.00  0.00     0.173 A 
ATOM     80  F   UNL A   1      38.363  28.285  31.764  1.00  0.00    -0.203 F 
ATOM     81  C   UNL A   1      36.840  29.392  30.353  1.00  0.00     0.198 A 
ATOM     82  C   UNL A   1      37.313  29.642  28.026  1.00  0.00     0.198 A 
ATOM     83  F   UNL A   1      39.307  28.833  27.127  1.00  0.00    -0.203 F 
ATOM     84  F   UNL A   1      36.060  29.654  31.412  1.00  0.00    -0.200 F 
ATOM     85  C   UNL A   1      36.485  29.880  29.107  1.00  0.00     0.200 A 
ATOM     86  F   UNL A   1      37.005  30.144  26.822  1.00  0.00    -0.200 F 
ATOM     87  F   UNL A   1      35.375  30.614  28.955  1.00  0.00    -0.200 F 
ENDBRANCH  53  77
BRANCH  65  88
ATOM     88  C   UNL A   1      44.328  27.088  32.390  1.00  0.00     0.064 A 
ATOM     89  C   UNL A   1      44.197  25.713  32.123  1.00  0.00     0.173 A 
ATOM     90  C   UNL A   1      44.496  27.465  33.729  1.00  0.00     0.173 A 
ATOM     91  F   UNL A   1      44.131  25.257  30.867  1.00  0.00    -0.203 F 
ATOM     92  C   UNL A   1      44.213  24.768  33.149  1.00  0.00     0.198 A 
ATOM     93  C   UNL A   1      44.547  26.517  34.749  1.00  0.00     0.198 A 
ATOM     94  F   UNL A   1      44.683  28.757  34.043  1.00  0.00    -0.203 F 
ATOM     95  F   UNL A   1      44.098  23.462  32.862  1.00  0.00    -0.200 F 
ATOM     96  C   UNL A   1      44.400  25.171  34.459  1.00  0.00     0.200 A 
ATOM     97  F   UNL A   1      44.783  26.909  36.008  1.00  0.00    -0.200 F 
ATOM     98  F   UNL A   1      44.474  24.259  35.439  1.00  0.00    -0.200 F 
ENDBRANCH  65  88
ENDBRANCH  39  40
ENDBRANCH  31  34
ENDBRANCH  29  30
ENDBRANCH  28  29
ENDBRANCH   1  28
TORSDOF 14
ENDMDL
MODEL 2
REMARK VINA RESULT:     -13.0      2.945      8.863
REMARK SMILES Cc1cc(C)n2nc(SCC(=O)N3CCC(C(=O)NCCCCNC(=O)c4ccc(-c5c6nc(c(-c7c(F)c(F)c(F)c(F)c7F)c7ccc([nH]7)c(-c7c(F)c(F)c(F)c(F)c7F)c7nc(c(-c8c(F)c(F)c(F)c(F)c8F)c8ccc5[nH]8)C=C7)C=C6)cc4)CC3)nc2n1
REMARK SMILES IDX 21 1 20 2 19 3 17 4 18 5 16 7 11 8 12 9 13 10 14 11 91 12
REMARK SMILES IDX 15 13 90 14 10 15 9 16 8 17 1 18 2 19 3 20 94 21 4 22 93 23
REMARK SMILES IDX 5 24 6 25 92 26 7 27 22 28 23 29 24 30 25 31 26 33 27 34
REMARK SMILES IDX 28 35 89 36 29 37 88 38 30 39 31 40 32 41 82 42 33 43 87 44
REMARK SMILES IDX 81 45 83 46 34 47 86 48 80 49 79 50 35 52 67 53 47 54 66 55
REMARK SMILES IDX 48 56 51 57 65 58 84 59 49 60 50 61 64 63 85 64 52 65 36 66
REMARK SMILES IDX 37 67 45 68 38 69 39 70 43 71 46 72 40 73 41 74 44 75 42 76
REMARK SMILES IDX 68 77 69 78 77 79 70 80 71 81 75 82 78 83 72 84 73 85 76 86
REMARK SMILES IDX 74 87 53 88 54 89 62 90 55 91 56 92 60 93 63 94 57 95 58 96
REMARK SMILES IDX 61 97 59 98
REMARK H PARENT 19 6 24 32 83 51 51 62
REMARK Flexibility Score: inf
ROOT
ATOM      1  C   UNL A   1      32.224  31.140  26.660  1.00  0.00     0.023 C 
ENDROOT
BRANCH   1   2
ATOM      2  C   UNL A   1      31.460  30.448  25.524  1.00  0.00     0.116 C 
BRANCH   2   3
ATOM      3  N   UNL A   1      32.331  29.667  24.658  1.00  0.00    -0.356 N 
ATOM      4  C   UNL A   1      32.541  28.322  24.577  1.00  0.00     0.223 C 
ATOM      5  O   UNL A   1      33.358  27.924  23.744  1.00  0.00    -0.275 OA
ATOM      6  H   UNL A   1      32.858  30.201  24.021  1.00  0.00     0.163 HD
BRANCH   4   7
ATOM      7  C   UNL A   1      31.790  27.325  25.453  1.00  0.00     0.082 C 
ATOM      8  C   UNL A   1      31.100  23.488  24.846  1.00  0.00     0.233 C 
ATOM      9  O   UNL A   1      30.718  23.553  23.672  1.00  0.00    -0.274 OA
ATOM     10  N   UNL A   1      30.961  24.587  25.691  1.00  0.00    -0.342 N 
ATOM     11  C   UNL A   1      29.929  25.572  25.402  1.00  0.00     0.120 C 
ATOM     12  C   UNL A   1      31.982  25.062  26.612  1.00  0.00     0.120 C 
ATOM     13  C   UNL A   1      30.502  26.832  24.779  1.00  0.00     0.035 C 
ATOM     14  C   UNL A   1      32.735  26.230  25.978  1.00  0.00     0.035 C 
BRANCH   8  15
ATOM     15  C   UNL A   1      31.419  22.132  25.468  1.00  0.00     0.178 C 
BRANCH  15  16
ATOM     16  S   UNL A   1      32.379  20.964  24.511  1.00  0.00    -0.074 SA
BRANCH  16  17
ATOM     17  C   UNL A   1      34.028  21.419  24.795  1.00  0.00     0.211 A 
ATOM     18  C   UNL A   1      38.614  24.409  26.526  1.00  0.00     0.067 C 
ATOM     19  C   UNL A   1      37.694  23.340  25.992  1.00  0.00     0.043 A 
ATOM     20  C   UNL A   1      38.295  22.001  25.687  1.00  0.00     0.047 A 
ATOM     21  N   UNL A   1      36.442  23.650  25.825  1.00  0.00    -0.216 NA
ATOM     22  C   UNL A   1      37.451  21.049  25.248  1.00  0.00     0.045 A 
ATOM     23  C   UNL A   1      35.621  22.655  25.383  1.00  0.00     0.253 A 
ATOM     24  C   UNL A   1      37.895  19.659  24.915  1.00  0.00     0.067 C 
ATOM     25  N   UNL A   1      36.096  21.367  25.103  1.00  0.00    -0.200 N 
ATOM     26  N   UNL A   1      34.327  22.690  25.172  1.00  0.00    -0.183 NA
ATOM     27  N   UNL A   1      35.061  20.583  24.706  1.00  0.00    -0.138 NA
ENDBRANCH  16  17
ENDBRANCH  15  16
ENDBRANCH   8  15
ENDBRANCH   4   7
ENDBRANCH   2   3
ENDBRANCH   1   2
BRANCH   1  28
ATOM     28  C   UNL A   1      33.304  30.310  27.364  1.00  0.00     0.023 C 
BRANCH  28  29
ATOM     29  C   UNL A   1      34.550  31.093  27.735  1.00  0.00     0.116 C 
BRANCH  29  30
ATOM     30  N   UNL A   1      34.432  31.815  29.006  1.00  0.00    -0.352 N 
ATOM     31  C   UNL A   1      35.248  31.716  30.115  1.00  0.00     0.251 C 
ATOM     32  H   UNL A   1      33.680  32.447  29.077  1.00  0.00     0.163 HD
ATOM     33  O   UNL A   1      34.896  32.132  31.220  1.00  0.00    -0.269 OA
BRANCH  31  34
ATOM     34  C   UNL A   1      36.584  31.134  29.948  1.00  0.00     0.039 A 
ATOM     35  C   UNL A   1      37.734  31.912  29.788  1.00  0.00     0.014 A 
ATOM     36  C   UNL A   1      36.660  29.747  29.996  1.00  0.00     0.014 A 
ATOM     37  C   UNL A   1      38.967  31.267  29.732  1.00  0.00     0.010 A 
ATOM     38  C   UNL A   1      37.869  29.146  30.181  1.00  0.00     0.010 A 
ATOM     39  C   UNL A   1      39.019  29.878  29.938  1.00  0.00    -0.014 A 
BRANCH  39  40
ATOM     40  C   UNL A   1      40.273  29.146  29.968  1.00  0.00     0.031 A 
ATOM     41  C   UNL A   1      40.845  28.963  31.324  1.00  0.00     0.074 A 
ATOM     42  C   UNL A   1      40.747  28.507  28.877  1.00  0.00     0.049 A 
ATOM     43  N   UNL A   1      41.939  29.472  31.780  1.00  0.00    -0.248 NA
ATOM     44  C   UNL A   1      40.045  28.261  32.341  1.00  0.00     0.031 C 
ATOM     45  C   UNL A   1      40.129  28.356  27.552  1.00  0.00     0.029 A 
ATOM     46  N   UNL A   1      41.874  27.757  28.755  1.00  0.00    -0.354 N 
ATOM     47  C   UNL A   1      42.072  28.999  33.080  1.00  0.00     0.074 A 
ATOM     48  C   UNL A   1      40.803  28.415  33.429  1.00  0.00     0.031 C 
ATOM     49  C   UNL A   1      40.760  27.385  26.857  1.00  0.00     0.029 A 
ATOM     50  C   UNL A   1      41.925  26.967  27.611  1.00  0.00     0.049 A 
ATOM     51  H   UNL A   1      42.595  27.770  29.425  1.00  0.00     0.167 HD
ATOM     52  C   UNL A   1      43.298  28.925  33.669  1.00  0.00     0.037 A 
ATOM     53  C   UNL A   1      42.852  26.016  27.333  1.00  0.00     0.037 A 
ATOM     54  C   UNL A   1      44.266  29.706  32.940  1.00  0.00     0.049 A 
ATOM     55  C   UNL A   1      44.039  26.312  28.180  1.00  0.00     0.074 A 
ATOM     56  C   UNL A   1      44.375  31.047  32.625  1.00  0.00     0.029 A 
ATOM     57  N   UNL A   1      45.095  29.047  32.064  1.00  0.00    -0.354 N 
ATOM     58  N   UNL A   1      44.778  27.379  28.028  1.00  0.00    -0.248 NA
ATOM     59  C   UNL A   1      44.084  25.702  29.501  1.00  0.00     0.031 C 
ATOM     60  C   UNL A   1      44.852  31.069  31.282  1.00  0.00     0.029 A 
ATOM     61  C   UNL A   1      45.093  29.752  30.887  1.00  0.00     0.049 A 
ATOM     62  H   UNL A   1      45.597  28.221  32.248  1.00  0.00     0.167 HD
ATOM     63  C   UNL A   1      45.030  27.820  29.319  1.00  0.00     0.074 A 
ATOM     64  C   UNL A   1      44.630  26.711  30.186  1.00  0.00     0.031 C 
ATOM     65  C   UNL A   1      45.247  29.142  29.586  1.00  0.00     0.037 A 
BRANCH  52  66
ATOM     66  C   UNL A   1      43.711  27.878  34.670  1.00  0.00     0.064 A 
ATOM     67  C   UNL A   1      43.588  26.516  34.327  1.00  0.00     0.173 A 
ATOM     68  C   UNL A   1      43.933  28.142  36.039  1.00  0.00     0.173 A 
ATOM     69  F   UNL A   1      43.357  26.151  33.055  1.00  0.00    -0.203 F 
ATOM     70  C   UNL A   1      43.606  25.507  35.291  1.00  0.00     0.198 A 
ATOM     71  C   UNL A   1      44.005  27.127  36.991  1.00  0.00     0.198 A 
ATOM     72  F   UNL A   1      43.975  29.387  36.527  1.00  0.00    -0.203 F 
ATOM     73  F   UNL A   1      43.356  24.240  34.932  1.00  0.00    -0.200 F 
ATOM     74  C   UNL A   1      43.808  25.814  36.623  1.00  0.00     0.200 A 
ATOM     75  F   UNL A   1      44.182  27.448  38.280  1.00  0.00    -0.200 F 
ATOM     76  F   UNL A   1      43.765  24.855  37.558  1.00  0.00    -0.200 F 
ENDBRANCH  52  66
BRANCH  53  77
ATOM     77  C   UNL A   1      42.636  24.708  26.665  1.00  0.00     0.064 A 
ATOM     78  C   UNL A   1      43.276  24.387  25.456  1.00  0.00     0.173 A 
ATOM     79  C   UNL A   1      42.008  23.639  27.338  1.00  0.00     0.173 A 
ATOM     80  F   UNL A   1      43.942  25.332  24.776  1.00  0.00    -0.203 F 
ATOM     81  C   UNL A   1      43.299  23.077  24.961  1.00  0.00     0.198 A 
ATOM     82  C   UNL A   1      42.029  22.334  26.842  1.00  0.00     0.198 A 
ATOM     83  F   UNL A   1      41.444  23.821  28.541  1.00  0.00    -0.203 F 
ATOM     84  F   UNL A   1      43.970  22.800  23.833  1.00  0.00    -0.200 F 
ATOM     85  C   UNL A   1      42.685  22.050  25.659  1.00  0.00     0.200 A 
ATOM     86  F   UNL A   1      41.465  21.345  27.550  1.00  0.00    -0.200 F 
ATOM     87  F   UNL A   1      42.760  20.787  25.218  1.00  0.00    -0.200 F 
ENDBRANCH  53  77
BRANCH  65  88
ATOM     88  C   UNL A   1      45.427  30.086  28.428  1.00  0.00     0.064 A 
ATOM     89  C   UNL A   1      44.377  30.795  27.818  1.00  0.00     0.173 A 
ATOM     90  C   UNL A   1      46.733  30.436  28.061  1.00  0.00     0.173 A 
ATOM     91  F   UNL A   1      43.105  30.594  28.180  1.00  0.00    -0.203 F 
ATOM     92  C   UNL A   1      44.625  31.790  26.872  1.00  0.00     0.198 A 
ATOM     93  C   UNL A   1      46.980  31.454  27.143  1.00  0.00     0.198 A 
ATOM     94  F   UNL A   1      47.779  29.834  28.650  1.00  0.00    -0.203 F 
ATOM     95  F   UNL A   1      43.603  32.459  26.316  1.00  0.00    -0.200 F 
ATOM     96  C   UNL A   1      45.927  32.126  26.545  1.00  0.00     0.200 A 
ATOM     97  F   UNL A   1      48.242  31.812  26.871  1.00  0.00    -0.200 F 
ATOM     98  F   UNL A   1      46.168  33.122  25.681  1.00  0.00    -0.200 F 
ENDBRANCH  65  88
ENDBRANCH  39  40
ENDBRANCH  31  34
ENDBRANCH  29  30
ENDBRANCH  28  29
ENDBRANCH   1  28
TORSDOF 14
ENDMDL
MODEL 3
REMARK VINA RESULT:     -12.7      2.904      9.401
REMARK SMILES Cc1cc(C)n2nc(SCC(=O)N3CCC(C(=O)NCCCCNC(=O)c4ccc(-c5c6nc(c(-c7c(F)c(F)c(F)c(F)c7F)c7ccc([nH]7)c(-c7c(F)c(F)c(F)c(F)c7F)c7nc(c(-c8c(F)c(F)c(F)c(F)c8F)c8ccc5[nH]8)C=C7)C=C6)cc4)CC3)nc2n1
REMARK SMILES IDX 21 1 20 2 19 3 17 4 18 5 16 7 11 8 12 9 13 10 14 11 91 12
REMARK SMILES IDX 15 13 90 14 10 15 9 16 8 17 1 18 2 19 3 20 94 21 4 22 93 23
REMARK SMILES IDX 5 24 6 25 92 26 7 27 22 28 23 29 24 30 25 31 26 33 27 34
REMARK SMILES IDX 28 35 89 36 29 37 88 38 30 39 31 40 32 41 82 42 33 43 87 44
REMARK SMILES IDX 81 45 83 46 34 47 86 48 80 49 79 50 35 52 67 53 47 54 66 55
REMARK SMILES IDX 48 56 51 57 65 58 84 59 49 60 50 61 64 63 85 64 52 65 36 66
REMARK SMILES IDX 37 67 45 68 38 69 39 70 43 71 46 72 40 73 41 74 44 75 42 76
REMARK SMILES IDX 68 77 69 78 77 79 70 80 71 81 75 82 78 83 72 84 73 85 76 86
REMARK SMILES IDX 74 87 53 88 54 89 62 90 55 91 56 92 60 93 63 94 57 95 58 96
REMARK SMILES IDX 61 97 59 98
REMARK H PARENT 19 6 24 32 83 51 51 62
REMARK Flexibility Score: inf
ROOT
ATOM      1  C   UNL A   1      32.005  29.493  25.369  1.00  0.00     0.023 C 
ENDROOT
BRANCH   1   2
ATOM      2  C   UNL A   1      31.390  28.636  24.255  1.00  0.00     0.116 C 
BRANCH   2   3
ATOM      3  N   UNL A   1      32.283  28.474  23.116  1.00  0.00    -0.356 N 
ATOM      4  C   UNL A   1      33.004  27.399  22.690  1.00  0.00     0.223 C 
ATOM      5  O   UNL A   1      33.699  27.545  21.681  1.00  0.00    -0.275 OA
ATOM      6  H   UNL A   1      32.382  29.279  22.558  1.00  0.00     0.163 HD
BRANCH   4   7
ATOM      7  C   UNL A   1      32.954  26.050  23.399  1.00  0.00     0.082 C 
ATOM      8  C   UNL A   1      35.766  23.303  23.747  1.00  0.00     0.233 C 
ATOM      9  O   UNL A   1      36.135  23.267  22.568  1.00  0.00    -0.274 OA
ATOM     10  N   UNL A   1      34.470  23.704  24.064  1.00  0.00    -0.342 N 
ATOM     11  C   UNL A   1      33.422  23.558  23.065  1.00  0.00     0.120 C 
ATOM     12  C   UNL A   1      34.122  24.609  25.149  1.00  0.00     0.120 C 
ATOM     13  C   UNL A   1      33.070  24.882  22.410  1.00  0.00     0.035 C 
ATOM     14  C   UNL A   1      33.925  26.018  24.593  1.00  0.00     0.035 C 
BRANCH   8  15
ATOM     15  C   UNL A   1      36.594  22.611  24.825  1.00  0.00     0.178 C 
BRANCH  15  16
ATOM     16  S   UNL A   1      37.539  23.628  25.954  1.00  0.00    -0.074 SA
BRANCH  16  17
ATOM     17  C   UNL A   1      38.881  22.633  26.419  1.00  0.00     0.211 A 
ATOM     18  C   UNL A   1      42.743  18.385  26.427  1.00  0.00     0.067 C 
ATOM     19  C   UNL A   1      41.973  19.648  26.719  1.00  0.00     0.043 A 
ATOM     20  C   UNL A   1      42.587  20.626  27.674  1.00  0.00     0.047 A 
ATOM     21  N   UNL A   1      40.825  19.805  26.128  1.00  0.00    -0.216 NA
ATOM     22  C   UNL A   1      41.903  21.765  27.891  1.00  0.00     0.045 A 
ATOM     23  C   UNL A   1      40.168  20.974  26.372  1.00  0.00     0.253 A 
ATOM     24  C   UNL A   1      42.390  22.845  28.806  1.00  0.00     0.067 C 
ATOM     25  N   UNL A   1      40.685  21.955  27.229  1.00  0.00    -0.200 N 
ATOM     26  N   UNL A   1      39.027  21.394  25.880  1.00  0.00    -0.183 NA
ATOM     27  N   UNL A   1      39.836  23.013  27.265  1.00  0.00    -0.138 NA
ENDBRANCH  16  17
ENDBRANCH  15  16
ENDBRANCH   8  15
ENDBRANCH   4   7
ENDBRANCH   2   3
ENDBRANCH   1   2
BRANCH   1  28
ATOM     28  C   UNL A   1      33.500  29.289  25.644  1.00  0.00     0.023 C 
BRANCH  28  29
ATOM     29  C   UNL A   1      33.946  29.735  27.025  1.00  0.00     0.116 C 
BRANCH  29  30
ATOM     30  N   UNL A   1      34.181  31.180  27.126  1.00  0.00    -0.352 N 
ATOM     31  C   UNL A   1      35.208  31.827  27.784  1.00  0.00     0.251 C 
ATOM     32  H   UNL A   1      33.527  31.758  26.670  1.00  0.00     0.163 HD
ATOM     33  O   UNL A   1      35.149  33.027  28.058  1.00  0.00    -0.269 OA
BRANCH  31  34
ATOM     34  C   UNL A   1      36.412  31.060  28.119  1.00  0.00     0.039 A 
ATOM     35  C   UNL A   1      36.690  29.807  27.567  1.00  0.00     0.014 A 
ATOM     36  C   UNL A   1      37.301  31.667  28.999  1.00  0.00     0.014 A 
ATOM     37  C   UNL A   1      37.907  29.202  27.877  1.00  0.00     0.010 A 
ATOM     38  C   UNL A   1      38.573  31.190  29.106  1.00  0.00     0.010 A 
ATOM     39  C   UNL A   1      38.844  29.913  28.645  1.00  0.00    -0.014 A 
BRANCH  39  40
ATOM     40  C   UNL A   1      40.161  29.380  28.947  1.00  0.00     0.031 A 
ATOM     41  C   UNL A   1      40.367  29.022  30.371  1.00  0.00     0.074 A 
ATOM     42  C   UNL A   1      41.031  29.043  27.970  1.00  0.00     0.049 A 
ATOM     43  N   UNL A   1      41.172  29.588  31.205  1.00  0.00    -0.248 NA
ATOM     44  C   UNL A   1      39.474  28.026  30.987  1.00  0.00     0.031 C 
ATOM     45  C   UNL A   1      40.839  29.065  26.513  1.00  0.00     0.029 A 
ATOM     46  N   UNL A   1      42.273  28.504  28.089  1.00  0.00    -0.354 N 
ATOM     47  C   UNL A   1      41.037  28.895  32.403  1.00  0.00     0.074 A 
ATOM     48  C   UNL A   1      39.862  28.075  32.264  1.00  0.00     0.031 C 
ATOM     49  C   UNL A   1      41.815  28.351  25.910  1.00  0.00     0.029 A 
ATOM     50  C   UNL A   1      42.789  27.969  26.913  1.00  0.00     0.049 A 
ATOM     51  H   UNL A   1      42.768  28.492  28.940  1.00  0.00     0.167 HD
ATOM     52  C   UNL A   1      42.045  28.887  33.318  1.00  0.00     0.037 A 
ATOM     53  C   UNL A   1      43.925  27.236  26.795  1.00  0.00     0.037 A 
ATOM     54  C   UNL A   1      43.002  29.929  33.036  1.00  0.00     0.049 A 
ATOM     55  C   UNL A   1      44.753  27.533  27.995  1.00  0.00     0.074 A 
ATOM     56  C   UNL A   1      42.926  31.306  32.965  1.00  0.00     0.029 A 
ATOM     57  N   UNL A   1      44.151  29.582  32.367  1.00  0.00    -0.354 N 
ATOM     58  N   UNL A   1      45.281  28.705  28.228  1.00  0.00    -0.248 NA
ATOM     59  C   UNL A   1      44.556  26.689  29.165  1.00  0.00     0.031 C 
ATOM     60  C   UNL A   1      43.737  31.660  31.847  1.00  0.00     0.029 A 
ATOM     61  C   UNL A   1      44.331  30.495  31.359  1.00  0.00     0.049 A 
ATOM     62  H   UNL A   1      44.737  28.819  32.573  1.00  0.00     0.167 HD
ATOM     63  C   UNL A   1      45.079  28.918  29.584  1.00  0.00     0.074 A 
ATOM     64  C   UNL A   1      44.685  27.615  30.122  1.00  0.00     0.031 C 
ATOM     65  C   UNL A   1      44.950  30.179  30.092  1.00  0.00     0.037 A 
BRANCH  52  66
ATOM     66  C   UNL A   1      42.367  27.737  34.236  1.00  0.00     0.064 A 
ATOM     67  C   UNL A   1      42.974  26.583  33.699  1.00  0.00     0.173 A 
ATOM     68  C   UNL A   1      41.842  27.599  35.538  1.00  0.00     0.173 A 
ATOM     69  F   UNL A   1      43.492  26.596  32.461  1.00  0.00    -0.203 F 
ATOM     70  C   UNL A   1      42.980  25.366  34.385  1.00  0.00     0.198 A 
ATOM     71  C   UNL A   1      41.899  26.397  36.240  1.00  0.00     0.198 A 
ATOM     72  F   UNL A   1      41.155  28.578  36.138  1.00  0.00    -0.203 F 
ATOM     73  F   UNL A   1      43.453  24.267  33.782  1.00  0.00    -0.200 F 
ATOM     74  C   UNL A   1      42.437  25.273  35.652  1.00  0.00     0.200 A 
ATOM     75  F   UNL A   1      41.349  26.322  37.460  1.00  0.00    -0.200 F 
ATOM     76  F   UNL A   1      42.386  24.094  36.286  1.00  0.00    -0.200 F 
ENDBRANCH  52  66
BRANCH  53  77
ATOM     77  C   UNL A   1      44.161  26.067  25.912  1.00  0.00     0.064 A 
ATOM     78  C   UNL A   1      45.444  25.759  25.430  1.00  0.00     0.173 A 
ATOM     79  C   UNL A   1      43.178  25.069  25.744  1.00  0.00     0.173 A 
ATOM     80  F   UNL A   1      46.452  26.629  25.594  1.00  0.00    -0.203 F 
ATOM     81  C   UNL A   1      45.729  24.524  24.832  1.00  0.00     0.198 A 
ATOM     82  C   UNL A   1      43.462  23.841  25.144  1.00  0.00     0.198 A 
ATOM     83  F   UNL A   1      41.945  25.227  26.245  1.00  0.00    -0.203 F 
ATOM     84  F   UNL A   1      46.980  24.245  24.436  1.00  0.00    -0.200 F 
ATOM     85  C   UNL A   1      44.741  23.563  24.698  1.00  0.00     0.200 A 
ATOM     86  F   UNL A   1      42.505  22.906  25.059  1.00  0.00    -0.200 F 
ATOM     87  F   UNL A   1      45.027  22.360  24.182  1.00  0.00    -0.200 F 
ENDBRANCH  53  77
BRANCH  65  88
ATOM     88  C   UNL A   1      45.250  31.347  29.191  1.00  0.00     0.064 A 
ATOM     89  C   UNL A   1      44.323  31.909  28.294  1.00  0.00     0.173 A 
ATOM     90  C   UNL A   1      46.448  32.045  29.393  1.00  0.00     0.173 A 
ATOM     91  F   UNL A   1      43.116  31.362  28.115  1.00  0.00    -0.203 F 
ATOM     92  C   UNL A   1      44.595  33.099  27.619  1.00  0.00     0.198 A 
ATOM     93  C   UNL A   1      46.702  33.251  28.745  1.00  0.00     0.198 A 
ATOM     94  F   UNL A   1      47.347  31.589  30.279  1.00  0.00    -0.203 F 
ATOM     95  F   UNL A   1      43.687  33.618  26.778  1.00  0.00    -0.200 F 
ATOM     96  C   UNL A   1      45.780  33.775  27.855  1.00  0.00     0.200 A 
ATOM     97  F   UNL A   1      47.826  33.928  29.019  1.00  0.00    -0.200 F 
ATOM     98  F   UNL A   1      46.017  34.948  27.252  1.00  0.00    -0.200 F 
ENDBRANCH  65  88
ENDBRANCH  39  40
ENDBRANCH  31  34
ENDBRANCH  29  30
ENDBRANCH  28  29
ENDBRANCH   1  28
TORSDOF 14
ENDMDL
