MODEL 1
REMARK VINA RESULT:     -12.5      0.000      0.000
REMARK SMILES Nc1c(N2CCCC2)ncnc1N1CCC(C(=O)NCCCCNC(=O)c2ccc(-c3c4nc(c(-c5c(F)c(F)c(F)c(F)c5F)c5ccc([nH]5)c(-c5c(F)c(F)c(F)c(F)c5F)c5nc(c(-c6c(F)c(F)c(F)c(F)c6F)c6ccc3[nH]6)C=C5)C=C4)cc2)CC1
REMARK SMILES IDX 21 1 20 2 19 3 17 4 18 5 16 7 13 8 14 9 91 10 15 11 90 12
REMARK SMILES IDX 12 13 2 14 3 15 9 16 11 17 10 18 1 19 4 22 5 23 8 24 6 25
REMARK SMILES IDX 7 26 22 27 23 28 24 29 25 30 26 32 27 33 28 34 89 35 29 36
REMARK SMILES IDX 88 37 30 38 31 39 32 40 82 41 33 42 87 43 81 44 83 45 34 46
REMARK SMILES IDX 86 47 80 48 79 49 35 51 67 52 47 53 66 54 48 55 51 56 65 57
REMARK SMILES IDX 84 58 49 59 50 60 64 62 85 63 52 64 36 65 37 66 45 67 38 68
REMARK SMILES IDX 39 69 43 70 46 71 40 72 41 73 44 74 42 75 68 76 69 77 77 78
REMARK SMILES IDX 70 79 71 80 75 81 78 82 72 83 73 84 76 85 74 86 53 87 54 88
REMARK SMILES IDX 62 89 55 90 56 91 60 92 63 93 57 94 58 95 61 96 59 97
REMARK H PARENT 19 6 1 20 1 21 24 31 83 50 51 61
REMARK Flexibility Score: inf
ROOT
ATOM      1  C   UNL A   1      31.833  30.528  26.649  1.00  0.00     0.023 C 
ENDROOT
BRANCH   1   2
ATOM      2  C   UNL A   1      31.554  29.980  25.252  1.00  0.00     0.116 C 
BRANCH   2   3
ATOM      3  N   UNL A   1      32.780  29.634  24.547  1.00  0.00    -0.356 N 
ATOM      4  C   UNL A   1      33.306  28.414  24.233  1.00  0.00     0.223 C 
ATOM      5  O   UNL A   1      34.376  28.387  23.622  1.00  0.00    -0.275 OA
ATOM      6  H   UNL A   1      33.316  30.403  24.247  1.00  0.00     0.163 HD
BRANCH   4   7
ATOM      7  C   UNL A   1      32.588  27.123  24.598  1.00  0.00     0.082 C 
ATOM      8  N   UNL A   1      33.040  24.348  24.796  1.00  0.00    -0.355 N 
ATOM      9  C   UNL A   1      32.196  24.747  23.693  1.00  0.00     0.119 C 
ATOM     10  C   UNL A   1      32.892  25.046  26.057  1.00  0.00     0.119 C 
ATOM     11  C   UNL A   1      32.436  26.212  23.366  1.00  0.00     0.035 C 
ATOM     12  C   UNL A   1      33.233  26.512  25.854  1.00  0.00     0.035 C 
BRANCH   8  13
ATOM     13  C   UNL A   1      33.759  23.171  24.701  1.00  0.00     0.157 A 
ATOM     14  C   UNL A   1      33.129  21.919  24.750  1.00  0.00     0.118 A 
ATOM     15  C   UNL A   1      33.970  20.791  24.777  1.00  0.00     0.157 A 
ATOM     16  N   UNL A   1      35.307  20.899  24.745  1.00  0.00    -0.217 NA
ATOM     17  N   UNL A   1      35.096  23.285  24.593  1.00  0.00    -0.217 NA
ATOM     18  C   UNL A   1      35.795  22.142  24.637  1.00  0.00     0.226 A 
BRANCH  14  19
ATOM     19  N   UNL A   1      31.734  21.785  24.884  1.00  0.00    -0.393 N 
ATOM     20  H   UNL A   1      31.294  20.938  24.638  1.00  0.00     0.156 HD
ATOM     21  H   UNL A   1      31.197  22.537  25.223  1.00  0.00     0.156 HD
ENDBRANCH  14  19
BRANCH  15  22
ATOM     22  N   UNL A   1      33.399  19.532  24.838  1.00  0.00    -0.355 N 
ATOM     23  C   UNL A   1      33.893  18.462  23.993  1.00  0.00     0.118 C 
ATOM     24  C   UNL A   1      32.898  18.998  26.092  1.00  0.00     0.118 C 
ATOM     25  C   UNL A   1      32.845  17.391  24.258  1.00  0.00     0.023 C 
ATOM     26  C   UNL A   1      32.566  17.535  25.754  1.00  0.00     0.023 C 
ENDBRANCH  15  22
ENDBRANCH   8  13
ENDBRANCH   4   7
ENDBRANCH   2   3
ENDBRANCH   1   2
BRANCH   1  27
ATOM     27  C   UNL A   1      31.597  32.029  26.803  1.00  0.00     0.023 C 
BRANCH  27  28
ATOM     28  C   UNL A   1      32.810  32.829  27.257  1.00  0.00     0.116 C 
BRANCH  28  29
ATOM     29  N   UNL A   1      32.483  34.198  27.626  1.00  0.00    -0.352 N 
ATOM     30  C   UNL A   1      33.015  34.973  28.627  1.00  0.00     0.251 C 
ATOM     31  H   UNL A   1      31.785  34.629  27.083  1.00  0.00     0.163 HD
ATOM     32  O   UNL A   1      32.539  36.073  28.888  1.00  0.00    -0.269 OA
BRANCH  30  33
ATOM     33  C   UNL A   1      34.150  34.455  29.415  1.00  0.00     0.039 A 
ATOM     34  C   UNL A   1      33.891  33.813  30.628  1.00  0.00     0.014 A 
ATOM     35  C   UNL A   1      35.459  34.574  28.940  1.00  0.00     0.014 A 
ATOM     36  C   UNL A   1      34.941  33.227  31.334  1.00  0.00     0.010 A 
ATOM     37  C   UNL A   1      36.494  33.927  29.608  1.00  0.00     0.010 A 
ATOM     38  C   UNL A   1      36.244  33.249  30.810  1.00  0.00    -0.014 A 
BRANCH  38  39
ATOM     39  C   UNL A   1      37.362  32.577  31.514  1.00  0.00     0.031 A 
ATOM     40  C   UNL A   1      38.065  31.419  30.867  1.00  0.00     0.074 A 
ATOM     41  C   UNL A   1      37.710  32.979  32.751  1.00  0.00     0.049 A 
ATOM     42  N   UNL A   1      39.026  30.667  31.340  1.00  0.00    -0.248 NA
ATOM     43  C   UNL A   1      37.613  31.040  29.519  1.00  0.00     0.031 C 
ATOM     44  C   UNL A   1      37.076  34.068  33.496  1.00  0.00     0.029 A 
ATOM     45  N   UNL A   1      38.683  32.517  33.602  1.00  0.00    -0.354 N 
ATOM     46  C   UNL A   1      39.287  29.728  30.353  1.00  0.00     0.074 A 
ATOM     47  C   UNL A   1      38.347  29.964  29.279  1.00  0.00     0.031 C 
ATOM     48  C   UNL A   1      37.697  34.210  34.678  1.00  0.00     0.029 A 
ATOM     49  C   UNL A   1      38.749  33.203  34.789  1.00  0.00     0.049 A 
ATOM     50  H   UNL A   1      39.278  31.763  33.382  1.00  0.00     0.167 HD
ATOM     51  C   UNL A   1      40.245  28.771  30.332  1.00  0.00     0.037 A 
ATOM     52  C   UNL A   1      39.566  33.037  35.847  1.00  0.00     0.037 A 
ATOM     53  C   UNL A   1      41.195  28.556  31.390  1.00  0.00     0.049 A 
ATOM     54  C   UNL A   1      40.609  31.954  35.806  1.00  0.00     0.074 A 
ATOM     55  C   UNL A   1      42.233  27.642  31.442  1.00  0.00     0.029 A 
ATOM     56  N   UNL A   1      41.225  29.267  32.580  1.00  0.00    -0.354 N 
ATOM     57  N   UNL A   1      40.879  31.103  34.848  1.00  0.00    -0.248 NA
ATOM     58  C   UNL A   1      41.462  31.810  36.995  1.00  0.00     0.031 C 
ATOM     59  C   UNL A   1      42.869  27.776  32.680  1.00  0.00     0.029 A 
ATOM     60  C   UNL A   1      42.254  28.800  33.382  1.00  0.00     0.049 A 
ATOM     61  H   UNL A   1      40.607  29.994  32.819  1.00  0.00     0.167 HD
ATOM     62  C   UNL A   1      41.941  30.336  35.306  1.00  0.00     0.074 A 
ATOM     63  C   UNL A   1      42.278  30.832  36.624  1.00  0.00     0.031 C 
ATOM     64  C   UNL A   1      42.578  29.310  34.689  1.00  0.00     0.037 A 
BRANCH  51  65
ATOM     65  C   UNL A   1      40.327  27.899  29.116  1.00  0.00     0.064 A 
ATOM     66  C   UNL A   1      39.599  26.704  29.025  1.00  0.00     0.173 A 
ATOM     67  C   UNL A   1      41.101  28.283  28.010  1.00  0.00     0.173 A 
ATOM     68  F   UNL A   1      38.856  26.286  30.061  1.00  0.00    -0.203 F 
ATOM     69  C   UNL A   1      39.657  25.914  27.880  1.00  0.00     0.198 A 
ATOM     70  C   UNL A   1      41.135  27.505  26.856  1.00  0.00     0.198 A 
ATOM     71  F   UNL A   1      41.813  29.420  28.044  1.00  0.00    -0.203 F 
ATOM     72  F   UNL A   1      38.983  24.756  27.832  1.00  0.00    -0.200 F 
ATOM     73  C   UNL A   1      40.419  26.319  26.794  1.00  0.00     0.200 A 
ATOM     74  F   UNL A   1      41.862  27.902  25.803  1.00  0.00    -0.200 F 
ATOM     75  F   UNL A   1      40.464  25.564  25.688  1.00  0.00    -0.200 F 
ENDBRANCH  51  65
BRANCH  52  76
ATOM     76  C   UNL A   1      39.455  33.949  37.014  1.00  0.00     0.064 A 
ATOM     77  C   UNL A   1      38.707  33.578  38.141  1.00  0.00     0.173 A 
ATOM     78  C   UNL A   1      40.104  35.191  37.040  1.00  0.00     0.173 A 
ATOM     79  F   UNL A   1      38.053  32.407  38.154  1.00  0.00    -0.203 F 
ATOM     80  C   UNL A   1      38.606  34.420  39.246  1.00  0.00     0.198 A 
ATOM     81  C   UNL A   1      40.021  36.023  38.155  1.00  0.00     0.198 A 
ATOM     82  F   UNL A   1      40.834  35.590  35.988  1.00  0.00    -0.203 F 
ATOM     83  F   UNL A   1      37.859  34.056  40.297  1.00  0.00    -0.200 F 
ATOM     84  C   UNL A   1      39.268  35.638  39.256  1.00  0.00     0.200 A 
ATOM     85  F   UNL A   1      40.672  37.194  38.166  1.00  0.00    -0.200 F 
ATOM     86  F   UNL A   1      39.177  36.445  40.321  1.00  0.00    -0.200 F 
ENDBRANCH  52  76
BRANCH  64  87
ATOM     87  C   UNL A   1      43.714  28.661  35.420  1.00  0.00     0.064 A 
ATOM     88  C   UNL A   1      43.504  27.566  36.270  1.00  0.00     0.173 A 
ATOM     89  C   UNL A   1      45.034  29.086  35.203  1.00  0.00     0.173 A 
ATOM     90  F   UNL A   1      42.259  27.133  36.517  1.00  0.00    -0.203 F 
ATOM     91  C   UNL A   1      44.576  26.926  36.885  1.00  0.00     0.198 A 
ATOM     92  C   UNL A   1      46.103  28.427  35.801  1.00  0.00     0.198 A 
ATOM     93  F   UNL A   1      45.285  30.124  34.392  1.00  0.00    -0.203 F 
ATOM     94  F   UNL A   1      44.351  25.899  37.717  1.00  0.00    -0.200 F 
ATOM     95  C   UNL A   1      45.874  27.350  36.643  1.00  0.00     0.200 A 
ATOM     96  F   UNL A   1      47.358  28.829  35.554  1.00  0.00    -0.200 F 
ATOM     97  F   UNL A   1      46.905  26.720  37.223  1.00  0.00    -0.200 F 
ENDBRANCH  64  87
ENDBRANCH  38  39
ENDBRANCH  30  33
ENDBRANCH  28  29
ENDBRANCH  27  28
ENDBRANCH   1  27
TORSDOF 14
ENDMDL
MODEL 2
REMARK VINA RESULT:     -12.5      5.600     11.497
REMARK SMILES Nc1c(N2CCCC2)ncnc1N1CCC(C(=O)NCCCCNC(=O)c2ccc(-c3c4nc(c(-c5c(F)c(F)c(F)c(F)c5F)c5ccc([nH]5)c(-c5c(F)c(F)c(F)c(F)c5F)c5nc(c(-c6c(F)c(F)c(F)c(F)c6F)c6ccc3[nH]6)C=C5)C=C4)cc2)CC1
REMARK SMILES IDX 21 1 20 2 19 3 17 4 18 5 16 7 13 8 14 9 91 10 15 11 90 12
REMARK SMILES IDX 12 13 2 14 3 15 9 16 11 17 10 18 1 19 4 22 5 23 8 24 6 25
REMARK SMILES IDX 7 26 22 27 23 28 24 29 25 30 26 32 27 33 28 34 89 35 29 36
REMARK SMILES IDX 88 37 30 38 31 39 32 40 82 41 33 42 87 43 81 44 83 45 34 46
REMARK SMILES IDX 86 47 80 48 79 49 35 51 67 52 47 53 66 54 48 55 51 56 65 57
REMARK SMILES IDX 84 58 49 59 50 60 64 62 85 63 52 64 36 65 37 66 45 67 38 68
REMARK SMILES IDX 39 69 43 70 46 71 40 72 41 73 44 74 42 75 68 76 69 77 77 78
REMARK SMILES IDX 70 79 71 80 75 81 78 82 72 83 73 84 76 85 74 86 53 87 54 88
REMARK SMILES IDX 62 89 55 90 56 91 60 92 63 93 57 94 58 95 61 96 59 97
REMARK H PARENT 19 6 1 20 1 21 24 31 83 50 51 61
REMARK Flexibility Score: inf
ROOT
ATOM      1  C   UNL A   1      37.118  21.086  24.695  1.00  0.00     0.023 C 
ENDROOT
BRANCH   1   2
ATOM      2  C   UNL A   1      35.667  20.860  25.108  1.00  0.00     0.116 C 
BRANCH   2   3
ATOM      3  N   UNL A   1      35.344  21.531  26.360  1.00  0.00    -0.356 N 
ATOM      4  C   UNL A   1      34.483  22.557  26.617  1.00  0.00     0.223 C 
ATOM      5  O   UNL A   1      34.388  22.955  27.779  1.00  0.00    -0.275 OA
ATOM      6  H   UNL A   1      35.824  21.188  27.148  1.00  0.00     0.163 HD
BRANCH   4   7
ATOM      7  C   UNL A   1      33.641  23.181  25.513  1.00  0.00     0.082 C 
ATOM      8  N   UNL A   1      32.507  25.648  24.756  1.00  0.00    -0.355 N 
ATOM      9  C   UNL A   1      31.556  24.655  25.202  1.00  0.00     0.119 C 
ATOM     10  C   UNL A   1      33.629  25.206  23.953  1.00  0.00     0.119 C 
ATOM     11  C   UNL A   1      32.264  23.610  26.049  1.00  0.00     0.035 C 
ATOM     12  C   UNL A   1      34.471  24.242  24.769  1.00  0.00     0.035 C 
BRANCH   8  13
ATOM     13  C   UNL A   1      32.188  26.987  24.878  1.00  0.00     0.157 A 
ATOM     14  C   UNL A   1      31.187  27.580  24.093  1.00  0.00     0.118 A 
ATOM     15  C   UNL A   1      31.039  28.974  24.208  1.00  0.00     0.157 A 
ATOM     16  N   UNL A   1      31.804  29.706  25.035  1.00  0.00    -0.217 NA
ATOM     17  N   UNL A   1      32.907  27.702  25.763  1.00  0.00    -0.217 NA
ATOM     18  C   UNL A   1      32.685  29.024  25.780  1.00  0.00     0.226 A 
BRANCH  14  19
ATOM     19  N   UNL A   1      30.442  26.849  23.148  1.00  0.00    -0.393 N 
ATOM     20  H   UNL A   1      29.944  26.047  23.428  1.00  0.00     0.156 HD
ATOM     21  H   UNL A   1      30.419  27.139  22.209  1.00  0.00     0.156 HD
ENDBRANCH  14  19
BRANCH  15  22
ATOM     22  N   UNL A   1      30.075  29.610  23.447  1.00  0.00    -0.355 N 
ATOM     23  C   UNL A   1      29.390  30.781  23.960  1.00  0.00     0.118 C 
ATOM     24  C   UNL A   1      30.193  29.684  22.001  1.00  0.00     0.118 C 
ATOM     25  C   UNL A   1      28.321  30.969  22.894  1.00  0.00     0.023 C 
ATOM     26  C   UNL A   1      29.059  30.640  21.596  1.00  0.00     0.023 C 
ENDBRANCH  15  22
ENDBRANCH   8  13
ENDBRANCH   4   7
ENDBRANCH   2   3
ENDBRANCH   1   2
BRANCH   1  27
ATOM     27  C   UNL A   1      38.054  19.917  24.992  1.00  0.00     0.023 C 
BRANCH  27  28
ATOM     28  C   UNL A   1      39.223  20.244  25.911  1.00  0.00     0.116 C 
BRANCH  28  29
ATOM     29  N   UNL A   1      40.215  19.181  25.972  1.00  0.00    -0.352 N 
ATOM     30  C   UNL A   1      41.574  19.278  26.137  1.00  0.00     0.251 C 
ATOM     31  H   UNL A   1      39.863  18.267  25.883  1.00  0.00     0.163 HD
ATOM     32  O   UNL A   1      42.289  18.285  26.040  1.00  0.00    -0.269 OA
BRANCH  30  33
ATOM     33  C   UNL A   1      42.178  20.598  26.398  1.00  0.00     0.039 A 
ATOM     34  C   UNL A   1      42.609  21.369  25.316  1.00  0.00     0.014 A 
ATOM     35  C   UNL A   1      42.286  21.086  27.704  1.00  0.00     0.014 A 
ATOM     36  C   UNL A   1      43.085  22.661  25.538  1.00  0.00     0.010 A 
ATOM     37  C   UNL A   1      42.693  22.399  27.916  1.00  0.00     0.010 A 
ATOM     38  C   UNL A   1      43.096  23.197  26.836  1.00  0.00    -0.014 A 
BRANCH  38  39
ATOM     39  C   UNL A   1      43.539  24.590  27.084  1.00  0.00     0.031 A 
ATOM     40  C   UNL A   1      42.568  25.599  27.626  1.00  0.00     0.074 A 
ATOM     41  C   UNL A   1      44.799  24.955  26.778  1.00  0.00     0.049 A 
ATOM     42  N   UNL A   1      42.745  26.874  27.859  1.00  0.00    -0.248 NA
ATOM     43  C   UNL A   1      41.210  25.116  27.923  1.00  0.00     0.031 C 
ATOM     44  C   UNL A   1      45.820  24.072  26.212  1.00  0.00     0.029 A 
ATOM     45  N   UNL A   1      45.434  26.165  26.897  1.00  0.00    -0.354 N 
ATOM     46  C   UNL A   1      41.525  27.343  28.323  1.00  0.00     0.074 A 
ATOM     47  C   UNL A   1      40.598  26.234  28.284  1.00  0.00     0.031 C 
ATOM     48  C   UNL A   1      46.963  24.763  26.064  1.00  0.00     0.029 A 
ATOM     49  C   UNL A   1      46.745  26.142  26.491  1.00  0.00     0.049 A 
ATOM     50  H   UNL A   1      44.991  26.975  27.241  1.00  0.00     0.167 HD
ATOM     51  C   UNL A   1      41.214  28.583  28.769  1.00  0.00     0.037 A 
ATOM     52  C   UNL A   1      47.667  27.124  26.468  1.00  0.00     0.037 A 
ATOM     53  C   UNL A   1      42.144  29.677  28.831  1.00  0.00     0.049 A 
ATOM     54  C   UNL A   1      47.290  28.498  26.950  1.00  0.00     0.074 A 
ATOM     55  C   UNL A   1      41.936  30.959  29.310  1.00  0.00     0.029 A 
ATOM     56  N   UNL A   1      43.462  29.616  28.404  1.00  0.00    -0.354 N 
ATOM     57  N   UNL A   1      46.146  28.918  27.432  1.00  0.00    -0.248 NA
ATOM     58  C   UNL A   1      48.331  29.533  26.886  1.00  0.00     0.031 C 
ATOM     59  C   UNL A   1      43.119  31.685  29.139  1.00  0.00     0.029 A 
ATOM     60  C   UNL A   1      44.075  30.844  28.593  1.00  0.00     0.049 A 
ATOM     61  H   UNL A   1      43.897  28.820  28.023  1.00  0.00     0.167 HD
ATOM     62  C   UNL A   1      46.333  30.257  27.746  1.00  0.00     0.074 A 
ATOM     63  C   UNL A   1      47.706  30.577  27.414  1.00  0.00     0.031 C 
ATOM     64  C   UNL A   1      45.445  31.142  28.261  1.00  0.00     0.037 A 
BRANCH  51  65
ATOM     65  C   UNL A   1      39.811  28.816  29.246  1.00  0.00     0.064 A 
ATOM     66  C   UNL A   1      38.808  29.260  28.372  1.00  0.00     0.173 A 
ATOM     67  C   UNL A   1      39.454  28.547  30.576  1.00  0.00     0.173 A 
ATOM     68  F   UNL A   1      39.103  29.544  27.095  1.00  0.00    -0.203 F 
ATOM     69  C   UNL A   1      37.502  29.445  28.816  1.00  0.00     0.198 A 
ATOM     70  C   UNL A   1      38.141  28.707  31.010  1.00  0.00     0.198 A 
ATOM     71  F   UNL A   1      40.375  28.116  31.451  1.00  0.00    -0.203 F 
ATOM     72  F   UNL A   1      36.568  29.907  27.973  1.00  0.00    -0.200 F 
ATOM     73  C   UNL A   1      37.168  29.161  30.132  1.00  0.00     0.200 A 
ATOM     74  F   UNL A   1      37.816  28.421  32.278  1.00  0.00    -0.200 F 
ATOM     75  F   UNL A   1      35.907  29.328  30.555  1.00  0.00    -0.200 F 
ENDBRANCH  51  65
BRANCH  52  76
ATOM     76  C   UNL A   1      49.048  26.828  26.008  1.00  0.00     0.064 A 
ATOM     77  C   UNL A   1      50.007  26.331  26.903  1.00  0.00     0.173 A 
ATOM     78  C   UNL A   1      49.433  27.014  24.674  1.00  0.00     0.173 A 
ATOM     79  F   UNL A   1      49.689  26.156  28.194  1.00  0.00    -0.203 F 
ATOM     80  C   UNL A   1      51.302  26.040  26.481  1.00  0.00     0.198 A 
ATOM     81  C   UNL A   1      50.723  26.700  24.247  1.00  0.00     0.198 A 
ATOM     82  F   UNL A   1      48.552  27.484  23.779  1.00  0.00    -0.203 F 
ATOM     83  F   UNL A   1      52.208  25.597  27.363  1.00  0.00    -0.200 F 
ATOM     84  C   UNL A   1      51.657  26.218  25.153  1.00  0.00     0.200 A 
ATOM     85  F   UNL A   1      51.060  26.862  22.960  1.00  0.00    -0.200 F 
ATOM     86  F   UNL A   1      52.900  25.930  24.745  1.00  0.00    -0.200 F 
ENDBRANCH  52  76
BRANCH  64  87
ATOM     87  C   UNL A   1      45.927  32.539  28.515  1.00  0.00     0.064 A 
ATOM     88  C   UNL A   1      45.777  33.548  27.554  1.00  0.00     0.173 A 
ATOM     89  C   UNL A   1      46.468  32.888  29.762  1.00  0.00     0.173 A 
ATOM     90  F   UNL A   1      45.277  33.258  26.344  1.00  0.00    -0.203 F 
ATOM     91  C   UNL A   1      46.162  34.857  27.829  1.00  0.00     0.198 A 
ATOM     92  C   UNL A   1      46.827  34.203  30.041  1.00  0.00     0.198 A 
ATOM     93  F   UNL A   1      46.623  31.959  30.716  1.00  0.00    -0.203 F 
ATOM     94  F   UNL A   1      46.037  35.802  26.886  1.00  0.00    -0.200 F 
ATOM     95  C   UNL A   1      46.677  35.185  29.075  1.00  0.00     0.200 A 
ATOM     96  F   UNL A   1      47.311  34.521  31.250  1.00  0.00    -0.200 F 
ATOM     97  F   UNL A   1      47.030  36.450  29.343  1.00  0.00    -0.200 F 
ENDBRANCH  64  87
ENDBRANCH  38  39
ENDBRANCH  30  33
ENDBRANCH  28  29
ENDBRANCH  27  28
ENDBRANCH   1  27
TORSDOF 14
ENDMDL
MODEL 3
REMARK VINA RESULT:     -12.4      1.062      2.102
REMARK SMILES Nc1c(N2CCCC2)ncnc1N1CCC(C(=O)NCCCCNC(=O)c2ccc(-c3c4nc(c(-c5c(F)c(F)c(F)c(F)c5F)c5ccc([nH]5)c(-c5c(F)c(F)c(F)c(F)c5F)c5nc(c(-c6c(F)c(F)c(F)c(F)c6F)c6ccc3[nH]6)C=C5)C=C4)cc2)CC1
REMARK SMILES IDX 21 1 20 2 19 3 17 4 18 5 16 7 13 8 14 9 91 10 15 11 90 12
REMARK SMILES IDX 12 13 2 14 3 15 9 16 11 17 10 18 1 19 4 22 5 23 8 24 6 25
REMARK SMILES IDX 7 26 22 27 23 28 24 29 25 30 26 32 27 33 28 34 89 35 29 36
REMARK SMILES IDX 88 37 30 38 31 39 32 40 82 41 33 42 87 43 81 44 83 45 34 46
REMARK SMILES IDX 86 47 80 48 79 49 35 51 67 52 47 53 66 54 48 55 51 56 65 57
REMARK SMILES IDX 84 58 49 59 50 60 64 62 85 63 52 64 36 65 37 66 45 67 38 68
REMARK SMILES IDX 39 69 43 70 46 71 40 72 41 73 44 74 42 75 68 76 69 77 77 78
REMARK SMILES IDX 70 79 71 80 75 81 78 82 72 83 73 84 76 85 74 86 53 87 54 88
REMARK SMILES IDX 62 89 55 90 56 91 60 92 63 93 57 94 58 95 61 96 59 97
REMARK H PARENT 19 6 1 20 1 21 24 31 83 50 51 61
REMARK Flexibility Score: inf
ROOT
ATOM      1  C   UNL A   1      31.799  29.484  27.181  1.00  0.00     0.023 C 
ENDROOT
BRANCH   1   2
ATOM      2  C   UNL A   1      33.128  28.773  26.941  1.00  0.00     0.116 C 
BRANCH   2   3
ATOM      3  N   UNL A   1      33.334  28.462  25.533  1.00  0.00    -0.356 N 
ATOM      4  C   UNL A   1      33.567  27.268  24.915  1.00  0.00     0.223 C 
ATOM      5  O   UNL A   1      33.712  27.270  23.692  1.00  0.00    -0.275 OA
ATOM      6  H   UNL A   1      33.300  29.239  24.930  1.00  0.00     0.163 HD
BRANCH   4   7
ATOM      7  C   UNL A   1      33.620  25.966  25.701  1.00  0.00     0.082 C 
ATOM      8  N   UNL A   1      33.259  23.191  25.364  1.00  0.00    -0.355 N 
ATOM      9  C   UNL A   1      32.223  23.848  26.128  1.00  0.00     0.119 C 
ATOM     10  C   UNL A   1      34.629  23.621  25.559  1.00  0.00     0.119 C 
ATOM     11  C   UNL A   1      32.220  25.336  25.815  1.00  0.00     0.035 C 
ATOM     12  C   UNL A   1      34.752  25.079  25.153  1.00  0.00     0.035 C 
BRANCH   8  13
ATOM     13  C   UNL A   1      32.958  22.025  24.686  1.00  0.00     0.157 A 
ATOM     14  C   UNL A   1      33.327  20.767  25.185  1.00  0.00     0.118 A 
ATOM     15  C   UNL A   1      33.087  19.662  24.348  1.00  0.00     0.157 A 
ATOM     16  N   UNL A   1      32.520  19.794  23.138  1.00  0.00    -0.217 NA
ATOM     17  N   UNL A   1      32.322  22.158  23.506  1.00  0.00    -0.217 NA
ATOM     18  C   UNL A   1      32.153  21.036  22.792  1.00  0.00     0.226 A 
BRANCH  14  19
ATOM     19  N   UNL A   1      34.012  20.614  26.405  1.00  0.00    -0.393 N 
ATOM     20  H   UNL A   1      34.610  21.327  26.727  1.00  0.00     0.156 HD
ATOM     21  H   UNL A   1      33.893  19.795  26.937  1.00  0.00     0.156 HD
ENDBRANCH  14  19
BRANCH  15  22
ATOM     22  N   UNL A   1      33.444  18.399  24.787  1.00  0.00    -0.355 N 
ATOM     23  C   UNL A   1      32.424  17.434  25.151  1.00  0.00     0.118 C 
ATOM     24  C   UNL A   1      34.613  17.725  24.252  1.00  0.00     0.118 C 
ATOM     25  C   UNL A   1      33.284  16.332  25.751  1.00  0.00     0.023 C 
ATOM     26  C   UNL A   1      34.509  16.306  24.836  1.00  0.00     0.023 C 
ENDBRANCH  15  22
ENDBRANCH   8  13
ENDBRANCH   4   7
ENDBRANCH   2   3
ENDBRANCH   1   2
BRANCH   1  27
ATOM     27  C   UNL A   1      31.724  30.900  26.615  1.00  0.00     0.023 C 
BRANCH  27  28
ATOM     28  C   UNL A   1      32.915  31.790  26.945  1.00  0.00     0.116 C 
BRANCH  28  29
ATOM     29  N   UNL A   1      32.535  33.163  27.240  1.00  0.00    -0.352 N 
ATOM     30  C   UNL A   1      33.054  34.019  28.180  1.00  0.00     0.251 C 
ATOM     31  H   UNL A   1      31.805  33.529  26.691  1.00  0.00     0.163 HD
ATOM     32  O   UNL A   1      32.534  35.111  28.388  1.00  0.00    -0.269 OA
BRANCH  30  33
ATOM     33  C   UNL A   1      34.229  33.600  28.968  1.00  0.00     0.039 A 
ATOM     34  C   UNL A   1      34.041  32.740  30.053  1.00  0.00     0.014 A 
ATOM     35  C   UNL A   1      35.512  34.028  28.615  1.00  0.00     0.014 A 
ATOM     36  C   UNL A   1      35.150  32.252  30.743  1.00  0.00     0.010 A 
ATOM     37  C   UNL A   1      36.619  33.484  29.258  1.00  0.00     0.010 A 
ATOM     38  C   UNL A   1      36.448  32.592  30.327  1.00  0.00    -0.014 A 
BRANCH  38  39
ATOM     39  C   UNL A   1      37.640  32.033  31.008  1.00  0.00     0.031 A 
ATOM     40  C   UNL A   1      38.461  30.974  30.331  1.00  0.00     0.074 A 
ATOM     41  C   UNL A   1      37.953  32.445  32.252  1.00  0.00     0.049 A 
ATOM     42  N   UNL A   1      39.503  30.323  30.781  1.00  0.00    -0.248 NA
ATOM     43  C   UNL A   1      38.041  30.576  28.978  1.00  0.00     0.031 C 
ATOM     44  C   UNL A   1      37.209  33.441  33.025  1.00  0.00     0.029 A 
ATOM     45  N   UNL A   1      38.978  32.075  33.085  1.00  0.00    -0.354 N 
ATOM     46  C   UNL A   1      39.857  29.440  29.771  1.00  0.00     0.074 A 
ATOM     47  C   UNL A   1      38.887  29.593  28.710  1.00  0.00     0.031 C 
ATOM     48  C   UNL A   1      37.821  33.626  34.205  1.00  0.00     0.029 A 
ATOM     49  C   UNL A   1      38.979  32.740  34.287  1.00  0.00     0.049 A 
ATOM     50  H   UNL A   1      39.651  31.397  32.845  1.00  0.00     0.167 HD
ATOM     51  C   UNL A   1      40.915  28.596  29.723  1.00  0.00     0.037 A 
ATOM     52  C   UNL A   1      39.819  32.643  35.335  1.00  0.00     0.037 A 
ATOM     53  C   UNL A   1      41.892  28.464  30.769  1.00  0.00     0.049 A 
ATOM     54  C   UNL A   1      40.976  31.683  35.263  1.00  0.00     0.074 A 
ATOM     55  C   UNL A   1      43.026  27.670  30.794  1.00  0.00     0.029 A 
ATOM     56  N   UNL A   1      41.855  29.149  31.974  1.00  0.00    -0.354 N 
ATOM     57  N   UNL A   1      41.328  30.887  34.285  1.00  0.00    -0.248 NA
ATOM     58  C   UNL A   1      41.850  31.609  36.443  1.00  0.00     0.031 C 
ATOM     59  C   UNL A   1      43.654  27.847  32.030  1.00  0.00     0.029 A 
ATOM     60  C   UNL A   1      42.936  28.783  32.758  1.00  0.00     0.049 A 
ATOM     61  H   UNL A   1      41.162  29.798  32.233  1.00  0.00     0.167 HD
ATOM     62  C   UNL A   1      42.473  30.233  34.718  1.00  0.00     0.074 A 
ATOM     63  C   UNL A   1      42.765  30.735  36.044  1.00  0.00     0.031 C 
ATOM     64  C   UNL A   1      43.213  29.298  34.074  1.00  0.00     0.037 A 
BRANCH  51  65
ATOM     65  C   UNL A   1      41.082  27.764  28.487  1.00  0.00     0.064 A 
ATOM     66  C   UNL A   1      40.416  26.538  28.338  1.00  0.00     0.173 A 
ATOM     67  C   UNL A   1      41.873  28.217  27.421  1.00  0.00     0.173 A 
ATOM     68  F   UNL A   1      39.659  26.056  29.335  1.00  0.00    -0.203 F 
ATOM     69  C   UNL A   1      40.552  25.786  27.175  1.00  0.00     0.198 A 
ATOM     70  C   UNL A   1      41.985  27.475  26.248  1.00  0.00     0.198 A 
ATOM     71  F   UNL A   1      42.526  29.385  27.511  1.00  0.00    -0.203 F 
ATOM     72  F   UNL A   1      39.939  24.599  27.071  1.00  0.00    -0.200 F 
ATOM     73  C   UNL A   1      41.330  26.259  26.128  1.00  0.00     0.200 A 
ATOM     74  F   UNL A   1      42.727  27.937  25.232  1.00  0.00    -0.200 F 
ATOM     75  F   UNL A   1      41.451  25.538  25.004  1.00  0.00    -0.200 F 
ENDBRANCH  51  65
BRANCH  52  76
ATOM     76  C   UNL A   1      39.619  33.512  36.523  1.00  0.00     0.064 A 
ATOM     77  C   UNL A   1      40.236  34.769  36.600  1.00  0.00     0.173 A 
ATOM     78  C   UNL A   1      38.800  33.118  37.590  1.00  0.00     0.173 A 
ATOM     79  F   UNL A   1      41.044  35.179  35.611  1.00  0.00    -0.203 F 
ATOM     80  C   UNL A   1      40.047  35.596  37.704  1.00  0.00     0.198 A 
ATOM     81  C   UNL A   1      38.594  33.957  38.685  1.00  0.00     0.198 A 
ATOM     82  F   UNL A   1      38.187  31.927  37.563  1.00  0.00    -0.203 F 
ATOM     83  F   UNL A   1      40.672  36.779  37.767  1.00  0.00    -0.200 F 
ATOM     84  C   UNL A   1      39.221  35.193  38.742  1.00  0.00     0.200 A 
ATOM     85  F   UNL A   1      37.785  33.569  39.681  1.00  0.00    -0.200 F 
ATOM     86  F   UNL A   1      39.032  35.993  39.801  1.00  0.00    -0.200 F 
ENDBRANCH  52  76
BRANCH  64  87
ATOM     87  C   UNL A   1      44.422  28.763  34.783  1.00  0.00     0.064 A 
ATOM     88  C   UNL A   1      45.661  29.413  34.702  1.00  0.00     0.173 A 
ATOM     89  C   UNL A   1      44.317  27.637  35.614  1.00  0.00     0.173 A 
ATOM     90  F   UNL A   1      45.812  30.484  33.910  1.00  0.00    -0.203 F 
ATOM     91  C   UNL A   1      46.758  28.947  35.424  1.00  0.00     0.198 A 
ATOM     92  C   UNL A   1      45.409  27.191  36.352  1.00  0.00     0.198 A 
ATOM     93  F   UNL A   1      43.150  26.987  35.730  1.00  0.00    -0.203 F 
ATOM     94  F   UNL A   1      47.941  29.566  35.311  1.00  0.00    -0.200 F 
ATOM     95  C   UNL A   1      46.628  27.844  36.255  1.00  0.00     0.200 A 
ATOM     96  F   UNL A   1      45.279  26.134  37.166  1.00  0.00    -0.200 F 
ATOM     97  F   UNL A   1      47.681  27.410  36.961  1.00  0.00    -0.200 F 
ENDBRANCH  64  87
ENDBRANCH  38  39
ENDBRANCH  30  33
ENDBRANCH  28  29
ENDBRANCH  27  28
ENDBRANCH   1  27
TORSDOF 14
ENDMDL
