MODEL 1
REMARK VINA RESULT:     -12.9      0.000      0.000
REMARK SMILES O=C(NCCCCNC(=O)c1ccc(F)cc1-c1ccc(F)c(Cl)c1)c1ccc(-c2c3nc(c(-c4c(F)c(F)c(F)c(F)c4F)c4ccc([nH]4)c(-c4c(F)c(F)c(F)c(F)c4F)c4nc(c(-c5c(F)c(F)c(F)c(F)c5F)c5ccc2[nH]5)C=C4)C=C3)cc1
REMARK SMILES IDX 5 1 4 2 3 3 1 4 2 5 26 7 27 8 88 9 28 10 87 11 29 12 30 13
REMARK SMILES IDX 31 14 81 15 32 16 86 17 80 18 82 19 33 20 85 21 79 22 78 23
REMARK SMILES IDX 34 25 66 26 46 27 65 28 47 29 50 30 64 31 83 32 48 33 49 34
REMARK SMILES IDX 63 36 84 37 51 38 35 39 36 40 44 41 37 42 38 43 42 44 45 45
REMARK SMILES IDX 39 46 40 47 43 48 41 49 67 50 68 51 76 52 69 53 70 54 74 55
REMARK SMILES IDX 77 56 71 57 72 58 75 59 73 60 52 61 53 62 61 63 54 64 55 65
REMARK SMILES IDX 59 66 62 67 56 68 57 69 60 70 58 71 6 72 7 73 8 74 9 75
REMARK SMILES IDX 10 77 11 78 12 79 17 80 13 81 16 82 14 83 15 84 18 85 19 86
REMARK SMILES IDX 25 87 20 88 23 89 21 90 24 91 22 92
REMARK H PARENT 3 6 82 24 50 35 8 76
REMARK Flexibility Score: inf
ROOT
ATOM      1  C   UNL A   1      31.418  31.955  26.926  1.00  0.00     0.023 C 
ENDROOT
BRANCH   1   2
ATOM      2  C   UNL A   1      32.709  32.733  27.142  1.00  0.00     0.116 C 
BRANCH   2   3
ATOM      3  N   UNL A   1      32.479  34.100  27.581  1.00  0.00    -0.352 N 
ATOM      4  O   UNL A   1      32.685  35.907  28.917  1.00  0.00    -0.269 OA
ATOM      5  C   UNL A   1      33.103  34.803  28.583  1.00  0.00     0.251 C 
ATOM      6  H   UNL A   1      31.779  34.589  27.093  1.00  0.00     0.163 HD
BRANCH   5   7
ATOM      7  C   UNL A   1      34.272  34.218  29.271  1.00  0.00     0.039 A 
ATOM      8  C   UNL A   1      34.100  33.368  30.368  1.00  0.00     0.014 A 
ATOM      9  C   UNL A   1      35.556  34.508  28.801  1.00  0.00     0.014 A 
ATOM     10  C   UNL A   1      35.210  32.907  31.067  1.00  0.00     0.010 A 
ATOM     11  C   UNL A   1      36.670  33.973  29.452  1.00  0.00     0.010 A 
ATOM     12  C   UNL A   1      36.505  33.176  30.596  1.00  0.00    -0.014 A 
BRANCH  12  13
ATOM     13  C   UNL A   1      37.664  32.504  31.233  1.00  0.00     0.031 A 
ATOM     14  C   UNL A   1      38.377  31.366  30.563  1.00  0.00     0.074 A 
ATOM     15  C   UNL A   1      38.056  32.938  32.447  1.00  0.00     0.049 A 
ATOM     16  N   UNL A   1      39.371  30.645  31.017  1.00  0.00    -0.248 NA
ATOM     17  C   UNL A   1      37.920  30.980  29.219  1.00  0.00     0.031 C 
ATOM     18  C   UNL A   1      37.423  34.032  33.190  1.00  0.00     0.029 A 
ATOM     19  N   UNL A   1      39.069  32.523  33.272  1.00  0.00    -0.354 N 
ATOM     20  C   UNL A   1      39.649  29.714  30.026  1.00  0.00     0.074 A 
ATOM     21  C   UNL A   1      38.711  29.947  28.949  1.00  0.00     0.031 C 
ATOM     22  C   UNL A   1      38.073  34.214  34.346  1.00  0.00     0.029 A 
ATOM     23  C   UNL A   1      39.119  33.205  34.463  1.00  0.00     0.049 A 
ATOM     24  H   UNL A   1      39.700  31.805  33.034  1.00  0.00     0.167 HD
ATOM     25  C   UNL A   1      40.607  28.757  30.026  1.00  0.00     0.037 A 
ATOM     26  C   UNL A   1      39.890  33.017  35.550  1.00  0.00     0.037 A 
ATOM     27  C   UNL A   1      41.552  28.557  31.095  1.00  0.00     0.049 A 
ATOM     28  C   UNL A   1      40.912  31.918  35.534  1.00  0.00     0.074 A 
ATOM     29  C   UNL A   1      42.607  27.663  31.148  1.00  0.00     0.029 A 
ATOM     30  N   UNL A   1      41.550  29.248  32.297  1.00  0.00    -0.354 N 
ATOM     31  N   UNL A   1      41.202  31.081  34.568  1.00  0.00    -0.248 NA
ATOM     32  C   UNL A   1      41.707  31.727  36.754  1.00  0.00     0.031 C 
ATOM     33  C   UNL A   1      43.205  27.768  32.406  1.00  0.00     0.029 A 
ATOM     34  C   UNL A   1      42.559  28.767  33.116  1.00  0.00     0.049 A 
ATOM     35  H   UNL A   1      40.927  29.972  32.533  1.00  0.00     0.167 HD
ATOM     36  C   UNL A   1      42.212  30.269  35.059  1.00  0.00     0.074 A 
ATOM     37  C   UNL A   1      42.504  30.727  36.401  1.00  0.00     0.031 C 
ATOM     38  C   UNL A   1      42.834  29.232  34.451  1.00  0.00     0.037 A 
BRANCH  25  39
ATOM     39  C   UNL A   1      40.710  27.836  28.848  1.00  0.00     0.064 A 
ATOM     40  C   UNL A   1      41.495  28.196  27.740  1.00  0.00     0.173 A 
ATOM     41  C   UNL A   1      39.915  26.687  28.743  1.00  0.00     0.173 A 
ATOM     42  F   UNL A   1      42.265  29.295  27.787  1.00  0.00    -0.203 F 
ATOM     43  C   UNL A   1      41.453  27.459  26.560  1.00  0.00     0.198 A 
ATOM     44  C   UNL A   1      39.893  25.937  27.569  1.00  0.00     0.198 A 
ATOM     45  F   UNL A   1      39.151  26.299  29.775  1.00  0.00    -0.203 F 
ATOM     46  F   UNL A   1      42.171  27.852  25.499  1.00  0.00    -0.200 F 
ATOM     47  C   UNL A   1      40.650  26.332  26.475  1.00  0.00     0.200 A 
ATOM     48  F   UNL A   1      39.125  24.842  27.488  1.00  0.00    -0.200 F 
ATOM     49  F   UNL A   1      40.598  25.631  25.333  1.00  0.00    -0.200 F 
ENDBRANCH  25  39
BRANCH  26  50
ATOM     50  C   UNL A   1      39.682  33.869  36.750  1.00  0.00     0.064 A 
ATOM     51  C   UNL A   1      38.859  33.443  37.806  1.00  0.00     0.173 A 
ATOM     52  C   UNL A   1      40.268  35.136  36.851  1.00  0.00     0.173 A 
ATOM     53  F   UNL A   1      38.268  32.240  37.754  1.00  0.00    -0.203 F 
ATOM     54  C   UNL A   1      38.612  34.264  38.903  1.00  0.00     0.198 A 
ATOM     55  C   UNL A   1      40.048  35.943  37.966  1.00  0.00     0.198 A 
ATOM     56  F   UNL A   1      41.076  35.580  35.877  1.00  0.00    -0.203 F 
ATOM     57  F   UNL A   1      37.787  33.849  39.873  1.00  0.00    -0.200 F 
ATOM     58  C   UNL A   1      39.212  35.510  38.986  1.00  0.00     0.200 A 
ATOM     59  F   UNL A   1      40.649  37.137  38.055  1.00  0.00    -0.200 F 
ATOM     60  F   UNL A   1      38.987  36.294  40.048  1.00  0.00    -0.200 F 
ENDBRANCH  26  50
BRANCH  38  61
ATOM     61  C   UNL A   1      43.894  28.506  35.222  1.00  0.00     0.064 A 
ATOM     62  C   UNL A   1      45.239  28.891  35.122  1.00  0.00     0.173 A 
ATOM     63  C   UNL A   1      43.588  27.360  35.972  1.00  0.00     0.173 A 
ATOM     64  F   UNL A   1      45.580  29.975  34.410  1.00  0.00    -0.203 F 
ATOM     65  C   UNL A   1      46.244  28.136  35.719  1.00  0.00     0.198 A 
ATOM     66  C   UNL A   1      44.594  26.624  36.590  1.00  0.00     0.198 A 
ATOM     67  F   UNL A   1      42.314  26.964  36.108  1.00  0.00    -0.203 F 
ATOM     68  F   UNL A   1      47.527  28.494  35.569  1.00  0.00    -0.200 F 
ATOM     69  C   UNL A   1      45.921  27.004  36.451  1.00  0.00     0.200 A 
ATOM     70  F   UNL A   1      44.279  25.542  37.315  1.00  0.00    -0.200 F 
ATOM     71  F   UNL A   1      46.890  26.275  37.022  1.00  0.00    -0.200 F 
ENDBRANCH  38  61
ENDBRANCH  12  13
ENDBRANCH   5   7
ENDBRANCH   2   3
ENDBRANCH   1   2
BRANCH   1  72
ATOM     72  C   UNL A   1      31.423  31.000  25.736  1.00  0.00     0.023 C 
BRANCH  72  73
ATOM     73  C   UNL A   1      32.461  29.884  25.797  1.00  0.00     0.116 C 
BRANCH  73  74
ATOM     74  N   UNL A   1      33.107  29.636  24.518  1.00  0.00    -0.352 N 
ATOM     75  C   UNL A   1      32.691  28.861  23.464  1.00  0.00     0.251 C 
ATOM     76  H   UNL A   1      33.970  30.093  24.388  1.00  0.00     0.163 HD
ATOM     77  O   UNL A   1      33.381  28.772  22.454  1.00  0.00    -0.269 OA
BRANCH  75  78
ATOM     78  C   UNL A   1      31.400  28.143  23.555  1.00  0.00     0.047 A 
ATOM     79  C   UNL A   1      30.244  28.806  23.108  1.00  0.00     0.017 A 
ATOM     80  C   UNL A   1      31.339  26.818  24.040  1.00  0.00    -0.003 A 
ATOM     81  C   UNL A   1      29.001  28.187  23.211  1.00  0.00     0.040 A 
ATOM     82  C   UNL A   1      30.070  26.215  24.127  1.00  0.00     0.048 A 
ATOM     83  C   UNL A   1      28.925  26.902  23.727  1.00  0.00     0.123 A 
ATOM     84  F   UNL A   1      27.731  26.308  23.838  1.00  0.00    -0.207 F 
BRANCH  80  85
ATOM     85  C   UNL A   1      32.529  26.047  24.434  1.00  0.00    -0.016 A 
ATOM     86  C   UNL A   1      33.157  26.246  25.675  1.00  0.00     0.012 A 
ATOM     87  C   UNL A   1      33.073  25.093  23.552  1.00  0.00     0.032 A 
ATOM     88  C   UNL A   1      34.302  25.522  26.021  1.00  0.00     0.041 A 
ATOM     89  C   UNL A   1      34.217  24.371  23.900  1.00  0.00     0.077 A 
ATOM     90  C   UNL A   1      34.826  24.590  25.130  1.00  0.00     0.141 A 
ATOM     91  Cl  UNL A   1      34.854  23.213  22.796  1.00  0.00    -0.081 Cl
ATOM     92  F   UNL A   1      35.926  23.908  25.484  1.00  0.00    -0.205 F 
ENDBRANCH  80  85
ENDBRANCH  75  78
ENDBRANCH  73  74
ENDBRANCH  72  73
ENDBRANCH   1  72
TORSDOF 12
ENDMDL
MODEL 2
REMARK VINA RESULT:     -12.9      0.621      1.715
REMARK SMILES O=C(NCCCCNC(=O)c1ccc(F)cc1-c1ccc(F)c(Cl)c1)c1ccc(-c2c3nc(c(-c4c(F)c(F)c(F)c(F)c4F)c4ccc([nH]4)c(-c4c(F)c(F)c(F)c(F)c4F)c4nc(c(-c5c(F)c(F)c(F)c(F)c5F)c5ccc2[nH]5)C=C4)C=C3)cc1
REMARK SMILES IDX 5 1 4 2 3 3 1 4 2 5 26 7 27 8 88 9 28 10 87 11 29 12 30 13
REMARK SMILES IDX 31 14 81 15 32 16 86 17 80 18 82 19 33 20 85 21 79 22 78 23
REMARK SMILES IDX 34 25 66 26 46 27 65 28 47 29 50 30 64 31 83 32 48 33 49 34
REMARK SMILES IDX 63 36 84 37 51 38 35 39 36 40 44 41 37 42 38 43 42 44 45 45
REMARK SMILES IDX 39 46 40 47 43 48 41 49 67 50 68 51 76 52 69 53 70 54 74 55
REMARK SMILES IDX 77 56 71 57 72 58 75 59 73 60 52 61 53 62 61 63 54 64 55 65
REMARK SMILES IDX 59 66 62 67 56 68 57 69 60 70 58 71 6 72 7 73 8 74 9 75
REMARK SMILES IDX 10 77 11 78 12 79 17 80 13 81 16 82 14 83 15 84 18 85 19 86
REMARK SMILES IDX 25 87 20 88 23 89 21 90 24 91 22 92
REMARK H PARENT 3 6 82 24 50 35 8 76
REMARK Flexibility Score: inf
ROOT
ATOM      1  C   UNL A   1      31.369  31.914  26.834  1.00  0.00     0.023 C 
ENDROOT
BRANCH   1   2
ATOM      2  C   UNL A   1      32.657  32.711  26.998  1.00  0.00     0.116 C 
BRANCH   2   3
ATOM      3  N   UNL A   1      32.433  34.041  27.539  1.00  0.00    -0.352 N 
ATOM      4  O   UNL A   1      32.657  35.746  29.002  1.00  0.00    -0.269 OA
ATOM      5  C   UNL A   1      33.070  34.670  28.582  1.00  0.00     0.251 C 
ATOM      6  H   UNL A   1      31.725  34.565  27.098  1.00  0.00     0.163 HD
BRANCH   5   7
ATOM      7  C   UNL A   1      34.248  34.036  29.209  1.00  0.00     0.039 A 
ATOM      8  C   UNL A   1      34.090  33.049  30.186  1.00  0.00     0.014 A 
ATOM      9  C   UNL A   1      35.528  34.422  28.800  1.00  0.00     0.014 A 
ATOM     10  C   UNL A   1      35.205  32.536  30.838  1.00  0.00     0.010 A 
ATOM     11  C   UNL A   1      36.651  33.842  29.397  1.00  0.00     0.010 A 
ATOM     12  C   UNL A   1      36.497  32.901  30.427  1.00  0.00    -0.014 A 
BRANCH  12  13
ATOM     13  C   UNL A   1      37.668  32.188  30.992  1.00  0.00     0.031 A 
ATOM     14  C   UNL A   1      38.390  31.126  30.216  1.00  0.00     0.074 A 
ATOM     15  C   UNL A   1      38.063  32.512  32.239  1.00  0.00     0.049 A 
ATOM     16  N   UNL A   1      39.396  30.379  30.594  1.00  0.00    -0.248 NA
ATOM     17  C   UNL A   1      37.929  30.861  28.844  1.00  0.00     0.031 C 
ATOM     18  C   UNL A   1      37.422  33.524  33.084  1.00  0.00     0.029 A 
ATOM     19  N   UNL A   1      39.087  32.035  33.016  1.00  0.00    -0.354 N 
ATOM     20  C   UNL A   1      39.679  29.548  29.520  1.00  0.00     0.074 A 
ATOM     21  C   UNL A   1      38.731  29.868  28.474  1.00  0.00     0.031 C 
ATOM     22  C   UNL A   1      38.077  33.607  34.248  1.00  0.00     0.029 A 
ATOM     23  C   UNL A   1      39.136  32.604  34.265  1.00  0.00     0.049 A 
ATOM     24  H   UNL A   1      39.724  31.351  32.709  1.00  0.00     0.167 HD
ATOM     25  C   UNL A   1      40.649  28.608  29.426  1.00  0.00     0.037 A 
ATOM     26  C   UNL A   1      39.916  32.326  35.326  1.00  0.00     0.037 A 
ATOM     27  C   UNL A   1      41.604  28.321  30.466  1.00  0.00     0.049 A 
ATOM     28  C   UNL A   1      40.952  31.247  35.201  1.00  0.00     0.074 A 
ATOM     29  C   UNL A   1      42.670  27.440  30.430  1.00  0.00     0.029 A 
ATOM     30  N   UNL A   1      41.601  28.897  31.727  1.00  0.00    -0.354 N 
ATOM     31  N   UNL A   1      41.245  30.507  34.161  1.00  0.00    -0.248 NA
ATOM     32  C   UNL A   1      41.758  30.953  36.395  1.00  0.00     0.031 C 
ATOM     33  C   UNL A   1      43.275  27.436  31.689  1.00  0.00     0.029 A 
ATOM     34  C   UNL A   1      42.621  28.356  32.492  1.00  0.00     0.049 A 
ATOM     35  H   UNL A   1      40.970  29.588  32.033  1.00  0.00     0.167 HD
ATOM     36  C   UNL A   1      42.269  29.667  34.568  1.00  0.00     0.074 A 
ATOM     37  C   UNL A   1      42.565  30.001  35.945  1.00  0.00     0.031 C 
ATOM     38  C   UNL A   1      42.900  28.698  33.863  1.00  0.00     0.037 A 
BRANCH  25  39
ATOM     39  C   UNL A   1      40.756  27.801  28.166  1.00  0.00     0.064 A 
ATOM     40  C   UNL A   1      40.198  26.513  28.107  1.00  0.00     0.173 A 
ATOM     41  C   UNL A   1      41.540  28.227  27.087  1.00  0.00     0.173 A 
ATOM     42  F   UNL A   1      39.448  26.055  29.122  1.00  0.00    -0.203 F 
ATOM     43  C   UNL A   1      40.449  25.671  27.028  1.00  0.00     0.198 A 
ATOM     44  C   UNL A   1      41.771  27.390  25.997  1.00  0.00     0.198 A 
ATOM     45  F   UNL A   1      42.093  29.449  27.095  1.00  0.00    -0.203 F 
ATOM     46  F   UNL A   1      39.949  24.428  27.017  1.00  0.00    -0.200 F 
ATOM     47  C   UNL A   1      41.239  26.109  25.976  1.00  0.00     0.200 A 
ATOM     48  F   UNL A   1      42.526  27.815  24.975  1.00  0.00    -0.200 F 
ATOM     49  F   UNL A   1      41.494  25.291  24.944  1.00  0.00    -0.200 F 
ENDBRANCH  25  39
BRANCH  26  50
ATOM     50  C   UNL A   1      39.706  33.060  36.601  1.00  0.00     0.064 A 
ATOM     51  C   UNL A   1      38.741  32.636  37.529  1.00  0.00     0.173 A 
ATOM     52  C   UNL A   1      40.435  34.216  36.901  1.00  0.00     0.173 A 
ATOM     53  F   UNL A   1      38.011  31.538  37.284  1.00  0.00    -0.203 F 
ATOM     54  C   UNL A   1      38.497  33.356  38.695  1.00  0.00     0.198 A 
ATOM     55  C   UNL A   1      40.215  34.917  38.086  1.00  0.00     0.198 A 
ATOM     56  F   UNL A   1      41.380  34.651  36.055  1.00  0.00    -0.203 F 
ATOM     57  F   UNL A   1      37.540  32.953  39.540  1.00  0.00    -0.200 F 
ATOM     58  C   UNL A   1      39.239  34.492  38.976  1.00  0.00     0.200 A 
ATOM     59  F   UNL A   1      40.951  36.001  38.367  1.00  0.00    -0.200 F 
ATOM     60  F   UNL A   1      39.016  35.177  40.106  1.00  0.00    -0.200 F 
ENDBRANCH  26  50
BRANCH  38  61
ATOM     61  C   UNL A   1      43.974  27.917  34.558  1.00  0.00     0.064 A 
ATOM     62  C   UNL A   1      43.665  26.729  35.235  1.00  0.00     0.173 A 
ATOM     63  C   UNL A   1      45.286  28.407  34.645  1.00  0.00     0.173 A 
ATOM     64  F   UNL A   1      42.423  26.226  35.186  1.00  0.00    -0.203 F 
ATOM     65  C   UNL A   1      44.625  26.074  36.002  1.00  0.00     0.198 A 
ATOM     66  C   UNL A   1      46.248  27.735  35.390  1.00  0.00     0.198 A 
ATOM     67  F   UNL A   1      45.630  29.531  34.000  1.00  0.00    -0.203 F 
ATOM     68  F   UNL A   1      44.295  24.966  36.681  1.00  0.00    -0.200 F 
ATOM     69  C   UNL A   1      45.914  26.577  36.079  1.00  0.00     0.200 A 
ATOM     70  F   UNL A   1      47.500  28.210  35.447  1.00  0.00    -0.200 F 
ATOM     71  F   UNL A   1      46.836  25.949  36.822  1.00  0.00    -0.200 F 
ENDBRANCH  38  61
ENDBRANCH  12  13
ENDBRANCH   5   7
ENDBRANCH   2   3
ENDBRANCH   1   2
BRANCH   1  72
ATOM     72  C   UNL A   1      31.385  30.870  25.721  1.00  0.00     0.023 C 
BRANCH  72  73
ATOM     73  C   UNL A   1      32.525  29.858  25.790  1.00  0.00     0.116 C 
BRANCH  73  74
ATOM     74  N   UNL A   1      33.158  29.625  24.502  1.00  0.00    -0.352 N 
ATOM     75  C   UNL A   1      32.729  28.866  23.441  1.00  0.00     0.251 C 
ATOM     76  H   UNL A   1      34.022  30.079  24.371  1.00  0.00     0.163 HD
ATOM     77  O   UNL A   1      33.409  28.787  22.424  1.00  0.00    -0.269 OA
BRANCH  75  78
ATOM     78  C   UNL A   1      31.435  28.152  23.534  1.00  0.00     0.047 A 
ATOM     79  C   UNL A   1      30.283  28.816  23.078  1.00  0.00     0.017 A 
ATOM     80  C   UNL A   1      31.369  26.832  24.030  1.00  0.00    -0.003 A 
ATOM     81  C   UNL A   1      29.038  28.202  23.181  1.00  0.00     0.040 A 
ATOM     82  C   UNL A   1      30.098  26.234  24.118  1.00  0.00     0.048 A 
ATOM     83  C   UNL A   1      28.957  26.921  23.709  1.00  0.00     0.123 A 
ATOM     84  F   UNL A   1      27.760  26.332  23.820  1.00  0.00    -0.207 F 
BRANCH  80  85
ATOM     85  C   UNL A   1      32.556  26.060  24.434  1.00  0.00    -0.016 A 
ATOM     86  C   UNL A   1      33.161  26.245  25.689  1.00  0.00     0.012 A 
ATOM     87  C   UNL A   1      33.119  25.121  23.549  1.00  0.00     0.032 A 
ATOM     88  C   UNL A   1      34.303  25.521  26.044  1.00  0.00     0.041 A 
ATOM     89  C   UNL A   1      34.259  24.398  23.907  1.00  0.00     0.077 A 
ATOM     90  C   UNL A   1      34.846  24.604  25.150  1.00  0.00     0.141 A 
ATOM     91  Cl  UNL A   1      34.920  23.258  22.799  1.00  0.00    -0.081 Cl
ATOM     92  F   UNL A   1      35.942  23.921  25.514  1.00  0.00    -0.205 F 
ENDBRANCH  80  85
ENDBRANCH  75  78
ENDBRANCH  73  74
ENDBRANCH  72  73
ENDBRANCH   1  72
TORSDOF 12
ENDMDL
MODEL 3
REMARK VINA RESULT:     -12.8      5.950     11.177
REMARK SMILES O=C(NCCCCNC(=O)c1ccc(F)cc1-c1ccc(F)c(Cl)c1)c1ccc(-c2c3nc(c(-c4c(F)c(F)c(F)c(F)c4F)c4ccc([nH]4)c(-c4c(F)c(F)c(F)c(F)c4F)c4nc(c(-c5c(F)c(F)c(F)c(F)c5F)c5ccc2[nH]5)C=C4)C=C3)cc1
REMARK SMILES IDX 5 1 4 2 3 3 1 4 2 5 26 7 27 8 88 9 28 10 87 11 29 12 30 13
REMARK SMILES IDX 31 14 81 15 32 16 86 17 80 18 82 19 33 20 85 21 79 22 78 23
REMARK SMILES IDX 34 25 66 26 46 27 65 28 47 29 50 30 64 31 83 32 48 33 49 34
REMARK SMILES IDX 63 36 84 37 51 38 35 39 36 40 44 41 37 42 38 43 42 44 45 45
REMARK SMILES IDX 39 46 40 47 43 48 41 49 67 50 68 51 76 52 69 53 70 54 74 55
REMARK SMILES IDX 77 56 71 57 72 58 75 59 73 60 52 61 53 62 61 63 54 64 55 65
REMARK SMILES IDX 59 66 62 67 56 68 57 69 60 70 58 71 6 72 7 73 8 74 9 75
REMARK SMILES IDX 10 77 11 78 12 79 17 80 13 81 16 82 14 83 15 84 18 85 19 86
REMARK SMILES IDX 25 87 20 88 23 89 21 90 24 91 22 92
REMARK H PARENT 3 6 82 24 50 35 8 76
REMARK Flexibility Score: inf
ROOT
ATOM      1  C   UNL A   1      38.156  19.860  24.698  1.00  0.00     0.023 C 
ENDROOT
BRANCH   1   2
ATOM      2  C   UNL A   1      39.154  20.182  25.802  1.00  0.00     0.116 C 
BRANCH   2   3
ATOM      3  N   UNL A   1      40.210  19.189  25.915  1.00  0.00    -0.352 N 
ATOM      4  O   UNL A   1      42.331  18.429  26.057  1.00  0.00    -0.269 OA
ATOM      5  C   UNL A   1      41.554  19.376  26.132  1.00  0.00     0.251 C 
ATOM      6  H   UNL A   1      39.923  18.252  25.823  1.00  0.00     0.163 HD
BRANCH   5   7
ATOM      7  C   UNL A   1      42.065  20.727  26.440  1.00  0.00     0.039 A 
ATOM      8  C   UNL A   1      42.296  21.652  25.417  1.00  0.00     0.014 A 
ATOM      9  C   UNL A   1      42.299  21.080  27.773  1.00  0.00     0.014 A 
ATOM     10  C   UNL A   1      42.872  22.882  25.712  1.00  0.00     0.010 A 
ATOM     11  C   UNL A   1      42.798  22.350  28.076  1.00  0.00     0.010 A 
ATOM     12  C   UNL A   1      43.096  23.256  27.047  1.00  0.00    -0.014 A 
BRANCH  12  13
ATOM     13  C   UNL A   1      43.514  24.647  27.350  1.00  0.00     0.031 A 
ATOM     14  C   UNL A   1      42.541  25.663  27.870  1.00  0.00     0.074 A 
ATOM     15  C   UNL A   1      44.801  24.980  27.133  1.00  0.00     0.049 A 
ATOM     16  N   UNL A   1      42.744  26.930  28.132  1.00  0.00    -0.248 NA
ATOM     17  C   UNL A   1      41.164  25.211  28.126  1.00  0.00     0.031 C 
ATOM     18  C   UNL A   1      45.827  24.069  26.618  1.00  0.00     0.029 A 
ATOM     19  N   UNL A   1      45.471  26.163  27.310  1.00  0.00    -0.354 N 
ATOM     20  C   UNL A   1      41.525  27.429  28.567  1.00  0.00     0.074 A 
ATOM     21  C   UNL A   1      40.577  26.335  28.523  1.00  0.00     0.031 C 
ATOM     22  C   UNL A   1      46.996  24.717  26.542  1.00  0.00     0.029 A 
ATOM     23  C   UNL A   1      46.789  26.108  26.929  1.00  0.00     0.049 A 
ATOM     24  H   UNL A   1      45.048  26.974  27.675  1.00  0.00     0.167 HD
ATOM     25  C   UNL A   1      41.235  28.689  28.970  1.00  0.00     0.037 A 
ATOM     26  C   UNL A   1      47.723  27.074  26.856  1.00  0.00     0.037 A 
ATOM     27  C   UNL A   1      42.197  29.760  29.035  1.00  0.00     0.049 A 
ATOM     28  C   UNL A   1      47.357  28.470  27.268  1.00  0.00     0.074 A 
ATOM     29  C   UNL A   1      42.012  31.049  29.504  1.00  0.00     0.029 A 
ATOM     30  N   UNL A   1      43.514  29.672  28.612  1.00  0.00    -0.354 N 
ATOM     31  N   UNL A   1      46.215  28.916  27.730  1.00  0.00    -0.248 NA
ATOM     32  C   UNL A   1      48.396  29.500  27.139  1.00  0.00     0.031 C 
ATOM     33  C   UNL A   1      43.198  31.759  29.306  1.00  0.00     0.029 A 
ATOM     34  C   UNL A   1      44.140  30.898  28.767  1.00  0.00     0.049 A 
ATOM     35  H   UNL A   1      43.941  28.859  28.256  1.00  0.00     0.167 HD
ATOM     36  C   UNL A   1      46.397  30.271  27.953  1.00  0.00     0.074 A 
ATOM     37  C   UNL A   1      47.768  30.575  27.597  1.00  0.00     0.031 C 
ATOM     38  C   UNL A   1      45.504  31.183  28.405  1.00  0.00     0.037 A 
BRANCH  25  39
ATOM     39  C   UNL A   1      39.829  29.014  29.378  1.00  0.00     0.064 A 
ATOM     40  C   UNL A   1      39.407  28.774  30.696  1.00  0.00     0.173 A 
ATOM     41  C   UNL A   1      38.865  29.405  28.440  1.00  0.00     0.173 A 
ATOM     42  F   UNL A   1      40.291  28.387  31.629  1.00  0.00    -0.203 F 
ATOM     43  C   UNL A   1      38.065  28.880  31.050  1.00  0.00     0.198 A 
ATOM     44  C   UNL A   1      37.526  29.533  28.804  1.00  0.00     0.198 A 
ATOM     45  F   UNL A   1      39.219  29.649  27.170  1.00  0.00    -0.203 F 
ATOM     46  F   UNL A   1      37.678  28.596  32.301  1.00  0.00    -0.200 F 
ATOM     47  C   UNL A   1      37.125  29.256  30.103  1.00  0.00     0.200 A 
ATOM     48  F   UNL A   1      36.617  29.906  27.891  1.00  0.00    -0.200 F 
ATOM     49  F   UNL A   1      35.831  29.343  30.440  1.00  0.00    -0.200 F 
ENDBRANCH  25  39
BRANCH  26  50
ATOM     50  C   UNL A   1      49.075  26.747  26.332  1.00  0.00     0.064 A 
ATOM     51  C   UNL A   1      49.398  26.960  24.982  1.00  0.00     0.173 A 
ATOM     52  C   UNL A   1      50.056  26.183  27.156  1.00  0.00     0.173 A 
ATOM     53  F   UNL A   1      48.491  27.491  24.150  1.00  0.00    -0.203 F 
ATOM     54  C   UNL A   1      50.642  26.597  24.473  1.00  0.00     0.198 A 
ATOM     55  C   UNL A   1      51.313  25.852  26.654  1.00  0.00     0.198 A 
ATOM     56  F   UNL A   1      49.801  25.977  28.456  1.00  0.00    -0.203 F 
ATOM     57  F   UNL A   1      50.907  26.770  23.172  1.00  0.00    -0.200 F 
ATOM     58  C   UNL A   1      51.601  26.050  25.311  1.00  0.00     0.200 A 
ATOM     59  F   UNL A   1      52.246  25.347  27.471  1.00  0.00    -0.200 F 
ATOM     60  F   UNL A   1      52.804  25.715  24.825  1.00  0.00    -0.200 F 
ENDBRANCH  26  50
BRANCH  38  61
ATOM     61  C   UNL A   1      45.965  32.603  28.540  1.00  0.00     0.064 A 
ATOM     62  C   UNL A   1      46.493  33.068  29.754  1.00  0.00     0.173 A 
ATOM     63  C   UNL A   1      45.778  33.527  27.502  1.00  0.00     0.173 A 
ATOM     64  F   UNL A   1      46.682  32.222  30.777  1.00  0.00    -0.203 F 
ATOM     65  C   UNL A   1      46.789  34.416  29.934  1.00  0.00     0.198 A 
ATOM     66  C   UNL A   1      46.101  34.869  27.678  1.00  0.00     0.198 A 
ATOM     67  F   UNL A   1      45.291  33.124  26.320  1.00  0.00    -0.203 F 
ATOM     68  F   UNL A   1      47.246  34.847  31.117  1.00  0.00    -0.200 F 
ATOM     69  C   UNL A   1      46.592  35.315  28.896  1.00  0.00     0.200 A 
ATOM     70  F   UNL A   1      45.931  35.734  26.668  1.00  0.00    -0.200 F 
ATOM     71  F   UNL A   1      46.872  36.613  29.072  1.00  0.00    -0.200 F 
ENDBRANCH  38  61
ENDBRANCH  12  13
ENDBRANCH   5   7
ENDBRANCH   2   3
ENDBRANCH   1   2
BRANCH   1  72
ATOM     72  C   UNL A   1      36.691  20.098  25.054  1.00  0.00     0.023 C 
BRANCH  72  73
ATOM     73  C   UNL A   1      36.350  21.514  25.509  1.00  0.00     0.116 C 
BRANCH  73  74
ATOM     74  N   UNL A   1      35.374  21.546  26.587  1.00  0.00    -0.352 N 
ATOM     75  C   UNL A   1      34.005  21.472  26.529  1.00  0.00     0.251 C 
ATOM     76  H   UNL A   1      35.753  21.633  27.492  1.00  0.00     0.163 HD
ATOM     77  O   UNL A   1      33.341  21.518  27.559  1.00  0.00    -0.269 OA
BRANCH  75  78
ATOM     78  C   UNL A   1      33.339  21.328  25.215  1.00  0.00     0.047 A 
ATOM     79  C   UNL A   1      33.052  20.029  24.761  1.00  0.00     0.017 A 
ATOM     80  C   UNL A   1      32.969  22.462  24.460  1.00  0.00    -0.003 A 
ATOM     81  C   UNL A   1      32.464  19.840  23.514  1.00  0.00     0.040 A 
ATOM     82  C   UNL A   1      32.370  22.242  23.206  1.00  0.00     0.048 A 
ATOM     83  C   UNL A   1      32.137  20.948  22.745  1.00  0.00     0.123 A 
ATOM     84  F   UNL A   1      31.581  20.770  21.540  1.00  0.00    -0.207 F 
BRANCH  80  85
ATOM     85  C   UNL A   1      33.163  23.844  24.931  1.00  0.00    -0.016 A 
ATOM     86  C   UNL A   1      34.421  24.468  24.881  1.00  0.00     0.012 A 
ATOM     87  C   UNL A   1      32.076  24.566  25.460  1.00  0.00     0.032 A 
ATOM     88  C   UNL A   1      34.590  25.772  25.357  1.00  0.00     0.041 A 
ATOM     89  C   UNL A   1      32.248  25.868  25.934  1.00  0.00     0.077 A 
ATOM     90  C   UNL A   1      33.503  26.463  25.882  1.00  0.00     0.141 A 
ATOM     91  Cl  UNL A   1      30.895  26.720  26.574  1.00  0.00    -0.081 Cl
ATOM     92  F   UNL A   1      33.691  27.713  26.333  1.00  0.00    -0.205 F 
ENDBRANCH  80  85
ENDBRANCH  75  78
ENDBRANCH  73  74
ENDBRANCH  72  73
ENDBRANCH   1  72
TORSDOF 12
ENDMDL
