MODEL 1
REMARK VINA RESULT:     -14.1      0.000      0.000
REMARK SMILES Cc1ccc(-c2cc(Cl)ccc2Cl)c(C(=O)NCCCCNC(=O)c2ccc(-c3c4nc(c(-c5c(F)c(F)c(F)c(F)c5F)c5ccc([nH]5)c(-c5c(F)c(F)c(F)c(F)c5F)c5nc(c(-c6c(F)c(F)c(F)c(F)c6F)c6ccc3[nH]6)C=C5)C=C4)cc2)c1
REMARK SMILES IDX 20 1 19 2 18 3 17 4 15 5 16 6 14 8 1 9 2 10 3 11 88 12 4 13
REMARK SMILES IDX 5 14 6 15 7 16 12 17 8 18 11 19 13 20 9 21 10 22 21 23 22 24
REMARK SMILES IDX 23 25 24 27 25 28 26 29 87 30 27 31 86 32 28 33 29 34 30 35
REMARK SMILES IDX 80 36 31 37 85 38 79 39 81 40 32 41 84 42 78 43 77 44 33 46
REMARK SMILES IDX 65 47 45 48 64 49 46 50 49 51 63 52 82 53 47 54 48 55 62 57
REMARK SMILES IDX 83 58 50 59 34 60 35 61 43 62 36 63 37 64 41 65 44 66 38 67
REMARK SMILES IDX 39 68 42 69 40 70 66 71 67 72 75 73 68 74 69 75 73 76 76 77
REMARK SMILES IDX 70 78 71 79 74 80 72 81 51 82 52 83 60 84 53 85 54 86 58 87
REMARK SMILES IDX 61 88 55 89 56 90 59 91 57 92
REMARK H PARENT 17 7 22 26 81 45 49 56
REMARK Flexibility Score: inf
ROOT
ATOM      1  C   UNL A   1      33.064  30.910  27.177  1.00  0.00     0.023 C 
ENDROOT
BRANCH   1   2
ATOM      2  C   UNL A   1      31.922  29.903  26.977  1.00  0.00     0.023 C 
BRANCH   2   3
ATOM      3  C   UNL A   1      32.347  28.564  26.353  1.00  0.00     0.116 C 
BRANCH   3   4
ATOM      4  N   UNL A   1      32.684  28.685  24.945  1.00  0.00    -0.352 N 
ATOM      5  C   UNL A   1      31.998  28.804  23.761  1.00  0.00     0.251 C 
ATOM      6  O   UNL A   1      32.737  28.948  22.785  1.00  0.00    -0.269 OA
ATOM      7  H   UNL A   1      33.659  28.681  24.803  1.00  0.00     0.163 HD
BRANCH   5   8
ATOM      8  C   UNL A   1      30.495  28.790  23.595  1.00  0.00     0.047 A 
ATOM      9  C   UNL A   1      27.665  31.302  22.972  1.00  0.00     0.044 C 
ATOM     10  C   UNL A   1      28.384  30.002  23.186  1.00  0.00    -0.050 A 
ATOM     11  C   UNL A   1      27.691  28.800  23.132  1.00  0.00     0.004 A 
ATOM     12  C   UNL A   1      29.763  29.981  23.447  1.00  0.00     0.018 A 
ATOM     13  C   UNL A   1      28.370  27.604  23.345  1.00  0.00     0.010 A 
ATOM     14  C   UNL A   1      29.768  27.564  23.575  1.00  0.00    -0.004 A 
BRANCH  14  15
ATOM     15  C   UNL A   1      30.353  26.225  23.821  1.00  0.00     0.003 A 
ATOM     16  C   UNL A   1      30.123  25.592  25.062  1.00  0.00     0.030 A 
ATOM     17  C   UNL A   1      31.097  25.518  22.854  1.00  0.00     0.049 A 
ATOM     18  C   UNL A   1      30.652  24.329  25.335  1.00  0.00     0.041 A 
ATOM     19  C   UNL A   1      31.600  24.238  23.125  1.00  0.00     0.023 A 
ATOM     20  Cl  UNL A   1      31.430  26.179  21.289  1.00  0.00    -0.084 Cl
ATOM     21  Cl  UNL A   1      30.399  23.613  26.879  1.00  0.00    -0.084 Cl
ATOM     22  C   UNL A   1      31.385  23.646  24.370  1.00  0.00     0.022 A 
ENDBRANCH  14  15
ENDBRANCH   5   8
ENDBRANCH   3   4
ENDBRANCH   2   3
ENDBRANCH   1   2
BRANCH   1  23
ATOM     23  C   UNL A   1      34.297  30.324  27.853  1.00  0.00     0.116 C 
BRANCH  23  24
ATOM     24  N   UNL A   1      35.086  31.275  28.626  1.00  0.00    -0.352 N 
ATOM     25  C   UNL A   1      36.296  31.097  29.282  1.00  0.00     0.251 C 
ATOM     26  H   UNL A   1      34.702  32.179  28.694  1.00  0.00     0.163 HD
ATOM     27  O   UNL A   1      36.754  31.990  29.972  1.00  0.00    -0.269 OA
BRANCH  25  28
ATOM     28  C   UNL A   1      37.102  29.875  29.020  1.00  0.00     0.039 A 
ATOM     29  C   UNL A   1      37.243  28.954  30.067  1.00  0.00     0.014 A 
ATOM     30  C   UNL A   1      37.876  29.747  27.872  1.00  0.00     0.014 A 
ATOM     31  C   UNL A   1      38.342  28.097  30.079  1.00  0.00     0.010 A 
ATOM     32  C   UNL A   1      39.022  28.977  27.927  1.00  0.00     0.010 A 
ATOM     33  C   UNL A   1      39.295  28.220  29.071  1.00  0.00    -0.014 A 
BRANCH  33  34
ATOM     34  C   UNL A   1      40.664  27.739  29.206  1.00  0.00     0.031 A 
ATOM     35  C   UNL A   1      41.035  26.377  28.769  1.00  0.00     0.074 A 
ATOM     36  C   UNL A   1      41.616  28.604  29.629  1.00  0.00     0.049 A 
ATOM     37  N   UNL A   1      42.144  25.801  29.090  1.00  0.00    -0.248 NA
ATOM     38  C   UNL A   1      40.147  25.510  28.000  1.00  0.00     0.031 C 
ATOM     39  C   UNL A   1      43.067  28.460  29.515  1.00  0.00     0.029 A 
ATOM     40  N   UNL A   1      41.445  29.738  30.448  1.00  0.00    -0.354 N 
ATOM     41  C   UNL A   1      42.247  24.647  28.353  1.00  0.00     0.074 A 
ATOM     42  C   UNL A   1      40.931  24.443  27.802  1.00  0.00     0.031 C 
ATOM     43  C   UNL A   1      43.654  29.240  30.436  1.00  0.00     0.029 A 
ATOM     44  C   UNL A   1      42.598  29.787  31.267  1.00  0.00     0.049 A 
ATOM     45  H   UNL A   1      40.685  30.363  30.450  1.00  0.00     0.167 HD
ATOM     46  C   UNL A   1      43.476  24.082  28.199  1.00  0.00     0.037 A 
ATOM     47  C   UNL A   1      42.522  29.632  32.621  1.00  0.00     0.037 A 
ATOM     48  C   UNL A   1      44.425  24.639  29.163  1.00  0.00     0.049 A 
ATOM     49  C   UNL A   1      43.325  28.472  33.158  1.00  0.00     0.074 A 
ATOM     50  C   UNL A   1      45.491  25.516  29.064  1.00  0.00     0.029 A 
ATOM     51  N   UNL A   1      44.164  24.485  30.523  1.00  0.00    -0.354 N 
ATOM     52  N   UNL A   1      43.750  27.480  32.426  1.00  0.00    -0.248 NA
ATOM     53  C   UNL A   1      43.675  28.317  34.567  1.00  0.00     0.031 C 
ATOM     54  C   UNL A   1      45.803  25.965  30.376  1.00  0.00     0.029 A 
ATOM     55  C   UNL A   1      44.963  25.325  31.273  1.00  0.00     0.049 A 
ATOM     56  H   UNL A   1      43.500  23.863  30.899  1.00  0.00     0.167 HD
ATOM     57  C   UNL A   1      44.368  26.554  33.225  1.00  0.00     0.074 A 
ATOM     58  C   UNL A   1      44.323  27.138  34.552  1.00  0.00     0.031 C 
ATOM     59  C   UNL A   1      44.837  25.372  32.724  1.00  0.00     0.037 A 
BRANCH  46  60
ATOM     60  C   UNL A   1      43.893  23.155  27.072  1.00  0.00     0.064 A 
ATOM     61  C   UNL A   1      44.738  23.629  26.041  1.00  0.00     0.173 A 
ATOM     62  C   UNL A   1      43.397  21.849  26.862  1.00  0.00     0.173 A 
ATOM     63  F   UNL A   1      45.277  24.854  26.094  1.00  0.00    -0.203 F 
ATOM     64  C   UNL A   1      45.041  22.869  24.903  1.00  0.00     0.198 A 
ATOM     65  C   UNL A   1      43.743  21.073  25.751  1.00  0.00     0.198 A 
ATOM     66  F   UNL A   1      42.507  21.281  27.680  1.00  0.00    -0.203 F 
ATOM     67  F   UNL A   1      45.798  23.397  23.931  1.00  0.00    -0.200 F 
ATOM     68  C   UNL A   1      44.551  21.587  24.764  1.00  0.00     0.200 A 
ATOM     69  F   UNL A   1      43.252  19.830  25.636  1.00  0.00    -0.200 F 
ATOM     70  F   UNL A   1      44.839  20.858  23.678  1.00  0.00    -0.200 F 
ENDBRANCH  46  60
BRANCH  47  71
ATOM     71  C   UNL A   1      41.246  30.126  33.200  1.00  0.00     0.064 A 
ATOM     72  C   UNL A   1      41.071  31.516  33.339  1.00  0.00     0.173 A 
ATOM     73  C   UNL A   1      40.102  29.321  33.247  1.00  0.00     0.173 A 
ATOM     74  F   UNL A   1      42.136  32.332  33.296  1.00  0.00    -0.203 F 
ATOM     75  C   UNL A   1      39.800  32.083  33.402  1.00  0.00     0.198 A 
ATOM     76  C   UNL A   1      38.830  29.893  33.323  1.00  0.00     0.198 A 
ATOM     77  F   UNL A   1      40.202  27.992  33.098  1.00  0.00    -0.203 F 
ATOM     78  F   UNL A   1      39.665  33.417  33.420  1.00  0.00    -0.200 F 
ATOM     79  C   UNL A   1      38.679  31.272  33.366  1.00  0.00     0.200 A 
ATOM     80  F   UNL A   1      37.743  29.111  33.254  1.00  0.00    -0.200 F 
ATOM     81  F   UNL A   1      37.455  31.817  33.327  1.00  0.00    -0.200 F 
ENDBRANCH  47  71
BRANCH  59  82
ATOM     82  C   UNL A   1      45.280  24.182  33.544  1.00  0.00     0.064 A 
ATOM     83  C   UNL A   1      44.488  23.042  33.771  1.00  0.00     0.173 A 
ATOM     84  C   UNL A   1      46.613  24.095  34.015  1.00  0.00     0.173 A 
ATOM     85  F   UNL A   1      43.253  22.937  33.266  1.00  0.00    -0.203 F 
ATOM     86  C   UNL A   1      44.967  21.934  34.477  1.00  0.00     0.198 A 
ATOM     87  C   UNL A   1      47.105  22.963  34.666  1.00  0.00     0.198 A 
ATOM     88  F   UNL A   1      47.486  25.095  33.830  1.00  0.00    -0.203 F 
ATOM     89  F   UNL A   1      44.154  20.893  34.706  1.00  0.00    -0.200 F 
ATOM     90  C   UNL A   1      46.277  21.889  34.914  1.00  0.00     0.200 A 
ATOM     91  F   UNL A   1      48.394  22.913  35.030  1.00  0.00    -0.200 F 
ATOM     92  F   UNL A   1      46.744  20.807  35.549  1.00  0.00    -0.200 F 
ENDBRANCH  59  82
ENDBRANCH  33  34
ENDBRANCH  25  28
ENDBRANCH  23  24
ENDBRANCH   1  23
TORSDOF 12
ENDMDL
MODEL 2
REMARK VINA RESULT:     -14.0      4.367     10.559
REMARK SMILES Cc1ccc(-c2cc(Cl)ccc2Cl)c(C(=O)NCCCCNC(=O)c2ccc(-c3c4nc(c(-c5c(F)c(F)c(F)c(F)c5F)c5ccc([nH]5)c(-c5c(F)c(F)c(F)c(F)c5F)c5nc(c(-c6c(F)c(F)c(F)c(F)c6F)c6ccc3[nH]6)C=C5)C=C4)cc2)c1
REMARK SMILES IDX 20 1 19 2 18 3 17 4 15 5 16 6 14 8 1 9 2 10 3 11 88 12 4 13
REMARK SMILES IDX 5 14 6 15 7 16 12 17 8 18 11 19 13 20 9 21 10 22 21 23 22 24
REMARK SMILES IDX 23 25 24 27 25 28 26 29 87 30 27 31 86 32 28 33 29 34 30 35
REMARK SMILES IDX 80 36 31 37 85 38 79 39 81 40 32 41 84 42 78 43 77 44 33 46
REMARK SMILES IDX 65 47 45 48 64 49 46 50 49 51 63 52 82 53 47 54 48 55 62 57
REMARK SMILES IDX 83 58 50 59 34 60 35 61 43 62 36 63 37 64 41 65 44 66 38 67
REMARK SMILES IDX 39 68 42 69 40 70 66 71 67 72 75 73 68 74 69 75 73 76 76 77
REMARK SMILES IDX 70 78 71 79 74 80 72 81 51 82 52 83 60 84 53 85 54 86 58 87
REMARK SMILES IDX 61 88 55 89 56 90 59 91 57 92
REMARK H PARENT 17 7 22 26 81 45 49 56
REMARK Flexibility Score: inf
ROOT
ATOM      1  C   UNL A   1      38.639  21.202  25.572  1.00  0.00     0.023 C 
ENDROOT
BRANCH   1   2
ATOM      2  C   UNL A   1      37.242  21.211  24.936  1.00  0.00     0.023 C 
BRANCH   2   3
ATOM      3  C   UNL A   1      36.370  22.418  25.318  1.00  0.00     0.116 C 
BRANCH   3   4
ATOM      4  N   UNL A   1      35.338  22.078  26.283  1.00  0.00    -0.352 N 
ATOM      5  C   UNL A   1      34.196  21.316  26.295  1.00  0.00     0.251 C 
ATOM      6  O   UNL A   1      33.654  21.272  27.401  1.00  0.00    -0.269 OA
ATOM      7  H   UNL A   1      35.500  22.507  27.154  1.00  0.00     0.163 HD
BRANCH   5   8
ATOM      8  C   UNL A   1      33.612  20.562  25.121  1.00  0.00     0.047 A 
ATOM      9  C   UNL A   1      33.621  16.988  23.729  1.00  0.00     0.044 C 
ATOM     10  C   UNL A   1      33.310  18.449  23.881  1.00  0.00    -0.050 A 
ATOM     11  C   UNL A   1      32.422  19.071  23.015  1.00  0.00     0.004 A 
ATOM     12  C   UNL A   1      33.913  19.207  24.897  1.00  0.00     0.018 A 
ATOM     13  C   UNL A   1      32.155  20.429  23.162  1.00  0.00     0.010 A 
ATOM     14  C   UNL A   1      32.728  21.200  24.202  1.00  0.00    -0.004 A 
BRANCH  14  15
ATOM     15  C   UNL A   1      32.382  22.641  24.217  1.00  0.00     0.003 A 
ATOM     16  C   UNL A   1      33.062  23.519  23.346  1.00  0.00     0.030 A 
ATOM     17  C   UNL A   1      31.366  23.183  25.031  1.00  0.00     0.049 A 
ATOM     18  C   UNL A   1      32.766  24.884  23.323  1.00  0.00     0.041 A 
ATOM     19  C   UNL A   1      31.055  24.549  24.982  1.00  0.00     0.023 A 
ATOM     20  Cl  UNL A   1      30.448  22.205  26.127  1.00  0.00    -0.084 Cl
ATOM     21  Cl  UNL A   1      33.653  25.934  22.290  1.00  0.00    -0.084 Cl
ATOM     22  C   UNL A   1      31.761  25.402  24.134  1.00  0.00     0.022 A 
ENDBRANCH  14  15
ENDBRANCH   5   8
ENDBRANCH   3   4
ENDBRANCH   2   3
ENDBRANCH   1   2
BRANCH   1  23
ATOM     23  C   UNL A   1      39.048  22.532  26.192  1.00  0.00     0.116 C 
BRANCH  23  24
ATOM     24  N   UNL A   1      40.486  22.736  26.321  1.00  0.00    -0.352 N 
ATOM     25  C   UNL A   1      41.202  23.910  26.501  1.00  0.00     0.251 C 
ATOM     26  H   UNL A   1      41.030  21.917  26.273  1.00  0.00     0.163 HD
ATOM     27  O   UNL A   1      42.420  23.893  26.480  1.00  0.00    -0.269 OA
BRANCH  25  28
ATOM     28  C   UNL A   1      40.485  25.161  26.867  1.00  0.00     0.039 A 
ATOM     29  C   UNL A   1      40.778  26.317  26.130  1.00  0.00     0.014 A 
ATOM     30  C   UNL A   1      39.728  25.251  28.031  1.00  0.00     0.014 A 
ATOM     31  C   UNL A   1      40.561  27.567  26.705  1.00  0.00     0.010 A 
ATOM     32  C   UNL A   1      39.608  26.481  28.649  1.00  0.00     0.010 A 
ATOM     33  C   UNL A   1      40.106  27.626  28.021  1.00  0.00    -0.014 A 
BRANCH  33  34
ATOM     34  C   UNL A   1      40.274  28.799  28.870  1.00  0.00     0.031 A 
ATOM     35  C   UNL A   1      39.237  29.850  28.924  1.00  0.00     0.074 A 
ATOM     36  C   UNL A   1      41.343  28.849  29.699  1.00  0.00     0.049 A 
ATOM     37  N   UNL A   1      39.429  31.016  29.441  1.00  0.00    -0.248 NA
ATOM     38  C   UNL A   1      37.914  29.706  28.321  1.00  0.00     0.031 C 
ATOM     39  C   UNL A   1      41.535  29.725  30.854  1.00  0.00     0.029 A 
ATOM     40  N   UNL A   1      42.593  28.222  29.530  1.00  0.00    -0.354 N 
ATOM     41  C   UNL A   1      38.213  31.651  29.507  1.00  0.00     0.074 A 
ATOM     42  C   UNL A   1      37.339  30.860  28.680  1.00  0.00     0.031 C 
ATOM     43  C   UNL A   1      42.848  29.821  31.113  1.00  0.00     0.029 A 
ATOM     44  C   UNL A   1      43.544  29.137  30.039  1.00  0.00     0.049 A 
ATOM     45  H   UNL A   1      42.767  27.335  29.140  1.00  0.00     0.167 HD
ATOM     46  C   UNL A   1      38.074  32.699  30.365  1.00  0.00     0.037 A 
ATOM     47  C   UNL A   1      44.484  29.715  29.234  1.00  0.00     0.037 A 
ATOM     48  C   UNL A   1      39.382  33.179  30.811  1.00  0.00     0.049 A 
ATOM     49  C   UNL A   1      44.427  31.224  29.202  1.00  0.00     0.074 A 
ATOM     50  C   UNL A   1      40.082  33.090  32.001  1.00  0.00     0.029 A 
ATOM     51  N   UNL A   1      40.280  33.656  29.858  1.00  0.00    -0.354 N 
ATOM     52  N   UNL A   1      43.390  31.921  29.575  1.00  0.00    -0.248 NA
ATOM     53  C   UNL A   1      45.514  32.062  28.706  1.00  0.00     0.031 C 
ATOM     54  C   UNL A   1      41.438  33.423  31.730  1.00  0.00     0.029 A 
ATOM     55  C   UNL A   1      41.548  33.762  30.391  1.00  0.00     0.049 A 
ATOM     56  H   UNL A   1      40.042  33.885  28.931  1.00  0.00     0.167 HD
ATOM     57  C   UNL A   1      43.624  33.251  29.341  1.00  0.00     0.074 A 
ATOM     58  C   UNL A   1      44.980  33.290  28.826  1.00  0.00     0.031 C 
ATOM     59  C   UNL A   1      42.668  34.200  29.566  1.00  0.00     0.037 A 
BRANCH  46  60
ATOM     60  C   UNL A   1      36.767  33.196  30.956  1.00  0.00     0.064 A 
ATOM     61  C   UNL A   1      35.879  33.964  30.167  1.00  0.00     0.173 A 
ATOM     62  C   UNL A   1      36.387  33.081  32.312  1.00  0.00     0.173 A 
ATOM     63  F   UNL A   1      36.112  34.170  28.863  1.00  0.00    -0.203 F 
ATOM     64  C   UNL A   1      34.730  34.569  30.693  1.00  0.00     0.198 A 
ATOM     65  C   UNL A   1      35.212  33.643  32.824  1.00  0.00     0.198 A 
ATOM     66  F   UNL A   1      37.157  32.479  33.223  1.00  0.00    -0.203 F 
ATOM     67  F   UNL A   1      33.961  35.336  29.907  1.00  0.00    -0.200 F 
ATOM     68  C   UNL A   1      34.392  34.399  32.020  1.00  0.00     0.200 A 
ATOM     69  F   UNL A   1      34.906  33.466  34.117  1.00  0.00    -0.200 F 
ATOM     70  F   UNL A   1      33.294  34.977  32.526  1.00  0.00    -0.200 F 
ENDBRANCH  46  60
BRANCH  47  71
ATOM     71  C   UNL A   1      44.898  28.853  28.099  1.00  0.00     0.064 A 
ATOM     72  C   UNL A   1      45.787  27.792  28.357  1.00  0.00     0.173 A 
ATOM     73  C   UNL A   1      44.168  28.810  26.905  1.00  0.00     0.173 A 
ATOM     74  F   UNL A   1      46.509  27.784  29.490  1.00  0.00    -0.203 F 
ATOM     75  C   UNL A   1      45.854  26.683  27.518  1.00  0.00     0.198 A 
ATOM     76  C   UNL A   1      44.246  27.701  26.061  1.00  0.00     0.198 A 
ATOM     77  F   UNL A   1      43.289  29.779  26.614  1.00  0.00    -0.203 F 
ATOM     78  F   UNL A   1      46.628  25.639  27.851  1.00  0.00    -0.200 F 
ATOM     79  C   UNL A   1      45.062  26.625  26.384  1.00  0.00     0.200 A 
ATOM     80  F   UNL A   1      43.455  27.629  24.980  1.00  0.00    -0.200 F 
ATOM     81  F   UNL A   1      45.049  25.519  25.628  1.00  0.00    -0.200 F 
ENDBRANCH  47  71
BRANCH  59  82
ATOM     82  C   UNL A   1      42.721  35.635  29.094  1.00  0.00     0.064 A 
ATOM     83  C   UNL A   1      42.023  36.123  27.975  1.00  0.00     0.173 A 
ATOM     84  C   UNL A   1      43.384  36.618  29.868  1.00  0.00     0.173 A 
ATOM     85  F   UNL A   1      41.247  35.324  27.231  1.00  0.00    -0.203 F 
ATOM     86  C   UNL A   1      42.047  37.476  27.617  1.00  0.00     0.198 A 
ATOM     87  C   UNL A   1      43.355  37.974  29.542  1.00  0.00     0.198 A 
ATOM     88  F   UNL A   1      44.055  36.294  30.983  1.00  0.00    -0.203 F 
ATOM     89  F   UNL A   1      41.401  37.879  26.514  1.00  0.00    -0.200 F 
ATOM     90  C   UNL A   1      42.702  38.401  28.406  1.00  0.00     0.200 A 
ATOM     91  F   UNL A   1      43.946  38.866  30.350  1.00  0.00    -0.200 F 
ATOM     92  F   UNL A   1      42.683  39.701  28.084  1.00  0.00    -0.200 F 
ENDBRANCH  59  82
ENDBRANCH  33  34
ENDBRANCH  25  28
ENDBRANCH  23  24
ENDBRANCH   1  23
TORSDOF 12
ENDMDL
MODEL 3
REMARK VINA RESULT:     -14.0      1.223      2.044
REMARK SMILES Cc1ccc(-c2cc(Cl)ccc2Cl)c(C(=O)NCCCCNC(=O)c2ccc(-c3c4nc(c(-c5c(F)c(F)c(F)c(F)c5F)c5ccc([nH]5)c(-c5c(F)c(F)c(F)c(F)c5F)c5nc(c(-c6c(F)c(F)c(F)c(F)c6F)c6ccc3[nH]6)C=C5)C=C4)cc2)c1
REMARK SMILES IDX 20 1 19 2 18 3 17 4 15 5 16 6 14 8 1 9 2 10 3 11 88 12 4 13
REMARK SMILES IDX 5 14 6 15 7 16 12 17 8 18 11 19 13 20 9 21 10 22 21 23 22 24
REMARK SMILES IDX 23 25 24 27 25 28 26 29 87 30 27 31 86 32 28 33 29 34 30 35
REMARK SMILES IDX 80 36 31 37 85 38 79 39 81 40 32 41 84 42 78 43 77 44 33 46
REMARK SMILES IDX 65 47 45 48 64 49 46 50 49 51 63 52 82 53 47 54 48 55 62 57
REMARK SMILES IDX 83 58 50 59 34 60 35 61 43 62 36 63 37 64 41 65 44 66 38 67
REMARK SMILES IDX 39 68 42 69 40 70 66 71 67 72 75 73 68 74 69 75 73 76 76 77
REMARK SMILES IDX 70 78 71 79 74 80 72 81 51 82 52 83 60 84 53 85 54 86 58 87
REMARK SMILES IDX 61 88 55 89 56 90 59 91 57 92
REMARK H PARENT 17 7 22 26 81 45 49 56
REMARK Flexibility Score: inf
ROOT
ATOM      1  C   UNL A   1      32.528  30.208  27.255  1.00  0.00     0.023 C 
ENDROOT
BRANCH   1   2
ATOM      2  C   UNL A   1      32.944  28.760  27.548  1.00  0.00     0.023 C 
BRANCH   2   3
ATOM      3  C   UNL A   1      32.523  27.740  26.477  1.00  0.00     0.116 C 
BRANCH   3   4
ATOM      4  N   UNL A   1      32.933  28.131  25.140  1.00  0.00    -0.352 N 
ATOM      5  C   UNL A   1      32.310  28.505  23.974  1.00  0.00     0.251 C 
ATOM      6  O   UNL A   1      33.100  28.820  23.083  1.00  0.00    -0.269 OA
ATOM      7  H   UNL A   1      33.913  28.127  25.045  1.00  0.00     0.163 HD
BRANCH   5   8
ATOM      8  C   UNL A   1      30.818  28.569  23.740  1.00  0.00     0.047 A 
ATOM      9  C   UNL A   1      28.130  31.238  23.140  1.00  0.00     0.044 C 
ATOM     10  C   UNL A   1      28.782  29.897  23.309  1.00  0.00    -0.050 A 
ATOM     11  C   UNL A   1      28.042  28.733  23.153  1.00  0.00     0.004 A 
ATOM     12  C   UNL A   1      30.145  29.799  23.629  1.00  0.00     0.018 A 
ATOM     13  C   UNL A   1      28.659  27.497  23.326  1.00  0.00     0.010 A 
ATOM     14  C   UNL A   1      30.040  27.381  23.616  1.00  0.00    -0.004 A 
BRANCH  14  15
ATOM     15  C   UNL A   1      30.555  26.004  23.808  1.00  0.00     0.003 A 
ATOM     16  C   UNL A   1      30.255  25.320  25.005  1.00  0.00     0.030 A 
ATOM     17  C   UNL A   1      31.300  25.314  22.829  1.00  0.00     0.049 A 
ATOM     18  C   UNL A   1      30.716  24.021  25.228  1.00  0.00     0.041 A 
ATOM     19  C   UNL A   1      31.734  24.000  23.048  1.00  0.00     0.023 A 
ATOM     20  Cl  UNL A   1      31.715  26.038  21.312  1.00  0.00    -0.084 Cl
ATOM     21  Cl  UNL A   1      30.378  23.239  26.722  1.00  0.00    -0.084 Cl
ATOM     22  C   UNL A   1      31.449  23.355  24.252  1.00  0.00     0.022 A 
ENDBRANCH  14  15
ENDBRANCH   5   8
ENDBRANCH   3   4
ENDBRANCH   2   3
ENDBRANCH   1   2
BRANCH   1  23
ATOM     23  C   UNL A   1      33.690  31.129  26.906  1.00  0.00     0.116 C 
BRANCH  23  24
ATOM     24  N   UNL A   1      34.192  31.934  28.012  1.00  0.00    -0.352 N 
ATOM     25  C   UNL A   1      35.140  31.622  28.976  1.00  0.00     0.251 C 
ATOM     26  H   UNL A   1      33.799  32.834  28.087  1.00  0.00     0.163 HD
ATOM     27  O   UNL A   1      35.354  32.393  29.895  1.00  0.00    -0.269 OA
BRANCH  25  28
ATOM     28  C   UNL A   1      35.997  30.420  28.804  1.00  0.00     0.039 A 
ATOM     29  C   UNL A   1      36.301  29.669  29.948  1.00  0.00     0.014 A 
ATOM     30  C   UNL A   1      36.663  30.167  27.609  1.00  0.00     0.014 A 
ATOM     31  C   UNL A   1      37.451  28.882  29.963  1.00  0.00     0.010 A 
ATOM     32  C   UNL A   1      37.858  29.474  27.650  1.00  0.00     0.010 A 
ATOM     33  C   UNL A   1      38.292  28.907  28.853  1.00  0.00    -0.014 A 
BRANCH  33  34
ATOM     34  C   UNL A   1      39.696  28.524  28.908  1.00  0.00     0.031 A 
ATOM     35  C   UNL A   1      40.117  27.142  28.596  1.00  0.00     0.074 A 
ATOM     36  C   UNL A   1      40.622  29.486  29.134  1.00  0.00     0.049 A 
ATOM     37  N   UNL A   1      41.287  26.672  28.871  1.00  0.00    -0.248 NA
ATOM     38  C   UNL A   1      39.223  26.140  28.021  1.00  0.00     0.031 C 
ATOM     39  C   UNL A   1      42.063  29.410  28.897  1.00  0.00     0.029 A 
ATOM     40  N   UNL A   1      40.449  30.698  29.830  1.00  0.00    -0.354 N 
ATOM     41  C   UNL A   1      41.400  25.445  28.265  1.00  0.00     0.074 A 
ATOM     42  C   UNL A   1      40.057  25.103  27.872  1.00  0.00     0.031 C 
ATOM     43  C   UNL A   1      42.677  30.327  29.661  1.00  0.00     0.029 A 
ATOM     44  C   UNL A   1      41.665  30.910  30.523  1.00  0.00     0.049 A 
ATOM     45  H   UNL A   1      39.652  31.275  29.835  1.00  0.00     0.167 HD
ATOM     46  C   UNL A   1      42.646  24.936  28.058  1.00  0.00     0.037 A 
ATOM     47  C   UNL A   1      41.722  30.916  31.887  1.00  0.00     0.037 A 
ATOM     48  C   UNL A   1      43.638  25.657  28.855  1.00  0.00     0.049 A 
ATOM     49  C   UNL A   1      42.647  29.876  32.472  1.00  0.00     0.074 A 
ATOM     50  C   UNL A   1      44.629  26.574  28.552  1.00  0.00     0.029 A 
ATOM     51  N   UNL A   1      43.512  25.654  30.243  1.00  0.00    -0.354 N 
ATOM     52  N   UNL A   1      43.070  28.828  31.821  1.00  0.00    -0.248 NA
ATOM     53  C   UNL A   1      43.132  29.911  33.849  1.00  0.00     0.031 C 
ATOM     54  C   UNL A   1      45.027  27.195  29.768  1.00  0.00     0.029 A 
ATOM     55  C   UNL A   1      44.316  26.621  30.810  1.00  0.00     0.049 A 
ATOM     56  H   UNL A   1      42.927  25.045  30.750  1.00  0.00     0.167 HD
ATOM     57  C   UNL A   1      43.819  28.041  32.656  1.00  0.00     0.074 A 
ATOM     58  C   UNL A   1      43.854  28.777  33.906  1.00  0.00     0.031 C 
ATOM     59  C   UNL A   1      44.319  26.836  32.251  1.00  0.00     0.037 A 
BRANCH  46  60
ATOM     60  C   UNL A   1      43.021  23.905  27.009  1.00  0.00     0.064 A 
ATOM     61  C   UNL A   1      42.714  22.540  27.216  1.00  0.00     0.173 A 
ATOM     62  C   UNL A   1      43.797  24.157  25.856  1.00  0.00     0.173 A 
ATOM     63  F   UNL A   1      41.993  22.143  28.274  1.00  0.00    -0.203 F 
ATOM     64  C   UNL A   1      43.159  21.526  26.356  1.00  0.00     0.198 A 
ATOM     65  C   UNL A   1      44.195  23.150  24.971  1.00  0.00     0.198 A 
ATOM     66  F   UNL A   1      44.264  25.373  25.559  1.00  0.00    -0.203 F 
ATOM     67  F   UNL A   1      42.888  20.245  26.641  1.00  0.00    -0.200 F 
ATOM     68  C   UNL A   1      43.890  21.833  25.228  1.00  0.00     0.200 A 
ATOM     69  F   UNL A   1      44.908  23.472  23.882  1.00  0.00    -0.200 F 
ATOM     70  F   UNL A   1      44.316  20.867  24.404  1.00  0.00    -0.200 F 
ENDBRANCH  46  60
BRANCH  47  71
ATOM     71  C   UNL A   1      40.473  31.403  32.526  1.00  0.00     0.064 A 
ATOM     72  C   UNL A   1      40.216  32.787  32.517  1.00  0.00     0.173 A 
ATOM     73  C   UNL A   1      39.397  30.545  32.781  1.00  0.00     0.173 A 
ATOM     74  F   UNL A   1      41.214  33.652  32.273  1.00  0.00    -0.203 F 
ATOM     75  C   UNL A   1      38.920  33.283  32.638  1.00  0.00     0.198 A 
ATOM     76  C   UNL A   1      38.100  31.048  32.914  1.00  0.00     0.198 A 
ATOM     77  F   UNL A   1      39.574  29.217  32.780  1.00  0.00    -0.203 F 
ATOM     78  F   UNL A   1      38.695  34.599  32.513  1.00  0.00    -0.200 F 
ATOM     79  C   UNL A   1      37.859  32.411  32.809  1.00  0.00     0.200 A 
ATOM     80  F   UNL A   1      37.068  30.202  33.046  1.00  0.00    -0.200 F 
ATOM     81  F   UNL A   1      36.602  32.876  32.828  1.00  0.00    -0.200 F 
ENDBRANCH  47  71
BRANCH  59  82
ATOM     82  C   UNL A   1      44.912  25.780  33.155  1.00  0.00     0.064 A 
ATOM     83  C   UNL A   1      46.266  25.400  33.141  1.00  0.00     0.173 A 
ATOM     84  C   UNL A   1      44.136  25.209  34.193  1.00  0.00     0.173 A 
ATOM     85  F   UNL A   1      47.141  25.962  32.297  1.00  0.00    -0.203 F 
ATOM     86  C   UNL A   1      46.786  24.468  34.046  1.00  0.00     0.198 A 
ATOM     87  C   UNL A   1      44.672  24.326  35.132  1.00  0.00     0.198 A 
ATOM     88  F   UNL A   1      42.840  25.515  34.346  1.00  0.00    -0.203 F 
ATOM     89  F   UNL A   1      48.074  24.108  33.958  1.00  0.00    -0.200 F 
ATOM     90  C   UNL A   1      45.993  23.941  35.047  1.00  0.00     0.200 A 
ATOM     91  F   UNL A   1      43.904  23.870  36.131  1.00  0.00    -0.200 F 
ATOM     92  F   UNL A   1      46.507  23.084  35.939  1.00  0.00    -0.200 F 
ENDBRANCH  59  82
ENDBRANCH  33  34
ENDBRANCH  25  28
ENDBRANCH  23  24
ENDBRANCH   1  23
TORSDOF 12
ENDMDL
