MODEL 1
REMARK VINA RESULT:     -12.8      0.000      0.000
REMARK SMILES Cc1cc(C)cc(C2(C(=O)NCCCCNC(=O)c3ccc(-c4c5nc(c(-c6c(F)c(F)c(F)c(F)c6F)c6ccc([nH]6)c(-c6c(F)c(F)c(F)c(F)c6F)c6nc(c(-c7c(F)c(F)c(F)c(F)c7F)c7ccc4[nH]7)C=C6)C=C5)cc3)CCOCC2)c1
REMARK SMILES IDX 14 1 13 2 12 3 11 4 9 5 10 6 8 8 82 9 86 10 83 11 85 12
REMARK SMILES IDX 84 13 7 14 1 15 2 16 3 17 87 18 4 19 5 20 6 21 15 22 16 23
REMARK SMILES IDX 17 24 18 26 19 27 20 28 81 29 21 30 80 31 22 32 23 33 24 34
REMARK SMILES IDX 74 35 25 36 79 37 73 38 75 39 26 40 78 41 72 42 71 43 27 45
REMARK SMILES IDX 59 46 39 47 58 48 40 49 43 50 57 51 76 52 41 53 42 54 56 56
REMARK SMILES IDX 77 57 44 58 28 59 29 60 37 61 30 62 31 63 35 64 38 65 32 66
REMARK SMILES IDX 33 67 36 68 34 69 60 70 61 71 69 72 62 73 63 74 67 75 70 76
REMARK SMILES IDX 64 77 65 78 68 79 66 80 45 81 46 82 54 83 47 84 48 85 52 86
REMARK SMILES IDX 55 87 49 88 50 89 53 90 51 91
REMARK H PARENT 11 7 16 25 75 44 43 55
REMARK Flexibility Score: inf
ROOT
ATOM      1  C   UNL A   1      31.603  31.957  26.861  1.00  0.00     0.023 C 
ENDROOT
BRANCH   1   2
ATOM      2  C   UNL A   1      31.993  30.583  26.320  1.00  0.00     0.023 C 
BRANCH   2   3
ATOM      3  C   UNL A   1      31.704  29.428  27.266  1.00  0.00     0.116 C 
BRANCH   3   4
ATOM      4  N   UNL A   1      32.847  28.580  27.508  1.00  0.00    -0.355 N 
ATOM      5  C   UNL A   1      33.650  28.108  26.506  1.00  0.00     0.230 C 
ATOM      6  O   UNL A   1      34.808  28.542  26.520  1.00  0.00    -0.274 OA
ATOM      7  H   UNL A   1      33.057  28.329  28.438  1.00  0.00     0.163 HD
BRANCH   5   8
ATOM      8  C   UNL A   1      33.147  27.084  25.419  1.00  0.00     0.078 C 
ATOM      9  C   UNL A   1      31.600  26.922  25.370  1.00  0.00     0.050 C 
ATOM     10  C   UNL A   1      33.762  27.568  24.074  1.00  0.00     0.050 C 
ATOM     11  C   UNL A   1      30.852  27.696  24.288  1.00  0.00     0.161 C 
ATOM     12  C   UNL A   1      32.851  28.475  23.273  1.00  0.00     0.161 C 
ATOM     13  O   UNL A   1      31.590  27.850  23.087  1.00  0.00    -0.381 OA
BRANCH   8  14
ATOM     14  C   UNL A   1      33.707  25.644  25.730  1.00  0.00    -0.032 A 
ATOM     15  C   UNL A   1      36.888  23.632  24.971  1.00  0.00     0.044 C 
ATOM     16  C   UNL A   1      35.529  23.999  25.489  1.00  0.00    -0.051 A 
ATOM     17  C   UNL A   1      34.793  23.074  26.231  1.00  0.00     0.006 A 
ATOM     18  C   UNL A   1      34.983  25.266  25.247  1.00  0.00     0.008 A 
ATOM     19  C   UNL A   1      33.519  23.397  26.705  1.00  0.00    -0.051 A 
ATOM     20  C   UNL A   1      32.750  22.389  27.508  1.00  0.00     0.044 C 
ATOM     21  C   UNL A   1      32.980  24.666  26.433  1.00  0.00     0.008 A 
ENDBRANCH   8  14
ENDBRANCH   5   8
ENDBRANCH   3   4
ENDBRANCH   2   3
ENDBRANCH   1   2
BRANCH   1  22
ATOM     22  C   UNL A   1      32.762  32.827  27.343  1.00  0.00     0.116 C 
BRANCH  22  23
ATOM     23  N   UNL A   1      32.385  34.195  27.667  1.00  0.00    -0.352 N 
ATOM     24  C   UNL A   1      32.960  35.039  28.590  1.00  0.00     0.251 C 
ATOM     25  H   UNL A   1      31.623  34.564  27.163  1.00  0.00     0.163 HD
ATOM     26  O   UNL A   1      32.501  36.155  28.802  1.00  0.00    -0.269 OA
BRANCH  24  27
ATOM     27  C   UNL A   1      34.120  34.550  29.357  1.00  0.00     0.039 A 
ATOM     28  C   UNL A   1      33.898  33.921  30.584  1.00  0.00     0.014 A 
ATOM     29  C   UNL A   1      35.401  34.617  28.805  1.00  0.00     0.014 A 
ATOM     30  C   UNL A   1      34.958  33.273  31.219  1.00  0.00     0.010 A 
ATOM     31  C   UNL A   1      36.437  33.910  29.403  1.00  0.00     0.010 A 
ATOM     32  C   UNL A   1      36.222  33.222  30.608  1.00  0.00    -0.014 A 
BRANCH  32  33
ATOM     33  C   UNL A   1      37.333  32.442  31.203  1.00  0.00     0.031 A 
ATOM     34  C   UNL A   1      37.841  32.792  32.571  1.00  0.00     0.074 A 
ATOM     35  C   UNL A   1      37.937  31.479  30.478  1.00  0.00     0.049 A 
ATOM     36  N   UNL A   1      38.865  32.303  33.226  1.00  0.00    -0.248 NA
ATOM     37  C   UNL A   1      37.124  33.860  33.286  1.00  0.00     0.031 C 
ATOM     38  C   UNL A   1      37.575  31.091  29.115  1.00  0.00     0.029 A 
ATOM     39  N   UNL A   1      38.997  30.662  30.785  1.00  0.00    -0.354 N 
ATOM     40  C   UNL A   1      38.925  33.018  34.414  1.00  0.00     0.074 A 
ATOM     41  C   UNL A   1      37.870  34.007  34.371  1.00  0.00     0.031 C 
ATOM     42  C   UNL A   1      38.384  30.099  28.709  1.00  0.00     0.029 A 
ATOM     43  C   UNL A   1      39.342  29.802  29.770  1.00  0.00     0.049 A 
ATOM     44  H   UNL A   1      39.465  30.690  31.650  1.00  0.00     0.167 HD
ATOM     45  C   UNL A   1      39.769  32.846  35.459  1.00  0.00     0.037 A 
ATOM     46  C   UNL A   1      40.322  28.882  29.706  1.00  0.00     0.037 A 
ATOM     47  C   UNL A   1      40.790  31.836  35.514  1.00  0.00     0.049 A 
ATOM     48  C   UNL A   1      41.223  28.688  30.895  1.00  0.00     0.074 A 
ATOM     49  C   UNL A   1      41.660  31.542  36.550  1.00  0.00     0.029 A 
ATOM     50  N   UNL A   1      41.075  30.947  34.488  1.00  0.00    -0.354 N 
ATOM     51  N   UNL A   1      41.232  29.327  32.039  1.00  0.00    -0.248 NA
ATOM     52  C   UNL A   1      42.248  27.639  30.787  1.00  0.00     0.031 C 
ATOM     53  C   UNL A   1      42.487  30.491  36.140  1.00  0.00     0.029 A 
ATOM     54  C   UNL A   1      42.110  30.108  34.863  1.00  0.00     0.049 A 
ATOM     55  H   UNL A   1      40.610  30.918  33.620  1.00  0.00     0.167 HD
ATOM     56  C   UNL A   1      42.238  28.743  32.795  1.00  0.00     0.074 A 
ATOM     57  C   UNL A   1      42.811  27.688  31.985  1.00  0.00     0.031 C 
ATOM     58  C   UNL A   1      42.654  29.054  34.047  1.00  0.00     0.037 A 
BRANCH  45  59
ATOM     59  C   UNL A   1      39.607  33.763  36.633  1.00  0.00     0.064 A 
ATOM     60  C   UNL A   1      40.236  35.016  36.675  1.00  0.00     0.173 A 
ATOM     61  C   UNL A   1      38.793  33.399  37.717  1.00  0.00     0.173 A 
ATOM     62  F   UNL A   1      41.037  35.402  35.671  1.00  0.00    -0.203 F 
ATOM     63  C   UNL A   1      40.080  35.859  37.772  1.00  0.00     0.198 A 
ATOM     64  C   UNL A   1      38.616  34.258  38.799  1.00  0.00     0.198 A 
ATOM     65  F   UNL A   1      38.166  32.213  37.725  1.00  0.00    -0.203 F 
ATOM     66  F   UNL A   1      40.731  37.031  37.810  1.00  0.00    -0.200 F 
ATOM     67  C   UNL A   1      39.266  35.483  38.829  1.00  0.00     0.200 A 
ATOM     68  F   UNL A   1      37.822  33.898  39.816  1.00  0.00    -0.200 F 
ATOM     69  F   UNL A   1      39.112  36.300  39.881  1.00  0.00    -0.200 F 
ENDBRANCH  45  59
BRANCH  46  70
ATOM     70  C   UNL A   1      40.485  28.050  28.486  1.00  0.00     0.064 A 
ATOM     71  C   UNL A   1      39.872  26.792  28.389  1.00  0.00     0.173 A 
ATOM     72  C   UNL A   1      41.259  28.484  27.401  1.00  0.00     0.173 A 
ATOM     73  F   UNL A   1      39.137  26.326  29.409  1.00  0.00    -0.203 F 
ATOM     74  C   UNL A   1      40.047  25.991  27.263  1.00  0.00     0.198 A 
ATOM     75  C   UNL A   1      41.413  27.692  26.265  1.00  0.00     0.198 A 
ATOM     76  F   UNL A   1      41.861  29.682  27.443  1.00  0.00    -0.203 F 
ATOM     77  F   UNL A   1      39.487  24.774  27.216  1.00  0.00    -0.200 F 
ATOM     78  C   UNL A   1      40.814  26.443  26.201  1.00  0.00     0.200 A 
ATOM     79  F   UNL A   1      42.146  28.137  25.235  1.00  0.00    -0.200 F 
ATOM     80  F   UNL A   1      40.983  25.672  25.117  1.00  0.00    -0.200 F 
ENDBRANCH  46  70
BRANCH  58  81
ATOM     81  C   UNL A   1      43.755  28.221  34.631  1.00  0.00     0.064 A 
ATOM     82  C   UNL A   1      43.491  27.001  35.268  1.00  0.00     0.173 A 
ATOM     83  C   UNL A   1      45.092  28.628  34.510  1.00  0.00     0.173 A 
ATOM     84  F   UNL A   1      42.226  26.578  35.420  1.00  0.00    -0.203 F 
ATOM     85  C   UNL A   1      44.527  26.226  35.781  1.00  0.00     0.198 A 
ATOM     86  C   UNL A   1      46.126  27.839  35.002  1.00  0.00     0.198 A 
ATOM     87  F   UNL A   1      45.394  29.786  33.903  1.00  0.00    -0.203 F 
ATOM     88  F   UNL A   1      44.250  25.081  36.421  1.00  0.00    -0.200 F 
ATOM     89  C   UNL A   1      45.843  26.641  35.642  1.00  0.00     0.200 A 
ATOM     90  F   UNL A   1      47.397  28.236  34.858  1.00  0.00    -0.200 F 
ATOM     91  F   UNL A   1      46.839  25.890  36.130  1.00  0.00    -0.200 F 
ENDBRANCH  58  81
ENDBRANCH  32  33
ENDBRANCH  24  27
ENDBRANCH  22  23
ENDBRANCH   1  22
TORSDOF 12
ENDMDL
MODEL 2
REMARK VINA RESULT:     -12.8      0.137      1.977
REMARK SMILES Cc1cc(C)cc(C2(C(=O)NCCCCNC(=O)c3ccc(-c4c5nc(c(-c6c(F)c(F)c(F)c(F)c6F)c6ccc([nH]6)c(-c6c(F)c(F)c(F)c(F)c6F)c6nc(c(-c7c(F)c(F)c(F)c(F)c7F)c7ccc4[nH]7)C=C6)C=C5)cc3)CCOCC2)c1
REMARK SMILES IDX 14 1 13 2 12 3 11 4 9 5 10 6 8 8 82 9 86 10 83 11 85 12
REMARK SMILES IDX 84 13 7 14 1 15 2 16 3 17 87 18 4 19 5 20 6 21 15 22 16 23
REMARK SMILES IDX 17 24 18 26 19 27 20 28 81 29 21 30 80 31 22 32 23 33 24 34
REMARK SMILES IDX 74 35 25 36 79 37 73 38 75 39 26 40 78 41 72 42 71 43 27 45
REMARK SMILES IDX 59 46 39 47 58 48 40 49 43 50 57 51 76 52 41 53 42 54 56 56
REMARK SMILES IDX 77 57 44 58 28 59 29 60 37 61 30 62 31 63 35 64 38 65 32 66
REMARK SMILES IDX 33 67 36 68 34 69 60 70 61 71 69 72 62 73 63 74 67 75 70 76
REMARK SMILES IDX 64 77 65 78 68 79 66 80 45 81 46 82 54 83 47 84 48 85 52 86
REMARK SMILES IDX 55 87 49 88 50 89 53 90 51 91
REMARK H PARENT 11 7 16 25 75 44 43 55
REMARK Flexibility Score: inf
ROOT
ATOM      1  C   UNL A   1      31.658  31.925  26.884  1.00  0.00     0.023 C 
ENDROOT
BRANCH   1   2
ATOM      2  C   UNL A   1      32.059  30.548  26.359  1.00  0.00     0.023 C 
BRANCH   2   3
ATOM      3  C   UNL A   1      31.683  29.391  27.272  1.00  0.00     0.116 C 
BRANCH   3   4
ATOM      4  N   UNL A   1      32.783  28.502  27.561  1.00  0.00    -0.355 N 
ATOM      5  C   UNL A   1      33.628  28.024  26.597  1.00  0.00     0.230 C 
ATOM      6  O   UNL A   1      34.796  28.420  26.687  1.00  0.00    -0.274 OA
ATOM      7  H   UNL A   1      32.931  28.227  28.496  1.00  0.00     0.163 HD
BRANCH   5   8
ATOM      8  C   UNL A   1      33.157  27.037  25.462  1.00  0.00     0.078 C 
ATOM      9  C   UNL A   1      31.612  26.873  25.367  1.00  0.00     0.050 C 
ATOM     10  C   UNL A   1      33.805  27.570  24.151  1.00  0.00     0.050 C 
ATOM     11  C   UNL A   1      30.889  27.682  24.294  1.00  0.00     0.161 C 
ATOM     12  C   UNL A   1      32.911  28.502  23.359  1.00  0.00     0.161 C 
ATOM     13  O   UNL A   1      31.658  27.880  23.118  1.00  0.00    -0.381 OA
BRANCH   8  14
ATOM     14  C   UNL A   1      33.714  25.588  25.738  1.00  0.00    -0.032 A 
ATOM     15  C   UNL A   1      36.751  23.490  24.683  1.00  0.00     0.044 C 
ATOM     16  C   UNL A   1      35.462  23.896  25.334  1.00  0.00    -0.051 A 
ATOM     17  C   UNL A   1      34.788  23.001  26.165  1.00  0.00     0.006 A 
ATOM     18  C   UNL A   1      34.923  25.173  25.129  1.00  0.00     0.008 A 
ATOM     19  C   UNL A   1      33.579  23.361  26.764  1.00  0.00    -0.051 A 
ATOM     20  C   UNL A   1      32.875  22.384  27.660  1.00  0.00     0.044 C 
ATOM     21  C   UNL A   1      33.042  24.639  26.529  1.00  0.00     0.008 A 
ENDBRANCH   8  14
ENDBRANCH   5   8
ENDBRANCH   3   4
ENDBRANCH   2   3
ENDBRANCH   1   2
BRANCH   1  22
ATOM     22  C   UNL A   1      32.809  32.810  27.355  1.00  0.00     0.116 C 
BRANCH  22  23
ATOM     23  N   UNL A   1      32.418  34.175  27.678  1.00  0.00    -0.352 N 
ATOM     24  C   UNL A   1      32.978  35.021  28.609  1.00  0.00     0.251 C 
ATOM     25  H   UNL A   1      31.658  34.538  27.168  1.00  0.00     0.163 HD
ATOM     26  O   UNL A   1      32.507  36.133  28.820  1.00  0.00    -0.269 OA
BRANCH  24  27
ATOM     27  C   UNL A   1      34.134  34.539  29.387  1.00  0.00     0.039 A 
ATOM     28  C   UNL A   1      33.904  33.907  30.610  1.00  0.00     0.014 A 
ATOM     29  C   UNL A   1      35.419  34.617  28.848  1.00  0.00     0.014 A 
ATOM     30  C   UNL A   1      34.963  33.265  31.255  1.00  0.00     0.010 A 
ATOM     31  C   UNL A   1      36.454  33.917  29.454  1.00  0.00     0.010 A 
ATOM     32  C   UNL A   1      36.233  33.225  30.656  1.00  0.00    -0.014 A 
BRANCH  32  33
ATOM     33  C   UNL A   1      37.345  32.452  31.261  1.00  0.00     0.031 A 
ATOM     34  C   UNL A   1      37.852  32.819  32.625  1.00  0.00     0.074 A 
ATOM     35  C   UNL A   1      37.949  31.481  30.548  1.00  0.00     0.049 A 
ATOM     36  N   UNL A   1      38.875  32.338  33.286  1.00  0.00    -0.248 NA
ATOM     37  C   UNL A   1      37.134  33.895  33.327  1.00  0.00     0.031 C 
ATOM     38  C   UNL A   1      37.587  31.077  29.189  1.00  0.00     0.029 A 
ATOM     39  N   UNL A   1      39.009  30.669  30.864  1.00  0.00    -0.354 N 
ATOM     40  C   UNL A   1      38.935  33.067  34.465  1.00  0.00     0.074 A 
ATOM     41  C   UNL A   1      37.880  34.054  34.410  1.00  0.00     0.031 C 
ATOM     42  C   UNL A   1      38.396  30.080  28.795  1.00  0.00     0.029 A 
ATOM     43  C   UNL A   1      39.354  29.797  29.860  1.00  0.00     0.049 A 
ATOM     44  H   UNL A   1      39.477  30.706  31.729  1.00  0.00     0.167 HD
ATOM     45  C   UNL A   1      39.778  32.907  35.512  1.00  0.00     0.037 A 
ATOM     46  C   UNL A   1      40.335  28.876  29.807  1.00  0.00     0.037 A 
ATOM     47  C   UNL A   1      40.800  31.898  35.580  1.00  0.00     0.049 A 
ATOM     48  C   UNL A   1      41.236  28.696  30.998  1.00  0.00     0.074 A 
ATOM     49  C   UNL A   1      41.670  31.617  36.620  1.00  0.00     0.029 A 
ATOM     50  N   UNL A   1      41.085  30.998  34.564  1.00  0.00    -0.354 N 
ATOM     51  N   UNL A   1      41.243  29.348  32.135  1.00  0.00    -0.248 NA
ATOM     52  C   UNL A   1      42.260  27.646  30.903  1.00  0.00     0.031 C 
ATOM     53  C   UNL A   1      42.497  30.562  36.222  1.00  0.00     0.029 A 
ATOM     54  C   UNL A   1      42.121  30.163  34.949  1.00  0.00     0.049 A 
ATOM     55  H   UNL A   1      40.621  30.958  33.697  1.00  0.00     0.167 HD
ATOM     56  C   UNL A   1      42.250  28.774  32.898  1.00  0.00     0.074 A 
ATOM     57  C   UNL A   1      42.823  27.709  32.101  1.00  0.00     0.031 C 
ATOM     58  C   UNL A   1      42.665  29.100  34.146  1.00  0.00     0.037 A 
BRANCH  45  59
ATOM     59  C   UNL A   1      39.616  33.838  36.676  1.00  0.00     0.064 A 
ATOM     60  C   UNL A   1      38.832  33.490  37.786  1.00  0.00     0.173 A 
ATOM     61  C   UNL A   1      40.270  35.078  36.696  1.00  0.00     0.173 A 
ATOM     62  F   UNL A   1      38.174  32.321  37.808  1.00  0.00    -0.203 F 
ATOM     63  C   UNL A   1      38.687  34.362  38.862  1.00  0.00     0.198 A 
ATOM     64  C   UNL A   1      40.146  35.936  37.786  1.00  0.00     0.198 A 
ATOM     65  F   UNL A   1      41.034  35.458  35.660  1.00  0.00    -0.203 F 
ATOM     66  F   UNL A   1      37.894  34.028  39.890  1.00  0.00    -0.200 F 
ATOM     67  C   UNL A   1      39.348  35.580  38.864  1.00  0.00     0.200 A 
ATOM     68  F   UNL A   1      40.792  37.109  37.792  1.00  0.00    -0.200 F 
ATOM     69  F   UNL A   1      39.212  36.416  39.903  1.00  0.00    -0.200 F 
ENDBRANCH  45  59
BRANCH  46  70
ATOM     70  C   UNL A   1      40.499  28.030  28.597  1.00  0.00     0.064 A 
ATOM     71  C   UNL A   1      41.282  28.465  27.518  1.00  0.00     0.173 A 
ATOM     72  C   UNL A   1      39.874  26.780  28.487  1.00  0.00     0.173 A 
ATOM     73  F   UNL A   1      41.885  29.662  27.570  1.00  0.00    -0.203 F 
ATOM     74  C   UNL A   1      41.415  27.693  26.366  1.00  0.00     0.198 A 
ATOM     75  C   UNL A   1      40.027  25.998  27.344  1.00  0.00     0.198 A 
ATOM     76  F   UNL A   1      39.118  26.316  29.494  1.00  0.00    -0.203 F 
ATOM     77  F   UNL A   1      42.132  28.154  25.332  1.00  0.00    -0.200 F 
ATOM     78  C   UNL A   1      40.790  26.459  26.281  1.00  0.00     0.200 A 
ATOM     79  F   UNL A   1      39.431  24.799  27.270  1.00  0.00    -0.200 F 
ATOM     80  F   UNL A   1      40.917  25.715  25.173  1.00  0.00    -0.200 F 
ENDBRANCH  46  70
BRANCH  58  81
ATOM     81  C   UNL A   1      43.766  28.274  34.740  1.00  0.00     0.064 A 
ATOM     82  C   UNL A   1      45.110  28.655  34.626  1.00  0.00     0.173 A 
ATOM     83  C   UNL A   1      43.468  27.115  35.472  1.00  0.00     0.173 A 
ATOM     84  F   UNL A   1      45.445  29.748  33.923  1.00  0.00    -0.203 F 
ATOM     85  C   UNL A   1      46.119  27.892  35.207  1.00  0.00     0.198 A 
ATOM     86  C   UNL A   1      44.476  26.370  36.072  1.00  0.00     0.198 A 
ATOM     87  F   UNL A   1      42.194  26.714  35.613  1.00  0.00    -0.203 F 
ATOM     88  F   UNL A   1      47.401  28.252  35.053  1.00  0.00    -0.200 F 
ATOM     89  C   UNL A   1      45.801  26.755  35.935  1.00  0.00     0.200 A 
ATOM     90  F   UNL A   1      44.167  25.277  36.784  1.00  0.00    -0.200 F 
ATOM     91  F   UNL A   1      46.774  26.026  36.499  1.00  0.00    -0.200 F 
ENDBRANCH  58  81
ENDBRANCH  32  33
ENDBRANCH  24  27
ENDBRANCH  22  23
ENDBRANCH   1  22
TORSDOF 12
ENDMDL
MODEL 3
REMARK VINA RESULT:     -12.6      1.372      3.223
REMARK SMILES Cc1cc(C)cc(C2(C(=O)NCCCCNC(=O)c3ccc(-c4c5nc(c(-c6c(F)c(F)c(F)c(F)c6F)c6ccc([nH]6)c(-c6c(F)c(F)c(F)c(F)c6F)c6nc(c(-c7c(F)c(F)c(F)c(F)c7F)c7ccc4[nH]7)C=C6)C=C5)cc3)CCOCC2)c1
REMARK SMILES IDX 14 1 13 2 12 3 11 4 9 5 10 6 8 8 82 9 86 10 83 11 85 12
REMARK SMILES IDX 84 13 7 14 1 15 2 16 3 17 87 18 4 19 5 20 6 21 15 22 16 23
REMARK SMILES IDX 17 24 18 26 19 27 20 28 81 29 21 30 80 31 22 32 23 33 24 34
REMARK SMILES IDX 74 35 25 36 79 37 73 38 75 39 26 40 78 41 72 42 71 43 27 45
REMARK SMILES IDX 59 46 39 47 58 48 40 49 43 50 57 51 76 52 41 53 42 54 56 56
REMARK SMILES IDX 77 57 44 58 28 59 29 60 37 61 30 62 31 63 35 64 38 65 32 66
REMARK SMILES IDX 33 67 36 68 34 69 60 70 61 71 69 72 62 73 63 74 67 75 70 76
REMARK SMILES IDX 64 77 65 78 68 79 66 80 45 81 46 82 54 83 47 84 48 85 52 86
REMARK SMILES IDX 55 87 49 88 50 89 53 90 51 91
REMARK H PARENT 11 7 16 25 75 44 43 55
REMARK Flexibility Score: inf
ROOT
ATOM      1  C   UNL A   1      31.727  32.066  26.925  1.00  0.00     0.023 C 
ENDROOT
BRANCH   1   2
ATOM      2  C   UNL A   1      32.079  30.596  26.711  1.00  0.00     0.023 C 
BRANCH   2   3
ATOM      3  C   UNL A   1      31.652  30.035  25.364  1.00  0.00     0.116 C 
BRANCH   3   4
ATOM      4  N   UNL A   1      32.625  29.148  24.772  1.00  0.00    -0.355 N 
ATOM      5  C   UNL A   1      32.476  28.603  23.526  1.00  0.00     0.230 C 
ATOM      6  O   UNL A   1      33.302  28.988  22.689  1.00  0.00    -0.274 OA
ATOM      7  H   UNL A   1      33.433  28.925  25.290  1.00  0.00     0.163 HD
BRANCH   5   8
ATOM      8  C   UNL A   1      31.347  27.561  23.179  1.00  0.00     0.078 C 
ATOM      9  C   UNL A   1      31.615  26.746  21.880  1.00  0.00     0.050 C 
ATOM     10  C   UNL A   1      31.195  26.673  24.448  1.00  0.00     0.050 C 
ATOM     11  C   UNL A   1      32.187  25.341  22.044  1.00  0.00     0.161 C 
ATOM     12  C   UNL A   1      32.022  25.404  24.411  1.00  0.00     0.161 C 
ATOM     13  O   UNL A   1      31.746  24.682  23.221  1.00  0.00    -0.381 OA
BRANCH   8  14
ATOM     14  C   UNL A   1      29.980  28.306  22.928  1.00  0.00    -0.032 A 
ATOM     15  C   UNL A   1      26.282  27.783  23.817  1.00  0.00     0.044 C 
ATOM     16  C   UNL A   1      27.536  28.378  23.249  1.00  0.00    -0.051 A 
ATOM     17  C   UNL A   1      27.475  29.568  22.522  1.00  0.00     0.006 A 
ATOM     18  C   UNL A   1      28.779  27.763  23.444  1.00  0.00     0.008 A 
ATOM     19  C   UNL A   1      28.633  30.124  21.973  1.00  0.00    -0.051 A 
ATOM     20  C   UNL A   1      28.544  31.409  21.201  1.00  0.00     0.044 C 
ATOM     21  C   UNL A   1      29.868  29.480  22.161  1.00  0.00     0.008 A 
ENDBRANCH   8  14
ENDBRANCH   5   8
ENDBRANCH   3   4
ENDBRANCH   2   3
ENDBRANCH   1   2
BRANCH   1  22
ATOM     22  C   UNL A   1      32.869  32.951  27.419  1.00  0.00     0.116 C 
BRANCH  22  23
ATOM     23  N   UNL A   1      32.463  34.304  27.775  1.00  0.00    -0.352 N 
ATOM     24  C   UNL A   1      33.015  35.133  28.726  1.00  0.00     0.251 C 
ATOM     25  H   UNL A   1      31.700  34.671  27.274  1.00  0.00     0.163 HD
ATOM     26  O   UNL A   1      32.533  36.235  28.964  1.00  0.00    -0.269 OA
BRANCH  24  27
ATOM     27  C   UNL A   1      34.177  34.645  29.491  1.00  0.00     0.039 A 
ATOM     28  C   UNL A   1      33.960  34.052  30.736  1.00  0.00     0.014 A 
ATOM     29  C   UNL A   1      35.451  34.678  28.922  1.00  0.00     0.014 A 
ATOM     30  C   UNL A   1      35.017  33.403  31.375  1.00  0.00     0.010 A 
ATOM     31  C   UNL A   1      36.483  33.970  29.525  1.00  0.00     0.010 A 
ATOM     32  C   UNL A   1      36.273  33.315  30.750  1.00  0.00    -0.014 A 
BRANCH  32  33
ATOM     33  C   UNL A   1      37.379  32.533  31.351  1.00  0.00     0.031 A 
ATOM     34  C   UNL A   1      37.886  32.888  32.719  1.00  0.00     0.074 A 
ATOM     35  C   UNL A   1      37.979  31.564  30.633  1.00  0.00     0.049 A 
ATOM     36  N   UNL A   1      38.906  32.397  33.378  1.00  0.00    -0.248 NA
ATOM     37  C   UNL A   1      37.173  33.963  33.427  1.00  0.00     0.031 C 
ATOM     38  C   UNL A   1      37.618  31.170  29.271  1.00  0.00     0.029 A 
ATOM     39  N   UNL A   1      39.035  30.743  30.945  1.00  0.00    -0.354 N 
ATOM     40  C   UNL A   1      38.967  33.118  34.562  1.00  0.00     0.074 A 
ATOM     41  C   UNL A   1      37.917  34.111  34.512  1.00  0.00     0.031 C 
ATOM     42  C   UNL A   1      38.423  30.172  28.872  1.00  0.00     0.029 A 
ATOM     43  C   UNL A   1      39.377  29.876  29.936  1.00  0.00     0.049 A 
ATOM     44  H   UNL A   1      39.502  30.773  31.812  1.00  0.00     0.167 HD
ATOM     45  C   UNL A   1      39.808  32.947  35.610  1.00  0.00     0.037 A 
ATOM     46  C   UNL A   1      40.353  28.951  29.879  1.00  0.00     0.037 A 
ATOM     47  C   UNL A   1      40.825  31.932  35.672  1.00  0.00     0.049 A 
ATOM     48  C   UNL A   1      41.251  28.759  31.070  1.00  0.00     0.074 A 
ATOM     49  C   UNL A   1      41.691  31.639  36.712  1.00  0.00     0.029 A 
ATOM     50  N   UNL A   1      41.107  31.037  34.651  1.00  0.00    -0.354 N 
ATOM     51  N   UNL A   1      41.260  29.403  32.211  1.00  0.00    -0.248 NA
ATOM     52  C   UNL A   1      42.270  27.704  30.969  1.00  0.00     0.031 C 
ATOM     53  C   UNL A   1      42.514  30.583  36.309  1.00  0.00     0.029 A 
ATOM     54  C   UNL A   1      42.137  30.195  35.032  1.00  0.00     0.049 A 
ATOM     55  H   UNL A   1      40.644  31.006  33.783  1.00  0.00     0.167 HD
ATOM     56  C   UNL A   1      42.263  28.819  32.971  1.00  0.00     0.074 A 
ATOM     57  C   UNL A   1      42.832  27.756  32.169  1.00  0.00     0.031 C 
ATOM     58  C   UNL A   1      42.677  29.134  34.222  1.00  0.00     0.037 A 
BRANCH  45  59
ATOM     59  C   UNL A   1      39.648  33.871  36.779  1.00  0.00     0.064 A 
ATOM     60  C   UNL A   1      40.283  35.122  36.815  1.00  0.00     0.173 A 
ATOM     61  C   UNL A   1      38.832  33.516  37.864  1.00  0.00     0.173 A 
ATOM     62  F   UNL A   1      41.085  35.500  35.809  1.00  0.00    -0.203 F 
ATOM     63  C   UNL A   1      40.129  35.972  37.907  1.00  0.00     0.198 A 
ATOM     64  C   UNL A   1      38.658  34.381  38.941  1.00  0.00     0.198 A 
ATOM     65  F   UNL A   1      38.201  32.333  37.877  1.00  0.00    -0.203 F 
ATOM     66  F   UNL A   1      40.783  37.141  37.940  1.00  0.00    -0.200 F 
ATOM     67  C   UNL A   1      39.312  35.604  38.965  1.00  0.00     0.200 A 
ATOM     68  F   UNL A   1      37.862  34.030  39.959  1.00  0.00    -0.200 F 
ATOM     69  F   UNL A   1      39.160  36.427  40.012  1.00  0.00    -0.200 F 
ENDBRANCH  45  59
BRANCH  46  70
ATOM     70  C   UNL A   1      40.514  28.112  28.663  1.00  0.00     0.064 A 
ATOM     71  C   UNL A   1      41.321  28.539  27.599  1.00  0.00     0.173 A 
ATOM     72  C   UNL A   1      39.865  26.877  28.534  1.00  0.00     0.173 A 
ATOM     73  F   UNL A   1      41.948  29.723  27.669  1.00  0.00    -0.203 F 
ATOM     74  C   UNL A   1      41.452  27.775  26.442  1.00  0.00     0.198 A 
ATOM     75  C   UNL A   1      40.016  26.101  27.386  1.00  0.00     0.198 A 
ATOM     76  F   UNL A   1      39.086  26.420  29.527  1.00  0.00    -0.203 F 
ATOM     77  F   UNL A   1      42.192  28.229  25.421  1.00  0.00    -0.200 F 
ATOM     78  C   UNL A   1      40.802  26.555  26.338  1.00  0.00     0.200 A 
ATOM     79  F   UNL A   1      39.395  24.916  27.294  1.00  0.00    -0.200 F 
ATOM     80  F   UNL A   1      40.927  25.819  25.224  1.00  0.00    -0.200 F 
ENDBRANCH  46  70
BRANCH  58  81
ATOM     81  C   UNL A   1      43.773  28.299  34.813  1.00  0.00     0.064 A 
ATOM     82  C   UNL A   1      43.496  27.117  35.515  1.00  0.00     0.173 A 
ATOM     83  C   UNL A   1      45.116  28.661  34.634  1.00  0.00     0.173 A 
ATOM     84  F   UNL A   1      42.226  26.738  35.725  1.00  0.00    -0.203 F 
ATOM     85  C   UNL A   1      44.526  26.339  36.034  1.00  0.00     0.198 A 
ATOM     86  C   UNL A   1      46.143  27.867  35.132  1.00  0.00     0.198 A 
ATOM     87  F   UNL A   1      45.430  29.781  33.964  1.00  0.00    -0.203 F 
ATOM     88  F   UNL A   1      44.239  25.233  36.736  1.00  0.00    -0.200 F 
ATOM     89  C   UNL A   1      45.848  26.709  35.836  1.00  0.00     0.200 A 
ATOM     90  F   UNL A   1      47.420  28.221  34.932  1.00  0.00    -0.200 F 
ATOM     91  F   UNL A   1      46.838  25.954  36.331  1.00  0.00    -0.200 F 
ENDBRANCH  58  81
ENDBRANCH  32  33
ENDBRANCH  24  27
ENDBRANCH  22  23
ENDBRANCH   1  22
TORSDOF 12
ENDMDL
