MODEL 1
REMARK VINA RESULT:     -14.4      0.000      0.000
REMARK SMILES O=C(CCN1C(=O)[C@@H]2[C@@H](C1=O)[C@H]1c3ccccc3[C@]2(Br)c2ccccc21)NCCCCNC(=O)c1ccc(-c2c3nc(c(-c4c(F)c(F)c(F)c(F)c4F)c4ccc([nH]4)c(-c4c(F)c(F)c(F)c(F)c4F)c4nc(c(-c5c(F)c(F)c(F)c(F)c5F)c5ccc2[nH]5)C=C4)C=C3)cc1
REMARK SMILES IDX 29 1 28 2 27 3 1 4 2 5 3 7 4 8 5 9 6 10 10 11 7 12 8 13 9 14
REMARK SMILES IDX 11 15 19 16 12 17 21 18 20 19 18 20 26 21 13 22 22 23 17 24
REMARK SMILES IDX 25 25 14 26 23 27 16 28 24 29 15 30 30 31 31 32 32 33 33 34
REMARK SMILES IDX 34 36 35 37 36 38 97 39 37 40 96 41 38 42 39 43 40 44 90 45
REMARK SMILES IDX 41 46 95 47 89 48 91 49 42 50 94 51 88 52 87 53 43 55 75 56
REMARK SMILES IDX 55 57 74 58 56 59 59 60 73 61 92 62 57 63 58 64 72 66 93 67
REMARK SMILES IDX 60 68 44 69 45 70 53 71 46 72 47 73 51 74 54 75 48 76 49 77
REMARK SMILES IDX 52 78 50 79 76 80 77 81 85 82 78 83 79 84 83 85 86 86 80 87
REMARK SMILES IDX 81 88 84 89 82 90 61 91 62 92 70 93 63 94 64 95 68 96 71 97
REMARK SMILES IDX 65 98 66 99 69 100 67 101
REMARK H PARENT 27 6 32 35 91 54 59 65
REMARK Flexibility Score: inf
ROOT
ATOM      1  C   UNL A   1      38.048  22.024  25.673  1.00  0.00     0.023 C 
ENDROOT
BRANCH   1   2
ATOM      2  C   UNL A   1      37.276  21.815  24.363  1.00  0.00     0.116 C 
BRANCH   2   3
ATOM      3  N   UNL A   1      35.827  21.899  24.501  1.00  0.00    -0.356 N 
ATOM      4  O   UNL A   1      35.575  23.379  22.759  1.00  0.00    -0.275 OA
ATOM      5  C   UNL A   1      35.080  22.630  23.598  1.00  0.00     0.221 C 
ATOM      6  H   UNL A   1      35.379  21.433  25.244  1.00  0.00     0.163 HD
BRANCH   5   7
ATOM      7  C   UNL A   1      33.578  22.412  23.668  1.00  0.00     0.122 C 
BRANCH   7   8
ATOM      8  C   UNL A   1      32.880  23.015  22.442  1.00  0.00     0.138 C 
BRANCH   8   9
ATOM      9  N   UNL A   1      32.325  24.329  22.733  1.00  0.00    -0.281 N 
ATOM     10  C   UNL A   1      32.859  25.540  22.265  1.00  0.00     0.235 C 
ATOM     11  C   UNL A   1      31.205  24.522  23.523  1.00  0.00     0.234 C 
ATOM     12  O   UNL A   1      33.706  25.702  21.410  1.00  0.00    -0.274 OA
ATOM     13  C   UNL A   1      32.317  26.552  23.229  1.00  0.00     0.118 C 
ATOM     14  C   UNL A   1      30.917  25.965  23.407  1.00  0.00     0.105 C 
ATOM     15  O   UNL A   1      30.492  23.713  24.084  1.00  0.00    -0.274 OA
ATOM     16  C   UNL A   1      32.192  28.100  23.317  1.00  0.00     0.088 C 
ATOM     17  C   UNL A   1      30.169  26.788  24.447  1.00  0.00     0.063 C 
ATOM     18  C   UNL A   1      32.182  28.226  24.874  1.00  0.00    -0.022 A 
ATOM     19  Br  UNL A   1      33.680  28.966  22.472  1.00  0.00    -0.074 Br
ATOM     20  C   UNL A   1      30.794  28.622  22.892  1.00  0.00    -0.022 A 
ATOM     21  C   UNL A   1      31.148  27.425  25.457  1.00  0.00    -0.035 A 
ATOM     22  C   UNL A   1      29.710  27.926  23.524  1.00  0.00    -0.035 A 
ATOM     23  C   UNL A   1      33.101  28.882  25.693  1.00  0.00     0.006 A 
ATOM     24  C   UNL A   1      30.485  29.700  22.069  1.00  0.00     0.006 A 
ATOM     25  C   UNL A   1      31.111  27.261  26.833  1.00  0.00     0.005 A 
ATOM     26  C   UNL A   1      28.377  28.213  23.242  1.00  0.00     0.005 A 
ATOM     27  C   UNL A   1      33.033  28.702  27.077  1.00  0.00     0.000 A 
ATOM     28  C   UNL A   1      29.141  30.025  21.833  1.00  0.00     0.000 A 
ATOM     29  C   UNL A   1      32.056  27.884  27.643  1.00  0.00     0.000 A 
ATOM     30  C   UNL A   1      28.098  29.278  22.395  1.00  0.00     0.000 A 
ENDBRANCH   8   9
ENDBRANCH   7   8
ENDBRANCH   5   7
ENDBRANCH   2   3
ENDBRANCH   1   2
BRANCH   1  31
ATOM     31  C   UNL A   1      39.299  21.146  25.850  1.00  0.00     0.023 C 
BRANCH  31  32
ATOM     32  C   UNL A   1      39.104  19.624  25.726  1.00  0.00     0.116 C 
BRANCH  32  33
ATOM     33  N   UNL A   1      40.359  18.867  25.701  1.00  0.00    -0.352 N 
ATOM     34  C   UNL A   1      41.680  19.116  26.012  1.00  0.00     0.251 C 
ATOM     35  H   UNL A   1      40.225  17.946  25.381  1.00  0.00     0.163 HD
ATOM     36  O   UNL A   1      42.480  18.199  25.807  1.00  0.00    -0.269 OA
BRANCH  34  37
ATOM     37  C   UNL A   1      42.238  20.408  26.515  1.00  0.00     0.039 A 
ATOM     38  C   UNL A   1      42.182  20.838  27.834  1.00  0.00     0.014 A 
ATOM     39  C   UNL A   1      42.936  21.223  25.604  1.00  0.00     0.014 A 
ATOM     40  C   UNL A   1      42.638  22.134  28.179  1.00  0.00     0.010 A 
ATOM     41  C   UNL A   1      43.459  22.482  25.975  1.00  0.00     0.010 A 
ATOM     42  C   UNL A   1      43.252  23.003  27.257  1.00  0.00    -0.014 A 
BRANCH  42  43
ATOM     43  C   UNL A   1      43.620  24.427  27.630  1.00  0.00     0.031 A 
ATOM     44  C   UNL A   1      42.557  25.471  27.957  1.00  0.00     0.074 A 
ATOM     45  C   UNL A   1      44.908  24.828  27.730  1.00  0.00     0.049 A 
ATOM     46  N   UNL A   1      42.700  26.737  28.291  1.00  0.00    -0.248 NA
ATOM     47  C   UNL A   1      41.151  25.046  27.898  1.00  0.00     0.031 C 
ATOM     48  C   UNL A   1      46.082  24.000  27.465  1.00  0.00     0.029 A 
ATOM     49  N   UNL A   1      45.449  26.049  28.091  1.00  0.00    -0.354 N 
ATOM     50  C   UNL A   1      41.417  27.243  28.480  1.00  0.00     0.074 A 
ATOM     51  C   UNL A   1      40.501  26.163  28.191  1.00  0.00     0.031 C 
ATOM     52  C   UNL A   1      47.194  24.710  27.716  1.00  0.00     0.029 A 
ATOM     53  C   UNL A   1      46.824  26.072  28.097  1.00  0.00     0.049 A 
ATOM     54  H   UNL A   1      44.898  26.831  28.324  1.00  0.00     0.167 HD
ATOM     55  C   UNL A   1      41.020  28.480  28.870  1.00  0.00     0.037 A 
ATOM     56  C   UNL A   1      47.705  27.064  28.346  1.00  0.00     0.037 A 
ATOM     57  C   UNL A   1      41.885  29.588  29.184  1.00  0.00     0.049 A 
ATOM     58  C   UNL A   1      47.238  28.455  28.685  1.00  0.00     0.074 A 
ATOM     59  C   UNL A   1      41.531  30.857  29.619  1.00  0.00     0.029 A 
ATOM     60  N   UNL A   1      43.263  29.572  29.093  1.00  0.00    -0.354 N 
ATOM     61  N   UNL A   1      46.022  28.898  28.874  1.00  0.00    -0.248 NA
ATOM     62  C   UNL A   1      48.276  29.492  28.826  1.00  0.00     0.031 C 
ATOM     63  C   UNL A   1      42.692  31.624  29.747  1.00  0.00     0.029 A 
ATOM     64  C   UNL A   1      43.772  30.819  29.430  1.00  0.00     0.049 A 
ATOM     65  H   UNL A   1      43.804  28.793  28.827  1.00  0.00     0.167 HD
ATOM     66  C   UNL A   1      46.149  30.251  29.167  1.00  0.00     0.074 A 
ATOM     67  C   UNL A   1      47.559  30.560  29.150  1.00  0.00     0.031 C 
ATOM     68  C   UNL A   1      45.170  31.151  29.419  1.00  0.00     0.037 A 
BRANCH  55  69
ATOM     69  C   UNL A   1      39.546  28.739  29.001  1.00  0.00     0.064 A 
ATOM     70  C   UNL A   1      38.900  28.630  30.240  1.00  0.00     0.173 A 
ATOM     71  C   UNL A   1      38.814  29.239  27.913  1.00  0.00     0.173 A 
ATOM     72  F   UNL A   1      39.558  28.152  31.306  1.00  0.00    -0.203 F 
ATOM     73  C   UNL A   1      37.571  29.021  30.386  1.00  0.00     0.198 A 
ATOM     74  C   UNL A   1      37.491  29.645  28.068  1.00  0.00     0.198 A 
ATOM     75  F   UNL A   1      39.396  29.374  26.712  1.00  0.00    -0.203 F 
ATOM     76  F   UNL A   1      36.969  28.908  31.578  1.00  0.00    -0.200 F 
ATOM     77  C   UNL A   1      36.872  29.539  29.305  1.00  0.00     0.200 A 
ATOM     78  F   UNL A   1      36.823  30.158  27.027  1.00  0.00    -0.200 F 
ATOM     79  F   UNL A   1      35.603  29.940  29.456  1.00  0.00    -0.200 F 
ENDBRANCH  55  69
BRANCH  56  80
ATOM     80  C   UNL A   1      49.163  26.792  28.255  1.00  0.00     0.064 A 
ATOM     81  C   UNL A   1      49.836  26.875  27.028  1.00  0.00     0.173 A 
ATOM     82  C   UNL A   1      49.903  26.410  29.383  1.00  0.00     0.173 A 
ATOM     83  F   UNL A   1      49.163  27.202  25.915  1.00  0.00    -0.203 F 
ATOM     84  C   UNL A   1      51.194  26.576  26.932  1.00  0.00     0.198 A 
ATOM     85  C   UNL A   1      51.266  26.138  29.292  1.00  0.00     0.198 A 
ATOM     86  F   UNL A   1      49.300  26.304  30.576  1.00  0.00    -0.203 F 
ATOM     87  F   UNL A   1      51.804  26.619  25.741  1.00  0.00    -0.200 F 
ATOM     88  C   UNL A   1      51.908  26.215  28.065  1.00  0.00     0.200 A 
ATOM     89  F   UNL A   1      51.954  25.798  30.389  1.00  0.00    -0.200 F 
ATOM     90  F   UNL A   1      53.215  25.932  27.973  1.00  0.00    -0.200 F 
ENDBRANCH  56  80
BRANCH  68  91
ATOM     91  C   UNL A   1      45.566  32.568  29.713  1.00  0.00     0.064 A 
ATOM     92  C   UNL A   1      45.906  32.976  31.012  1.00  0.00     0.173 A 
ATOM     93  C   UNL A   1      45.667  33.514  28.682  1.00  0.00     0.173 A 
ATOM     94  F   UNL A   1      45.814  32.115  32.036  1.00  0.00    -0.203 F 
ATOM     95  C   UNL A   1      46.324  34.281  31.267  1.00  0.00     0.198 A 
ATOM     96  C   UNL A   1      46.106  34.811  28.937  1.00  0.00     0.198 A 
ATOM     97  F   UNL A   1      45.360  33.175  27.420  1.00  0.00    -0.203 F 
ATOM     98  F   UNL A   1      46.617  34.655  32.520  1.00  0.00    -0.200 F 
ATOM     99  C   UNL A   1      46.430  35.194  30.229  1.00  0.00     0.200 A 
ATOM    100  F   UNL A   1      46.220  35.690  27.930  1.00  0.00    -0.200 F 
ATOM    101  F   UNL A   1      46.843  36.446  30.475  1.00  0.00    -0.200 F 
ENDBRANCH  68  91
ENDBRANCH  42  43
ENDBRANCH  34  37
ENDBRANCH  32  33
ENDBRANCH  31  32
ENDBRANCH   1  31
TORSDOF 13
ENDMDL
MODEL 2
REMARK VINA RESULT:     -14.3      0.795      6.898
REMARK SMILES O=C(CCN1C(=O)[C@@H]2[C@@H](C1=O)[C@H]1c3ccccc3[C@]2(Br)c2ccccc21)NCCCCNC(=O)c1ccc(-c2c3nc(c(-c4c(F)c(F)c(F)c(F)c4F)c4ccc([nH]4)c(-c4c(F)c(F)c(F)c(F)c4F)c4nc(c(-c5c(F)c(F)c(F)c(F)c5F)c5ccc2[nH]5)C=C4)C=C3)cc1
REMARK SMILES IDX 29 1 28 2 27 3 1 4 2 5 3 7 4 8 5 9 6 10 10 11 7 12 8 13 9 14
REMARK SMILES IDX 11 15 19 16 12 17 21 18 20 19 18 20 26 21 13 22 22 23 17 24
REMARK SMILES IDX 25 25 14 26 23 27 16 28 24 29 15 30 30 31 31 32 32 33 33 34
REMARK SMILES IDX 34 36 35 37 36 38 97 39 37 40 96 41 38 42 39 43 40 44 90 45
REMARK SMILES IDX 41 46 95 47 89 48 91 49 42 50 94 51 88 52 87 53 43 55 75 56
REMARK SMILES IDX 55 57 74 58 56 59 59 60 73 61 92 62 57 63 58 64 72 66 93 67
REMARK SMILES IDX 60 68 44 69 45 70 53 71 46 72 47 73 51 74 54 75 48 76 49 77
REMARK SMILES IDX 52 78 50 79 76 80 77 81 85 82 78 83 79 84 83 85 86 86 80 87
REMARK SMILES IDX 81 88 84 89 82 90 61 91 62 92 70 93 63 94 64 95 68 96 71 97
REMARK SMILES IDX 65 98 66 99 69 100 67 101
REMARK H PARENT 27 6 32 35 91 54 59 65
REMARK Flexibility Score: inf
ROOT
ATOM      1  C   UNL A   1      38.037  22.170  25.614  1.00  0.00     0.023 C 
ENDROOT
BRANCH   1   2
ATOM      2  C   UNL A   1      37.250  21.750  24.364  1.00  0.00     0.116 C 
BRANCH   2   3
ATOM      3  N   UNL A   1      35.803  21.864  24.501  1.00  0.00    -0.356 N 
ATOM      4  O   UNL A   1      35.578  23.307  22.725  1.00  0.00    -0.275 OA
ATOM      5  C   UNL A   1      35.069  22.587  23.581  1.00  0.00     0.221 C 
ATOM      6  H   UNL A   1      35.347  21.423  25.253  1.00  0.00     0.163 HD
BRANCH   5   7
ATOM      7  C   UNL A   1      33.564  22.399  23.655  1.00  0.00     0.122 C 
BRANCH   7   8
ATOM      8  C   UNL A   1      32.874  23.008  22.427  1.00  0.00     0.138 C 
BRANCH   8   9
ATOM      9  N   UNL A   1      32.321  24.322  22.719  1.00  0.00    -0.281 N 
ATOM     10  C   UNL A   1      32.860  25.533  22.257  1.00  0.00     0.235 C 
ATOM     11  C   UNL A   1      31.198  24.515  23.506  1.00  0.00     0.234 C 
ATOM     12  O   UNL A   1      33.710  25.696  21.406  1.00  0.00    -0.274 OA
ATOM     13  C   UNL A   1      32.315  26.544  23.221  1.00  0.00     0.118 C 
ATOM     14  C   UNL A   1      30.914  25.959  23.392  1.00  0.00     0.105 C 
ATOM     15  O   UNL A   1      30.481  23.706  24.061  1.00  0.00    -0.274 OA
ATOM     16  C   UNL A   1      32.194  28.092  23.313  1.00  0.00     0.088 C 
ATOM     17  C   UNL A   1      30.163  26.781  24.432  1.00  0.00     0.063 C 
ATOM     18  C   UNL A   1      32.177  28.213  24.871  1.00  0.00    -0.022 A 
ATOM     19  Br  UNL A   1      33.686  28.957  22.477  1.00  0.00    -0.074 Br
ATOM     20  C   UNL A   1      30.798  28.618  22.884  1.00  0.00    -0.022 A 
ATOM     21  C   UNL A   1      31.140  27.413  25.447  1.00  0.00    -0.035 A 
ATOM     22  C   UNL A   1      29.710  27.923  23.510  1.00  0.00    -0.035 A 
ATOM     23  C   UNL A   1      33.094  28.865  25.695  1.00  0.00     0.006 A 
ATOM     24  C   UNL A   1      30.495  29.698  22.063  1.00  0.00     0.006 A 
ATOM     25  C   UNL A   1      31.097  27.245  26.822  1.00  0.00     0.005 A 
ATOM     26  C   UNL A   1      28.379  28.213  23.222  1.00  0.00     0.005 A 
ATOM     27  C   UNL A   1      33.020  28.682  27.078  1.00  0.00     0.000 A 
ATOM     28  C   UNL A   1      29.153  30.027  21.822  1.00  0.00     0.000 A 
ATOM     29  C   UNL A   1      32.039  27.864  27.638  1.00  0.00     0.000 A 
ATOM     30  C   UNL A   1      28.106  29.281  22.378  1.00  0.00     0.000 A 
ENDBRANCH   8   9
ENDBRANCH   7   8
ENDBRANCH   5   7
ENDBRANCH   2   3
ENDBRANCH   1   2
BRANCH   1  31
ATOM     31  C   UNL A   1      39.093  21.162  26.099  1.00  0.00     0.023 C 
BRANCH  31  32
ATOM     32  C   UNL A   1      39.001  19.732  25.534  1.00  0.00     0.116 C 
BRANCH  32  33
ATOM     33  N   UNL A   1      40.230  18.951  25.701  1.00  0.00    -0.352 N 
ATOM     34  C   UNL A   1      41.528  19.205  26.094  1.00  0.00     0.251 C 
ATOM     35  H   UNL A   1      40.095  18.003  25.474  1.00  0.00     0.163 HD
ATOM     36  O   UNL A   1      42.313  18.255  26.061  1.00  0.00    -0.269 OA
BRANCH  34  37
ATOM     37  C   UNL A   1      42.082  20.534  26.498  1.00  0.00     0.039 A 
ATOM     38  C   UNL A   1      42.305  20.937  27.807  1.00  0.00     0.014 A 
ATOM     39  C   UNL A   1      42.475  21.420  25.478  1.00  0.00     0.014 A 
ATOM     40  C   UNL A   1      42.722  22.262  28.081  1.00  0.00     0.010 A 
ATOM     41  C   UNL A   1      42.967  22.714  25.761  1.00  0.00     0.010 A 
ATOM     42  C   UNL A   1      43.027  23.196  27.073  1.00  0.00    -0.014 A 
BRANCH  42  43
ATOM     43  C   UNL A   1      43.355  24.641  27.399  1.00  0.00     0.031 A 
ATOM     44  C   UNL A   1      44.748  25.219  27.169  1.00  0.00     0.074 A 
ATOM     45  C   UNL A   1      42.419  25.496  27.872  1.00  0.00     0.049 A 
ATOM     46  N   UNL A   1      45.198  26.436  27.398  1.00  0.00    -0.248 NA
ATOM     47  C   UNL A   1      45.769  24.320  26.615  1.00  0.00     0.031 C 
ATOM     48  C   UNL A   1      41.027  25.160  28.164  1.00  0.00     0.029 A 
ATOM     49  N   UNL A   1      42.500  26.840  28.187  1.00  0.00    -0.354 N 
ATOM     50  C   UNL A   1      46.537  26.438  27.016  1.00  0.00     0.074 A 
ATOM     51  C   UNL A   1      46.842  25.097  26.571  1.00  0.00     0.031 C 
ATOM     52  C   UNL A   1      40.378  26.265  28.564  1.00  0.00     0.029 A 
ATOM     53  C   UNL A   1      41.316  27.384  28.626  1.00  0.00     0.049 A 
ATOM     54  H   UNL A   1      43.331  27.361  28.102  1.00  0.00     0.167 HD
ATOM     55  C   UNL A   1      47.438  27.453  27.014  1.00  0.00     0.037 A 
ATOM     56  C   UNL A   1      41.003  28.624  29.060  1.00  0.00     0.037 A 
ATOM     57  C   UNL A   1      47.188  28.809  27.431  1.00  0.00     0.049 A 
ATOM     58  C   UNL A   1      42.044  29.709  29.139  1.00  0.00     0.074 A 
ATOM     59  C   UNL A   1      48.062  29.886  27.414  1.00  0.00     0.029 A 
ATOM     60  N   UNL A   1      45.992  29.276  27.941  1.00  0.00    -0.354 N 
ATOM     61  N   UNL A   1      43.294  29.687  28.755  1.00  0.00    -0.248 NA
ATOM     62  C   UNL A   1      41.628  30.991  29.734  1.00  0.00     0.031 C 
ATOM     63  C   UNL A   1      47.409  30.996  27.960  1.00  0.00     0.029 A 
ATOM     64  C   UNL A   1      46.117  30.618  28.276  1.00  0.00     0.049 A 
ATOM     65  H   UNL A   1      45.175  28.738  28.052  1.00  0.00     0.167 HD
ATOM     66  C   UNL A   1      43.806  30.946  29.047  1.00  0.00     0.074 A 
ATOM     67  C   UNL A   1      42.732  31.719  29.625  1.00  0.00     0.031 C 
ATOM     68  C   UNL A   1      45.064  31.407  28.854  1.00  0.00     0.037 A 
BRANCH  55  69
ATOM     69  C   UNL A   1      48.829  27.159  26.530  1.00  0.00     0.064 A 
ATOM     70  C   UNL A   1      49.810  26.667  27.402  1.00  0.00     0.173 A 
ATOM     71  C   UNL A   1      49.134  27.231  25.162  1.00  0.00     0.173 A 
ATOM     72  F   UNL A   1      49.565  26.585  28.718  1.00  0.00    -0.203 F 
ATOM     73  C   UNL A   1      51.048  26.250  26.918  1.00  0.00     0.198 A 
ATOM     74  C   UNL A   1      50.366  26.797  24.681  1.00  0.00     0.198 A 
ATOM     75  F   UNL A   1      48.221  27.682  24.289  1.00  0.00    -0.203 F 
ATOM     76  F   UNL A   1      51.974  25.784  27.768  1.00  0.00    -0.200 F 
ATOM     77  C   UNL A   1      51.320  26.304  25.558  1.00  0.00     0.200 A 
ATOM     78  F   UNL A   1      50.623  26.836  23.366  1.00  0.00    -0.200 F 
ATOM     79  F   UNL A   1      52.502  25.876  25.094  1.00  0.00    -0.200 F 
ENDBRANCH  55  69
BRANCH  56  80
ATOM     80  C   UNL A   1      39.614  28.920  29.501  1.00  0.00     0.064 A 
ATOM     81  C   UNL A   1      39.205  28.662  30.817  1.00  0.00     0.173 A 
ATOM     82  C   UNL A   1      38.662  29.430  28.607  1.00  0.00     0.173 A 
ATOM     83  F   UNL A   1      40.072  28.140  31.697  1.00  0.00    -0.203 F 
ATOM     84  C   UNL A   1      37.892  28.895  31.219  1.00  0.00     0.198 A 
ATOM     85  C   UNL A   1      37.357  29.690  29.017  1.00  0.00     0.198 A 
ATOM     86  F   UNL A   1      39.003  29.680  27.334  1.00  0.00    -0.203 F 
ATOM     87  F   UNL A   1      37.514  28.599  32.469  1.00  0.00    -0.200 F 
ATOM     88  C   UNL A   1      36.972  29.415  30.321  1.00  0.00     0.200 A 
ATOM     89  F   UNL A   1      36.473  30.199  28.150  1.00  0.00    -0.200 F 
ATOM     90  F   UNL A   1      35.710  29.644  30.710  1.00  0.00    -0.200 F 
ENDBRANCH  56  80
BRANCH  68  91
ATOM     91  C   UNL A   1      45.373  32.819  29.255  1.00  0.00     0.064 A 
ATOM     92  C   UNL A   1      45.920  33.119  30.512  1.00  0.00     0.173 A 
ATOM     93  C   UNL A   1      45.181  33.879  28.355  1.00  0.00     0.173 A 
ATOM     94  F   UNL A   1      46.111  32.144  31.413  1.00  0.00    -0.203 F 
ATOM     95  C   UNL A   1      46.252  34.428  30.855  1.00  0.00     0.198 A 
ATOM     96  C   UNL A   1      45.535  35.182  28.694  1.00  0.00     0.198 A 
ATOM     97  F   UNL A   1      44.667  33.648  27.137  1.00  0.00    -0.203 F 
ATOM     98  F   UNL A   1      46.747  34.693  32.072  1.00  0.00    -0.200 F 
ATOM     99  C   UNL A   1      46.067  35.456  29.944  1.00  0.00     0.200 A 
ATOM    100  F   UNL A   1      45.367  36.175  27.807  1.00  0.00    -0.200 F 
ATOM    101  F   UNL A   1      46.399  36.713  30.274  1.00  0.00    -0.200 F 
ENDBRANCH  68  91
ENDBRANCH  42  43
ENDBRANCH  34  37
ENDBRANCH  32  33
ENDBRANCH  31  32
ENDBRANCH   1  31
TORSDOF 13
ENDMDL
MODEL 3
REMARK VINA RESULT:     -14.3      4.895      9.319
REMARK SMILES O=C(CCN1C(=O)[C@@H]2[C@@H](C1=O)[C@H]1c3ccccc3[C@]2(Br)c2ccccc21)NCCCCNC(=O)c1ccc(-c2c3nc(c(-c4c(F)c(F)c(F)c(F)c4F)c4ccc([nH]4)c(-c4c(F)c(F)c(F)c(F)c4F)c4nc(c(-c5c(F)c(F)c(F)c(F)c5F)c5ccc2[nH]5)C=C4)C=C3)cc1
REMARK SMILES IDX 29 1 28 2 27 3 1 4 2 5 3 7 4 8 5 9 6 10 10 11 7 12 8 13 9 14
REMARK SMILES IDX 11 15 19 16 12 17 21 18 20 19 18 20 26 21 13 22 22 23 17 24
REMARK SMILES IDX 25 25 14 26 23 27 16 28 24 29 15 30 30 31 31 32 32 33 33 34
REMARK SMILES IDX 34 36 35 37 36 38 97 39 37 40 96 41 38 42 39 43 40 44 90 45
REMARK SMILES IDX 41 46 95 47 89 48 91 49 42 50 94 51 88 52 87 53 43 55 75 56
REMARK SMILES IDX 55 57 74 58 56 59 59 60 73 61 92 62 57 63 58 64 72 66 93 67
REMARK SMILES IDX 60 68 44 69 45 70 53 71 46 72 47 73 51 74 54 75 48 76 49 77
REMARK SMILES IDX 52 78 50 79 76 80 77 81 85 82 78 83 79 84 83 85 86 86 80 87
REMARK SMILES IDX 81 88 84 89 82 90 61 91 62 92 70 93 63 94 64 95 68 96 71 97
REMARK SMILES IDX 65 98 66 99 69 100 67 101
REMARK H PARENT 27 6 32 35 91 54 59 65
REMARK Flexibility Score: inf
ROOT
ATOM      1  C   UNL A   1      34.028  29.974  26.865  1.00  0.00     0.023 C 
ENDROOT
BRANCH   1   2
ATOM      2  C   UNL A   1      33.922  28.444  26.939  1.00  0.00     0.116 C 
BRANCH   2   3
ATOM      3  N   UNL A   1      33.109  27.848  25.886  1.00  0.00    -0.356 N 
ATOM      4  O   UNL A   1      31.325  27.418  27.272  1.00  0.00    -0.275 OA
ATOM      5  C   UNL A   1      31.809  27.459  26.143  1.00  0.00     0.221 C 
ATOM      6  H   UNL A   1      33.489  27.722  24.987  1.00  0.00     0.163 HD
BRANCH   5   7
ATOM      7  C   UNL A   1      30.975  27.125  24.919  1.00  0.00     0.122 C 
BRANCH   7   8
ATOM      8  C   UNL A   1      30.138  25.861  25.154  1.00  0.00     0.138 C 
BRANCH   8   9
ATOM      9  N   UNL A   1      30.944  24.655  25.035  1.00  0.00    -0.281 N 
ATOM     10  C   UNL A   1      31.387  23.882  26.120  1.00  0.00     0.235 C 
ATOM     11  C   UNL A   1      31.376  24.147  23.821  1.00  0.00     0.234 C 
ATOM     12  O   UNL A   1      31.028  23.946  27.278  1.00  0.00    -0.274 OA
ATOM     13  C   UNL A   1      32.561  23.137  25.559  1.00  0.00     0.118 C 
ATOM     14  C   UNL A   1      32.003  22.856  24.165  1.00  0.00     0.105 C 
ATOM     15  O   UNL A   1      31.181  24.546  22.690  1.00  0.00    -0.274 OA
ATOM     16  C   UNL A   1      33.452  21.928  25.963  1.00  0.00     0.088 C 
ATOM     17  C   UNL A   1      33.079  22.165  23.337  1.00  0.00     0.063 C 
ATOM     18  C   UNL A   1      34.749  22.354  25.202  1.00  0.00    -0.022 A 
ATOM     19  Br  UNL A   1      33.661  21.824  27.866  1.00  0.00    -0.074 Br
ATOM     20  C   UNL A   1      33.031  20.605  25.270  1.00  0.00    -0.022 A 
ATOM     21  C   UNL A   1      34.490  22.575  23.811  1.00  0.00    -0.035 A 
ATOM     22  C   UNL A   1      32.855  20.736  23.852  1.00  0.00    -0.035 A 
ATOM     23  C   UNL A   1      36.003  22.650  25.734  1.00  0.00     0.006 A 
ATOM     24  C   UNL A   1      32.893  19.340  25.830  1.00  0.00     0.006 A 
ATOM     25  C   UNL A   1      35.476  23.143  23.020  1.00  0.00     0.005 A 
ATOM     26  C   UNL A   1      32.434  19.675  23.055  1.00  0.00     0.005 A 
ATOM     27  C   UNL A   1      36.979  23.215  24.909  1.00  0.00     0.000 A 
ATOM     28  C   UNL A   1      32.526  18.260  25.014  1.00  0.00     0.000 A 
ATOM     29  C   UNL A   1      36.712  23.476  23.565  1.00  0.00     0.000 A 
ATOM     30  C   UNL A   1      32.279  18.428  23.646  1.00  0.00     0.000 A 
ENDBRANCH   8   9
ENDBRANCH   7   8
ENDBRANCH   5   7
ENDBRANCH   2   3
ENDBRANCH   1   2
BRANCH   1  31
ATOM     31  C   UNL A   1      32.827  30.748  27.435  1.00  0.00     0.023 C 
BRANCH  31  32
ATOM     32  C   UNL A   1      32.190  31.812  26.523  1.00  0.00     0.116 C 
BRANCH  32  33
ATOM     33  N   UNL A   1      32.150  33.152  27.117  1.00  0.00    -0.352 N 
ATOM     34  C   UNL A   1      32.934  33.880  27.989  1.00  0.00     0.251 C 
ATOM     35  H   UNL A   1      31.364  33.662  26.817  1.00  0.00     0.163 HD
ATOM     36  O   UNL A   1      32.527  35.005  28.292  1.00  0.00    -0.269 OA
BRANCH  34  37
ATOM     37  C   UNL A   1      34.193  33.410  28.643  1.00  0.00     0.039 A 
ATOM     38  C   UNL A   1      35.468  33.559  28.112  1.00  0.00     0.014 A 
ATOM     39  C   UNL A   1      34.095  32.838  29.925  1.00  0.00     0.014 A 
ATOM     40  C   UNL A   1      36.580  32.971  28.761  1.00  0.00     0.010 A 
ATOM     41  C   UNL A   1      35.224  32.325  30.603  1.00  0.00     0.010 A 
ATOM     42  C   UNL A   1      36.486  32.308  29.999  1.00  0.00    -0.014 A 
BRANCH  42  43
ATOM     43  C   UNL A   1      37.673  31.587  30.609  1.00  0.00     0.031 A 
ATOM     44  C   UNL A   1      38.106  31.830  32.051  1.00  0.00     0.074 A 
ATOM     45  C   UNL A   1      38.381  30.665  29.916  1.00  0.00     0.049 A 
ATOM     46  N   UNL A   1      39.103  31.298  32.728  1.00  0.00    -0.248 NA
ATOM     47  C   UNL A   1      37.324  32.795  32.838  1.00  0.00     0.031 C 
ATOM     48  C   UNL A   1      38.143  30.275  28.528  1.00  0.00     0.029 A 
ATOM     49  N   UNL A   1      39.452  29.877  30.294  1.00  0.00    -0.354 N 
ATOM     50  C   UNL A   1      39.060  31.861  34.001  1.00  0.00     0.074 A 
ATOM     51  C   UNL A   1      37.962  32.802  34.000  1.00  0.00     0.031 C 
ATOM     52  C   UNL A   1      38.999  29.298  28.187  1.00  0.00     0.029 A 
ATOM     53  C   UNL A   1      39.900  29.030  29.307  1.00  0.00     0.049 A 
ATOM     54  H   UNL A   1      39.858  29.918  31.190  1.00  0.00     0.167 HD
ATOM     55  C   UNL A   1      39.841  31.620  35.084  1.00  0.00     0.037 A 
ATOM     56  C   UNL A   1      40.927  28.154  29.273  1.00  0.00     0.037 A 
ATOM     57  C   UNL A   1      40.936  30.688  35.149  1.00  0.00     0.049 A 
ATOM     58  C   UNL A   1      41.839  27.974  30.457  1.00  0.00     0.074 A 
ATOM     59  C   UNL A   1      41.739  30.381  36.237  1.00  0.00     0.029 A 
ATOM     60  N   UNL A   1      41.390  29.920  34.094  1.00  0.00    -0.354 N 
ATOM     61  N   UNL A   1      41.762  28.505  31.650  1.00  0.00    -0.248 NA
ATOM     62  C   UNL A   1      42.997  27.080  30.278  1.00  0.00     0.031 C 
ATOM     63  C   UNL A   1      42.709  29.461  35.829  1.00  0.00     0.029 A 
ATOM     64  C   UNL A   1      42.484  29.166  34.497  1.00  0.00     0.049 A 
ATOM     65  H   UNL A   1      40.997  29.910  33.190  1.00  0.00     0.167 HD
ATOM     66  C   UNL A   1      42.846  28.003  32.362  1.00  0.00     0.074 A 
ATOM     67  C   UNL A   1      43.559  27.110  31.479  1.00  0.00     0.031 C 
ATOM     68  C   UNL A   1      43.211  28.273  33.637  1.00  0.00     0.037 A 
BRANCH  55  69
ATOM     69  C   UNL A   1      39.549  32.381  36.346  1.00  0.00     0.064 A 
ATOM     70  C   UNL A   1      40.229  33.568  36.649  1.00  0.00     0.173 A 
ATOM     71  C   UNL A   1      38.484  31.997  37.175  1.00  0.00     0.173 A 
ATOM     72  F   UNL A   1      41.257  33.972  35.888  1.00  0.00    -0.203 F 
ATOM     73  C   UNL A   1      39.848  34.349  37.737  1.00  0.00     0.198 A 
ATOM     74  C   UNL A   1      38.095  32.790  38.252  1.00  0.00     0.198 A 
ATOM     75  F   UNL A   1      37.795  30.876  36.915  1.00  0.00    -0.203 F 
ATOM     76  F   UNL A   1      40.512  35.480  38.012  1.00  0.00    -0.200 F 
ATOM     77  C   UNL A   1      38.775  33.967  38.530  1.00  0.00     0.200 A 
ATOM     78  F   UNL A   1      37.050  32.426  39.007  1.00  0.00    -0.200 F 
ATOM     79  F   UNL A   1      38.393  34.735  39.559  1.00  0.00    -0.200 F 
ENDBRANCH  55  69
BRANCH  56  80
ATOM     80  C   UNL A   1      41.186  27.374  28.034  1.00  0.00     0.064 A 
ATOM     81  C   UNL A   1      40.603  26.114  27.841  1.00  0.00     0.173 A 
ATOM     82  C   UNL A   1      42.048  27.857  27.039  1.00  0.00     0.173 A 
ATOM     83  F   UNL A   1      39.800  25.596  28.782  1.00  0.00    -0.203 F 
ATOM     84  C   UNL A   1      40.881  25.362  26.702  1.00  0.00     0.198 A 
ATOM     85  C   UNL A   1      42.303  27.117  25.887  1.00  0.00     0.198 A 
ATOM     86  F   UNL A   1      42.639  29.052  27.185  1.00  0.00    -0.203 F 
ATOM     87  F   UNL A   1      40.347  24.142  26.561  1.00  0.00    -0.200 F 
ATOM     88  C   UNL A   1      41.725  25.867  25.723  1.00  0.00     0.200 A 
ATOM     89  F   UNL A   1      43.112  27.611  24.941  1.00  0.00    -0.200 F 
ATOM     90  F   UNL A   1      41.988  25.145  24.625  1.00  0.00    -0.200 F 
ENDBRANCH  56  80
BRANCH  68  91
ATOM     91  C   UNL A   1      44.433  27.597  34.185  1.00  0.00     0.064 A 
ATOM     92  C   UNL A   1      45.688  28.223  34.157  1.00  0.00     0.173 A 
ATOM     93  C   UNL A   1      44.342  26.340  34.801  1.00  0.00     0.173 A 
ATOM     94  F   UNL A   1      45.832  29.420  33.568  1.00  0.00    -0.203 F 
ATOM     95  C   UNL A   1      46.808  27.610  34.715  1.00  0.00     0.198 A 
ATOM     96  C   UNL A   1      45.459  25.740  35.378  1.00  0.00     0.198 A 
ATOM     97  F   UNL A   1      43.164  25.699  34.862  1.00  0.00    -0.203 F 
ATOM     98  F   UNL A   1      48.002  28.215  34.651  1.00  0.00    -0.200 F 
ATOM     99  C   UNL A   1      46.691  26.373  35.332  1.00  0.00     0.200 A 
ATOM    100  F   UNL A   1      45.342  24.549  35.984  1.00  0.00    -0.200 F 
ATOM    101  F   UNL A   1      47.768  25.791  35.878  1.00  0.00    -0.200 F 
ENDBRANCH  68  91
ENDBRANCH  42  43
ENDBRANCH  34  37
ENDBRANCH  32  33
ENDBRANCH  31  32
ENDBRANCH   1  31
TORSDOF 13
ENDMDL
