MODEL 1
REMARK VINA RESULT:     -12.9      0.000      0.000
REMARK SMILES O=C(NCCCCNC(=O)[C@H]1C[C@@H]2CCCC[C@H]2N1C(=O)CN1CSCC1=O)c1ccc(-c2c3nc(c(-c4c(F)c(F)c(F)c(F)c4F)c4ccc([nH]4)c(-c4c(F)c(F)c(F)c(F)c4F)c4nc(c(-c5c(F)c(F)c(F)c(F)c5F)c5ccc2[nH]5)C=C4)C=C3)cc1
REMARK SMILES IDX 6 1 5 2 4 3 3 4 1 5 2 6 29 8 30 9 91 10 31 11 90 12 32 13
REMARK SMILES IDX 33 14 34 15 84 16 35 17 89 18 83 19 85 20 36 21 88 22 82 23
REMARK SMILES IDX 81 24 37 26 69 27 49 28 68 29 50 30 53 31 67 32 86 33 51 34
REMARK SMILES IDX 52 35 66 37 87 38 54 39 38 40 39 41 47 42 40 43 41 44 45 45
REMARK SMILES IDX 48 46 42 47 43 48 46 49 44 50 70 51 71 52 79 53 72 54 73 55
REMARK SMILES IDX 77 56 80 57 74 58 75 59 78 60 76 61 55 62 56 63 64 64 57 65
REMARK SMILES IDX 58 66 62 67 65 68 59 69 60 70 63 71 61 72 7 73 8 74 9 75
REMARK SMILES IDX 10 77 11 78 12 79 19 80 13 81 18 82 14 83 17 84 15 85 16 86
REMARK SMILES IDX 20 87 21 88 22 89 23 90 24 91 27 92 25 93 26 94 28 95
REMARK H PARENT 3 7 85 25 53 36 8 76
REMARK Flexibility Score: inf
ROOT
ATOM      1  C   UNL A   1      31.743  30.688  26.168  1.00  0.00     0.023 C 
ENDROOT
BRANCH   1   2
ATOM      2  C   UNL A   1      31.434  32.046  26.801  1.00  0.00     0.023 C 
BRANCH   2   3
ATOM      3  C   UNL A   1      32.648  32.837  27.267  1.00  0.00     0.116 C 
BRANCH   3   4
ATOM      4  N   UNL A   1      32.344  34.209  27.645  1.00  0.00    -0.352 N 
ATOM      5  O   UNL A   1      32.538  36.103  28.870  1.00  0.00    -0.269 OA
ATOM      6  C   UNL A   1      32.970  34.991  28.590  1.00  0.00     0.251 C 
ATOM      7  H   UNL A   1      31.597  34.633  27.162  1.00  0.00     0.163 HD
BRANCH   6   8
ATOM      8  C   UNL A   1      34.153  34.453  29.296  1.00  0.00     0.039 A 
ATOM      9  C   UNL A   1      35.426  34.614  28.749  1.00  0.00     0.014 A 
ATOM     10  C   UNL A   1      33.982  33.744  30.487  1.00  0.00     0.014 A 
ATOM     11  C   UNL A   1      36.500  33.931  29.302  1.00  0.00     0.010 A 
ATOM     12  C   UNL A   1      35.083  33.136  31.097  1.00  0.00     0.010 A 
ATOM     13  C   UNL A   1      36.346  33.194  30.489  1.00  0.00    -0.014 A 
BRANCH  13  14
ATOM     14  C   UNL A   1      37.546  32.557  31.089  1.00  0.00     0.031 A 
ATOM     15  C   UNL A   1      38.020  32.911  32.471  1.00  0.00     0.074 A 
ATOM     16  C   UNL A   1      38.169  31.588  30.387  1.00  0.00     0.049 A 
ATOM     17  N   UNL A   1      39.003  32.388  33.162  1.00  0.00    -0.248 NA
ATOM     18  C   UNL A   1      37.309  33.992  33.168  1.00  0.00     0.031 C 
ATOM     19  C   UNL A   1      37.810  31.179  29.027  1.00  0.00     0.029 A 
ATOM     20  N   UNL A   1      39.203  30.755  30.723  1.00  0.00    -0.354 N 
ATOM     21  C   UNL A   1      39.034  33.078  34.367  1.00  0.00     0.074 A 
ATOM     22  C   UNL A   1      37.992  34.081  34.302  1.00  0.00     0.031 C 
ATOM     23  C   UNL A   1      38.568  30.135  28.668  1.00  0.00     0.029 A 
ATOM     24  C   UNL A   1      39.508  29.842  29.743  1.00  0.00     0.049 A 
ATOM     25  H   UNL A   1      39.681  30.805  31.583  1.00  0.00     0.167 HD
ATOM     26  C   UNL A   1      39.850  32.882  35.431  1.00  0.00     0.037 A 
ATOM     27  C   UNL A   1      40.448  28.880  29.707  1.00  0.00     0.037 A 
ATOM     28  C   UNL A   1      40.883  31.878  35.491  1.00  0.00     0.049 A 
ATOM     29  C   UNL A   1      41.335  28.689  30.902  1.00  0.00     0.074 A 
ATOM     30  C   UNL A   1      41.760  31.598  36.526  1.00  0.00     0.029 A 
ATOM     31  N   UNL A   1      41.176  30.984  34.471  1.00  0.00    -0.354 N 
ATOM     32  N   UNL A   1      41.338  29.336  32.041  1.00  0.00    -0.248 NA
ATOM     33  C   UNL A   1      42.349  27.631  30.807  1.00  0.00     0.031 C 
ATOM     34  C   UNL A   1      42.607  30.561  36.118  1.00  0.00     0.029 A 
ATOM     35  C   UNL A   1      42.228  30.161  34.848  1.00  0.00     0.049 A 
ATOM     36  H   UNL A   1      40.708  30.940  33.605  1.00  0.00     0.167 HD
ATOM     37  C   UNL A   1      42.348  28.764  32.800  1.00  0.00     0.074 A 
ATOM     38  C   UNL A   1      42.910  27.692  32.006  1.00  0.00     0.031 C 
ATOM     39  C   UNL A   1      42.780  29.104  34.039  1.00  0.00     0.037 A 
BRANCH  26  40
ATOM     40  C   UNL A   1      39.668  33.774  36.626  1.00  0.00     0.064 A 
ATOM     41  C   UNL A   1      40.248  35.049  36.685  1.00  0.00     0.173 A 
ATOM     42  C   UNL A   1      38.850  33.377  37.696  1.00  0.00     0.173 A 
ATOM     43  F   UNL A   1      41.047  35.474  35.694  1.00  0.00    -0.203 F 
ATOM     44  C   UNL A   1      40.031  35.887  37.777  1.00  0.00     0.198 A 
ATOM     45  C   UNL A   1      38.614  34.227  38.773  1.00  0.00     0.198 A 
ATOM     46  F   UNL A   1      38.264  32.170  37.687  1.00  0.00    -0.203 F 
ATOM     47  F   UNL A   1      40.623  37.089  37.827  1.00  0.00    -0.200 F 
ATOM     48  C   UNL A   1      39.206  35.479  38.816  1.00  0.00     0.200 A 
ATOM     49  F   UNL A   1      37.806  33.836  39.770  1.00  0.00    -0.200 F 
ATOM     50  F   UNL A   1      38.988  36.291  39.859  1.00  0.00    -0.200 F 
ENDBRANCH  26  40
BRANCH  27  51
ATOM     51  C   UNL A   1      40.595  28.040  28.492  1.00  0.00     0.064 A 
ATOM     52  C   UNL A   1      41.378  28.459  27.409  1.00  0.00     0.173 A 
ATOM     53  C   UNL A   1      39.959  26.793  28.394  1.00  0.00     0.173 A 
ATOM     54  F   UNL A   1      41.993  29.650  27.447  1.00  0.00    -0.203 F 
ATOM     55  C   UNL A   1      41.505  27.670  26.267  1.00  0.00     0.198 A 
ATOM     56  C   UNL A   1      40.113  25.992  27.268  1.00  0.00     0.198 A 
ATOM     57  F   UNL A   1      39.204  26.344  29.408  1.00  0.00    -0.203 F 
ATOM     58  F   UNL A   1      42.223  28.113  25.226  1.00  0.00    -0.200 F 
ATOM     59  C   UNL A   1      40.878  26.435  26.200  1.00  0.00     0.200 A 
ATOM     60  F   UNL A   1      39.523  24.789  27.218  1.00  0.00    -0.200 F 
ATOM     61  F   UNL A   1      41.008  25.673  25.106  1.00  0.00    -0.200 F 
ENDBRANCH  27  51
BRANCH  39  62
ATOM     62  C   UNL A   1      43.909  28.294  34.606  1.00  0.00     0.064 A 
ATOM     63  C   UNL A   1      45.246  28.678  34.428  1.00  0.00     0.173 A 
ATOM     64  C   UNL A   1      43.651  27.124  35.333  1.00  0.00     0.173 A 
ATOM     65  F   UNL A   1      45.544  29.781  33.724  1.00  0.00    -0.203 F 
ATOM     66  C   UNL A   1      46.286  27.900  34.927  1.00  0.00     0.198 A 
ATOM     67  C   UNL A   1      44.692  26.363  35.856  1.00  0.00     0.198 A 
ATOM     68  F   UNL A   1      42.389  26.716  35.534  1.00  0.00    -0.203 F 
ATOM     69  F   UNL A   1      47.557  28.254  34.694  1.00  0.00    -0.200 F 
ATOM     70  C   UNL A   1      46.008  26.745  35.645  1.00  0.00     0.200 A 
ATOM     71  F   UNL A   1      44.422  25.253  36.558  1.00  0.00    -0.200 F 
ATOM     72  F   UNL A   1      47.011  25.994  36.121  1.00  0.00    -0.200 F 
ENDBRANCH  39  62
ENDBRANCH  13  14
ENDBRANCH   6   8
ENDBRANCH   3   4
ENDBRANCH   2   3
ENDBRANCH   1   2
BRANCH   1  73
ATOM     73  C   UNL A   1      32.335  29.659  27.131  1.00  0.00     0.116 C 
BRANCH  73  74
ATOM     74  N   UNL A   1      31.559  28.433  27.156  1.00  0.00    -0.354 N 
ATOM     75  C   UNL A   1      31.690  27.332  26.346  1.00  0.00     0.242 C 
ATOM     76  H   UNL A   1      30.851  28.383  27.838  1.00  0.00     0.163 HD
ATOM     77  O   UNL A   1      30.898  26.399  26.492  1.00  0.00    -0.273 OA
BRANCH  75  78
ATOM     78  C   UNL A   1      32.893  27.275  25.383  1.00  0.00     0.175 C 
ATOM     79  C   UNL A   1      33.930  26.262  25.889  1.00  0.00     0.041 C 
ATOM     80  N   UNL A   1      32.541  26.848  24.018  1.00  0.00    -0.326 N 
ATOM     81  C   UNL A   1      33.615  25.030  25.060  1.00  0.00     0.014 C 
ATOM     82  C   UNL A   1      33.265  25.620  23.683  1.00  0.00     0.089 C 
ATOM     83  C   UNL A   1      34.726  23.996  24.942  1.00  0.00     0.006 C 
ATOM     84  C   UNL A   1      32.651  24.478  22.871  1.00  0.00     0.025 C 
ATOM     85  C   UNL A   1      34.300  22.871  23.994  1.00  0.00     0.000 C 
ATOM     86  C   UNL A   1      33.718  23.386  22.676  1.00  0.00     0.002 C 
BRANCH  80  87
ATOM     87  C   UNL A   1      32.015  27.815  23.177  1.00  0.00     0.243 C 
ATOM     88  O   UNL A   1      32.496  28.956  23.145  1.00  0.00    -0.273 OA
BRANCH  87  89
ATOM     89  C   UNL A   1      30.854  27.489  22.240  1.00  0.00     0.220 C 
BRANCH  89  90
ATOM     90  N   UNL A   1      29.598  28.145  22.583  1.00  0.00    -0.323 N 
ATOM     91  C   UNL A   1      28.707  27.530  23.530  1.00  0.00     0.190 C 
ATOM     92  C   UNL A   1      29.233  29.378  22.084  1.00  0.00     0.233 C 
ATOM     93  S   UNL A   1      27.139  28.405  23.418  1.00  0.00    -0.130 SA
ATOM     94  C   UNL A   1      27.843  29.790  22.502  1.00  0.00     0.171 C 
ATOM     95  O   UNL A   1      29.938  30.081  21.368  1.00  0.00    -0.274 OA
ENDBRANCH  89  90
ENDBRANCH  87  89
ENDBRANCH  80  87
ENDBRANCH  75  78
ENDBRANCH  73  74
ENDBRANCH   1  73
TORSDOF 14
ENDMDL
MODEL 2
REMARK VINA RESULT:     -12.7      2.910      4.674
REMARK SMILES O=C(NCCCCNC(=O)[C@H]1C[C@@H]2CCCC[C@H]2N1C(=O)CN1CSCC1=O)c1ccc(-c2c3nc(c(-c4c(F)c(F)c(F)c(F)c4F)c4ccc([nH]4)c(-c4c(F)c(F)c(F)c(F)c4F)c4nc(c(-c5c(F)c(F)c(F)c(F)c5F)c5ccc2[nH]5)C=C4)C=C3)cc1
REMARK SMILES IDX 6 1 5 2 4 3 3 4 1 5 2 6 29 8 30 9 91 10 31 11 90 12 32 13
REMARK SMILES IDX 33 14 34 15 84 16 35 17 89 18 83 19 85 20 36 21 88 22 82 23
REMARK SMILES IDX 81 24 37 26 69 27 49 28 68 29 50 30 53 31 67 32 86 33 51 34
REMARK SMILES IDX 52 35 66 37 87 38 54 39 38 40 39 41 47 42 40 43 41 44 45 45
REMARK SMILES IDX 48 46 42 47 43 48 46 49 44 50 70 51 71 52 79 53 72 54 73 55
REMARK SMILES IDX 77 56 80 57 74 58 75 59 78 60 76 61 55 62 56 63 64 64 57 65
REMARK SMILES IDX 58 66 62 67 65 68 59 69 60 70 63 71 61 72 7 73 8 74 9 75
REMARK SMILES IDX 10 77 11 78 12 79 19 80 13 81 18 82 14 83 17 84 15 85 16 86
REMARK SMILES IDX 20 87 21 88 22 89 23 90 24 91 27 92 25 93 26 94 28 95
REMARK H PARENT 3 7 85 25 53 36 8 76
REMARK Flexibility Score: inf
ROOT
ATOM      1  C   UNL A   1      31.895  27.038  26.284  1.00  0.00     0.023 C 
ENDROOT
BRANCH   1   2
ATOM      2  C   UNL A   1      32.273  27.954  25.120  1.00  0.00     0.023 C 
BRANCH   2   3
ATOM      3  C   UNL A   1      33.275  29.050  25.453  1.00  0.00     0.116 C 
BRANCH   3   4
ATOM      4  N   UNL A   1      32.663  30.273  25.952  1.00  0.00    -0.352 N 
ATOM      5  O   UNL A   1      32.452  32.064  27.321  1.00  0.00    -0.269 OA
ATOM      6  C   UNL A   1      33.129  31.117  26.935  1.00  0.00     0.251 C 
ATOM      7  H   UNL A   1      31.809  30.529  25.533  1.00  0.00     0.163 HD
BRANCH   6   8
ATOM      8  C   UNL A   1      34.446  30.845  27.551  1.00  0.00     0.039 A 
ATOM      9  C   UNL A   1      34.747  29.567  28.021  1.00  0.00     0.014 A 
ATOM     10  C   UNL A   1      35.365  31.887  27.700  1.00  0.00     0.014 A 
ATOM     11  C   UNL A   1      35.891  29.369  28.782  1.00  0.00     0.010 A 
ATOM     12  C   UNL A   1      36.564  31.661  28.384  1.00  0.00     0.010 A 
ATOM     13  C   UNL A   1      36.820  30.409  28.963  1.00  0.00    -0.014 A 
BRANCH  13  14
ATOM     14  C   UNL A   1      38.071  30.120  29.709  1.00  0.00     0.031 A 
ATOM     15  C   UNL A   1      38.293  30.629  31.105  1.00  0.00     0.074 A 
ATOM     16  C   UNL A   1      38.987  29.320  29.125  1.00  0.00     0.049 A 
ATOM     17  N   UNL A   1      39.298  30.398  31.914  1.00  0.00    -0.248 NA
ATOM     18  C   UNL A   1      37.264  31.514  31.668  1.00  0.00     0.031 C 
ATOM     19  C   UNL A   1      38.887  28.788  27.764  1.00  0.00     0.029 A 
ATOM     20  N   UNL A   1      40.157  28.791  29.604  1.00  0.00    -0.354 N 
ATOM     21  C   UNL A   1      39.028  31.113  33.074  1.00  0.00     0.074 A 
ATOM     22  C   UNL A   1      37.780  31.813  32.854  1.00  0.00     0.031 C 
ATOM     23  C   UNL A   1      39.917  27.961  27.539  1.00  0.00     0.029 A 
ATOM     24  C   UNL A   1      40.782  27.954  28.712  1.00  0.00     0.049 A 
ATOM     25  H   UNL A   1      40.513  28.990  30.500  1.00  0.00     0.167 HD
ATOM     26  C   UNL A   1      39.751  31.167  34.219  1.00  0.00     0.037 A 
ATOM     27  C   UNL A   1      41.932  27.264  28.821  1.00  0.00     0.037 A 
ATOM     28  C   UNL A   1      40.990  30.463  34.434  1.00  0.00     0.049 A 
ATOM     29  C   UNL A   1      42.708  27.345  30.102  1.00  0.00     0.074 A 
ATOM     30  C   UNL A   1      41.796  30.450  35.561  1.00  0.00     0.029 A 
ATOM     31  N   UNL A   1      41.604  29.640  33.500  1.00  0.00    -0.354 N 
ATOM     32  N   UNL A   1      42.428  28.009  31.197  1.00  0.00    -0.248 NA
ATOM     33  C   UNL A   1      43.959  26.579  30.164  1.00  0.00     0.031 C 
ATOM     34  C   UNL A   1      42.914  29.652  35.295  1.00  0.00     0.029 A 
ATOM     35  C   UNL A   1      42.783  29.127  34.020  1.00  0.00     0.049 A 
ATOM     36  H   UNL A   1      41.255  29.449  32.599  1.00  0.00     0.167 HD
ATOM     37  C   UNL A   1      43.464  27.740  32.079  1.00  0.00     0.074 A 
ATOM     38  C   UNL A   1      44.358  26.822  31.404  1.00  0.00     0.031 C 
ATOM     39  C   UNL A   1      43.664  28.220  33.330  1.00  0.00     0.037 A 
BRANCH  26  40
ATOM     40  C   UNL A   1      39.226  32.022  35.338  1.00  0.00     0.064 A 
ATOM     41  C   UNL A   1      38.443  31.482  36.369  1.00  0.00     0.173 A 
ATOM     42  C   UNL A   1      39.565  33.382  35.418  1.00  0.00     0.173 A 
ATOM     43  F   UNL A   1      38.082  30.190  36.336  1.00  0.00    -0.203 F 
ATOM     44  C   UNL A   1      38.004  32.274  37.427  1.00  0.00     0.198 A 
ATOM     45  C   UNL A   1      39.146  34.164  36.491  1.00  0.00     0.198 A 
ATOM     46  F   UNL A   1      40.319  33.948  34.463  1.00  0.00    -0.203 F 
ATOM     47  F   UNL A   1      37.229  31.743  38.383  1.00  0.00    -0.200 F 
ATOM     48  C   UNL A   1      38.364  33.612  37.492  1.00  0.00     0.200 A 
ATOM     49  F   UNL A   1      39.506  35.454  36.559  1.00  0.00    -0.200 F 
ATOM     50  F   UNL A   1      37.951  34.369  38.518  1.00  0.00    -0.200 F 
ENDBRANCH  26  40
BRANCH  27  51
ATOM     51  C   UNL A   1      42.412  26.450  27.675  1.00  0.00     0.064 A 
ATOM     52  C   UNL A   1      41.888  25.176  27.419  1.00  0.00     0.173 A 
ATOM     53  C   UNL A   1      43.400  26.937  26.807  1.00  0.00     0.173 A 
ATOM     54  F   UNL A   1      40.953  24.659  28.230  1.00  0.00    -0.203 F 
ATOM     55  C   UNL A   1      42.349  24.413  26.348  1.00  0.00     0.198 A 
ATOM     56  C   UNL A   1      43.835  26.188  25.718  1.00  0.00     0.198 A 
ATOM     57  F   UNL A   1      43.927  28.155  27.005  1.00  0.00    -0.203 F 
ATOM     58  F   UNL A   1      41.865  23.179  26.151  1.00  0.00    -0.200 F 
ATOM     59  C   UNL A   1      43.316  24.922  25.495  1.00  0.00     0.200 A 
ATOM     60  F   UNL A   1      44.754  26.694  24.884  1.00  0.00    -0.200 F 
ATOM     61  F   UNL A   1      43.752  24.192  24.460  1.00  0.00    -0.200 F 
ENDBRANCH  27  51
BRANCH  39  62
ATOM     62  C   UNL A   1      44.895  27.745  34.047  1.00  0.00     0.064 A 
ATOM     63  C   UNL A   1      44.880  26.583  34.833  1.00  0.00     0.173 A 
ATOM     64  C   UNL A   1      46.097  28.458  33.946  1.00  0.00     0.173 A 
ATOM     65  F   UNL A   1      43.748  25.877  34.974  1.00  0.00    -0.203 F 
ATOM     66  C   UNL A   1      46.018  26.173  35.522  1.00  0.00     0.198 A 
ATOM     67  C   UNL A   1      47.241  28.028  34.613  1.00  0.00     0.198 A 
ATOM     68  F   UNL A   1      46.163  29.572  33.203  1.00  0.00    -0.203 F 
ATOM     69  F   UNL A   1      45.966  25.094  36.315  1.00  0.00    -0.200 F 
ATOM     70  C   UNL A   1      47.198  26.893  35.408  1.00  0.00     0.200 A 
ATOM     71  F   UNL A   1      48.384  28.719  34.494  1.00  0.00    -0.200 F 
ATOM     72  F   UNL A   1      48.291  26.499  36.076  1.00  0.00    -0.200 F 
ENDBRANCH  39  62
ENDBRANCH  13  14
ENDBRANCH   6   8
ENDBRANCH   3   4
ENDBRANCH   2   3
ENDBRANCH   1   2
BRANCH   1  73
ATOM     73  C   UNL A   1      31.288  25.699  25.867  1.00  0.00     0.116 C 
BRANCH  73  74
ATOM     74  N   UNL A   1      31.671  24.627  26.768  1.00  0.00    -0.354 N 
ATOM     75  C   UNL A   1      32.592  23.631  26.555  1.00  0.00     0.242 C 
ATOM     76  H   UNL A   1      31.215  24.612  27.640  1.00  0.00     0.163 HD
ATOM     77  O   UNL A   1      32.744  22.776  27.430  1.00  0.00    -0.273 OA
BRANCH  75  78
ATOM     78  C   UNL A   1      33.466  23.706  25.288  1.00  0.00     0.175 C 
ATOM     79  C   UNL A   1      34.780  24.439  25.592  1.00  0.00     0.041 C 
ATOM     80  N   UNL A   1      33.851  22.389  24.753  1.00  0.00    -0.326 N 
ATOM     81  C   UNL A   1      35.752  23.292  25.809  1.00  0.00     0.014 C 
ATOM     82  C   UNL A   1      35.310  22.262  24.755  1.00  0.00     0.089 C 
ATOM     83  C   UNL A   1      37.229  23.625  25.657  1.00  0.00     0.006 C 
ATOM     84  C   UNL A   1      36.039  20.961  25.096  1.00  0.00     0.025 C 
ATOM     85  C   UNL A   1      38.072  22.353  25.798  1.00  0.00     0.000 C 
ATOM     86  C   UNL A   1      37.553  21.193  24.945  1.00  0.00     0.002 C 
BRANCH  80  87
ATOM     87  C   UNL A   1      32.914  21.734  23.971  1.00  0.00     0.243 C 
ATOM     88  O   UNL A   1      32.755  22.042  22.781  1.00  0.00    -0.273 OA
BRANCH  87  89
ATOM     89  C   UNL A   1      32.078  20.591  24.543  1.00  0.00     0.220 C 
BRANCH  89  90
ATOM     90  N   UNL A   1      32.640  19.264  24.325  1.00  0.00    -0.323 N 
ATOM     91  C   UNL A   1      33.231  18.549  25.424  1.00  0.00     0.190 C 
ATOM     92  C   UNL A   1      32.585  18.615  23.109  1.00  0.00     0.233 C 
ATOM     93  S   UNL A   1      34.129  17.158  24.723  1.00  0.00    -0.130 SA
ATOM     94  C   UNL A   1      33.331  17.303  23.112  1.00  0.00     0.171 C 
ATOM     95  O   UNL A   1      32.007  19.038  22.113  1.00  0.00    -0.274 OA
ENDBRANCH  89  90
ENDBRANCH  87  89
ENDBRANCH  80  87
ENDBRANCH  75  78
ENDBRANCH  73  74
ENDBRANCH   1  73
TORSDOF 14
ENDMDL
MODEL 3
REMARK VINA RESULT:     -12.6      2.939      4.318
REMARK SMILES O=C(NCCCCNC(=O)[C@H]1C[C@@H]2CCCC[C@H]2N1C(=O)CN1CSCC1=O)c1ccc(-c2c3nc(c(-c4c(F)c(F)c(F)c(F)c4F)c4ccc([nH]4)c(-c4c(F)c(F)c(F)c(F)c4F)c4nc(c(-c5c(F)c(F)c(F)c(F)c5F)c5ccc2[nH]5)C=C4)C=C3)cc1
REMARK SMILES IDX 6 1 5 2 4 3 3 4 1 5 2 6 29 8 30 9 91 10 31 11 90 12 32 13
REMARK SMILES IDX 33 14 34 15 84 16 35 17 89 18 83 19 85 20 36 21 88 22 82 23
REMARK SMILES IDX 81 24 37 26 69 27 49 28 68 29 50 30 53 31 67 32 86 33 51 34
REMARK SMILES IDX 52 35 66 37 87 38 54 39 38 40 39 41 47 42 40 43 41 44 45 45
REMARK SMILES IDX 48 46 42 47 43 48 46 49 44 50 70 51 71 52 79 53 72 54 73 55
REMARK SMILES IDX 77 56 80 57 74 58 75 59 78 60 76 61 55 62 56 63 64 64 57 65
REMARK SMILES IDX 58 66 62 67 65 68 59 69 60 70 63 71 61 72 7 73 8 74 9 75
REMARK SMILES IDX 10 77 11 78 12 79 19 80 13 81 18 82 14 83 17 84 15 85 16 86
REMARK SMILES IDX 20 87 21 88 22 89 23 90 24 91 27 92 25 93 26 94 28 95
REMARK H PARENT 3 7 85 25 53 36 8 76
REMARK Flexibility Score: inf
ROOT
ATOM      1  C   UNL A   1      31.842  27.120  26.196  1.00  0.00     0.023 C 
ENDROOT
BRANCH   1   2
ATOM      2  C   UNL A   1      32.265  28.043  25.052  1.00  0.00     0.023 C 
BRANCH   2   3
ATOM      3  C   UNL A   1      33.300  29.097  25.416  1.00  0.00     0.116 C 
BRANCH   3   4
ATOM      4  N   UNL A   1      32.723  30.336  25.921  1.00  0.00    -0.352 N 
ATOM      5  O   UNL A   1      32.561  32.126  27.297  1.00  0.00    -0.269 OA
ATOM      6  C   UNL A   1      33.211  31.161  26.908  1.00  0.00     0.251 C 
ATOM      7  H   UNL A   1      31.877  30.618  25.501  1.00  0.00     0.163 HD
BRANCH   6   8
ATOM      8  C   UNL A   1      34.518  30.848  27.525  1.00  0.00     0.039 A 
ATOM      9  C   UNL A   1      34.779  29.561  27.996  1.00  0.00     0.014 A 
ATOM     10  C   UNL A   1      35.470  31.860  27.674  1.00  0.00     0.014 A 
ATOM     11  C   UNL A   1      35.915  29.328  28.758  1.00  0.00     0.010 A 
ATOM     12  C   UNL A   1      36.660  31.596  28.359  1.00  0.00     0.010 A 
ATOM     13  C   UNL A   1      36.877  30.337  28.939  1.00  0.00    -0.014 A 
BRANCH  13  14
ATOM     14  C   UNL A   1      38.118  30.009  29.685  1.00  0.00     0.031 A 
ATOM     15  C   UNL A   1      38.356  30.514  31.080  1.00  0.00     0.074 A 
ATOM     16  C   UNL A   1      39.007  29.178  29.104  1.00  0.00     0.049 A 
ATOM     17  N   UNL A   1      39.353  30.253  31.890  1.00  0.00    -0.248 NA
ATOM     18  C   UNL A   1      37.357  31.435  31.641  1.00  0.00     0.031 C 
ATOM     19  C   UNL A   1      38.889  28.646  27.745  1.00  0.00     0.029 A 
ATOM     20  N   UNL A   1      40.158  28.611  29.585  1.00  0.00    -0.354 N 
ATOM     21  C   UNL A   1      39.107  30.980  33.048  1.00  0.00     0.074 A 
ATOM     22  C   UNL A   1      37.883  31.720  32.825  1.00  0.00     0.031 C 
ATOM     23  C   UNL A   1      39.891  27.785  27.522  1.00  0.00     0.029 A 
ATOM     24  C   UNL A   1      40.755  27.752  28.695  1.00  0.00     0.049 A 
ATOM     25  H   UNL A   1      40.521  28.801  30.480  1.00  0.00     0.167 HD
ATOM     26  C   UNL A   1      39.831  31.013  34.193  1.00  0.00     0.037 A 
ATOM     27  C   UNL A   1      41.881  27.025  28.806  1.00  0.00     0.037 A 
ATOM     28  C   UNL A   1      41.047  30.269  34.410  1.00  0.00     0.049 A 
ATOM     29  C   UNL A   1      42.660  27.084  30.087  1.00  0.00     0.074 A 
ATOM     30  C   UNL A   1      41.851  30.233  35.537  1.00  0.00     0.029 A 
ATOM     31  N   UNL A   1      41.633  29.423  33.478  1.00  0.00    -0.354 N 
ATOM     32  N   UNL A   1      42.403  27.759  31.180  1.00  0.00    -0.248 NA
ATOM     33  C   UNL A   1      43.885  26.277  30.151  1.00  0.00     0.031 C 
ATOM     34  C   UNL A   1      42.942  29.397  35.274  1.00  0.00     0.029 A 
ATOM     35  C   UNL A   1      42.794  28.873  34.000  1.00  0.00     0.049 A 
ATOM     36  H   UNL A   1      41.278  29.242  32.577  1.00  0.00     0.167 HD
ATOM     37  C   UNL A   1      43.429  27.459  32.063  1.00  0.00     0.074 A 
ATOM     38  C   UNL A   1      44.292  26.510  31.391  1.00  0.00     0.031 C 
ATOM     39  C   UNL A   1      43.645  27.935  33.313  1.00  0.00     0.037 A 
BRANCH  26  40
ATOM     40  C   UNL A   1      39.335  31.888  35.309  1.00  0.00     0.064 A 
ATOM     41  C   UNL A   1      39.659  33.251  35.373  1.00  0.00     0.173 A 
ATOM     42  C   UNL A   1      38.471  31.374  36.290  1.00  0.00     0.173 A 
ATOM     43  F   UNL A   1      40.488  33.790  34.467  1.00  0.00    -0.203 F 
ATOM     44  C   UNL A   1      39.152  34.063  36.385  1.00  0.00     0.198 A 
ATOM     45  C   UNL A   1      37.946  32.194  37.285  1.00  0.00     0.198 A 
ATOM     46  F   UNL A   1      38.123  30.078  36.272  1.00  0.00    -0.203 F 
ATOM     47  F   UNL A   1      39.502  35.355  36.445  1.00  0.00    -0.200 F 
ATOM     48  C   UNL A   1      38.289  33.536  37.335  1.00  0.00     0.200 A 
ATOM     49  F   UNL A   1      37.101  31.686  38.194  1.00  0.00    -0.200 F 
ATOM     50  F   UNL A   1      37.791  34.321  38.300  1.00  0.00    -0.200 F 
ENDBRANCH  26  40
BRANCH  27  51
ATOM     51  C   UNL A   1      42.334  26.191  27.663  1.00  0.00     0.064 A 
ATOM     52  C   UNL A   1      43.323  26.644  26.780  1.00  0.00     0.173 A 
ATOM     53  C   UNL A   1      41.790  24.918  27.437  1.00  0.00     0.173 A 
ATOM     54  F   UNL A   1      43.862  27.861  26.944  1.00  0.00    -0.203 F 
ATOM     55  C   UNL A   1      43.738  25.861  25.704  1.00  0.00     0.198 A 
ATOM     56  C   UNL A   1      42.228  24.124  26.383  1.00  0.00     0.198 A 
ATOM     57  F   UNL A   1      40.846  24.436  28.260  1.00  0.00    -0.203 F 
ATOM     58  F   UNL A   1      44.652  26.335  24.847  1.00  0.00    -0.200 F 
ATOM     59  C   UNL A   1      43.195  24.600  25.510  1.00  0.00     0.200 A 
ATOM     60  F   UNL A   1      41.716  22.897  26.213  1.00  0.00    -0.200 F 
ATOM     61  F   UNL A   1      43.600  23.844  24.481  1.00  0.00    -0.200 F 
ENDBRANCH  27  51
BRANCH  39  62
ATOM     62  C   UNL A   1      44.859  27.422  34.030  1.00  0.00     0.064 A 
ATOM     63  C   UNL A   1      46.096  28.078  33.938  1.00  0.00     0.173 A 
ATOM     64  C   UNL A   1      44.785  26.263  34.816  1.00  0.00     0.173 A 
ATOM     65  F   UNL A   1      46.220  29.180  33.183  1.00  0.00    -0.203 F 
ATOM     66  C   UNL A   1      47.223  27.572  34.579  1.00  0.00     0.198 A 
ATOM     67  C   UNL A   1      45.907  25.777  35.480  1.00  0.00     0.198 A 
ATOM     68  F   UNL A   1      43.624  25.603  34.940  1.00  0.00    -0.203 F 
ATOM     69  F   UNL A   1      48.407  28.181  34.428  1.00  0.00    -0.200 F 
ATOM     70  C   UNL A   1      47.127  26.424  35.353  1.00  0.00     0.200 A 
ATOM     71  F   UNL A   1      45.811  24.673  36.235  1.00  0.00    -0.200 F 
ATOM     72  F   UNL A   1      48.214  25.936  35.965  1.00  0.00    -0.200 F 
ENDBRANCH  39  62
ENDBRANCH  13  14
ENDBRANCH   6   8
ENDBRANCH   3   4
ENDBRANCH   2   3
ENDBRANCH   1   2
BRANCH   1  73
ATOM     73  C   UNL A   1      31.333  25.749  25.751  1.00  0.00     0.116 C 
BRANCH  73  74
ATOM     74  N   UNL A   1      31.711  24.703  26.683  1.00  0.00    -0.354 N 
ATOM     75  C   UNL A   1      32.621  23.692  26.497  1.00  0.00     0.242 C 
ATOM     76  H   UNL A   1      31.259  24.720  27.558  1.00  0.00     0.163 HD
ATOM     77  O   UNL A   1      32.770  22.863  27.397  1.00  0.00    -0.273 OA
BRANCH  75  78
ATOM     78  C   UNL A   1      33.489  23.719  25.223  1.00  0.00     0.175 C 
ATOM     79  C   UNL A   1      34.805  24.463  25.493  1.00  0.00     0.041 C 
ATOM     80  N   UNL A   1      33.871  22.382  24.736  1.00  0.00    -0.326 N 
ATOM     81  C   UNL A   1      35.777  23.325  25.747  1.00  0.00     0.014 C 
ATOM     82  C   UNL A   1      35.330  22.256  24.736  1.00  0.00     0.089 C 
ATOM     83  C   UNL A   1      37.254  23.651  25.576  1.00  0.00     0.006 C 
ATOM     84  C   UNL A   1      36.062  20.969  25.121  1.00  0.00     0.025 C 
ATOM     85  C   UNL A   1      38.097  22.386  25.760  1.00  0.00     0.000 C 
ATOM     86  C   UNL A   1      37.574  21.195  24.954  1.00  0.00     0.002 C 
BRANCH  80  87
ATOM     87  C   UNL A   1      32.930  21.699  23.984  1.00  0.00     0.243 C 
ATOM     88  O   UNL A   1      32.724  22.001  22.800  1.00  0.00    -0.273 OA
BRANCH  87  89
ATOM     89  C   UNL A   1      32.149  20.531  24.582  1.00  0.00     0.220 C 
BRANCH  89  90
ATOM     90  N   UNL A   1      32.750  19.222  24.355  1.00  0.00    -0.323 N 
ATOM     91  C   UNL A   1      33.373  18.524  25.448  1.00  0.00     0.190 C 
ATOM     92  C   UNL A   1      32.706  18.575  23.138  1.00  0.00     0.233 C 
ATOM     93  S   UNL A   1      34.308  17.163  24.735  1.00  0.00    -0.130 SA
ATOM     94  C   UNL A   1      33.493  17.287  23.131  1.00  0.00     0.171 C 
ATOM     95  O   UNL A   1      32.107  18.983  22.148  1.00  0.00    -0.274 OA
ENDBRANCH  89  90
ENDBRANCH  87  89
ENDBRANCH  80  87
ENDBRANCH  75  78
ENDBRANCH  73  74
ENDBRANCH   1  73
TORSDOF 14
ENDMDL
