MODEL 1
REMARK VINA RESULT:     -13.2      0.000      0.000
REMARK SMILES Cn1ncc(C(=O)NCCCCNC(=O)c2ccc(-c3c4nc(c(-c5c(F)c(F)c(F)c(F)c5F)c5ccc([nH]5)c(-c5c(F)c(F)c(F)c(F)c5F)c5nc(c(-c6c(F)c(F)c(F)c(F)c6F)c6ccc3[nH]6)C=C5)C=C4)cc2)c1C(=O)NCC1CC[NH+](Cc2ccccc2)CC1
REMARK SMILES IDX 9 1 8 2 6 3 7 4 5 6 1 7 2 8 3 9 79 10 4 11 80 12 81 13 82 14
REMARK SMILES IDX 83 16 84 17 85 18 96 19 86 20 95 21 87 22 88 24 89 25 90 26
REMARK SMILES IDX 94 27 91 28 93 29 92 30 10 31 11 32 12 33 13 34 14 35 15 37
REMARK SMILES IDX 16 38 17 39 78 40 18 41 77 42 19 43 20 44 21 45 71 46 22 47
REMARK SMILES IDX 76 48 70 49 72 50 23 51 75 52 69 53 68 54 24 56 56 57 36 58
REMARK SMILES IDX 55 59 37 60 40 61 54 62 73 63 38 64 39 65 53 67 74 68 41 69
REMARK SMILES IDX 25 70 26 71 34 72 27 73 28 74 32 75 35 76 29 77 30 78 33 79
REMARK SMILES IDX 31 80 57 81 58 82 66 83 59 84 60 85 64 86 67 87 61 88 62 89
REMARK SMILES IDX 65 90 63 91 42 92 43 93 51 94 44 95 45 96 49 97 52 98 46 99
REMARK SMILES IDX 47 100 50 101 48 102
REMARK H PARENT 8 5 82 15 87 23 13 36 72 55 40 66
REMARK Flexibility Score: inf
ROOT
ATOM      1  C   UNL A   1      34.107  29.654  27.334  1.00  0.00     0.116 C 
ENDROOT
BRANCH   1   2
ATOM      2  N   UNL A   1      32.947  28.977  27.854  1.00  0.00    -0.352 N 
ATOM      3  C   UNL A   1      31.888  28.349  27.249  1.00  0.00     0.255 C 
ATOM      4  O   UNL A   1      31.081  27.836  28.031  1.00  0.00    -0.269 OA
ATOM      5  H   UNL A   1      32.907  28.960  28.838  1.00  0.00     0.163 HD
BRANCH   3   6
ATOM      6  C   UNL A   1      31.610  28.341  25.815  1.00  0.00     0.090 A 
ATOM      7  C   UNL A   1      30.647  27.574  22.411  1.00  0.00     0.174 C 
ATOM      8  N   UNL A   1      31.086  28.066  23.691  1.00  0.00    -0.262 N 
ATOM      9  N   UNL A   1      31.144  29.398  23.828  1.00  0.00    -0.180 NA
ATOM     10  C   UNL A   1      31.375  27.360  24.841  1.00  0.00     0.138 A 
ATOM     11  C   UNL A   1      31.430  29.564  25.113  1.00  0.00     0.149 A 
BRANCH  10  12
ATOM     12  C   UNL A   1      31.287  25.926  24.989  1.00  0.00     0.270 C 
ATOM     13  O   UNL A   1      30.414  25.252  24.446  1.00  0.00    -0.268 OA
ATOM     14  N   UNL A   1      31.991  25.354  26.029  1.00  0.00    -0.350 N 
ATOM     15  H   UNL A   1      31.551  25.335  26.909  1.00  0.00     0.163 HD
BRANCH  14  16
ATOM     16  C   UNL A   1      33.321  24.775  25.946  1.00  0.00     0.120 C 
BRANCH  16  17
ATOM     17  C   UNL A   1      33.502  23.392  26.618  1.00  0.00     0.019 C 
ATOM     18  C   UNL A   1      34.580  22.499  25.982  1.00  0.00     0.067 C 
ATOM     19  C   UNL A   1      32.211  22.578  26.780  1.00  0.00     0.067 C 
ATOM     20  C   UNL A   1      34.084  21.693  24.766  1.00  0.00     0.262 C 
ATOM     21  C   UNL A   1      31.774  21.870  25.498  1.00  0.00     0.262 C 
ATOM     22  N   UNL A   1      32.840  20.981  25.055  1.00  0.00    -0.331 N 
ATOM     23  H   UNL A   1      33.092  20.396  25.851  1.00  0.00     0.348 HD
BRANCH  22  24
ATOM     24  C   UNL A   1      32.403  19.973  24.074  1.00  0.00     0.299 C 
BRANCH  24  25
ATOM     25  C   UNL A   1      32.767  18.513  24.276  1.00  0.00     0.006 A 
ATOM     26  C   UNL A   1      32.672  17.868  25.514  1.00  0.00     0.009 A 
ATOM     27  C   UNL A   1      33.367  17.806  23.243  1.00  0.00     0.009 A 
ATOM     28  C   UNL A   1      33.180  16.569  25.693  1.00  0.00     0.001 A 
ATOM     29  C   UNL A   1      33.903  16.528  23.415  1.00  0.00     0.001 A 
ATOM     30  C   UNL A   1      33.806  15.902  24.645  1.00  0.00     0.000 A 
ENDBRANCH  24  25
ENDBRANCH  22  24
ENDBRANCH  16  17
ENDBRANCH  14  16
ENDBRANCH  10  12
ENDBRANCH   3   6
ENDBRANCH   1   2
BRANCH   1  31
ATOM     31  C   UNL A   1      34.468  30.983  27.997  1.00  0.00     0.023 C 
BRANCH  31  32
ATOM     32  C   UNL A   1      34.063  32.250  27.286  1.00  0.00     0.023 C 
BRANCH  32  33
ATOM     33  C   UNL A   1      32.684  32.704  27.687  1.00  0.00     0.116 C 
BRANCH  33  34
ATOM     34  N   UNL A   1      32.613  34.165  27.770  1.00  0.00    -0.352 N 
ATOM     35  C   UNL A   1      33.127  35.011  28.726  1.00  0.00     0.251 C 
ATOM     36  H   UNL A   1      32.129  34.605  27.034  1.00  0.00     0.163 HD
ATOM     37  O   UNL A   1      32.696  36.146  28.861  1.00  0.00    -0.269 OA
BRANCH  35  38
ATOM     38  C   UNL A   1      34.211  34.504  29.583  1.00  0.00     0.039 A 
ATOM     39  C   UNL A   1      33.936  33.819  30.766  1.00  0.00     0.014 A 
ATOM     40  C   UNL A   1      35.523  34.671  29.148  1.00  0.00     0.014 A 
ATOM     41  C   UNL A   1      34.991  33.234  31.467  1.00  0.00     0.010 A 
ATOM     42  C   UNL A   1      36.526  33.926  29.725  1.00  0.00     0.010 A 
ATOM     43  C   UNL A   1      36.288  33.249  30.925  1.00  0.00    -0.014 A 
BRANCH  43  44
ATOM     44  C   UNL A   1      37.453  32.646  31.609  1.00  0.00     0.031 A 
ATOM     45  C   UNL A   1      38.184  31.513  30.933  1.00  0.00     0.074 A 
ATOM     46  C   UNL A   1      37.775  33.034  32.856  1.00  0.00     0.049 A 
ATOM     47  N   UNL A   1      39.130  30.740  31.399  1.00  0.00    -0.248 NA
ATOM     48  C   UNL A   1      37.744  31.154  29.572  1.00  0.00     0.031 C 
ATOM     49  C   UNL A   1      37.078  34.059  33.635  1.00  0.00     0.029 A 
ATOM     50  N   UNL A   1      38.769  32.599  33.691  1.00  0.00    -0.354 N 
ATOM     51  C   UNL A   1      39.358  29.794  30.407  1.00  0.00     0.074 A 
ATOM     52  C   UNL A   1      38.385  30.017  29.367  1.00  0.00     0.031 C 
ATOM     53  C   UNL A   1      37.696  34.207  34.817  1.00  0.00     0.029 A 
ATOM     54  C   UNL A   1      38.800  33.257  34.896  1.00  0.00     0.049 A 
ATOM     55  H   UNL A   1      39.401  31.883  33.452  1.00  0.00     0.167 HD
ATOM     56  C   UNL A   1      40.329  28.854  30.345  1.00  0.00     0.037 A 
ATOM     57  C   UNL A   1      39.634  33.104  35.941  1.00  0.00     0.037 A 
ATOM     58  C   UNL A   1      41.326  28.687  31.364  1.00  0.00     0.049 A 
ATOM     59  C   UNL A   1      40.730  32.077  35.838  1.00  0.00     0.074 A 
ATOM     60  C   UNL A   1      42.408  27.829  31.384  1.00  0.00     0.029 A 
ATOM     61  N   UNL A   1      41.360  29.410  32.549  1.00  0.00    -0.354 N 
ATOM     62  N   UNL A   1      40.994  31.242  34.861  1.00  0.00    -0.248 NA
ATOM     63  C   UNL A   1      41.651  31.980  36.977  1.00  0.00     0.031 C 
ATOM     64  C   UNL A   1      43.069  27.997  32.605  1.00  0.00     0.029 A 
ATOM     65  C   UNL A   1      42.435  29.003  33.319  1.00  0.00     0.049 A 
ATOM     66  H   UNL A   1      40.715  30.109  32.804  1.00  0.00     0.167 HD
ATOM     67  C   UNL A   1      42.125  30.539  35.254  1.00  0.00     0.074 A 
ATOM     68  C   UNL A   1      42.506  31.061  36.551  1.00  0.00     0.031 C 
ATOM     69  C   UNL A   1      42.789  29.551  34.604  1.00  0.00     0.037 A 
BRANCH  56  70
ATOM     70  C   UNL A   1      40.360  27.967  29.132  1.00  0.00     0.064 A 
ATOM     71  C   UNL A   1      41.107  28.300  27.989  1.00  0.00     0.173 A 
ATOM     72  C   UNL A   1      39.626  26.773  29.104  1.00  0.00     0.173 A 
ATOM     73  F   UNL A   1      41.814  29.440  27.953  1.00  0.00    -0.203 F 
ATOM     74  C   UNL A   1      41.079  27.498  26.852  1.00  0.00     0.198 A 
ATOM     75  C   UNL A   1      39.633  25.951  27.979  1.00  0.00     0.198 A 
ATOM     76  F   UNL A   1      38.894  26.402  30.166  1.00  0.00    -0.203 F 
ATOM     77  F   UNL A   1      41.738  27.879  25.748  1.00  0.00    -0.200 F 
ATOM     78  C   UNL A   1      40.348  26.321  26.850  1.00  0.00     0.200 A 
ATOM     79  F   UNL A   1      38.936  24.806  27.983  1.00  0.00    -0.200 F 
ATOM     80  F   UNL A   1      40.323  25.548  25.755  1.00  0.00    -0.200 F 
ENDBRANCH  56  70
BRANCH  57  81
ATOM     81  C   UNL A   1      39.491  33.971  37.139  1.00  0.00     0.064 A 
ATOM     82  C   UNL A   1      40.050  35.257  37.167  1.00  0.00     0.173 A 
ATOM     83  C   UNL A   1      38.777  33.548  38.270  1.00  0.00     0.173 A 
ATOM     84  F   UNL A   1      40.752  35.703  36.115  1.00  0.00    -0.203 F 
ATOM     85  C   UNL A   1      39.921  36.076  38.286  1.00  0.00     0.198 A 
ATOM     86  C   UNL A   1      38.622  34.380  39.377  1.00  0.00     0.198 A 
ATOM     87  F   UNL A   1      38.209  32.333  38.290  1.00  0.00    -0.203 F 
ATOM     88  F   UNL A   1      40.503  37.283  38.301  1.00  0.00    -0.200 F 
ATOM     89  C   UNL A   1      39.201  35.640  39.388  1.00  0.00     0.200 A 
ATOM     90  F   UNL A   1      37.909  33.963  40.433  1.00  0.00    -0.200 F 
ATOM     91  F   UNL A   1      39.070  36.431  40.462  1.00  0.00    -0.200 F 
ENDBRANCH  57  81
BRANCH  69  92
ATOM     92  C   UNL A   1      44.014  28.997  35.270  1.00  0.00     0.064 A 
ATOM     93  C   UNL A   1      43.942  27.923  36.168  1.00  0.00     0.173 A 
ATOM     94  C   UNL A   1      45.280  29.518  34.963  1.00  0.00     0.173 A 
ATOM     95  F   UNL A   1      42.752  27.400  36.502  1.00  0.00    -0.203 F 
ATOM     96  C   UNL A   1      45.093  27.408  36.756  1.00  0.00     0.198 A 
ATOM     97  C   UNL A   1      46.431  28.975  35.524  1.00  0.00     0.198 A 
ATOM     98  F   UNL A   1      45.403  30.537  34.100  1.00  0.00    -0.203 F 
ATOM     99  F   UNL A   1      44.998  26.415  37.651  1.00  0.00    -0.200 F 
ATOM    100  C   UNL A   1      46.336  27.927  36.427  1.00  0.00     0.200 A 
ATOM    101  F   UNL A   1      47.633  29.465  35.191  1.00  0.00    -0.200 F 
ATOM    102  F   UNL A   1      47.444  27.421  36.986  1.00  0.00    -0.200 F 
ENDBRANCH  69  92
ENDBRANCH  43  44
ENDBRANCH  35  38
ENDBRANCH  33  34
ENDBRANCH  32  33
ENDBRANCH  31  32
ENDBRANCH   1  31
TORSDOF 16
ENDMDL
MODEL 2
REMARK VINA RESULT:     -13.0      0.431      1.987
REMARK SMILES Cn1ncc(C(=O)NCCCCNC(=O)c2ccc(-c3c4nc(c(-c5c(F)c(F)c(F)c(F)c5F)c5ccc([nH]5)c(-c5c(F)c(F)c(F)c(F)c5F)c5nc(c(-c6c(F)c(F)c(F)c(F)c6F)c6ccc3[nH]6)C=C5)C=C4)cc2)c1C(=O)NCC1CC[NH+](Cc2ccccc2)CC1
REMARK SMILES IDX 9 1 8 2 6 3 7 4 5 6 1 7 2 8 3 9 79 10 4 11 80 12 81 13 82 14
REMARK SMILES IDX 83 16 84 17 85 18 96 19 86 20 95 21 87 22 88 24 89 25 90 26
REMARK SMILES IDX 94 27 91 28 93 29 92 30 10 31 11 32 12 33 13 34 14 35 15 37
REMARK SMILES IDX 16 38 17 39 78 40 18 41 77 42 19 43 20 44 21 45 71 46 22 47
REMARK SMILES IDX 76 48 70 49 72 50 23 51 75 52 69 53 68 54 24 56 56 57 36 58
REMARK SMILES IDX 55 59 37 60 40 61 54 62 73 63 38 64 39 65 53 67 74 68 41 69
REMARK SMILES IDX 25 70 26 71 34 72 27 73 28 74 32 75 35 76 29 77 30 78 33 79
REMARK SMILES IDX 31 80 57 81 58 82 66 83 59 84 60 85 64 86 67 87 61 88 62 89
REMARK SMILES IDX 65 90 63 91 42 92 43 93 51 94 44 95 45 96 49 97 52 98 46 99
REMARK SMILES IDX 47 100 50 101 48 102
REMARK H PARENT 8 5 82 15 87 23 13 36 72 55 40 66
REMARK Flexibility Score: inf
ROOT
ATOM      1  C   UNL A   1      34.140  29.741  27.385  1.00  0.00     0.116 C 
ENDROOT
BRANCH   1   2
ATOM      2  N   UNL A   1      32.978  29.057  27.890  1.00  0.00    -0.352 N 
ATOM      3  C   UNL A   1      31.949  28.392  27.272  1.00  0.00     0.255 C 
ATOM      4  O   UNL A   1      31.128  27.886  28.044  1.00  0.00    -0.269 OA
ATOM      5  H   UNL A   1      32.907  29.068  28.872  1.00  0.00     0.163 HD
BRANCH   3   6
ATOM      6  C   UNL A   1      31.715  28.337  25.832  1.00  0.00     0.090 A 
ATOM      7  C   UNL A   1      30.988  27.417  22.406  1.00  0.00     0.174 C 
ATOM      8  N   UNL A   1      31.303  27.977  23.695  1.00  0.00    -0.262 N 
ATOM      9  N   UNL A   1      31.131  29.299  23.828  1.00  0.00    -0.180 NA
ATOM     10  C   UNL A   1      31.676  27.330  24.856  1.00  0.00     0.138 A 
ATOM     11  C   UNL A   1      31.350  29.511  25.119  1.00  0.00     0.149 A 
BRANCH  10  12
ATOM     12  C   UNL A   1      31.827  25.902  25.008  1.00  0.00     0.270 C 
ATOM     13  O   UNL A   1      30.897  25.112  24.857  1.00  0.00    -0.268 OA
ATOM     14  N   UNL A   1      32.955  25.452  25.664  1.00  0.00    -0.350 N 
ATOM     15  H   UNL A   1      32.915  25.416  26.647  1.00  0.00     0.163 HD
BRANCH  14  16
ATOM     16  C   UNL A   1      34.197  25.028  25.041  1.00  0.00     0.120 C 
BRANCH  16  17
ATOM     17  C   UNL A   1      34.865  23.769  25.647  1.00  0.00     0.019 C 
ATOM     18  C   UNL A   1      35.419  22.770  24.618  1.00  0.00     0.067 C 
ATOM     19  C   UNL A   1      34.006  23.009  26.667  1.00  0.00     0.067 C 
ATOM     20  C   UNL A   1      34.366  21.786  24.075  1.00  0.00     0.262 C 
ATOM     21  C   UNL A   1      32.951  22.109  26.023  1.00  0.00     0.262 C 
ATOM     22  N   UNL A   1      33.611  21.146  25.152  1.00  0.00    -0.331 N 
ATOM     23  H   UNL A   1      34.340  20.695  25.703  1.00  0.00     0.348 HD
BRANCH  22  24
ATOM     24  C   UNL A   1      32.764  19.998  24.785  1.00  0.00     0.299 C 
BRANCH  24  25
ATOM     25  C   UNL A   1      33.283  18.584  24.974  1.00  0.00     0.006 A 
ATOM     26  C   UNL A   1      34.411  18.091  24.310  1.00  0.00     0.009 A 
ATOM     27  C   UNL A   1      32.540  17.674  25.712  1.00  0.00     0.009 A 
ATOM     28  C   UNL A   1      34.754  16.729  24.382  1.00  0.00     0.001 A 
ATOM     29  C   UNL A   1      32.851  16.314  25.767  1.00  0.00     0.001 A 
ATOM     30  C   UNL A   1      33.967  15.837  25.103  1.00  0.00     0.000 A 
ENDBRANCH  24  25
ENDBRANCH  22  24
ENDBRANCH  16  17
ENDBRANCH  14  16
ENDBRANCH  10  12
ENDBRANCH   3   6
ENDBRANCH   1   2
BRANCH   1  31
ATOM     31  C   UNL A   1      34.444  31.105  28.004  1.00  0.00     0.023 C 
BRANCH  31  32
ATOM     32  C   UNL A   1      34.002  32.330  27.242  1.00  0.00     0.023 C 
BRANCH  32  33
ATOM     33  C   UNL A   1      32.630  32.790  27.664  1.00  0.00     0.116 C 
BRANCH  33  34
ATOM     34  N   UNL A   1      32.569  34.250  27.753  1.00  0.00    -0.352 N 
ATOM     35  C   UNL A   1      33.088  35.089  28.714  1.00  0.00     0.251 C 
ATOM     36  H   UNL A   1      32.088  34.698  27.020  1.00  0.00     0.163 HD
ATOM     37  O   UNL A   1      32.665  36.226  28.854  1.00  0.00    -0.269 OA
BRANCH  35  38
ATOM     38  C   UNL A   1      34.169  34.570  29.569  1.00  0.00     0.039 A 
ATOM     39  C   UNL A   1      33.890  33.896  30.756  1.00  0.00     0.014 A 
ATOM     40  C   UNL A   1      35.482  34.716  29.126  1.00  0.00     0.014 A 
ATOM     41  C   UNL A   1      34.940  33.300  31.456  1.00  0.00     0.010 A 
ATOM     42  C   UNL A   1      36.476  33.960  29.703  1.00  0.00     0.010 A 
ATOM     43  C   UNL A   1      36.234  33.293  30.906  1.00  0.00    -0.014 A 
BRANCH  43  44
ATOM     44  C   UNL A   1      37.394  32.676  31.588  1.00  0.00     0.031 A 
ATOM     45  C   UNL A   1      38.110  31.535  30.911  1.00  0.00     0.074 A 
ATOM     46  C   UNL A   1      37.724  33.061  32.834  1.00  0.00     0.049 A 
ATOM     47  N   UNL A   1      39.048  30.751  31.375  1.00  0.00    -0.248 NA
ATOM     48  C   UNL A   1      37.662  31.180  29.551  1.00  0.00     0.031 C 
ATOM     49  C   UNL A   1      37.041  34.095  33.615  1.00  0.00     0.029 A 
ATOM     50  N   UNL A   1      38.715  32.616  33.667  1.00  0.00    -0.354 N 
ATOM     51  C   UNL A   1      39.262  29.802  30.384  1.00  0.00     0.074 A 
ATOM     52  C   UNL A   1      38.290  30.036  29.345  1.00  0.00     0.031 C 
ATOM     53  C   UNL A   1      37.663  34.237  34.795  1.00  0.00     0.029 A 
ATOM     54  C   UNL A   1      38.756  33.274  34.872  1.00  0.00     0.049 A 
ATOM     55  H   UNL A   1      39.338  31.892  33.427  1.00  0.00     0.167 HD
ATOM     56  C   UNL A   1      40.222  28.851  30.320  1.00  0.00     0.037 A 
ATOM     57  C   UNL A   1      39.591  33.111  35.915  1.00  0.00     0.037 A 
ATOM     58  C   UNL A   1      41.220  28.672  31.337  1.00  0.00     0.049 A 
ATOM     59  C   UNL A   1      40.675  32.072  35.810  1.00  0.00     0.074 A 
ATOM     60  C   UNL A   1      42.291  27.801  31.354  1.00  0.00     0.029 A 
ATOM     61  N   UNL A   1      41.266  29.396  32.521  1.00  0.00    -0.354 N 
ATOM     62  N   UNL A   1      40.927  31.233  34.833  1.00  0.00    -0.248 NA
ATOM     63  C   UNL A   1      41.597  31.964  36.947  1.00  0.00     0.031 C 
ATOM     64  C   UNL A   1      42.958  27.962  32.573  1.00  0.00     0.029 A 
ATOM     65  C   UNL A   1      42.337  28.977  33.288  1.00  0.00     0.049 A 
ATOM     66  H   UNL A   1      40.629  30.102  32.777  1.00  0.00     0.167 HD
ATOM     67  C   UNL A   1      42.050  30.517  35.223  1.00  0.00     0.074 A 
ATOM     68  C   UNL A   1      42.440  31.035  36.519  1.00  0.00     0.031 C 
ATOM     69  C   UNL A   1      42.701  29.521  34.572  1.00  0.00     0.037 A 
BRANCH  56  70
ATOM     70  C   UNL A   1      40.240  27.963  29.107  1.00  0.00     0.064 A 
ATOM     71  C   UNL A   1      39.556  26.735  29.077  1.00  0.00     0.173 A 
ATOM     72  C   UNL A   1      40.957  28.336  27.961  1.00  0.00     0.173 A 
ATOM     73  F   UNL A   1      38.867  26.319  30.151  1.00  0.00    -0.203 F 
ATOM     74  C   UNL A   1      39.630  25.897  27.968  1.00  0.00     0.198 A 
ATOM     75  C   UNL A   1      40.995  27.514  26.838  1.00  0.00     0.198 A 
ATOM     76  F   UNL A   1      41.629  29.497  27.931  1.00  0.00    -0.203 F 
ATOM     77  F   UNL A   1      39.032  24.697  27.996  1.00  0.00    -0.200 F 
ATOM     78  C   UNL A   1      40.342  26.289  26.847  1.00  0.00     0.200 A 
ATOM     79  F   UNL A   1      41.674  27.900  25.749  1.00  0.00    -0.200 F 
ATOM     80  F   UNL A   1      40.412  25.483  25.778  1.00  0.00    -0.200 F 
ENDBRANCH  56  70
BRANCH  57  81
ATOM     81  C   UNL A   1      39.461  33.981  37.113  1.00  0.00     0.064 A 
ATOM     82  C   UNL A   1      38.773  33.540  38.251  1.00  0.00     0.173 A 
ATOM     83  C   UNL A   1      40.037  35.260  37.156  1.00  0.00     0.173 A 
ATOM     84  F   UNL A   1      38.194  32.329  38.255  1.00  0.00    -0.203 F 
ATOM     85  C   UNL A   1      38.645  34.349  39.378  1.00  0.00     0.198 A 
ATOM     86  C   UNL A   1      39.936  36.057  38.295  1.00  0.00     0.198 A 
ATOM     87  F   UNL A   1      40.719  35.726  36.099  1.00  0.00    -0.203 F 
ATOM     88  F   UNL A   1      37.945  33.917  40.435  1.00  0.00    -0.200 F 
ATOM     89  C   UNL A   1      39.233  35.606  39.401  1.00  0.00     0.200 A 
ATOM     90  F   UNL A   1      40.521  37.262  38.321  1.00  0.00    -0.200 F 
ATOM     91  F   UNL A   1      39.118  36.381  40.488  1.00  0.00    -0.200 F 
ENDBRANCH  57  81
BRANCH  69  92
ATOM     92  C   UNL A   1      43.921  28.953  35.236  1.00  0.00     0.064 A 
ATOM     93  C   UNL A   1      45.199  29.484  35.005  1.00  0.00     0.173 A 
ATOM     94  C   UNL A   1      43.799  27.898  36.152  1.00  0.00     0.173 A 
ATOM     95  F   UNL A   1      45.367  30.485  34.128  1.00  0.00    -0.203 F 
ATOM     96  C   UNL A   1      46.314  28.958  35.650  1.00  0.00     0.198 A 
ATOM     97  C   UNL A   1      44.912  27.400  36.821  1.00  0.00     0.198 A 
ATOM     98  F   UNL A   1      42.597  27.364  36.414  1.00  0.00    -0.203 F 
ATOM     99  F   UNL A   1      47.533  29.446  35.377  1.00  0.00    -0.200 F 
ATOM    100  C   UNL A   1      46.170  27.925  36.563  1.00  0.00     0.200 A 
ATOM    101  F   UNL A   1      44.768  26.415  37.718  1.00  0.00    -0.200 F 
ATOM    102  F   UNL A   1      47.244  27.429  37.191  1.00  0.00    -0.200 F 
ENDBRANCH  69  92
ENDBRANCH  43  44
ENDBRANCH  35  38
ENDBRANCH  33  34
ENDBRANCH  32  33
ENDBRANCH  31  32
ENDBRANCH   1  31
TORSDOF 16
ENDMDL
MODEL 3
REMARK VINA RESULT:     -13.0      1.191      7.297
REMARK SMILES Cn1ncc(C(=O)NCCCCNC(=O)c2ccc(-c3c4nc(c(-c5c(F)c(F)c(F)c(F)c5F)c5ccc([nH]5)c(-c5c(F)c(F)c(F)c(F)c5F)c5nc(c(-c6c(F)c(F)c(F)c(F)c6F)c6ccc3[nH]6)C=C5)C=C4)cc2)c1C(=O)NCC1CC[NH+](Cc2ccccc2)CC1
REMARK SMILES IDX 9 1 8 2 6 3 7 4 5 6 1 7 2 8 3 9 79 10 4 11 80 12 81 13 82 14
REMARK SMILES IDX 83 16 84 17 85 18 96 19 86 20 95 21 87 22 88 24 89 25 90 26
REMARK SMILES IDX 94 27 91 28 93 29 92 30 10 31 11 32 12 33 13 34 14 35 15 37
REMARK SMILES IDX 16 38 17 39 78 40 18 41 77 42 19 43 20 44 21 45 71 46 22 47
REMARK SMILES IDX 76 48 70 49 72 50 23 51 75 52 69 53 68 54 24 56 56 57 36 58
REMARK SMILES IDX 55 59 37 60 40 61 54 62 73 63 38 64 39 65 53 67 74 68 41 69
REMARK SMILES IDX 25 70 26 71 34 72 27 73 28 74 32 75 35 76 29 77 30 78 33 79
REMARK SMILES IDX 31 80 57 81 58 82 66 83 59 84 60 85 64 86 67 87 61 88 62 89
REMARK SMILES IDX 65 90 63 91 42 92 43 93 51 94 44 95 45 96 49 97 52 98 46 99
REMARK SMILES IDX 47 100 50 101 48 102
REMARK H PARENT 8 5 82 15 87 23 13 36 72 55 40 66
REMARK Flexibility Score: inf
ROOT
ATOM      1  C   UNL A   1      32.479  29.939  26.404  1.00  0.00     0.116 C 
ENDROOT
BRANCH   1   2
ATOM      2  N   UNL A   1      31.902  28.752  26.980  1.00  0.00    -0.352 N 
ATOM      3  C   UNL A   1      31.429  27.587  26.430  1.00  0.00     0.255 C 
ATOM      4  O   UNL A   1      31.033  26.755  27.254  1.00  0.00    -0.269 OA
ATOM      5  H   UNL A   1      31.835  28.781  27.963  1.00  0.00     0.163 HD
BRANCH   3   6
ATOM      6  C   UNL A   1      31.270  27.323  25.003  1.00  0.00     0.090 A 
ATOM      7  C   UNL A   1      31.634  26.387  21.525  1.00  0.00     0.174 C 
ATOM      8  N   UNL A   1      31.295  26.817  22.857  1.00  0.00    -0.262 N 
ATOM      9  N   UNL A   1      29.989  26.882  23.147  1.00  0.00    -0.180 NA
ATOM     10  C   UNL A   1      32.131  27.091  23.920  1.00  0.00     0.138 A 
ATOM     11  C   UNL A   1      29.973  27.157  24.444  1.00  0.00     0.149 A 
BRANCH  10  12
ATOM     12  C   UNL A   1      33.572  26.992  23.902  1.00  0.00     0.270 C 
ATOM     13  O   UNL A   1      34.299  27.914  23.540  1.00  0.00    -0.268 OA
ATOM     14  N   UNL A   1      34.119  25.726  23.969  1.00  0.00    -0.350 N 
ATOM     15  H   UNL A   1      34.210  25.233  23.122  1.00  0.00     0.163 HD
BRANCH  14  16
ATOM     16  C   UNL A   1      34.574  25.053  25.174  1.00  0.00     0.120 C 
BRANCH  16  17
ATOM     17  C   UNL A   1      35.288  23.696  24.964  1.00  0.00     0.019 C 
ATOM     18  C   UNL A   1      34.970  22.996  23.631  1.00  0.00     0.067 C 
ATOM     19  C   UNL A   1      35.116  22.690  26.110  1.00  0.00     0.067 C 
ATOM     20  C   UNL A   1      33.678  22.159  23.661  1.00  0.00     0.262 C 
ATOM     21  C   UNL A   1      33.773  21.959  26.081  1.00  0.00     0.262 C 
ATOM     22  N   UNL A   1      33.638  21.257  24.811  1.00  0.00    -0.331 N 
ATOM     23  H   UNL A   1      34.480  20.696  24.689  1.00  0.00     0.348 HD
BRANCH  22  24
ATOM     24  C   UNL A   1      32.590  20.222  24.814  1.00  0.00     0.299 C 
BRANCH  24  25
ATOM     25  C   UNL A   1      32.975  18.755  24.736  1.00  0.00     0.006 A 
ATOM     26  C   UNL A   1      33.526  18.171  23.591  1.00  0.00     0.009 A 
ATOM     27  C   UNL A   1      32.637  17.901  25.777  1.00  0.00     0.009 A 
ATOM     28  C   UNL A   1      33.708  16.780  23.504  1.00  0.00     0.001 A 
ATOM     29  C   UNL A   1      32.783  16.515  25.693  1.00  0.00     0.001 A 
ATOM     30  C   UNL A   1      33.325  15.949  24.553  1.00  0.00     0.000 A 
ENDBRANCH  24  25
ENDBRANCH  22  24
ENDBRANCH  16  17
ENDBRANCH  14  16
ENDBRANCH  10  12
ENDBRANCH   3   6
ENDBRANCH   1   2
BRANCH   1  31
ATOM     31  C   UNL A   1      31.494  31.000  25.915  1.00  0.00     0.023 C 
BRANCH  31  32
ATOM     32  C   UNL A   1      31.354  32.254  26.742  1.00  0.00     0.023 C 
BRANCH  32  33
ATOM     33  C   UNL A   1      32.687  32.756  27.234  1.00  0.00     0.116 C 
BRANCH  33  34
ATOM     34  N   UNL A   1      32.623  34.181  27.564  1.00  0.00    -0.352 N 
ATOM     35  C   UNL A   1      33.145  34.850  28.649  1.00  0.00     0.251 C 
ATOM     36  H   UNL A   1      32.139  34.743  26.917  1.00  0.00     0.163 HD
ATOM     37  O   UNL A   1      32.720  35.947  28.978  1.00  0.00    -0.269 OA
BRANCH  35  38
ATOM     38  C   UNL A   1      34.229  34.199  29.403  1.00  0.00     0.039 A 
ATOM     39  C   UNL A   1      33.955  33.315  30.445  1.00  0.00     0.014 A 
ATOM     40  C   UNL A   1      35.541  34.441  29.004  1.00  0.00     0.014 A 
ATOM     41  C   UNL A   1      35.010  32.615  31.032  1.00  0.00     0.010 A 
ATOM     42  C   UNL A   1      36.544  33.606  29.440  1.00  0.00     0.010 A 
ATOM     43  C   UNL A   1      36.307  32.727  30.500  1.00  0.00    -0.014 A 
BRANCH  43  44
ATOM     44  C   UNL A   1      37.472  32.012  31.066  1.00  0.00     0.031 A 
ATOM     45  C   UNL A   1      37.955  32.389  32.444  1.00  0.00     0.074 A 
ATOM     46  C   UNL A   1      38.144  31.122  30.314  1.00  0.00     0.049 A 
ATOM     47  N   UNL A   1      39.033  32.009  33.079  1.00  0.00    -0.248 NA
ATOM     48  C   UNL A   1      37.156  33.386  33.181  1.00  0.00     0.031 C 
ATOM     49  C   UNL A   1      37.814  30.749  28.937  1.00  0.00     0.029 A 
ATOM     50  N   UNL A   1      39.257  30.378  30.603  1.00  0.00    -0.354 N 
ATOM     51  C   UNL A   1      39.050  32.747  34.255  1.00  0.00     0.074 A 
ATOM     52  C   UNL A   1      37.945  33.672  34.201  1.00  0.00     0.031 C 
ATOM     53  C   UNL A   1      38.677  29.810  28.518  1.00  0.00     0.029 A 
ATOM     54  C   UNL A   1      39.646  29.552  29.577  1.00  0.00     0.049 A 
ATOM     55  H   UNL A   1      39.733  30.430  31.463  1.00  0.00     0.167 HD
ATOM     56  C   UNL A   1      39.883  32.627  35.315  1.00  0.00     0.037 A 
ATOM     57  C   UNL A   1      40.673  28.685  29.511  1.00  0.00     0.037 A 
ATOM     58  C   UNL A   1      40.941  31.659  35.376  1.00  0.00     0.049 A 
ATOM     59  C   UNL A   1      41.568  28.540  30.713  1.00  0.00     0.074 A 
ATOM     60  C   UNL A   1      41.801  31.382  36.420  1.00  0.00     0.029 A 
ATOM     61  N   UNL A   1      41.272  30.798  34.338  1.00  0.00    -0.354 N 
ATOM     62  N   UNL A   1      41.528  29.181  31.857  1.00  0.00    -0.248 NA
ATOM     63  C   UNL A   1      42.641  27.544  30.619  1.00  0.00     0.031 C 
ATOM     64  C   UNL A   1      42.688  30.387  35.996  1.00  0.00     0.029 A 
ATOM     65  C   UNL A   1      42.340  30.001  34.709  1.00  0.00     0.049 A 
ATOM     66  H   UNL A   1      40.815  30.761  33.466  1.00  0.00     0.167 HD
ATOM     67  C   UNL A   1      42.551  28.649  32.629  1.00  0.00     0.074 A 
ATOM     68  C   UNL A   1      43.181  27.620  31.827  1.00  0.00     0.031 C 
ATOM     69  C   UNL A   1      42.938  28.980  33.886  1.00  0.00     0.037 A 
BRANCH  56  70
ATOM     70  C   UNL A   1      39.659  33.548  36.481  1.00  0.00     0.064 A 
ATOM     71  C   UNL A   1      38.837  33.189  37.563  1.00  0.00     0.173 A 
ATOM     72  C   UNL A   1      40.265  34.813  36.518  1.00  0.00     0.173 A 
ATOM     73  F   UNL A   1      38.217  31.998  37.574  1.00  0.00    -0.203 F 
ATOM     74  C   UNL A   1      38.594  34.075  38.608  1.00  0.00     0.198 A 
ATOM     75  C   UNL A   1      40.052  35.681  37.585  1.00  0.00     0.198 A 
ATOM     76  F   UNL A   1      41.061  35.211  35.513  1.00  0.00    -0.203 F 
ATOM     77  F   UNL A   1      37.743  33.736  39.588  1.00  0.00    -0.200 F 
ATOM     78  C   UNL A   1      39.206  35.317  38.623  1.00  0.00     0.200 A 
ATOM     79  F   UNL A   1      40.656  36.878  37.605  1.00  0.00    -0.200 F 
ATOM     80  F   UNL A   1      38.973  36.170  39.630  1.00  0.00    -0.200 F 
ENDBRANCH  56  70
BRANCH  57  81
ATOM     81  C   UNL A   1      40.872  27.862  28.289  1.00  0.00     0.064 A 
ATOM     82  C   UNL A   1      40.283  26.596  28.171  1.00  0.00     0.173 A 
ATOM     83  C   UNL A   1      41.633  28.328  27.207  1.00  0.00     0.173 A 
ATOM     84  F   UNL A   1      39.556  26.100  29.184  1.00  0.00    -0.203 F 
ATOM     85  C   UNL A   1      40.465  25.817  27.030  1.00  0.00     0.198 A 
ATOM     86  C   UNL A   1      41.790  27.563  26.053  1.00  0.00     0.198 A 
ATOM     87  F   UNL A   1      42.207  29.540  27.261  1.00  0.00    -0.203 F 
ATOM     88  F   UNL A   1      39.926  24.593  26.964  1.00  0.00    -0.200 F 
ATOM     89  C   UNL A   1      41.214  26.305  25.969  1.00  0.00     0.200 A 
ATOM     90  F   UNL A   1      42.497  28.045  25.021  1.00  0.00    -0.200 F 
ATOM     91  F   UNL A   1      41.382  25.560  24.867  1.00  0.00    -0.200 F 
ENDBRANCH  57  81
BRANCH  69  92
ATOM     92  C   UNL A   1      44.071  28.197  34.482  1.00  0.00     0.064 A 
ATOM     93  C   UNL A   1      43.854  26.996  35.173  1.00  0.00     0.173 A 
ATOM     94  C   UNL A   1      45.394  28.632  34.313  1.00  0.00     0.173 A 
ATOM     95  F   UNL A   1      42.605  26.547  35.370  1.00  0.00    -0.203 F 
ATOM     96  C   UNL A   1      44.921  26.273  35.696  1.00  0.00     0.198 A 
ATOM     97  C   UNL A   1      46.460  27.887  34.807  1.00  0.00     0.198 A 
ATOM     98  F   UNL A   1      45.654  29.769  33.651  1.00  0.00    -0.203 F 
ATOM     99  F   UNL A   1      44.688  25.154  36.397  1.00  0.00    -0.200 F 
ATOM    100  C   UNL A   1      46.222  26.713  35.505  1.00  0.00     0.200 A 
ATOM    101  F   UNL A   1      47.717  28.304  34.604  1.00  0.00    -0.200 F 
ATOM    102  F   UNL A   1      47.248  26.009  36.000  1.00  0.00    -0.200 F 
ENDBRANCH  69  92
ENDBRANCH  43  44
ENDBRANCH  35  38
ENDBRANCH  33  34
ENDBRANCH  32  33
ENDBRANCH  31  32
ENDBRANCH   1  31
TORSDOF 16
ENDMDL
