MODEL 1
REMARK VINA RESULT:     -12.9      0.000      0.000
REMARK SMILES CCN(C(=O)Cc1c(C(=O)NCCCCNC(=O)c2ccc(-c3c4nc(c(-c5c(F)c(F)c(F)c(F)c5F)c5ccc([nH]5)c(-c5c(F)c(F)c(F)c(F)c5F)c5nc(c(-c6c(F)c(F)c(F)c(F)c6F)c6ccc3[nH]6)C=C5)C=C4)cc2)[nH]c2ccc(Cl)cc12)c1ccc(C)c(C)c1
REMARK SMILES IDX 12 1 11 2 9 3 10 4 8 6 7 7 89 8 82 9 83 10 88 11 84 13 86 14
REMARK SMILES IDX 85 15 87 16 6 17 4 18 5 19 3 20 2 21 1 22 90 23 91 24 97 25
REMARK SMILES IDX 92 26 95 27 93 28 96 29 94 30 13 31 14 32 15 33 16 34 17 35
REMARK SMILES IDX 18 37 19 38 20 39 81 40 21 41 80 42 22 43 23 44 24 45 74 46
REMARK SMILES IDX 25 47 79 48 73 49 75 50 26 51 78 52 72 53 71 54 27 56 59 57
REMARK SMILES IDX 39 58 58 59 40 60 43 61 57 62 76 63 41 64 42 65 56 67 77 68
REMARK SMILES IDX 44 69 28 70 29 71 37 72 30 73 31 74 35 75 38 76 32 77 33 78
REMARK SMILES IDX 36 79 34 80 60 81 61 82 69 83 62 84 63 85 67 86 70 87 64 88
REMARK SMILES IDX 65 89 68 90 66 91 45 92 46 93 54 94 47 95 48 96 52 97 55 98
REMARK SMILES IDX 49 99 50 100 53 101 51 102
REMARK H PARENT 11 5 82 12 16 36 75 55 43 66
REMARK Flexibility Score: inf
ROOT
ATOM      1  C   UNL A   1      31.645  27.298  26.278  1.00  0.00     0.116 C 
ENDROOT
BRANCH   1   2
ATOM      2  N   UNL A   1      30.350  26.710  26.485  1.00  0.00    -0.351 N 
ATOM      3  C   UNL A   1      30.005  25.373  26.485  1.00  0.00     0.268 C 
ATOM      4  O   UNL A   1      28.820  25.116  26.704  1.00  0.00    -0.268 OA
ATOM      5  H   UNL A   1      29.614  27.342  26.650  1.00  0.00     0.163 HD
BRANCH   3   6
ATOM      6  C   UNL A   1      30.947  24.300  26.167  1.00  0.00     0.109 A 
ATOM      7  C   UNL A   1      31.410  23.644  25.017  1.00  0.00    -0.000 A 
ATOM      8  C   UNL A   1      32.241  22.550  25.449  1.00  0.00     0.005 A 
ATOM      9  N   UNL A   1      31.681  23.761  27.214  1.00  0.00    -0.350 N 
ATOM     10  C   UNL A   1      32.445  22.694  26.816  1.00  0.00     0.046 A 
ATOM     11  C   UNL A   1      32.886  21.480  24.787  1.00  0.00     0.031 A 
ATOM     12  H   UNL A   1      31.656  24.103  28.137  1.00  0.00     0.167 HD
ATOM     13  C   UNL A   1      33.300  21.863  27.551  1.00  0.00     0.028 A 
ATOM     14  C   UNL A   1      33.733  20.636  25.506  1.00  0.00     0.041 A 
ATOM     15  C   UNL A   1      33.949  20.830  26.866  1.00  0.00     0.022 A 
ATOM     16  Cl  UNL A   1      34.531  19.346  24.690  1.00  0.00    -0.084 Cl
BRANCH   7  17
ATOM     17  C   UNL A   1      31.126  23.963  23.581  1.00  0.00     0.139 C 
BRANCH  17  18
ATOM     18  C   UNL A   1      31.456  25.360  23.125  1.00  0.00     0.231 C 
ATOM     19  O   UNL A   1      30.538  26.188  23.100  1.00  0.00    -0.274 OA
BRANCH  18  20
ATOM     20  N   UNL A   1      32.782  25.652  22.801  1.00  0.00    -0.312 N 
BRANCH  20  21
ATOM     21  C   UNL A   1      33.221  26.479  21.660  1.00  0.00     0.122 C 
ATOM     22  C   UNL A   1      33.737  27.865  22.016  1.00  0.00     0.028 C 
ENDBRANCH  20  21
BRANCH  20  23
ATOM     23  C   UNL A   1      33.795  25.048  23.597  1.00  0.00     0.044 A 
ATOM     24  C   UNL A   1      34.045  25.522  24.886  1.00  0.00     0.026 A 
ATOM     25  C   UNL A   1      34.603  24.043  23.070  1.00  0.00     0.030 A 
ATOM     26  C   UNL A   1      35.094  24.996  25.636  1.00  0.00     0.006 A 
ATOM     27  C   UNL A   1      35.680  23.520  23.803  1.00  0.00    -0.046 A 
ATOM     28  C   UNL A   1      35.926  23.999  25.104  1.00  0.00    -0.048 A 
ATOM     29  C   UNL A   1      36.566  22.506  23.137  1.00  0.00     0.044 C 
ATOM     30  C   UNL A   1      37.085  23.542  25.943  1.00  0.00     0.044 C 
ENDBRANCH  20  23
ENDBRANCH  18  20
ENDBRANCH  17  18
ENDBRANCH   7  17
ENDBRANCH   3   6
ENDBRANCH   1   2
BRANCH   1  31
ATOM     31  C   UNL A   1      31.813  28.345  25.195  1.00  0.00     0.023 C 
BRANCH  31  32
ATOM     32  C   UNL A   1      31.638  29.799  25.609  1.00  0.00     0.023 C 
BRANCH  32  33
ATOM     33  C   UNL A   1      32.350  30.252  26.880  1.00  0.00     0.116 C 
BRANCH  33  34
ATOM     34  N   UNL A   1      32.413  31.697  27.063  1.00  0.00    -0.352 N 
ATOM     35  C   UNL A   1      33.423  32.493  27.558  1.00  0.00     0.251 C 
ATOM     36  H   UNL A   1      31.601  32.183  26.788  1.00  0.00     0.163 HD
ATOM     37  O   UNL A   1      33.246  33.701  27.685  1.00  0.00    -0.269 OA
BRANCH  35  38
ATOM     38  C   UNL A   1      34.705  31.895  27.994  1.00  0.00     0.039 A 
ATOM     39  C   UNL A   1      35.812  32.730  28.168  1.00  0.00     0.014 A 
ATOM     40  C   UNL A   1      34.815  30.531  28.268  1.00  0.00     0.014 A 
ATOM     41  C   UNL A   1      36.986  32.216  28.724  1.00  0.00     0.010 A 
ATOM     42  C   UNL A   1      35.943  30.045  28.924  1.00  0.00     0.010 A 
ATOM     43  C   UNL A   1      37.040  30.883  29.167  1.00  0.00    -0.014 A 
BRANCH  43  44
ATOM     44  C   UNL A   1      38.223  30.376  29.913  1.00  0.00     0.031 A 
ATOM     45  C   UNL A   1      38.479  30.798  31.334  1.00  0.00     0.074 A 
ATOM     46  C   UNL A   1      39.101  29.566  29.286  1.00  0.00     0.049 A 
ATOM     47  N   UNL A   1      39.451  30.446  32.139  1.00  0.00    -0.248 NA
ATOM     48  C   UNL A   1      37.539  31.765  31.919  1.00  0.00     0.031 C 
ATOM     49  C   UNL A   1      39.012  29.146  27.886  1.00  0.00     0.029 A 
ATOM     50  N   UNL A   1      40.239  28.948  29.744  1.00  0.00    -0.354 N 
ATOM     51  C   UNL A   1      39.240  31.150  33.317  1.00  0.00     0.074 A 
ATOM     52  C   UNL A   1      38.091  32.002  33.100  1.00  0.00     0.031 C 
ATOM     53  C   UNL A   1      40.022  28.304  27.613  1.00  0.00     0.029 A 
ATOM     54  C   UNL A   1      40.852  28.154  28.804  1.00  0.00     0.049 A 
ATOM     55  H   UNL A   1      40.583  29.062  30.658  1.00  0.00     0.167 HD
ATOM     56  C   UNL A   1      39.920  31.069  34.486  1.00  0.00     0.037 A 
ATOM     57  C   UNL A   1      41.957  27.389  28.891  1.00  0.00     0.037 A 
ATOM     58  C   UNL A   1      41.055  30.208  34.704  1.00  0.00     0.049 A 
ATOM     59  C   UNL A   1      42.693  27.316  30.201  1.00  0.00     0.074 A 
ATOM     60  C   UNL A   1      41.772  30.005  35.870  1.00  0.00     0.029 A 
ATOM     61  N   UNL A   1      41.644  29.415  33.730  1.00  0.00    -0.354 N 
ATOM     62  N   UNL A   1      42.426  27.912  31.337  1.00  0.00    -0.248 NA
ATOM     63  C   UNL A   1      43.880  26.452  30.241  1.00  0.00     0.031 C 
ATOM     64  C   UNL A   1      42.832  29.136  35.586  1.00  0.00     0.029 A 
ATOM     65  C   UNL A   1      42.737  28.746  34.260  1.00  0.00     0.049 A 
ATOM     66  H   UNL A   1      41.332  29.339  32.800  1.00  0.00     0.167 HD
ATOM     67  C   UNL A   1      43.396  27.481  32.232  1.00  0.00     0.074 A 
ATOM     68  C   UNL A   1      44.239  26.548  31.513  1.00  0.00     0.031 C 
ATOM     69  C   UNL A   1      43.576  27.829  33.531  1.00  0.00     0.037 A 
BRANCH  56  70
ATOM     70  C   UNL A   1      39.453  31.935  35.623  1.00  0.00     0.064 A 
ATOM     71  C   UNL A   1      38.496  31.487  36.547  1.00  0.00     0.173 A 
ATOM     72  C   UNL A   1      39.992  33.216  35.812  1.00  0.00     0.173 A 
ATOM     73  F   UNL A   1      37.938  30.274  36.408  1.00  0.00    -0.203 F 
ATOM     74  C   UNL A   1      38.071  32.302  37.594  1.00  0.00     0.198 A 
ATOM     75  C   UNL A   1      39.592  34.014  36.881  1.00  0.00     0.198 A 
ATOM     76  F   UNL A   1      40.915  33.695  34.964  1.00  0.00    -0.203 F 
ATOM     77  F   UNL A   1      37.113  31.872  38.428  1.00  0.00    -0.200 F 
ATOM     78  C   UNL A   1      38.624  33.560  37.764  1.00  0.00     0.200 A 
ATOM     79  F   UNL A   1      40.139  35.225  37.053  1.00  0.00    -0.200 F 
ATOM     80  F   UNL A   1      38.220  34.340  38.776  1.00  0.00    -0.200 F 
ENDBRANCH  56  70
BRANCH  57  81
ATOM     81  C   UNL A   1      42.415  26.606  27.712  1.00  0.00     0.064 A 
ATOM     82  C   UNL A   1      41.896  25.331  27.445  1.00  0.00     0.173 A 
ATOM     83  C   UNL A   1      43.385  27.110  26.833  1.00  0.00     0.173 A 
ATOM     84  F   UNL A   1      40.981  24.795  28.267  1.00  0.00    -0.203 F 
ATOM     85  C   UNL A   1      42.346  24.582  26.359  1.00  0.00     0.198 A 
ATOM     86  C   UNL A   1      43.809  26.374  25.729  1.00  0.00     0.198 A 
ATOM     87  F   UNL A   1      43.910  28.327  27.038  1.00  0.00    -0.203 F 
ATOM     88  F   UNL A   1      41.870  23.346  26.158  1.00  0.00    -0.200 F 
ATOM     89  C   UNL A   1      43.297  25.107  25.498  1.00  0.00     0.200 A 
ATOM     90  F   UNL A   1      44.716  26.892  24.889  1.00  0.00    -0.200 F 
ATOM     91  F   UNL A   1      43.725  24.389  24.451  1.00  0.00    -0.200 F 
ENDBRANCH  57  81
BRANCH  69  92
ATOM     92  C   UNL A   1      44.719  27.180  34.260  1.00  0.00     0.064 A 
ATOM     93  C   UNL A   1      44.572  25.947  34.915  1.00  0.00     0.173 A 
ATOM     94  C   UNL A   1      45.981  27.795  34.298  1.00  0.00     0.173 A 
ATOM     95  F   UNL A   1      43.385  25.323  34.921  1.00  0.00    -0.203 F 
ATOM     96  C   UNL A   1      45.632  25.377  35.615  1.00  0.00     0.198 A 
ATOM     97  C   UNL A   1      47.048  27.203  34.967  1.00  0.00     0.198 A 
ATOM     98  F   UNL A   1      46.180  28.969  33.681  1.00  0.00    -0.203 F 
ATOM     99  F   UNL A   1      45.448  24.234  36.290  1.00  0.00    -0.200 F 
ATOM    100  C   UNL A   1      46.870  26.002  35.636  1.00  0.00     0.200 A 
ATOM    101  F   UNL A   1      48.248  27.799  34.970  1.00  0.00    -0.200 F 
ATOM    102  F   UNL A   1      47.888  25.452  36.310  1.00  0.00    -0.200 F 
ENDBRANCH  69  92
ENDBRANCH  43  44
ENDBRANCH  35  38
ENDBRANCH  33  34
ENDBRANCH  32  33
ENDBRANCH  31  32
ENDBRANCH   1  31
TORSDOF 16
ENDMDL
MODEL 2
REMARK VINA RESULT:     -12.7      4.263      9.579
REMARK SMILES CCN(C(=O)Cc1c(C(=O)NCCCCNC(=O)c2ccc(-c3c4nc(c(-c5c(F)c(F)c(F)c(F)c5F)c5ccc([nH]5)c(-c5c(F)c(F)c(F)c(F)c5F)c5nc(c(-c6c(F)c(F)c(F)c(F)c6F)c6ccc3[nH]6)C=C5)C=C4)cc2)[nH]c2ccc(Cl)cc12)c1ccc(C)c(C)c1
REMARK SMILES IDX 12 1 11 2 9 3 10 4 8 6 7 7 89 8 82 9 83 10 88 11 84 13 86 14
REMARK SMILES IDX 85 15 87 16 6 17 4 18 5 19 3 20 2 21 1 22 90 23 91 24 97 25
REMARK SMILES IDX 92 26 95 27 93 28 96 29 94 30 13 31 14 32 15 33 16 34 17 35
REMARK SMILES IDX 18 37 19 38 20 39 81 40 21 41 80 42 22 43 23 44 24 45 74 46
REMARK SMILES IDX 25 47 79 48 73 49 75 50 26 51 78 52 72 53 71 54 27 56 59 57
REMARK SMILES IDX 39 58 58 59 40 60 43 61 57 62 76 63 41 64 42 65 56 67 77 68
REMARK SMILES IDX 44 69 28 70 29 71 37 72 30 73 31 74 35 75 38 76 32 77 33 78
REMARK SMILES IDX 36 79 34 80 60 81 61 82 69 83 62 84 63 85 67 86 70 87 64 88
REMARK SMILES IDX 65 89 68 90 66 91 45 92 46 93 54 94 47 95 48 96 52 97 55 98
REMARK SMILES IDX 49 99 50 100 53 101 51 102
REMARK H PARENT 11 5 82 12 16 36 75 55 43 66
REMARK Flexibility Score: inf
ROOT
ATOM      1  C   UNL A   1      34.742  22.963  23.846  1.00  0.00     0.116 C 
ENDROOT
BRANCH   1   2
ATOM      2  N   UNL A   1      34.298  22.757  22.494  1.00  0.00    -0.351 N 
ATOM      3  C   UNL A   1      33.510  23.580  21.714  1.00  0.00     0.268 C 
ATOM      4  O   UNL A   1      33.277  23.189  20.570  1.00  0.00    -0.268 OA
ATOM      5  H   UNL A   1      34.595  21.920  22.068  1.00  0.00     0.163 HD
BRANCH   3   6
ATOM      6  C   UNL A   1      32.902  24.815  22.211  1.00  0.00     0.109 A 
ATOM      7  C   UNL A   1      31.740  25.185  22.902  1.00  0.00    -0.000 A 
ATOM      8  C   UNL A   1      31.692  26.624  22.929  1.00  0.00     0.005 A 
ATOM      9  N   UNL A   1      33.626  25.991  22.062  1.00  0.00    -0.350 N 
ATOM     10  C   UNL A   1      32.914  27.091  22.460  1.00  0.00     0.046 A 
ATOM     11  C   UNL A   1      30.737  27.571  23.366  1.00  0.00     0.031 A 
ATOM     12  H   UNL A   1      34.545  26.030  21.709  1.00  0.00     0.167 HD
ATOM     13  C   UNL A   1      33.258  28.449  22.453  1.00  0.00     0.028 A 
ATOM     14  C   UNL A   1      31.061  28.929  23.355  1.00  0.00     0.041 A 
ATOM     15  C   UNL A   1      32.307  29.363  22.918  1.00  0.00     0.022 A 
ATOM     16  Cl  UNL A   1      29.900  30.077  23.905  1.00  0.00    -0.084 Cl
BRANCH   7  17
ATOM     17  C   UNL A   1      30.697  24.302  23.515  1.00  0.00     0.139 C 
BRANCH  17  18
ATOM     18  C   UNL A   1      31.174  23.311  24.544  1.00  0.00     0.231 C 
ATOM     19  O   UNL A   1      31.391  22.153  24.171  1.00  0.00    -0.274 OA
BRANCH  18  20
ATOM     20  N   UNL A   1      31.389  23.766  25.847  1.00  0.00    -0.312 N 
BRANCH  20  21
ATOM     21  C   UNL A   1      30.929  23.090  27.075  1.00  0.00     0.122 C 
ATOM     22  C   UNL A   1      29.427  22.868  27.177  1.00  0.00     0.028 C 
ENDBRANCH  20  21
BRANCH  20  23
ATOM     23  C   UNL A   1      32.047  25.018  25.999  1.00  0.00     0.044 A 
ATOM     24  C   UNL A   1      33.409  25.132  25.711  1.00  0.00     0.026 A 
ATOM     25  C   UNL A   1      31.366  26.116  26.520  1.00  0.00     0.030 A 
ATOM     26  C   UNL A   1      34.078  26.329  25.945  1.00  0.00     0.006 A 
ATOM     27  C   UNL A   1      32.032  27.324  26.784  1.00  0.00    -0.046 A 
ATOM     28  C   UNL A   1      33.404  27.433  26.488  1.00  0.00    -0.048 A 
ATOM     29  C   UNL A   1      31.256  28.435  27.432  1.00  0.00     0.044 C 
ATOM     30  C   UNL A   1      34.214  28.662  26.787  1.00  0.00     0.044 C 
ENDBRANCH  20  23
ENDBRANCH  18  20
ENDBRANCH  17  18
ENDBRANCH   7  17
ENDBRANCH   3   6
ENDBRANCH   1   2
BRANCH   1  31
ATOM     31  C   UNL A   1      34.627  21.823  24.839  1.00  0.00     0.023 C 
BRANCH  31  32
ATOM     32  C   UNL A   1      35.853  21.524  25.689  1.00  0.00     0.023 C 
BRANCH  32  33
ATOM     33  C   UNL A   1      37.218  21.789  25.061  1.00  0.00     0.116 C 
BRANCH  33  34
ATOM     34  N   UNL A   1      38.249  20.818  25.405  1.00  0.00    -0.352 N 
ATOM     35  C   UNL A   1      39.425  20.972  26.107  1.00  0.00     0.251 C 
ATOM     36  H   UNL A   1      38.076  19.902  25.086  1.00  0.00     0.163 HD
ATOM     37  O   UNL A   1      40.191  20.023  26.236  1.00  0.00    -0.269 OA
BRANCH  35  38
ATOM     38  C   UNL A   1      39.803  22.293  26.658  1.00  0.00     0.039 A 
ATOM     39  C   UNL A   1      40.804  22.354  27.631  1.00  0.00     0.014 A 
ATOM     40  C   UNL A   1      39.208  23.469  26.199  1.00  0.00     0.014 A 
ATOM     41  C   UNL A   1      41.283  23.596  28.054  1.00  0.00     0.010 A 
ATOM     42  C   UNL A   1      39.761  24.702  26.536  1.00  0.00     0.010 A 
ATOM     43  C   UNL A   1      40.810  24.780  27.461  1.00  0.00    -0.014 A 
BRANCH  43  44
ATOM     44  C   UNL A   1      41.434  26.093  27.782  1.00  0.00     0.031 A 
ATOM     45  C   UNL A   1      42.831  26.415  27.328  1.00  0.00     0.074 A 
ATOM     46  C   UNL A   1      40.750  26.984  28.529  1.00  0.00     0.049 A 
ATOM     47  N   UNL A   1      43.527  27.511  27.507  1.00  0.00    -0.248 NA
ATOM     48  C   UNL A   1      43.557  25.357  26.608  1.00  0.00     0.031 C 
ATOM     49  C   UNL A   1      39.419  26.764  29.099  1.00  0.00     0.029 A 
ATOM     50  N   UNL A   1      41.078  28.253  28.939  1.00  0.00    -0.354 N 
ATOM     51  C   UNL A   1      44.766  27.272  26.926  1.00  0.00     0.074 A 
ATOM     52  C   UNL A   1      44.753  25.905  26.453  1.00  0.00     0.031 C 
ATOM     53  C   UNL A   1      39.024  27.875  29.741  1.00  0.00     0.029 A 
ATOM     54  C   UNL A   1      40.087  28.872  29.664  1.00  0.00     0.049 A 
ATOM     55  H   UNL A   1      41.940  28.680  28.732  1.00  0.00     0.167 HD
ATOM     56  C   UNL A   1      45.807  28.124  26.769  1.00  0.00     0.037 A 
ATOM     57  C   UNL A   1      40.039  30.105  30.204  1.00  0.00     0.037 A 
ATOM     58  C   UNL A   1      45.811  29.490  27.227  1.00  0.00     0.049 A 
ATOM     59  C   UNL A   1      41.208  31.032  30.015  1.00  0.00     0.074 A 
ATOM     60  C   UNL A   1      46.790  30.454  27.061  1.00  0.00     0.029 A 
ATOM     61  N   UNL A   1      44.788  30.083  27.954  1.00  0.00    -0.354 N 
ATOM     62  N   UNL A   1      42.335  30.826  29.379  1.00  0.00    -0.248 NA
ATOM     63  C   UNL A   1      41.091  32.370  30.610  1.00  0.00     0.031 C 
ATOM     64  C   UNL A   1      46.386  31.610  27.737  1.00  0.00     0.029 A 
ATOM     65  C   UNL A   1      45.127  31.390  28.271  1.00  0.00     0.049 A 
ATOM     66  H   UNL A   1      43.946  29.641  28.207  1.00  0.00     0.167 HD
ATOM     67  C   UNL A   1      43.052  32.011  29.478  1.00  0.00     0.074 A 
ATOM     68  C   UNL A   1      42.217  32.942  30.210  1.00  0.00     0.031 C 
ATOM     69  C   UNL A   1      44.292  32.302  29.010  1.00  0.00     0.037 A 
BRANCH  56  70
ATOM     70  C   UNL A   1      47.032  27.603  26.070  1.00  0.00     0.064 A 
ATOM     71  C   UNL A   1      47.153  27.635  24.672  1.00  0.00     0.173 A 
ATOM     72  C   UNL A   1      48.113  27.096  26.807  1.00  0.00     0.173 A 
ATOM     73  F   UNL A   1      46.145  28.099  23.916  1.00  0.00    -0.203 F 
ATOM     74  C   UNL A   1      48.293  27.146  24.038  1.00  0.00     0.198 A 
ATOM     75  C   UNL A   1      49.266  26.642  26.172  1.00  0.00     0.198 A 
ATOM     76  F   UNL A   1      48.055  27.047  28.147  1.00  0.00    -0.203 F 
ATOM     77  F   UNL A   1      48.359  27.134  22.699  1.00  0.00    -0.200 F 
ATOM     78  C   UNL A   1      49.351  26.658  24.788  1.00  0.00     0.200 A 
ATOM     79  F   UNL A   1      50.294  26.184  26.899  1.00  0.00    -0.200 F 
ATOM     80  F   UNL A   1      50.450  26.195  24.177  1.00  0.00    -0.200 F 
ENDBRANCH  56  70
BRANCH  57  81
ATOM     81  C   UNL A   1      38.828  30.545  30.947  1.00  0.00     0.064 A 
ATOM     82  C   UNL A   1      37.713  31.063  30.272  1.00  0.00     0.173 A 
ATOM     83  C   UNL A   1      38.760  30.464  32.346  1.00  0.00     0.173 A 
ATOM     84  F   UNL A   1      37.735  31.180  28.935  1.00  0.00    -0.203 F 
ATOM     85  C   UNL A   1      36.589  31.505  30.967  1.00  0.00     0.198 A 
ATOM     86  C   UNL A   1      37.623  30.875  33.038  1.00  0.00     0.198 A 
ATOM     87  F   UNL A   1      39.796  29.970  33.041  1.00  0.00    -0.203 F 
ATOM     88  F   UNL A   1      35.560  32.043  30.299  1.00  0.00    -0.200 F 
ATOM     89  C   UNL A   1      36.542  31.404  32.349  1.00  0.00     0.200 A 
ATOM     90  F   UNL A   1      37.574  30.759  34.372  1.00  0.00    -0.200 F 
ATOM     91  F   UNL A   1      35.459  31.824  33.017  1.00  0.00    -0.200 F 
ENDBRANCH  57  81
BRANCH  69  92
ATOM     92  C   UNL A   1      44.809  33.691  29.263  1.00  0.00     0.064 A 
ATOM     93  C   UNL A   1      45.573  33.999  30.400  1.00  0.00     0.173 A 
ATOM     94  C   UNL A   1      44.544  34.726  28.353  1.00  0.00     0.173 A 
ATOM     95  F   UNL A   1      45.843  33.050  31.308  1.00  0.00    -0.203 F 
ATOM     96  C   UNL A   1      46.014  35.298  30.637  1.00  0.00     0.198 A 
ATOM     97  C   UNL A   1      45.019  36.016  28.574  1.00  0.00     0.198 A 
ATOM     98  F   UNL A   1      43.827  34.486  27.245  1.00  0.00    -0.203 F 
ATOM     99  F   UNL A   1      46.682  35.581  31.764  1.00  0.00    -0.200 F 
ATOM    100  C   UNL A   1      45.742  36.303  29.721  1.00  0.00     0.200 A 
ATOM    101  F   UNL A   1      44.771  36.982  27.679  1.00  0.00    -0.200 F 
ATOM    102  F   UNL A   1      46.167  37.553  29.951  1.00  0.00    -0.200 F 
ENDBRANCH  69  92
ENDBRANCH  43  44
ENDBRANCH  35  38
ENDBRANCH  33  34
ENDBRANCH  32  33
ENDBRANCH  31  32
ENDBRANCH   1  31
TORSDOF 16
ENDMDL
MODEL 3
REMARK VINA RESULT:     -12.7      2.059      7.798
REMARK SMILES CCN(C(=O)Cc1c(C(=O)NCCCCNC(=O)c2ccc(-c3c4nc(c(-c5c(F)c(F)c(F)c(F)c5F)c5ccc([nH]5)c(-c5c(F)c(F)c(F)c(F)c5F)c5nc(c(-c6c(F)c(F)c(F)c(F)c6F)c6ccc3[nH]6)C=C5)C=C4)cc2)[nH]c2ccc(Cl)cc12)c1ccc(C)c(C)c1
REMARK SMILES IDX 12 1 11 2 9 3 10 4 8 6 7 7 89 8 82 9 83 10 88 11 84 13 86 14
REMARK SMILES IDX 85 15 87 16 6 17 4 18 5 19 3 20 2 21 1 22 90 23 91 24 97 25
REMARK SMILES IDX 92 26 95 27 93 28 96 29 94 30 13 31 14 32 15 33 16 34 17 35
REMARK SMILES IDX 18 37 19 38 20 39 81 40 21 41 80 42 22 43 23 44 24 45 74 46
REMARK SMILES IDX 25 47 79 48 73 49 75 50 26 51 78 52 72 53 71 54 27 56 59 57
REMARK SMILES IDX 39 58 58 59 40 60 43 61 57 62 76 63 41 64 42 65 56 67 77 68
REMARK SMILES IDX 44 69 28 70 29 71 37 72 30 73 31 74 35 75 38 76 32 77 33 78
REMARK SMILES IDX 36 79 34 80 60 81 61 82 69 83 62 84 63 85 67 86 70 87 64 88
REMARK SMILES IDX 65 89 68 90 66 91 45 92 46 93 54 94 47 95 48 96 52 97 55 98
REMARK SMILES IDX 49 99 50 100 53 101 51 102
REMARK H PARENT 11 5 82 12 16 36 75 55 43 66
REMARK Flexibility Score: inf
ROOT
ATOM      1  C   UNL A   1      32.378  28.935  26.796  1.00  0.00     0.116 C 
ENDROOT
BRANCH   1   2
ATOM      2  N   UNL A   1      31.256  28.038  26.865  1.00  0.00    -0.351 N 
ATOM      3  C   UNL A   1      31.216  26.689  26.573  1.00  0.00     0.268 C 
ATOM      4  O   UNL A   1      30.129  26.130  26.726  1.00  0.00    -0.268 OA
ATOM      5  H   UNL A   1      30.406  28.438  27.160  1.00  0.00     0.163 HD
BRANCH   3   6
ATOM      6  C   UNL A   1      32.357  25.950  26.032  1.00  0.00     0.109 A 
ATOM      7  C   UNL A   1      33.356  26.159  25.071  1.00  0.00    -0.000 A 
ATOM      8  C   UNL A   1      34.085  24.924  24.931  1.00  0.00     0.005 A 
ATOM      9  N   UNL A   1      32.655  24.722  26.607  1.00  0.00    -0.350 N 
ATOM     10  C   UNL A   1      33.669  24.076  25.949  1.00  0.00     0.046 A 
ATOM     11  C   UNL A   1      35.106  24.475  24.062  1.00  0.00     0.031 A 
ATOM     12  H   UNL A   1      32.191  24.356  27.394  1.00  0.00     0.167 HD
ATOM     13  C   UNL A   1      34.251  22.823  26.183  1.00  0.00     0.028 A 
ATOM     14  C   UNL A   1      35.689  23.225  24.274  1.00  0.00     0.041 A 
ATOM     15  C   UNL A   1      35.279  22.415  25.327  1.00  0.00     0.022 A 
ATOM     16  Cl  UNL A   1      36.945  22.690  23.223  1.00  0.00    -0.084 Cl
BRANCH   7  17
ATOM     17  C   UNL A   1      33.659  27.402  24.292  1.00  0.00     0.139 C 
BRANCH  17  18
ATOM     18  C   UNL A   1      33.317  27.378  22.826  1.00  0.00     0.231 C 
ATOM     19  O   UNL A   1      34.094  27.937  22.044  1.00  0.00    -0.274 OA
BRANCH  18  20
ATOM     20  N   UNL A   1      32.169  26.688  22.429  1.00  0.00    -0.312 N 
BRANCH  20  21
ATOM     21  C   UNL A   1      32.153  25.416  21.681  1.00  0.00     0.122 C 
ATOM     22  C   UNL A   1      32.518  25.518  20.207  1.00  0.00     0.028 C 
ENDBRANCH  20  21
BRANCH  20  23
ATOM     23  C   UNL A   1      30.914  27.296  22.710  1.00  0.00     0.044 A 
ATOM     24  C   UNL A   1      29.884  26.543  23.277  1.00  0.00     0.026 A 
ATOM     25  C   UNL A   1      30.671  28.618  22.343  1.00  0.00     0.030 A 
ATOM     26  C   UNL A   1      28.626  27.107  23.470  1.00  0.00     0.006 A 
ATOM     27  C   UNL A   1      29.402  29.194  22.509  1.00  0.00    -0.046 A 
ATOM     28  C   UNL A   1      28.368  28.431  23.084  1.00  0.00    -0.048 A 
ATOM     29  C   UNL A   1      29.186  30.593  22.006  1.00  0.00     0.044 C 
ATOM     30  C   UNL A   1      26.965  28.940  23.250  1.00  0.00     0.044 C 
ENDBRANCH  20  23
ENDBRANCH  18  20
ENDBRANCH  17  18
ENDBRANCH   7  17
ENDBRANCH   3   6
ENDBRANCH   1   2
BRANCH   1  31
ATOM     31  C   UNL A   1      32.243  30.222  26.008  1.00  0.00     0.023 C 
BRANCH  31  32
ATOM     32  C   UNL A   1      31.859  31.471  26.787  1.00  0.00     0.023 C 
BRANCH  32  33
ATOM     33  C   UNL A   1      32.986  32.422  27.179  1.00  0.00     0.116 C 
BRANCH  33  34
ATOM     34  N   UNL A   1      32.553  33.764  27.548  1.00  0.00    -0.352 N 
ATOM     35  C   UNL A   1      33.041  34.632  28.501  1.00  0.00     0.251 C 
ATOM     36  H   UNL A   1      31.787  34.107  27.032  1.00  0.00     0.163 HD
ATOM     37  O   UNL A   1      32.485  35.708  28.693  1.00  0.00    -0.269 OA
BRANCH  35  38
ATOM     38  C   UNL A   1      34.201  34.251  29.339  1.00  0.00     0.039 A 
ATOM     39  C   UNL A   1      33.965  33.645  30.577  1.00  0.00     0.014 A 
ATOM     40  C   UNL A   1      35.511  34.449  28.901  1.00  0.00     0.014 A 
ATOM     41  C   UNL A   1      35.038  33.140  31.315  1.00  0.00     0.010 A 
ATOM     42  C   UNL A   1      36.566  33.847  29.581  1.00  0.00     0.010 A 
ATOM     43  C   UNL A   1      36.343  33.178  30.792  1.00  0.00    -0.014 A 
BRANCH  43  44
ATOM     44  C   UNL A   1      37.463  32.492  31.490  1.00  0.00     0.031 A 
ATOM     45  C   UNL A   1      38.179  31.335  30.850  1.00  0.00     0.074 A 
ATOM     46  C   UNL A   1      37.805  32.886  32.734  1.00  0.00     0.049 A 
ATOM     47  N   UNL A   1      39.183  30.628  31.307  1.00  0.00    -0.248 NA
ATOM     48  C   UNL A   1      37.684  30.891  29.538  1.00  0.00     0.031 C 
ATOM     49  C   UNL A   1      37.139  33.941  33.500  1.00  0.00     0.029 A 
ATOM     50  N   UNL A   1      38.800  32.448  33.575  1.00  0.00    -0.354 N 
ATOM     51  C   UNL A   1      39.435  29.660  30.343  1.00  0.00     0.074 A 
ATOM     52  C   UNL A   1      38.435  29.824  29.311  1.00  0.00     0.031 C 
ATOM     53  C   UNL A   1      37.771  34.102  34.674  1.00  0.00     0.029 A 
ATOM     54  C   UNL A   1      38.861  33.136  34.763  1.00  0.00     0.049 A 
ATOM     55  H   UNL A   1      39.411  31.711  33.347  1.00  0.00     0.167 HD
ATOM     56  C   UNL A   1      40.428  28.740  30.305  1.00  0.00     0.037 A 
ATOM     57  C   UNL A   1      39.702  33.006  35.806  1.00  0.00     0.037 A 
ATOM     58  C   UNL A   1      41.432  28.590  31.327  1.00  0.00     0.049 A 
ATOM     59  C   UNL A   1      40.798  31.978  35.738  1.00  0.00     0.074 A 
ATOM     60  C   UNL A   1      42.518  27.734  31.351  1.00  0.00     0.029 A 
ATOM     61  N   UNL A   1      41.465  29.309  32.515  1.00  0.00    -0.354 N 
ATOM     62  N   UNL A   1      41.084  31.134  34.777  1.00  0.00    -0.248 NA
ATOM     63  C   UNL A   1      41.696  31.894  36.897  1.00  0.00     0.031 C 
ATOM     64  C   UNL A   1      43.173  27.890  32.578  1.00  0.00     0.029 A 
ATOM     65  C   UNL A   1      42.534  28.891  33.292  1.00  0.00     0.049 A 
ATOM     66  H   UNL A   1      40.823  30.010  32.767  1.00  0.00     0.167 HD
ATOM     67  C   UNL A   1      42.205  30.434  35.205  1.00  0.00     0.074 A 
ATOM     68  C   UNL A   1      42.564  30.976  36.500  1.00  0.00     0.031 C 
ATOM     69  C   UNL A   1      42.874  29.430  34.585  1.00  0.00     0.037 A 
BRANCH  56  70
ATOM     70  C   UNL A   1      40.481  27.823  29.114  1.00  0.00     0.064 A 
ATOM     71  C   UNL A   1      39.705  26.655  29.048  1.00  0.00     0.173 A 
ATOM     72  C   UNL A   1      41.292  28.131  28.012  1.00  0.00     0.173 A 
ATOM     73  F   UNL A   1      38.919  26.306  30.079  1.00  0.00    -0.203 F 
ATOM     74  C   UNL A   1      39.766  25.814  27.940  1.00  0.00     0.198 A 
ATOM     75  C   UNL A   1      41.324  27.306  26.890  1.00  0.00     0.198 A 
ATOM     76  F   UNL A   1      42.051  29.237  28.018  1.00  0.00    -0.203 F 
ATOM     77  F   UNL A   1      39.059  24.675  27.926  1.00  0.00    -0.200 F 
ATOM     78  C   UNL A   1      40.568  26.144  26.859  1.00  0.00     0.200 A 
ATOM     79  F   UNL A   1      42.089  27.635  25.840  1.00  0.00    -0.200 F 
ATOM     80  F   UNL A   1      40.621  25.337  25.791  1.00  0.00    -0.200 F 
ENDBRANCH  56  70
BRANCH  57  81
ATOM     81  C   UNL A   1      39.561  33.894  36.991  1.00  0.00     0.064 A 
ATOM     82  C   UNL A   1      40.181  35.152  37.031  1.00  0.00     0.173 A 
ATOM     83  C   UNL A   1      38.812  33.504  38.111  1.00  0.00     0.173 A 
ATOM     84  F   UNL A   1      40.925  35.564  35.993  1.00  0.00    -0.203 F 
ATOM     85  C   UNL A   1      40.076  35.973  38.152  1.00  0.00     0.198 A 
ATOM     86  C   UNL A   1      38.681  34.340  39.218  1.00  0.00     0.198 A 
ATOM     87  F   UNL A   1      38.193  32.314  38.125  1.00  0.00    -0.203 F 
ATOM     88  F   UNL A   1      40.721  37.147  38.181  1.00  0.00    -0.200 F 
ATOM     89  C   UNL A   1      39.321  35.570  39.241  1.00  0.00     0.200 A 
ATOM     90  F   UNL A   1      37.935  33.954  40.262  1.00  0.00    -0.200 F 
ATOM     91  F   UNL A   1      39.216  36.362  40.317  1.00  0.00    -0.200 F 
ENDBRANCH  57  81
BRANCH  69  92
ATOM     92  C   UNL A   1      44.074  28.868  35.294  1.00  0.00     0.064 A 
ATOM     93  C   UNL A   1      45.365  29.374  35.075  1.00  0.00     0.173 A 
ATOM     94  C   UNL A   1      43.931  27.815  36.212  1.00  0.00     0.173 A 
ATOM     95  F   UNL A   1      45.560  30.371  34.199  1.00  0.00    -0.203 F 
ATOM     96  C   UNL A   1      46.471  28.820  35.714  1.00  0.00     0.198 A 
ATOM     97  C   UNL A   1      45.034  27.289  36.878  1.00  0.00     0.198 A 
ATOM     98  F   UNL A   1      42.720  27.299  36.467  1.00  0.00    -0.203 F 
ATOM     99  F   UNL A   1      47.701  29.274  35.436  1.00  0.00    -0.200 F 
ATOM    100  C   UNL A   1      46.304  27.781  36.619  1.00  0.00     0.200 A 
ATOM    101  F   UNL A   1      44.869  26.298  37.765  1.00  0.00    -0.200 F 
ATOM    102  F   UNL A   1      47.369  27.248  37.233  1.00  0.00    -0.200 F 
ENDBRANCH  69  92
ENDBRANCH  43  44
ENDBRANCH  35  38
ENDBRANCH  33  34
ENDBRANCH  32  33
ENDBRANCH  31  32
ENDBRANCH   1  31
TORSDOF 16
ENDMDL
