MODEL 1
REMARK VINA RESULT:     -12.6      0.000      0.000
REMARK SMILES C[C@@H]1CCc2sc(NC(=O)/C=C/C(=O)NCCCCNC(=O)c3ccc(-c4c5nc(c(-c6c(F)c(F)c(F)c(F)c6F)c6ccc([nH]6)c(-c6c(F)c(F)c(F)c(F)c6F)c6nc(c(-c7c(F)c(F)c(F)c(F)c7F)c7ccc4[nH]7)C=C6)C=C5)cc3)c(C#N)c2C1
REMARK SMILES IDX 17 1 16 2 15 3 13 4 14 5 12 7 11 8 9 9 8 10 10 12 7 13 1 14
REMARK SMILES IDX 2 15 3 16 90 17 4 18 89 19 5 20 86 21 6 22 87 23 88 24 18 25
REMARK SMILES IDX 19 26 20 27 21 28 22 30 23 31 24 32 85 33 25 34 84 35 26 36
REMARK SMILES IDX 27 37 28 38 78 39 29 40 83 41 77 42 79 43 30 44 82 45 76 46
REMARK SMILES IDX 75 47 31 49 63 50 43 51 62 52 44 53 47 54 61 55 80 56 45 57
REMARK SMILES IDX 46 58 60 60 81 61 48 62 32 63 33 64 41 65 34 66 35 67 39 68
REMARK SMILES IDX 42 69 36 70 37 71 40 72 38 73 64 74 65 75 73 76 66 77 67 78
REMARK SMILES IDX 71 79 74 80 68 81 69 82 72 83 70 84 49 85 50 86 58 87 51 88
REMARK SMILES IDX 52 89 56 90 59 91 53 92 54 93 57 94 55 95
REMARK H PARENT 15 6 8 11 20 29 79 48 47 59
REMARK Flexibility Score: inf
ROOT
ATOM      1  C   UNL A   1      41.187  20.845  27.604  1.00  0.00     0.023 C 
ENDROOT
BRANCH   1   2
ATOM      2  C   UNL A   1      40.149  21.179  26.535  1.00  0.00     0.116 C 
BRANCH   2   3
ATOM      3  N   UNL A   1      39.433  22.390  26.878  1.00  0.00    -0.353 N 
ATOM      4  C   UNL A   1      38.398  22.946  26.195  1.00  0.00     0.244 C 
ATOM      5  O   UNL A   1      38.214  24.161  26.214  1.00  0.00    -0.270 OA
ATOM      6  H   UNL A   1      39.729  22.861  27.690  1.00  0.00     0.163 HD
BRANCH   4   7
ATOM      7  C   UNL A   1      37.472  22.087  25.425  1.00  0.00     0.077 C 
ATOM      8  C   UNL A   1      36.219  21.888  25.856  1.00  0.00     0.077 C 
BRANCH   8   9
ATOM      9  C   UNL A   1      35.206  21.238  25.023  1.00  0.00     0.249 C 
ATOM     10  N   UNL A   1      34.138  21.934  24.554  1.00  0.00    -0.313 N 
ATOM     11  H   UNL A   1      33.513  21.395  24.016  1.00  0.00     0.171 HD
ATOM     12  O   UNL A   1      35.324  20.040  24.773  1.00  0.00    -0.270 OA
BRANCH  10  13
ATOM     13  C   UNL A   1      33.765  23.251  24.691  1.00  0.00     0.114 A 
ATOM     14  C   UNL A   1      31.169  27.710  24.911  1.00  0.00     0.008 C 
ATOM     15  C   UNL A   1      32.640  27.871  25.302  1.00  0.00    -0.009 C 
ATOM     16  C   UNL A   1      33.566  28.069  24.077  1.00  0.00     0.009 C 
ATOM     17  C   UNL A   1      33.101  26.663  26.139  1.00  0.00     0.041 C 
ATOM     18  C   UNL A   1      33.643  26.846  23.152  1.00  0.00     0.047 C 
ATOM     19  C   UNL A   1      33.353  25.457  25.276  1.00  0.00    -0.014 A 
ATOM     20  C   UNL A   1      33.706  25.582  23.947  1.00  0.00     0.011 A 
ATOM     21  C   UNL A   1      33.152  24.078  25.614  1.00  0.00     0.090 A 
ATOM     22  S   UNL A   1      34.137  24.103  23.250  1.00  0.00    -0.121 S 
BRANCH  21  23
ATOM     23  C   UNL A   1      32.345  23.681  26.735  1.00  0.00     0.103 C 
ATOM     24  N   UNL A   1      31.639  23.346  27.585  1.00  0.00    -0.192 NA
ENDBRANCH  21  23
ENDBRANCH  10  13
ENDBRANCH   8   9
ENDBRANCH   4   7
ENDBRANCH   2   3
ENDBRANCH   1   2
BRANCH   1  25
ATOM     25  C   UNL A   1      42.248  19.825  27.172  1.00  0.00     0.023 C 
BRANCH  25  26
ATOM     26  C   UNL A   1      42.283  19.562  25.673  1.00  0.00     0.116 C 
BRANCH  26  27
ATOM     27  N   UNL A   1      43.652  19.427  25.159  1.00  0.00    -0.352 N 
ATOM     28  C   UNL A   1      44.507  20.414  24.703  1.00  0.00     0.251 C 
ATOM     29  H   UNL A   1      44.009  18.510  25.136  1.00  0.00     0.163 HD
ATOM     30  O   UNL A   1      45.450  20.153  23.967  1.00  0.00    -0.269 OA
BRANCH  28  31
ATOM     31  C   UNL A   1      44.290  21.788  25.175  1.00  0.00     0.039 A 
ATOM     32  C   UNL A   1      43.362  22.665  24.610  1.00  0.00     0.014 A 
ATOM     33  C   UNL A   1      45.041  22.161  26.280  1.00  0.00     0.014 A 
ATOM     34  C   UNL A   1      43.206  23.922  25.194  1.00  0.00     0.010 A 
ATOM     35  C   UNL A   1      44.663  23.241  27.011  1.00  0.00     0.010 A 
ATOM     36  C   UNL A   1      43.881  24.196  26.394  1.00  0.00    -0.014 A 
BRANCH  36  37
ATOM     37  C   UNL A   1      43.715  25.415  27.161  1.00  0.00     0.031 A 
ATOM     38  C   UNL A   1      44.719  26.440  26.801  1.00  0.00     0.074 A 
ATOM     39  C   UNL A   1      42.606  25.651  27.902  1.00  0.00     0.049 A 
ATOM     40  N   UNL A   1      45.730  26.800  27.515  1.00  0.00    -0.248 NA
ATOM     41  C   UNL A   1      44.753  26.960  25.422  1.00  0.00     0.031 C 
ATOM     42  C   UNL A   1      41.418  24.805  28.094  1.00  0.00     0.029 A 
ATOM     43  N   UNL A   1      42.277  26.771  28.605  1.00  0.00    -0.354 N 
ATOM     44  C   UNL A   1      46.385  27.777  26.778  1.00  0.00     0.074 A 
ATOM     45  C   UNL A   1      45.895  27.653  25.433  1.00  0.00     0.031 C 
ATOM     46  C   UNL A   1      40.426  25.524  28.673  1.00  0.00     0.029 A 
ATOM     47  C   UNL A   1      40.946  26.830  29.030  1.00  0.00     0.049 A 
ATOM     48  H   UNL A   1      42.928  27.484  28.799  1.00  0.00     0.167 HD
ATOM     49  C   UNL A   1      47.046  28.781  27.418  1.00  0.00     0.037 A 
ATOM     50  C   UNL A   1      40.345  27.904  29.615  1.00  0.00     0.037 A 
ATOM     51  C   UNL A   1      47.207  28.455  28.818  1.00  0.00     0.049 A 
ATOM     52  C   UNL A   1      41.442  28.753  30.160  1.00  0.00     0.074 A 
ATOM     53  C   UNL A   1      47.835  27.433  29.502  1.00  0.00     0.029 A 
ATOM     54  N   UNL A   1      46.291  28.992  29.694  1.00  0.00    -0.354 N 
ATOM     55  N   UNL A   1      42.208  28.367  31.146  1.00  0.00    -0.248 NA
ATOM     56  C   UNL A   1      42.026  29.739  29.258  1.00  0.00     0.031 C 
ATOM     57  C   UNL A   1      46.934  27.088  30.552  1.00  0.00     0.029 A 
ATOM     58  C   UNL A   1      45.871  27.993  30.533  1.00  0.00     0.049 A 
ATOM     59  H   UNL A   1      45.990  29.930  29.714  1.00  0.00     0.167 HD
ATOM     60  C   UNL A   1      43.492  28.704  30.743  1.00  0.00     0.074 A 
ATOM     61  C   UNL A   1      43.314  29.586  29.588  1.00  0.00     0.031 C 
ATOM     62  C   UNL A   1      44.573  27.984  31.164  1.00  0.00     0.037 A 
BRANCH  49  63
ATOM     63  C   UNL A   1      47.160  30.203  26.925  1.00  0.00     0.064 A 
ATOM     64  C   UNL A   1      48.416  30.840  27.009  1.00  0.00     0.173 A 
ATOM     65  C   UNL A   1      46.063  31.056  26.679  1.00  0.00     0.173 A 
ATOM     66  F   UNL A   1      49.530  30.127  27.235  1.00  0.00    -0.203 F 
ATOM     67  C   UNL A   1      48.545  32.228  26.965  1.00  0.00     0.198 A 
ATOM     68  C   UNL A   1      46.204  32.439  26.585  1.00  0.00     0.198 A 
ATOM     69  F   UNL A   1      44.803  30.616  26.628  1.00  0.00    -0.203 F 
ATOM     70  F   UNL A   1      49.739  32.792  27.192  1.00  0.00    -0.200 F 
ATOM     71  C   UNL A   1      47.436  33.029  26.766  1.00  0.00     0.200 A 
ATOM     72  F   UNL A   1      45.114  33.199  26.405  1.00  0.00    -0.200 F 
ATOM     73  F   UNL A   1      47.544  34.362  26.794  1.00  0.00    -0.200 F 
ENDBRANCH  49  63
BRANCH  50  74
ATOM     74  C   UNL A   1      38.952  28.405  29.471  1.00  0.00     0.064 A 
ATOM     75  C   UNL A   1      38.124  28.638  30.586  1.00  0.00     0.173 A 
ATOM     76  C   UNL A   1      38.503  28.940  28.248  1.00  0.00     0.173 A 
ATOM     77  F   UNL A   1      38.493  28.209  31.802  1.00  0.00    -0.203 F 
ATOM     78  C   UNL A   1      36.935  29.376  30.484  1.00  0.00     0.198 A 
ATOM     79  C   UNL A   1      37.320  29.679  28.149  1.00  0.00     0.198 A 
ATOM     80  F   UNL A   1      39.256  28.841  27.144  1.00  0.00    -0.203 F 
ATOM     81  F   UNL A   1      36.201  29.623  31.579  1.00  0.00    -0.200 F 
ATOM     82  C   UNL A   1      36.541  29.907  29.267  1.00  0.00     0.200 A 
ATOM     83  F   UNL A   1      36.973  30.222  26.973  1.00  0.00    -0.200 F 
ATOM     84  F   UNL A   1      35.440  30.667  29.180  1.00  0.00    -0.200 F 
ENDBRANCH  50  74
BRANCH  62  85
ATOM     85  C   UNL A   1      44.368  26.955  32.243  1.00  0.00     0.064 A 
ATOM     86  C   UNL A   1      44.184  25.581  32.008  1.00  0.00     0.173 A 
ATOM     87  C   UNL A   1      44.559  27.360  33.569  1.00  0.00     0.173 A 
ATOM     88  F   UNL A   1      44.093  25.100  30.764  1.00  0.00    -0.203 F 
ATOM     89  C   UNL A   1      44.165  24.663  33.059  1.00  0.00     0.198 A 
ATOM     90  C   UNL A   1      44.574  26.439  34.612  1.00  0.00     0.198 A 
ATOM     91  F   UNL A   1      44.799  28.651  33.845  1.00  0.00    -0.203 F 
ATOM     92  F   UNL A   1      43.993  23.355  32.809  1.00  0.00    -0.200 F 
ATOM     93  C   UNL A   1      44.369  25.093  34.359  1.00  0.00     0.200 A 
ATOM     94  F   UNL A   1      44.828  26.856  35.860  1.00  0.00    -0.200 F 
ATOM     95  F   UNL A   1      44.398  24.209  35.365  1.00  0.00    -0.200 F 
ENDBRANCH  62  85
ENDBRANCH  36  37
ENDBRANCH  28  31
ENDBRANCH  26  27
ENDBRANCH  25  26
ENDBRANCH   1  25
TORSDOF 14
ENDMDL
MODEL 2
REMARK VINA RESULT:     -12.1      2.729      4.118
REMARK SMILES C[C@@H]1CCc2sc(NC(=O)/C=C/C(=O)NCCCCNC(=O)c3ccc(-c4c5nc(c(-c6c(F)c(F)c(F)c(F)c6F)c6ccc([nH]6)c(-c6c(F)c(F)c(F)c(F)c6F)c6nc(c(-c7c(F)c(F)c(F)c(F)c7F)c7ccc4[nH]7)C=C6)C=C5)cc3)c(C#N)c2C1
REMARK SMILES IDX 17 1 16 2 15 3 13 4 14 5 12 7 11 8 9 9 8 10 10 12 7 13 1 14
REMARK SMILES IDX 2 15 3 16 90 17 4 18 89 19 5 20 86 21 6 22 87 23 88 24 18 25
REMARK SMILES IDX 19 26 20 27 21 28 22 30 23 31 24 32 85 33 25 34 84 35 26 36
REMARK SMILES IDX 27 37 28 38 78 39 29 40 83 41 77 42 79 43 30 44 82 45 76 46
REMARK SMILES IDX 75 47 31 49 63 50 43 51 62 52 44 53 47 54 61 55 80 56 45 57
REMARK SMILES IDX 46 58 60 60 81 61 48 62 32 63 33 64 41 65 34 66 35 67 39 68
REMARK SMILES IDX 42 69 36 70 37 71 40 72 38 73 64 74 65 75 73 76 66 77 67 78
REMARK SMILES IDX 71 79 74 80 68 81 69 82 72 83 70 84 49 85 50 86 58 87 51 88
REMARK SMILES IDX 52 89 56 90 59 91 53 92 54 93 57 94 55 95
REMARK H PARENT 15 6 8 11 20 29 79 48 47 59
REMARK Flexibility Score: inf
ROOT
ATOM      1  C   UNL A   1      36.754  22.275  25.569  1.00  0.00     0.023 C 
ENDROOT
BRANCH   1   2
ATOM      2  C   UNL A   1      36.036  22.643  24.273  1.00  0.00     0.116 C 
BRANCH   2   3
ATOM      3  N   UNL A   1      34.633  22.293  24.348  1.00  0.00    -0.353 N 
ATOM      4  C   UNL A   1      33.582  23.042  23.923  1.00  0.00     0.244 C 
ATOM      5  O   UNL A   1      32.486  22.954  24.471  1.00  0.00    -0.270 OA
ATOM      6  H   UNL A   1      34.418  21.420  24.750  1.00  0.00     0.163 HD
BRANCH   4   7
ATOM      7  C   UNL A   1      33.747  23.970  22.783  1.00  0.00     0.077 C 
ATOM      8  C   UNL A   1      32.672  24.502  22.184  1.00  0.00     0.077 C 
BRANCH   8   9
ATOM      9  C   UNL A   1      32.786  25.589  21.210  1.00  0.00     0.249 C 
ATOM     10  N   UNL A   1      32.732  26.888  21.605  1.00  0.00    -0.313 N 
ATOM     11  H   UNL A   1      32.805  27.535  20.866  1.00  0.00     0.171 HD
ATOM     12  O   UNL A   1      32.907  25.307  20.019  1.00  0.00    -0.270 OA
BRANCH  10  13
ATOM     13  C   UNL A   1      32.594  27.468  22.844  1.00  0.00     0.114 A 
ATOM     14  C   UNL A   1      31.735  30.703  26.777  1.00  0.00     0.008 C 
ATOM     15  C   UNL A   1      32.077  29.288  27.250  1.00  0.00    -0.009 C 
ATOM     16  C   UNL A   1      33.602  29.038  27.334  1.00  0.00     0.009 C 
ATOM     17  C   UNL A   1      31.407  28.248  26.332  1.00  0.00     0.041 C 
ATOM     18  C   UNL A   1      34.313  29.069  25.974  1.00  0.00     0.047 C 
ATOM     19  C   UNL A   1      32.145  28.105  25.029  1.00  0.00    -0.014 A 
ATOM     20  C   UNL A   1      33.493  28.382  24.930  1.00  0.00     0.011 A 
ATOM     21  C   UNL A   1      31.596  27.813  23.736  1.00  0.00     0.090 A 
ATOM     22  S   UNL A   1      34.134  27.948  23.426  1.00  0.00    -0.121 S 
BRANCH  21  23
ATOM     23  C   UNL A   1      30.193  27.957  23.457  1.00  0.00     0.103 C 
ATOM     24  N   UNL A   1      29.076  28.149  23.234  1.00  0.00    -0.192 NA
ENDBRANCH  21  23
ENDBRANCH  10  13
ENDBRANCH   8   9
ENDBRANCH   4   7
ENDBRANCH   2   3
ENDBRANCH   1   2
BRANCH   1  25
ATOM     25  C   UNL A   1      38.141  21.649  25.379  1.00  0.00     0.023 C 
BRANCH  25  26
ATOM     26  C   UNL A   1      39.174  22.107  26.398  1.00  0.00     0.116 C 
BRANCH  26  27
ATOM     27  N   UNL A   1      40.551  21.887  25.940  1.00  0.00    -0.352 N 
ATOM     28  C   UNL A   1      41.602  22.785  25.892  1.00  0.00     0.251 C 
ATOM     29  H   UNL A   1      40.754  20.977  25.623  1.00  0.00     0.163 HD
ATOM     30  O   UNL A   1      42.567  22.603  25.161  1.00  0.00    -0.269 OA
BRANCH  28  31
ATOM     31  C   UNL A   1      41.560  23.944  26.794  1.00  0.00     0.039 A 
ATOM     32  C   UNL A   1      42.311  24.042  27.967  1.00  0.00     0.014 A 
ATOM     33  C   UNL A   1      40.750  24.992  26.377  1.00  0.00     0.014 A 
ATOM     34  C   UNL A   1      42.231  25.225  28.702  1.00  0.00     0.010 A 
ATOM     35  C   UNL A   1      40.921  26.224  26.920  1.00  0.00     0.010 A 
ATOM     36  C   UNL A   1      41.514  26.305  28.163  1.00  0.00    -0.014 A 
BRANCH  36  37
ATOM     37  C   UNL A   1      41.451  27.622  28.768  1.00  0.00     0.031 A 
ATOM     38  C   UNL A   1      42.555  28.496  28.315  1.00  0.00     0.074 A 
ATOM     39  C   UNL A   1      40.356  28.051  29.440  1.00  0.00     0.049 A 
ATOM     40  N   UNL A   1      43.582  28.848  29.009  1.00  0.00    -0.248 NA
ATOM     41  C   UNL A   1      42.665  28.832  26.884  1.00  0.00     0.031 C 
ATOM     42  C   UNL A   1      39.090  27.349  29.699  1.00  0.00     0.029 A 
ATOM     43  N   UNL A   1      40.123  29.276  29.988  1.00  0.00    -0.354 N 
ATOM     44  C   UNL A   1      44.342  29.659  28.177  1.00  0.00     0.074 A 
ATOM     45  C   UNL A   1      43.868  29.412  26.843  1.00  0.00     0.031 C 
ATOM     46  C   UNL A   1      38.160  28.225  30.153  1.00  0.00     0.029 A 
ATOM     47  C   UNL A   1      38.796  29.512  30.361  1.00  0.00     0.049 A 
ATOM     48  H   UNL A   1      40.835  29.945  30.112  1.00  0.00     0.167 HD
ATOM     49  C   UNL A   1      45.083  30.670  28.708  1.00  0.00     0.037 A 
ATOM     50  C   UNL A   1      38.290  30.702  30.790  1.00  0.00     0.037 A 
ATOM     51  C   UNL A   1      45.187  30.511  30.141  1.00  0.00     0.049 A 
ATOM     52  C   UNL A   1      39.453  31.508  31.259  1.00  0.00     0.074 A 
ATOM     53  C   UNL A   1      45.700  29.529  30.966  1.00  0.00     0.029 A 
ATOM     54  N   UNL A   1      44.310  31.236  30.915  1.00  0.00    -0.354 N 
ATOM     55  N   UNL A   1      40.159  31.180  32.308  1.00  0.00    -0.248 NA
ATOM     56  C   UNL A   1      40.145  32.314  30.260  1.00  0.00     0.031 C 
ATOM     57  C   UNL A   1      44.751  29.405  32.022  1.00  0.00     0.029 A 
ATOM     58  C   UNL A   1      43.780  30.394  31.859  1.00  0.00     0.049 A 
ATOM     59  H   UNL A   1      44.100  32.193  30.810  1.00  0.00     0.167 HD
ATOM     60  C   UNL A   1      41.477  31.343  31.906  1.00  0.00     0.074 A 
ATOM     61  C   UNL A   1      41.405  32.085  30.646  1.00  0.00     0.031 C 
ATOM     62  C   UNL A   1      42.476  30.585  32.446  1.00  0.00     0.037 A 
BRANCH  49  63
ATOM     63  C   UNL A   1      45.343  32.002  28.046  1.00  0.00     0.064 A 
ATOM     64  C   UNL A   1      44.235  32.810  27.714  1.00  0.00     0.173 A 
ATOM     65  C   UNL A   1      46.565  32.374  27.447  1.00  0.00     0.173 A 
ATOM     66  F   UNL A   1      43.023  32.553  28.229  1.00  0.00    -0.203 F 
ATOM     67  C   UNL A   1      44.324  33.834  26.771  1.00  0.00     0.198 A 
ATOM     68  C   UNL A   1      46.659  33.430  26.543  1.00  0.00     0.198 A 
ATOM     69  F   UNL A   1      47.693  31.678  27.614  1.00  0.00    -0.203 F 
ATOM     70  F   UNL A   1      43.215  34.479  26.385  1.00  0.00    -0.200 F 
ATOM     71  C   UNL A   1      45.534  34.135  26.176  1.00  0.00     0.200 A 
ATOM     72  F   UNL A   1      47.840  33.698  25.967  1.00  0.00    -0.200 F 
ATOM     73  F   UNL A   1      45.610  35.069  25.220  1.00  0.00    -0.200 F 
ENDBRANCH  49  63
BRANCH  50  74
ATOM     74  C   UNL A   1      36.954  31.307  30.542  1.00  0.00     0.064 A 
ATOM     75  C   UNL A   1      36.104  31.696  31.596  1.00  0.00     0.173 A 
ATOM     76  C   UNL A   1      36.605  31.782  29.264  1.00  0.00     0.173 A 
ATOM     77  F   UNL A   1      36.383  31.333  32.856  1.00  0.00    -0.203 F 
ATOM     78  C   UNL A   1      34.991  32.523  31.383  1.00  0.00     0.198 A 
ATOM     79  C   UNL A   1      35.497  32.609  29.053  1.00  0.00     0.198 A 
ATOM     80  F   UNL A   1      37.391  31.533  28.207  1.00  0.00    -0.203 F 
ATOM     81  F   UNL A   1      34.237  32.916  32.420  1.00  0.00    -0.200 F 
ATOM     82  C   UNL A   1      34.696  32.989  30.112  1.00  0.00     0.200 A 
ATOM     83  F   UNL A   1      35.250  33.087  27.825  1.00  0.00    -0.200 F 
ATOM     84  F   UNL A   1      33.672  33.832  29.916  1.00  0.00    -0.200 F 
ENDBRANCH  50  74
BRANCH  62  85
ATOM     85  C   UNL A   1      42.153  29.724  33.637  1.00  0.00     0.064 A 
ATOM     86  C   UNL A   1      41.693  28.397  33.560  1.00  0.00     0.173 A 
ATOM     87  C   UNL A   1      42.511  30.207  34.901  1.00  0.00     0.173 A 
ATOM     88  F   UNL A   1      41.425  27.828  32.380  1.00  0.00    -0.203 F 
ATOM     89  C   UNL A   1      41.572  27.605  34.702  1.00  0.00     0.198 A 
ATOM     90  C   UNL A   1      42.421  29.404  36.034  1.00  0.00     0.198 A 
ATOM     91  F   UNL A   1      43.012  31.445  35.026  1.00  0.00    -0.203 F 
ATOM     92  F   UNL A   1      41.136  26.340  34.602  1.00  0.00    -0.200 F 
ATOM     93  C   UNL A   1      41.945  28.108  35.937  1.00  0.00     0.200 A 
ATOM     94  F   UNL A   1      42.837  29.879  37.216  1.00  0.00    -0.200 F 
ATOM     95  F   UNL A   1      41.874  27.334  37.029  1.00  0.00    -0.200 F 
ENDBRANCH  62  85
ENDBRANCH  36  37
ENDBRANCH  28  31
ENDBRANCH  26  27
ENDBRANCH  25  26
ENDBRANCH   1  25
TORSDOF 14
ENDMDL
MODEL 3
REMARK VINA RESULT:     -11.9      4.410      9.917
REMARK SMILES C[C@@H]1CCc2sc(NC(=O)/C=C/C(=O)NCCCCNC(=O)c3ccc(-c4c5nc(c(-c6c(F)c(F)c(F)c(F)c6F)c6ccc([nH]6)c(-c6c(F)c(F)c(F)c(F)c6F)c6nc(c(-c7c(F)c(F)c(F)c(F)c7F)c7ccc4[nH]7)C=C6)C=C5)cc3)c(C#N)c2C1
REMARK SMILES IDX 17 1 16 2 15 3 13 4 14 5 12 7 11 8 9 9 8 10 10 12 7 13 1 14
REMARK SMILES IDX 2 15 3 16 90 17 4 18 89 19 5 20 86 21 6 22 87 23 88 24 18 25
REMARK SMILES IDX 19 26 20 27 21 28 22 30 23 31 24 32 85 33 25 34 84 35 26 36
REMARK SMILES IDX 27 37 28 38 78 39 29 40 83 41 77 42 79 43 30 44 82 45 76 46
REMARK SMILES IDX 75 47 31 49 63 50 43 51 62 52 44 53 47 54 61 55 80 56 45 57
REMARK SMILES IDX 46 58 60 60 81 61 48 62 32 63 33 64 41 65 34 66 35 67 39 68
REMARK SMILES IDX 42 69 36 70 37 71 40 72 38 73 64 74 65 75 73 76 66 77 67 78
REMARK SMILES IDX 71 79 74 80 68 81 69 82 72 83 70 84 49 85 50 86 58 87 51 88
REMARK SMILES IDX 52 89 56 90 59 91 53 92 54 93 57 94 55 95
REMARK H PARENT 15 6 8 11 20 29 79 48 47 59
REMARK Flexibility Score: inf
ROOT
ATOM      1  C   UNL A   1      35.021  33.773  28.691  1.00  0.00     0.023 C 
ENDROOT
BRANCH   1   2
ATOM      2  C   UNL A   1      34.154  32.711  28.019  1.00  0.00     0.116 C 
BRANCH   2   3
ATOM      3  N   UNL A   1      34.964  31.594  27.578  1.00  0.00    -0.353 N 
ATOM      4  C   UNL A   1      34.528  30.349  27.252  1.00  0.00     0.244 C 
ATOM      5  O   UNL A   1      35.251  29.369  27.412  1.00  0.00    -0.270 OA
ATOM      6  H   UNL A   1      35.933  31.754  27.507  1.00  0.00     0.163 HD
BRANCH   4   7
ATOM      7  C   UNL A   1      33.172  30.163  26.691  1.00  0.00     0.077 C 
ATOM      8  C   UNL A   1      33.009  29.577  25.496  1.00  0.00     0.077 C 
BRANCH   8   9
ATOM      9  C   UNL A   1      31.693  29.169  25.005  1.00  0.00     0.249 C 
ATOM     10  N   UNL A   1      31.431  27.870  24.710  1.00  0.00    -0.313 N 
ATOM     11  H   UNL A   1      30.518  27.711  24.375  1.00  0.00     0.171 HD
ATOM     12  O   UNL A   1      30.830  30.030  24.839  1.00  0.00    -0.270 OA
BRANCH  10  13
ATOM     13  C   UNL A   1      32.202  26.734  24.790  1.00  0.00     0.114 A 
ATOM     14  C   UNL A   1      34.197  22.002  24.243  1.00  0.00     0.008 C 
ATOM     15  C   UNL A   1      35.064  22.902  25.127  1.00  0.00    -0.009 C 
ATOM     16  C   UNL A   1      34.601  22.914  26.604  1.00  0.00     0.009 C 
ATOM     17  C   UNL A   1      35.094  24.332  24.557  1.00  0.00     0.041 C 
ATOM     18  C   UNL A   1      33.218  23.544  26.817  1.00  0.00     0.047 C 
ATOM     19  C   UNL A   1      33.823  25.076  24.864  1.00  0.00    -0.014 A 
ATOM     20  C   UNL A   1      33.052  24.761  25.965  1.00  0.00     0.011 A 
ATOM     21  C   UNL A   1      33.168  26.067  24.060  1.00  0.00     0.090 A 
ATOM     22  S   UNL A   1      31.794  25.866  26.212  1.00  0.00    -0.121 S 
BRANCH  21  23
ATOM     23  C   UNL A   1      33.474  26.236  22.666  1.00  0.00     0.103 C 
ATOM     24  N   UNL A   1      33.674  26.312  21.531  1.00  0.00    -0.192 NA
ENDBRANCH  21  23
ENDBRANCH  10  13
ENDBRANCH   8   9
ENDBRANCH   4   7
ENDBRANCH   2   3
ENDBRANCH   1   2
BRANCH   1  25
ATOM     25  C   UNL A   1      34.281  35.065  29.061  1.00  0.00     0.023 C 
BRANCH  25  26
ATOM     26  C   UNL A   1      33.081  34.855  29.972  1.00  0.00     0.116 C 
BRANCH  26  27
ATOM     27  N   UNL A   1      33.152  35.670  31.191  1.00  0.00    -0.352 N 
ATOM     28  C   UNL A   1      33.783  35.384  32.389  1.00  0.00     0.251 C 
ATOM     29  H   UNL A   1      32.687  36.537  31.151  1.00  0.00     0.163 HD
ATOM     30  O   UNL A   1      33.467  35.947  33.429  1.00  0.00    -0.269 OA
BRANCH  28  31
ATOM     31  C   UNL A   1      34.895  34.423  32.371  1.00  0.00     0.039 A 
ATOM     32  C   UNL A   1      34.722  33.038  32.330  1.00  0.00     0.014 A 
ATOM     33  C   UNL A   1      36.164  34.984  32.342  1.00  0.00     0.014 A 
ATOM     34  C   UNL A   1      35.861  32.236  32.250  1.00  0.00     0.010 A 
ATOM     35  C   UNL A   1      37.221  34.225  31.956  1.00  0.00     0.010 A 
ATOM     36  C   UNL A   1      37.109  32.854  32.077  1.00  0.00    -0.014 A 
BRANCH  36  37
ATOM     37  C   UNL A   1      38.350  32.136  31.864  1.00  0.00     0.031 A 
ATOM     38  C   UNL A   1      39.068  31.878  33.131  1.00  0.00     0.074 A 
ATOM     39  C   UNL A   1      38.646  31.551  30.679  1.00  0.00     0.049 A 
ATOM     40  N   UNL A   1      40.140  32.470  33.534  1.00  0.00    -0.248 NA
ATOM     41  C   UNL A   1      38.422  31.053  34.169  1.00  0.00     0.031 C 
ATOM     42  C   UNL A   1      37.858  31.511  29.438  1.00  0.00     0.029 A 
ATOM     43  N   UNL A   1      39.726  30.783  30.358  1.00  0.00    -0.354 N 
ATOM     44  C   UNL A   1      40.442  31.908  34.767  1.00  0.00     0.074 A 
ATOM     45  C   UNL A   1      39.244  31.244  35.204  1.00  0.00     0.031 C 
ATOM     46  C   UNL A   1      38.377  30.592  28.589  1.00  0.00     0.029 A 
ATOM     47  C   UNL A   1      39.613  30.083  29.151  1.00  0.00     0.049 A 
ATOM     48  H   UNL A   1      40.524  30.726  30.931  1.00  0.00     0.167 HD
ATOM     49  C   UNL A   1      41.740  31.799  35.163  1.00  0.00     0.037 A 
ATOM     50  C   UNL A   1      40.489  29.146  28.692  1.00  0.00     0.037 A 
ATOM     51  C   UNL A   1      42.587  32.609  34.316  1.00  0.00     0.049 A 
ATOM     52  C   UNL A   1      41.771  29.380  29.414  1.00  0.00     0.074 A 
ATOM     53  C   UNL A   1      42.654  33.958  34.029  1.00  0.00     0.029 A 
ATOM     54  N   UNL A   1      43.230  31.968  33.281  1.00  0.00    -0.354 N 
ATOM     55  N   UNL A   1      42.492  30.455  29.239  1.00  0.00    -0.248 NA
ATOM     56  C   UNL A   1      41.938  28.712  30.699  1.00  0.00     0.031 C 
ATOM     57  C   UNL A   1      42.881  34.022  32.623  1.00  0.00     0.029 A 
ATOM     58  C   UNL A   1      43.066  32.722  32.148  1.00  0.00     0.049 A 
ATOM     59  H   UNL A   1      43.721  31.117  33.344  1.00  0.00     0.167 HD
ATOM     60  C   UNL A   1      42.849  30.848  30.521  1.00  0.00     0.074 A 
ATOM     61  C   UNL A   1      42.513  29.710  31.379  1.00  0.00     0.031 C 
ATOM     62  C   UNL A   1      43.069  32.163  30.818  1.00  0.00     0.037 A 
BRANCH  49  63
ATOM     63  C   UNL A   1      42.307  30.674  35.994  1.00  0.00     0.064 A 
ATOM     64  C   UNL A   1      43.221  30.995  37.019  1.00  0.00     0.173 A 
ATOM     65  C   UNL A   1      42.249  29.309  35.640  1.00  0.00     0.173 A 
ATOM     66  F   UNL A   1      43.358  32.261  37.441  1.00  0.00    -0.203 F 
ATOM     67  C   UNL A   1      44.087  30.044  37.561  1.00  0.00     0.198 A 
ATOM     68  C   UNL A   1      43.081  28.354  36.220  1.00  0.00     0.198 A 
ATOM     69  F   UNL A   1      41.477  28.852  34.650  1.00  0.00    -0.203 F 
ATOM     70  F   UNL A   1      45.034  30.427  38.429  1.00  0.00    -0.200 F 
ATOM     71  C   UNL A   1      44.026  28.726  37.152  1.00  0.00     0.200 A 
ATOM     72  F   UNL A   1      43.015  27.082  35.800  1.00  0.00    -0.200 F 
ATOM     73  F   UNL A   1      44.900  27.826  37.617  1.00  0.00    -0.200 F 
ENDBRANCH  49  63
BRANCH  50  74
ATOM     74  C   UNL A   1      40.223  27.897  27.929  1.00  0.00     0.064 A 
ATOM     75  C   UNL A   1      40.889  27.603  26.724  1.00  0.00     0.173 A 
ATOM     76  C   UNL A   1      39.521  26.828  28.521  1.00  0.00     0.173 A 
ATOM     77  F   UNL A   1      41.623  28.543  26.112  1.00  0.00    -0.203 F 
ATOM     78  C   UNL A   1      40.867  26.319  26.160  1.00  0.00     0.198 A 
ATOM     79  C   UNL A   1      39.504  25.548  27.960  1.00  0.00     0.198 A 
ATOM     80  F   UNL A   1      38.920  26.983  29.708  1.00  0.00    -0.203 F 
ATOM     81  F   UNL A   1      41.558  26.065  25.038  1.00  0.00    -0.200 F 
ATOM     82  C   UNL A   1      40.185  25.289  26.786  1.00  0.00     0.200 A 
ATOM     83  F   UNL A   1      38.875  24.551  28.599  1.00  0.00    -0.200 F 
ATOM     84  F   UNL A   1      40.217  24.046  26.284  1.00  0.00    -0.200 F 
ENDBRANCH  50  74
BRANCH  62  85
ATOM     85  C   UNL A   1      43.130  33.149  29.684  1.00  0.00     0.064 A 
ATOM     86  C   UNL A   1      42.073  33.998  29.309  1.00  0.00     0.173 A 
ATOM     87  C   UNL A   1      44.375  33.372  29.085  1.00  0.00     0.173 A 
ATOM     88  F   UNL A   1      40.879  33.917  29.905  1.00  0.00    -0.203 F 
ATOM     89  C   UNL A   1      42.253  35.001  28.357  1.00  0.00     0.198 A 
ATOM     90  C   UNL A   1      44.561  34.395  28.161  1.00  0.00     0.198 A 
ATOM     91  F   UNL A   1      45.433  32.631  29.449  1.00  0.00    -0.203 F 
ATOM     92  F   UNL A   1      41.230  35.802  28.019  1.00  0.00    -0.200 F 
ATOM     93  C   UNL A   1      43.500  35.204  27.790  1.00  0.00     0.200 A 
ATOM     94  F   UNL A   1      45.783  34.620  27.660  1.00  0.00    -0.200 F 
ATOM     95  F   UNL A   1      43.688  36.197  26.910  1.00  0.00    -0.200 F 
ENDBRANCH  62  85
ENDBRANCH  36  37
ENDBRANCH  28  31
ENDBRANCH  26  27
ENDBRANCH  25  26
ENDBRANCH   1  25
TORSDOF 14
ENDMDL
