MODEL 1
REMARK VINA RESULT:     -12.5      0.000      0.000
REMARK SMILES Cc1nn(C)c(C)c1C(=O)N1CC[C@H](C(=O)NCCCCNC(=O)c2ccc(-c3c4nc(c(-c5c(F)c(F)c(F)c(F)c5F)c5ccc([nH]5)c(-c5c(F)c(F)c(F)c(F)c5F)c5nc(c(-c6c(F)c(F)c(F)c(F)c6F)c6ccc3[nH]6)C=C5)C=C4)cc2)[C@@H]1C
REMARK SMILES IDX 19 1 18 2 17 3 15 4 16 5 14 7 11 8 12 9 88 10 13 11 89 12
REMARK SMILES IDX 9 13 10 14 8 15 1 16 2 17 3 18 4 19 6 20 5 21 7 22 20 23
REMARK SMILES IDX 21 24 22 25 23 26 24 28 25 29 26 30 87 31 27 32 86 33 28 34
REMARK SMILES IDX 29 35 30 36 80 37 31 38 85 39 79 40 81 41 32 42 84 43 78 44
REMARK SMILES IDX 77 45 33 47 65 48 45 49 64 50 46 51 49 52 63 53 82 54 47 55
REMARK SMILES IDX 48 56 62 58 83 59 50 60 34 61 35 62 43 63 36 64 37 65 41 66
REMARK SMILES IDX 44 67 38 68 39 69 42 70 40 71 66 72 67 73 75 74 68 75 69 76
REMARK SMILES IDX 73 77 76 78 70 79 71 80 74 81 72 82 51 83 52 84 60 85 53 86
REMARK SMILES IDX 54 87 58 88 61 89 55 90 56 91 59 92 57 93
REMARK H PARENT 17 6 22 27 81 46 49 57
REMARK Flexibility Score: inf
ROOT
ATOM      1  C   UNL A   1      31.477  30.625  26.628  1.00  0.00     0.023 C 
ENDROOT
BRANCH   1   2
ATOM      2  C   UNL A   1      32.065  30.033  25.348  1.00  0.00     0.116 C 
BRANCH   2   3
ATOM      3  N   UNL A   1      31.043  29.702  24.374  1.00  0.00    -0.356 N 
ATOM      4  C   UNL A   1      30.695  28.480  23.864  1.00  0.00     0.225 C 
ATOM      5  O   UNL A   1      29.761  28.435  23.068  1.00  0.00    -0.275 OA
ATOM      6  H   UNL A   1      30.525  30.466  24.029  1.00  0.00     0.163 HD
BRANCH   4   7
ATOM      7  C   UNL A   1      31.418  27.245  24.388  1.00  0.00     0.102 C 
ATOM      8  N   UNL A   1      32.182  25.416  23.050  1.00  0.00    -0.335 N 
ATOM      9  C   UNL A   1      30.743  25.312  23.130  1.00  0.00     0.121 C 
ATOM     10  C   UNL A   1      32.633  26.702  23.595  1.00  0.00     0.094 C 
ATOM     11  C   UNL A   1      30.425  26.071  24.407  1.00  0.00     0.037 C 
ATOM     12  C   UNL A   1      33.213  27.611  22.516  1.00  0.00     0.032 C 
BRANCH   8  13
ATOM     13  C   UNL A   1      32.933  24.378  22.525  1.00  0.00     0.257 C 
ATOM     14  O   UNL A   1      33.278  24.358  21.346  1.00  0.00    -0.269 OA
BRANCH  13  15
ATOM     15  C   UNL A   1      33.264  23.275  23.414  1.00  0.00     0.083 A 
ATOM     16  C   UNL A   1      31.912  21.282  22.376  1.00  0.00     0.069 C 
ATOM     17  C   UNL A   1      32.827  21.924  23.354  1.00  0.00     0.072 A 
ATOM     18  N   UNL A   1      33.374  21.180  24.321  1.00  0.00    -0.178 NA
ATOM     19  N   UNL A   1      34.236  22.014  24.931  1.00  0.00    -0.272 N 
ATOM     20  C   UNL A   1      34.202  23.292  24.437  1.00  0.00     0.048 A 
ATOM     21  C   UNL A   1      35.080  21.479  25.974  1.00  0.00     0.174 C 
ATOM     22  C   UNL A   1      35.059  24.394  24.942  1.00  0.00     0.067 C 
ENDBRANCH  13  15
ENDBRANCH   8  13
ENDBRANCH   4   7
ENDBRANCH   2   3
ENDBRANCH   1   2
BRANCH   1  23
ATOM     23  C   UNL A   1      31.403  32.159  26.660  1.00  0.00     0.023 C 
BRANCH  23  24
ATOM     24  C   UNL A   1      32.678  32.874  27.108  1.00  0.00     0.116 C 
BRANCH  24  25
ATOM     25  N   UNL A   1      32.424  34.203  27.634  1.00  0.00    -0.352 N 
ATOM     26  C   UNL A   1      33.051  34.865  28.659  1.00  0.00     0.251 C 
ATOM     27  H   UNL A   1      31.698  34.700  27.193  1.00  0.00     0.163 HD
ATOM     28  O   UNL A   1      32.611  35.945  29.044  1.00  0.00    -0.269 OA
BRANCH  26  29
ATOM     29  C   UNL A   1      34.230  34.278  29.337  1.00  0.00     0.039 A 
ATOM     30  C   UNL A   1      34.009  33.469  30.457  1.00  0.00     0.014 A 
ATOM     31  C   UNL A   1      35.535  34.565  28.929  1.00  0.00     0.014 A 
ATOM     32  C   UNL A   1      35.091  32.906  31.139  1.00  0.00     0.010 A 
ATOM     33  C   UNL A   1      36.617  33.990  29.600  1.00  0.00     0.010 A 
ATOM     34  C   UNL A   1      36.402  33.155  30.706  1.00  0.00    -0.014 A 
BRANCH  34  35
ATOM     35  C   UNL A   1      37.555  32.534  31.396  1.00  0.00     0.031 A 
ATOM     36  C   UNL A   1      38.322  31.421  30.748  1.00  0.00     0.074 A 
ATOM     37  C   UNL A   1      37.891  32.953  32.630  1.00  0.00     0.049 A 
ATOM     38  N   UNL A   1      39.288  30.688  31.242  1.00  0.00    -0.248 NA
ATOM     39  C   UNL A   1      37.949  31.080  29.367  1.00  0.00     0.031 C 
ATOM     40  C   UNL A   1      37.223  34.023  33.370  1.00  0.00     0.029 A 
ATOM     41  N   UNL A   1      38.876  32.519  33.480  1.00  0.00    -0.354 N 
ATOM     42  C   UNL A   1      39.620  29.782  30.246  1.00  0.00     0.074 A 
ATOM     43  C   UNL A   1      38.764  30.064  29.112  1.00  0.00     0.031 C 
ATOM     44  C   UNL A   1      37.818  34.164  34.565  1.00  0.00     0.029 A 
ATOM     45  C   UNL A   1      38.896  33.185  34.678  1.00  0.00     0.049 A 
ATOM     46  H   UNL A   1      39.507  31.799  33.251  1.00  0.00     0.167 HD
ATOM     47  C   UNL A   1      40.549  28.797  30.281  1.00  0.00     0.037 A 
ATOM     48  C   UNL A   1      39.688  33.015  35.753  1.00  0.00     0.037 A 
ATOM     49  C   UNL A   1      41.418  28.522  31.392  1.00  0.00     0.049 A 
ATOM     50  C   UNL A   1      40.747  31.954  35.742  1.00  0.00     0.074 A 
ATOM     51  C   UNL A   1      42.376  27.530  31.518  1.00  0.00     0.029 A 
ATOM     52  N   UNL A   1      41.445  29.255  32.568  1.00  0.00    -0.354 N 
ATOM     53  N   UNL A   1      41.028  31.081  34.808  1.00  0.00    -0.248 NA
ATOM     54  C   UNL A   1      41.595  31.853  36.939  1.00  0.00     0.031 C 
ATOM     55  C   UNL A   1      42.986  27.666  32.772  1.00  0.00     0.029 A 
ATOM     56  C   UNL A   1      42.409  28.744  33.420  1.00  0.00     0.049 A 
ATOM     57  H   UNL A   1      40.864  30.024  32.767  1.00  0.00     0.167 HD
ATOM     58  C   UNL A   1      42.078  30.323  35.302  1.00  0.00     0.074 A 
ATOM     59  C   UNL A   1      42.395  30.845  36.615  1.00  0.00     0.031 C 
ATOM     60  C   UNL A   1      42.715  29.280  34.719  1.00  0.00     0.037 A 
BRANCH  47  61
ATOM     61  C   UNL A   1      40.659  27.925  29.073  1.00  0.00     0.064 A 
ATOM     62  C   UNL A   1      39.841  26.799  28.915  1.00  0.00     0.173 A 
ATOM     63  C   UNL A   1      41.565  28.239  28.051  1.00  0.00     0.173 A 
ATOM     64  F   UNL A   1      38.970  26.457  29.876  1.00  0.00    -0.203 F 
ATOM     65  C   UNL A   1      39.931  26.011  27.771  1.00  0.00     0.198 A 
ATOM     66  C   UNL A   1      41.648  27.453  26.906  1.00  0.00     0.198 A 
ATOM     67  F   UNL A   1      42.369  29.307  28.166  1.00  0.00    -0.203 F 
ATOM     68  F   UNL A   1      39.151  24.928  27.642  1.00  0.00    -0.200 F 
ATOM     69  C   UNL A   1      40.832  26.339  26.767  1.00  0.00     0.200 A 
ATOM     70  F   UNL A   1      42.521  27.767  25.939  1.00  0.00    -0.200 F 
ATOM     71  F   UNL A   1      40.917  25.578  25.668  1.00  0.00    -0.200 F 
ENDBRANCH  47  61
BRANCH  48  72
ATOM     72  C   UNL A   1      39.499  33.882  36.936  1.00  0.00     0.064 A 
ATOM     73  C   UNL A   1      40.072  35.158  36.987  1.00  0.00     0.173 A 
ATOM     74  C   UNL A   1      38.726  33.457  38.023  1.00  0.00     0.173 A 
ATOM     75  F   UNL A   1      40.831  35.592  35.971  1.00  0.00    -0.203 F 
ATOM     76  C   UNL A   1      39.878  35.983  38.091  1.00  0.00     0.198 A 
ATOM     77  C   UNL A   1      38.528  34.286  39.125  1.00  0.00     0.198 A 
ATOM     78  F   UNL A   1      38.164  32.240  38.012  1.00  0.00    -0.203 F 
ATOM     79  F   UNL A   1      40.444  37.198  38.126  1.00  0.00    -0.200 F 
ATOM     80  C   UNL A   1      39.104  35.548  39.158  1.00  0.00     0.200 A 
ATOM     81  F   UNL A   1      37.780  33.863  40.153  1.00  0.00    -0.200 F 
ATOM     82  F   UNL A   1      38.916  36.343  40.219  1.00  0.00    -0.200 F 
ENDBRANCH  48  72
BRANCH  60  83
ATOM     83  C   UNL A   1      43.816  28.638  35.500  1.00  0.00     0.064 A 
ATOM     84  C   UNL A   1      43.545  27.610  36.412  1.00  0.00     0.173 A 
ATOM     85  C   UNL A   1      45.148  29.030  35.314  1.00  0.00     0.173 A 
ATOM     86  F   UNL A   1      42.281  27.213  36.627  1.00  0.00    -0.203 F 
ATOM     87  C   UNL A   1      44.574  26.996  37.119  1.00  0.00     0.198 A 
ATOM     88  C   UNL A   1      46.175  28.414  36.021  1.00  0.00     0.198 A 
ATOM     89  F   UNL A   1      45.448  30.018  34.457  1.00  0.00    -0.203 F 
ATOM     90  F   UNL A   1      44.296  26.023  37.997  1.00  0.00    -0.200 F 
ATOM     91  C   UNL A   1      45.888  27.398  36.922  1.00  0.00     0.200 A 
ATOM     92  F   UNL A   1      47.443  28.806  35.837  1.00  0.00    -0.200 F 
ATOM     93  F   UNL A   1      46.878  26.810  37.608  1.00  0.00    -0.200 F 
ENDBRANCH  60  83
ENDBRANCH  34  35
ENDBRANCH  26  29
ENDBRANCH  24  25
ENDBRANCH  23  24
ENDBRANCH   1  23
TORSDOF 13
ENDMDL
MODEL 2
REMARK VINA RESULT:     -12.4      0.166      1.601
REMARK SMILES Cc1nn(C)c(C)c1C(=O)N1CC[C@H](C(=O)NCCCCNC(=O)c2ccc(-c3c4nc(c(-c5c(F)c(F)c(F)c(F)c5F)c5ccc([nH]5)c(-c5c(F)c(F)c(F)c(F)c5F)c5nc(c(-c6c(F)c(F)c(F)c(F)c6F)c6ccc3[nH]6)C=C5)C=C4)cc2)[C@@H]1C
REMARK SMILES IDX 19 1 18 2 17 3 15 4 16 5 14 7 11 8 12 9 88 10 13 11 89 12
REMARK SMILES IDX 9 13 10 14 8 15 1 16 2 17 3 18 4 19 6 20 5 21 7 22 20 23
REMARK SMILES IDX 21 24 22 25 23 26 24 28 25 29 26 30 87 31 27 32 86 33 28 34
REMARK SMILES IDX 29 35 30 36 80 37 31 38 85 39 79 40 81 41 32 42 84 43 78 44
REMARK SMILES IDX 77 45 33 47 65 48 45 49 64 50 46 51 49 52 63 53 82 54 47 55
REMARK SMILES IDX 48 56 62 58 83 59 50 60 34 61 35 62 43 63 36 64 37 65 41 66
REMARK SMILES IDX 44 67 38 68 39 69 42 70 40 71 66 72 67 73 75 74 68 75 69 76
REMARK SMILES IDX 73 77 76 78 70 79 71 80 74 81 72 82 51 83 52 84 60 85 53 86
REMARK SMILES IDX 54 87 58 88 61 89 55 90 56 91 59 92 57 93
REMARK H PARENT 17 6 22 27 81 46 49 57
REMARK Flexibility Score: inf
ROOT
ATOM      1  C   UNL A   1      31.517  30.611  26.784  1.00  0.00     0.023 C 
ENDROOT
BRANCH   1   2
ATOM      2  C   UNL A   1      32.171  29.968  25.562  1.00  0.00     0.116 C 
BRANCH   2   3
ATOM      3  N   UNL A   1      31.217  29.705  24.501  1.00  0.00    -0.356 N 
ATOM      4  C   UNL A   1      30.844  28.509  23.948  1.00  0.00     0.225 C 
ATOM      5  O   UNL A   1      29.980  28.526  23.075  1.00  0.00    -0.275 OA
ATOM      6  H   UNL A   1      30.774  30.500  24.125  1.00  0.00     0.163 HD
BRANCH   4   7
ATOM      7  C   UNL A   1      31.450  27.231  24.513  1.00  0.00     0.102 C 
ATOM      8  N   UNL A   1      32.387  25.452  23.218  1.00  0.00    -0.335 N 
ATOM      9  C   UNL A   1      30.953  25.383  23.058  1.00  0.00     0.121 C 
ATOM     10  C   UNL A   1      32.767  26.696  23.898  1.00  0.00     0.094 C 
ATOM     11  C   UNL A   1      30.445  26.084  24.306  1.00  0.00     0.037 C 
ATOM     12  C   UNL A   1      33.532  27.643  22.979  1.00  0.00     0.032 C 
BRANCH   8  13
ATOM     13  C   UNL A   1      33.195  24.423  22.766  1.00  0.00     0.257 C 
ATOM     14  O   UNL A   1      33.648  24.407  21.623  1.00  0.00    -0.269 OA
BRANCH  13  15
ATOM     15  C   UNL A   1      33.453  23.322  23.681  1.00  0.00     0.083 A 
ATOM     16  C   UNL A   1      32.153  21.337  22.566  1.00  0.00     0.069 C 
ATOM     17  C   UNL A   1      33.006  21.975  23.600  1.00  0.00     0.072 A 
ATOM     18  N   UNL A   1      33.479  21.233  24.607  1.00  0.00    -0.178 NA
ATOM     19  N   UNL A   1      34.306  22.062  25.269  1.00  0.00    -0.272 N 
ATOM     20  C   UNL A   1      34.320  23.336  24.765  1.00  0.00     0.048 A 
ATOM     21  C   UNL A   1      35.073  21.525  26.369  1.00  0.00     0.174 C 
ATOM     22  C   UNL A   1      35.153  24.433  25.320  1.00  0.00     0.067 C 
ENDBRANCH  13  15
ENDBRANCH   8  13
ENDBRANCH   4   7
ENDBRANCH   2   3
ENDBRANCH   1   2
BRANCH   1  23
ATOM     23  C   UNL A   1      31.399  32.142  26.728  1.00  0.00     0.023 C 
BRANCH  23  24
ATOM     24  C   UNL A   1      32.670  32.917  27.077  1.00  0.00     0.116 C 
BRANCH  24  25
ATOM     25  N   UNL A   1      32.395  34.232  27.626  1.00  0.00    -0.352 N 
ATOM     26  C   UNL A   1      33.005  34.882  28.669  1.00  0.00     0.251 C 
ATOM     27  H   UNL A   1      31.668  34.729  27.188  1.00  0.00     0.163 HD
ATOM     28  O   UNL A   1      32.549  35.949  29.070  1.00  0.00    -0.269 OA
BRANCH  26  29
ATOM     29  C   UNL A   1      34.185  34.297  29.346  1.00  0.00     0.039 A 
ATOM     30  C   UNL A   1      33.971  33.535  30.500  1.00  0.00     0.014 A 
ATOM     31  C   UNL A   1      35.488  34.542  28.902  1.00  0.00     0.014 A 
ATOM     32  C   UNL A   1      35.055  32.976  31.182  1.00  0.00     0.010 A 
ATOM     33  C   UNL A   1      36.571  33.970  29.574  1.00  0.00     0.010 A 
ATOM     34  C   UNL A   1      36.361  33.181  30.715  1.00  0.00    -0.014 A 
BRANCH  34  35
ATOM     35  C   UNL A   1      37.515  32.563  31.406  1.00  0.00     0.031 A 
ATOM     36  C   UNL A   1      38.282  31.447  30.761  1.00  0.00     0.074 A 
ATOM     37  C   UNL A   1      37.852  32.986  32.638  1.00  0.00     0.049 A 
ATOM     38  N   UNL A   1      39.249  30.717  31.257  1.00  0.00    -0.248 NA
ATOM     39  C   UNL A   1      37.908  31.102  29.381  1.00  0.00     0.031 C 
ATOM     40  C   UNL A   1      37.185  34.059  33.375  1.00  0.00     0.029 A 
ATOM     41  N   UNL A   1      38.838  32.555  33.489  1.00  0.00    -0.354 N 
ATOM     42  C   UNL A   1      39.580  29.807  30.264  1.00  0.00     0.074 A 
ATOM     43  C   UNL A   1      38.722  30.086  29.129  1.00  0.00     0.031 C 
ATOM     44  C   UNL A   1      37.781  34.204  34.569  1.00  0.00     0.029 A 
ATOM     45  C   UNL A   1      38.859  33.225  34.685  1.00  0.00     0.049 A 
ATOM     46  H   UNL A   1      39.469  31.835  33.262  1.00  0.00     0.167 HD
ATOM     47  C   UNL A   1      40.509  28.823  30.301  1.00  0.00     0.037 A 
ATOM     48  C   UNL A   1      39.652  33.059  35.759  1.00  0.00     0.037 A 
ATOM     49  C   UNL A   1      41.379  28.551  31.412  1.00  0.00     0.049 A 
ATOM     50  C   UNL A   1      40.711  31.999  35.751  1.00  0.00     0.074 A 
ATOM     51  C   UNL A   1      42.338  27.561  31.541  1.00  0.00     0.029 A 
ATOM     52  N   UNL A   1      41.407  29.289  32.585  1.00  0.00    -0.354 N 
ATOM     53  N   UNL A   1      40.991  31.122  34.820  1.00  0.00    -0.248 NA
ATOM     54  C   UNL A   1      41.561  31.901  36.947  1.00  0.00     0.031 C 
ATOM     55  C   UNL A   1      42.949  27.700  32.793  1.00  0.00     0.029 A 
ATOM     56  C   UNL A   1      42.372  28.781  33.439  1.00  0.00     0.049 A 
ATOM     57  H   UNL A   1      40.826  30.058  32.783  1.00  0.00     0.167 HD
ATOM     58  C   UNL A   1      42.042  30.366  35.315  1.00  0.00     0.074 A 
ATOM     59  C   UNL A   1      42.361  30.893  36.626  1.00  0.00     0.031 C 
ATOM     60  C   UNL A   1      42.679  29.321  34.736  1.00  0.00     0.037 A 
BRANCH  47  61
ATOM     61  C   UNL A   1      40.618  27.947  29.096  1.00  0.00     0.064 A 
ATOM     62  C   UNL A   1      39.787  26.831  28.934  1.00  0.00     0.173 A 
ATOM     63  C   UNL A   1      41.536  28.247  28.080  1.00  0.00     0.173 A 
ATOM     64  F   UNL A   1      38.904  26.503  29.888  1.00  0.00    -0.203 F 
ATOM     65  C   UNL A   1      39.876  26.039  27.792  1.00  0.00     0.198 A 
ATOM     66  C   UNL A   1      41.619  27.457  26.939  1.00  0.00     0.198 A 
ATOM     67  F   UNL A   1      42.354  29.305  28.200  1.00  0.00    -0.203 F 
ATOM     68  F   UNL A   1      39.084  24.966  27.659  1.00  0.00    -0.200 F 
ATOM     69  C   UNL A   1      40.790  26.353  26.795  1.00  0.00     0.200 A 
ATOM     70  F   UNL A   1      42.504  27.758  25.978  1.00  0.00    -0.200 F 
ATOM     71  F   UNL A   1      40.875  25.589  25.699  1.00  0.00    -0.200 F 
ENDBRANCH  47  61
BRANCH  48  72
ATOM     72  C   UNL A   1      39.464  33.930  36.940  1.00  0.00     0.064 A 
ATOM     73  C   UNL A   1      38.699  33.502  38.030  1.00  0.00     0.173 A 
ATOM     74  C   UNL A   1      40.064  35.193  37.004  1.00  0.00     0.173 A 
ATOM     75  F   UNL A   1      38.097  32.304  37.997  1.00  0.00    -0.203 F 
ATOM     76  C   UNL A   1      38.538  34.312  39.150  1.00  0.00     0.198 A 
ATOM     77  C   UNL A   1      39.907  36.001  38.128  1.00  0.00     0.198 A 
ATOM     78  F   UNL A   1      40.802  35.640  35.978  1.00  0.00    -0.203 F 
ATOM     79  F   UNL A   1      37.792  33.889  40.181  1.00  0.00    -0.200 F 
ATOM     80  C   UNL A   1      39.144  35.560  39.200  1.00  0.00     0.200 A 
ATOM     81  F   UNL A   1      40.494  37.205  38.173  1.00  0.00    -0.200 F 
ATOM     82  F   UNL A   1      38.991  36.338  40.279  1.00  0.00    -0.200 F 
ENDBRANCH  48  72
BRANCH  60  83
ATOM     83  C   UNL A   1      43.781  28.682  35.517  1.00  0.00     0.064 A 
ATOM     84  C   UNL A   1      45.110  29.094  35.355  1.00  0.00     0.173 A 
ATOM     85  C   UNL A   1      43.504  27.676  36.452  1.00  0.00     0.173 A 
ATOM     86  F   UNL A   1      45.417  30.047  34.462  1.00  0.00    -0.203 F 
ATOM     87  C   UNL A   1      46.130  28.514  36.103  1.00  0.00     0.198 A 
ATOM     88  C   UNL A   1      44.526  27.099  37.199  1.00  0.00     0.198 A 
ATOM     89  F   UNL A   1      42.245  27.246  36.629  1.00  0.00    -0.203 F 
ATOM     90  F   UNL A   1      47.398  28.911  35.926  1.00  0.00    -0.200 F 
ATOM     91  C   UNL A   1      45.837  27.519  37.024  1.00  0.00     0.200 A 
ATOM     92  F   UNL A   1      44.245  26.133  38.084  1.00  0.00    -0.200 F 
ATOM     93  F   UNL A   1      46.822  26.957  37.739  1.00  0.00    -0.200 F 
ENDBRANCH  60  83
ENDBRANCH  34  35
ENDBRANCH  26  29
ENDBRANCH  24  25
ENDBRANCH  23  24
ENDBRANCH   1  23
TORSDOF 13
ENDMDL
MODEL 3
REMARK VINA RESULT:     -12.4      5.423     11.193
REMARK SMILES Cc1nn(C)c(C)c1C(=O)N1CC[C@H](C(=O)NCCCCNC(=O)c2ccc(-c3c4nc(c(-c5c(F)c(F)c(F)c(F)c5F)c5ccc([nH]5)c(-c5c(F)c(F)c(F)c(F)c5F)c5nc(c(-c6c(F)c(F)c(F)c(F)c6F)c6ccc3[nH]6)C=C5)C=C4)cc2)[C@@H]1C
REMARK SMILES IDX 19 1 18 2 17 3 15 4 16 5 14 7 11 8 12 9 88 10 13 11 89 12
REMARK SMILES IDX 9 13 10 14 8 15 1 16 2 17 3 18 4 19 6 20 5 21 7 22 20 23
REMARK SMILES IDX 21 24 22 25 23 26 24 28 25 29 26 30 87 31 27 32 86 33 28 34
REMARK SMILES IDX 29 35 30 36 80 37 31 38 85 39 79 40 81 41 32 42 84 43 78 44
REMARK SMILES IDX 77 45 33 47 65 48 45 49 64 50 46 51 49 52 63 53 82 54 47 55
REMARK SMILES IDX 48 56 62 58 83 59 50 60 34 61 35 62 43 63 36 64 37 65 41 66
REMARK SMILES IDX 44 67 38 68 39 69 42 70 40 71 66 72 67 73 75 74 68 75 69 76
REMARK SMILES IDX 73 77 76 78 70 79 71 80 74 81 72 82 51 83 52 84 60 85 53 86
REMARK SMILES IDX 54 87 58 88 61 89 55 90 56 91 59 92 57 93
REMARK H PARENT 17 6 22 27 81 46 49 57
REMARK Flexibility Score: inf
ROOT
ATOM      1  C   UNL A   1      37.004  20.968  24.620  1.00  0.00     0.023 C 
ENDROOT
BRANCH   1   2
ATOM      2  C   UNL A   1      35.909  21.111  25.677  1.00  0.00     0.116 C 
BRANCH   2   3
ATOM      3  N   UNL A   1      34.674  20.459  25.282  1.00  0.00    -0.356 N 
ATOM      4  C   UNL A   1      33.497  21.018  24.859  1.00  0.00     0.225 C 
ATOM      5  O   UNL A   1      32.586  20.260  24.538  1.00  0.00    -0.275 OA
ATOM      6  H   UNL A   1      34.683  19.476  25.323  1.00  0.00     0.163 HD
BRANCH   4   7
ATOM      7  C   UNL A   1      33.424  22.534  24.722  1.00  0.00     0.102 C 
ATOM      8  N   UNL A   1      31.596  23.902  25.431  1.00  0.00    -0.335 N 
ATOM      9  C   UNL A   1      31.164  23.199  24.245  1.00  0.00     0.121 C 
ATOM     10  C   UNL A   1      32.875  23.364  25.909  1.00  0.00     0.094 C 
ATOM     11  C   UNL A   1      32.478  22.871  23.556  1.00  0.00     0.037 C 
ATOM     12  C   UNL A   1      32.731  22.642  27.245  1.00  0.00     0.032 C 
BRANCH   8  13
ATOM     13  C   UNL A   1      30.836  24.935  25.951  1.00  0.00     0.257 C 
ATOM     14  O   UNL A   1      30.042  24.758  26.873  1.00  0.00    -0.269 OA
BRANCH  13  15
ATOM     15  C   UNL A   1      30.972  26.245  25.332  1.00  0.00     0.083 A 
ATOM     16  C   UNL A   1      33.353  27.006  26.126  1.00  0.00     0.069 C 
ATOM     17  C   UNL A   1      32.065  27.151  25.400  1.00  0.00     0.072 A 
ATOM     18  N   UNL A   1      31.849  28.247  24.666  1.00  0.00    -0.178 NA
ATOM     19  N   UNL A   1      30.680  28.005  24.046  1.00  0.00    -0.272 N 
ATOM     20  C   UNL A   1      30.099  26.821  24.420  1.00  0.00     0.048 A 
ATOM     21  C   UNL A   1      30.208  28.968  23.078  1.00  0.00     0.174 C 
ATOM     22  C   UNL A   1      28.808  26.329  23.876  1.00  0.00     0.067 C 
ENDBRANCH  13  15
ENDBRANCH   8  13
ENDBRANCH   4   7
ENDBRANCH   2   3
ENDBRANCH   1   2
BRANCH   1  23
ATOM     23  C   UNL A   1      38.003  19.828  24.869  1.00  0.00     0.023 C 
BRANCH  23  24
ATOM     24  C   UNL A   1      39.040  20.085  25.962  1.00  0.00     0.116 C 
BRANCH  24  25
ATOM     25  N   UNL A   1      40.160  19.163  25.904  1.00  0.00    -0.352 N 
ATOM     26  C   UNL A   1      41.501  19.416  26.048  1.00  0.00     0.251 C 
ATOM     27  H   UNL A   1      39.924  18.222  25.738  1.00  0.00     0.163 HD
ATOM     28  O   UNL A   1      42.314  18.519  25.843  1.00  0.00    -0.269 OA
BRANCH  26  29
ATOM     29  C   UNL A   1      41.987  20.767  26.410  1.00  0.00     0.039 A 
ATOM     30  C   UNL A   1      42.218  21.682  25.377  1.00  0.00     0.014 A 
ATOM     31  C   UNL A   1      42.278  21.117  27.732  1.00  0.00     0.014 A 
ATOM     32  C   UNL A   1      42.692  22.963  25.669  1.00  0.00     0.010 A 
ATOM     33  C   UNL A   1      42.736  22.403  28.026  1.00  0.00     0.010 A 
ATOM     34  C   UNL A   1      42.943  23.335  26.997  1.00  0.00    -0.014 A 
BRANCH  34  35
ATOM     35  C   UNL A   1      43.408  24.702  27.324  1.00  0.00     0.031 A 
ATOM     36  C   UNL A   1      42.471  25.701  27.933  1.00  0.00     0.074 A 
ATOM     37  C   UNL A   1      44.674  25.055  27.036  1.00  0.00     0.049 A 
ATOM     38  N   UNL A   1      42.670  26.970  28.187  1.00  0.00    -0.248 NA
ATOM     39  C   UNL A   1      41.133  25.214  28.297  1.00  0.00     0.031 C 
ATOM     40  C   UNL A   1      45.682  24.178  26.440  1.00  0.00     0.029 A 
ATOM     41  N   UNL A   1      45.324  26.252  27.202  1.00  0.00    -0.354 N 
ATOM     42  C   UNL A   1      41.477  27.441  28.713  1.00  0.00     0.074 A 
ATOM     43  C   UNL A   1      40.561  26.318  28.757  1.00  0.00     0.031 C 
ATOM     44  C   UNL A   1      46.825  24.866  26.290  1.00  0.00     0.029 A 
ATOM     45  C   UNL A   1      46.623  26.233  26.764  1.00  0.00     0.049 A 
ATOM     46  H   UNL A   1      44.899  27.047  27.596  1.00  0.00     0.167 HD
ATOM     47  C   UNL A   1      41.171  28.697  29.113  1.00  0.00     0.037 A 
ATOM     48  C   UNL A   1      47.545  27.213  26.737  1.00  0.00     0.037 A 
ATOM     49  C   UNL A   1      42.078  29.813  29.093  1.00  0.00     0.049 A 
ATOM     50  C   UNL A   1      47.197  28.582  27.239  1.00  0.00     0.074 A 
ATOM     51  C   UNL A   1      41.844  31.126  29.464  1.00  0.00     0.029 A 
ATOM     52  N   UNL A   1      43.403  29.739  28.694  1.00  0.00    -0.354 N 
ATOM     53  N   UNL A   1      46.054  29.023  27.702  1.00  0.00    -0.248 NA
ATOM     54  C   UNL A   1      48.266  29.590  27.210  1.00  0.00     0.031 C 
ATOM     55  C   UNL A   1      43.032  31.849  29.291  1.00  0.00     0.029 A 
ATOM     56  C   UNL A   1      44.002  30.982  28.819  1.00  0.00     0.049 A 
ATOM     57  H   UNL A   1      43.851  28.926  28.370  1.00  0.00     0.167 HD
ATOM     58  C   UNL A   1      46.262  30.357  28.013  1.00  0.00     0.074 A 
ATOM     59  C   UNL A   1      47.644  30.655  27.700  1.00  0.00     0.031 C 
ATOM     60  C   UNL A   1      45.379  31.257  28.508  1.00  0.00     0.037 A 
BRANCH  47  61
ATOM     61  C   UNL A   1      39.777  28.937  29.593  1.00  0.00     0.064 A 
ATOM     62  C   UNL A   1      39.443  28.799  30.946  1.00  0.00     0.173 A 
ATOM     63  C   UNL A   1      38.777  29.339  28.698  1.00  0.00     0.173 A 
ATOM     64  F   UNL A   1      40.368  28.403  31.833  1.00  0.00    -0.203 F 
ATOM     65  C   UNL A   1      38.148  29.054  31.388  1.00  0.00     0.198 A 
ATOM     66  C   UNL A   1      37.485  29.599  29.143  1.00  0.00     0.198 A 
ATOM     67  F   UNL A   1      39.055  29.478  27.392  1.00  0.00    -0.203 F 
ATOM     68  F   UNL A   1      37.841  28.904  32.684  1.00  0.00    -0.200 F 
ATOM     69  C   UNL A   1      37.171  29.456  30.487  1.00  0.00     0.200 A 
ATOM     70  F   UNL A   1      36.541  29.982  28.272  1.00  0.00    -0.200 F 
ATOM     71  F   UNL A   1      35.925  29.699  30.914  1.00  0.00    -0.200 F 
ENDBRANCH  47  61
BRANCH  48  72
ATOM     72  C   UNL A   1      48.895  26.924  26.207  1.00  0.00     0.064 A 
ATOM     73  C   UNL A   1      49.890  26.391  27.035  1.00  0.00     0.173 A 
ATOM     74  C   UNL A   1      49.205  27.155  24.862  1.00  0.00     0.173 A 
ATOM     75  F   UNL A   1      49.634  26.171  28.333  1.00  0.00    -0.203 F 
ATOM     76  C   UNL A   1      51.155  26.099  26.534  1.00  0.00     0.198 A 
ATOM     77  C   UNL A   1      50.469  26.857  24.359  1.00  0.00     0.198 A 
ATOM     78  F   UNL A   1      48.279  27.668  24.039  1.00  0.00    -0.203 F 
ATOM     79  F   UNL A   1      52.097  25.599  27.345  1.00  0.00    -0.200 F 
ATOM     80  C   UNL A   1      51.443  26.329  25.196  1.00  0.00     0.200 A 
ATOM     81  F   UNL A   1      50.744  27.080  23.067  1.00  0.00    -0.200 F 
ATOM     82  F   UNL A   1      52.659  26.046  24.713  1.00  0.00    -0.200 F 
ENDBRANCH  48  72
BRANCH  60  83
ATOM     83  C   UNL A   1      45.884  32.645  28.737  1.00  0.00     0.064 A 
ATOM     84  C   UNL A   1      45.788  33.619  27.735  1.00  0.00     0.173 A 
ATOM     85  C   UNL A   1      46.438  33.010  29.971  1.00  0.00     0.173 A 
ATOM     86  F   UNL A   1      45.274  33.306  26.536  1.00  0.00    -0.203 F 
ATOM     87  C   UNL A   1      46.237  34.917  27.959  1.00  0.00     0.198 A 
ATOM     88  C   UNL A   1      46.883  34.309  30.193  1.00  0.00     0.198 A 
ATOM     89  F   UNL A   1      46.556  32.104  30.953  1.00  0.00    -0.203 F 
ATOM     90  F   UNL A   1      46.149  35.833  26.985  1.00  0.00    -0.200 F 
ATOM     91  C   UNL A   1      46.781  35.261  29.188  1.00  0.00     0.200 A 
ATOM     92  F   UNL A   1      47.417  34.640  31.376  1.00  0.00    -0.200 F 
ATOM     93  F   UNL A   1      47.219  36.510  29.401  1.00  0.00    -0.200 F 
ENDBRANCH  60  83
ENDBRANCH  34  35
ENDBRANCH  26  29
ENDBRANCH  24  25
ENDBRANCH  23  24
ENDBRANCH   1  23
TORSDOF 13
ENDMDL
