MODEL 1
REMARK VINA RESULT:     -13.3      0.000      0.000
REMARK SMILES Cc1cc(Cl)cc2c1O[C@H](C(F)(F)F)C(C(=O)NCCCCNC(=O)c1ccc(-c3c4nc(c(-c5c(F)c(F)c(F)c(F)c5F)c5ccc([nH]5)c(-c5c(F)c(F)c(F)c(F)c5F)c5nc(c(-c6c(F)c(F)c(F)c(F)c6F)c6ccc3[nH]6)C=C5)C=C4)cc1)=C2
REMARK SMILES IDX 21 1 20 2 19 3 18 4 16 5 17 6 15 8 1 9 2 10 3 11 8 12 4 13
REMARK SMILES IDX 7 14 9 15 5 16 6 17 89 18 10 19 11 20 12 21 13 22 14 23
REMARK SMILES IDX 22 24 23 25 24 26 25 28 26 29 27 30 88 31 28 32 87 33 29 34
REMARK SMILES IDX 30 35 31 36 81 37 32 38 86 39 80 40 82 41 33 42 85 43 79 44
REMARK SMILES IDX 78 45 34 47 66 48 46 49 65 50 47 51 50 52 64 53 83 54 48 55
REMARK SMILES IDX 49 56 63 58 84 59 51 60 35 61 36 62 44 63 37 64 38 65 42 66
REMARK SMILES IDX 45 67 39 68 40 69 43 70 41 71 67 72 68 73 76 74 69 75 70 76
REMARK SMILES IDX 74 77 77 78 71 79 72 80 75 81 73 82 52 83 53 84 61 85 54 86
REMARK SMILES IDX 55 87 59 88 62 89 56 90 57 91 60 92 58 93
REMARK H PARENT 18 7 23 27 82 46 50 57
REMARK Flexibility Score: inf
ROOT
ATOM      1  C   UNL A   1      31.576  31.991  26.865  1.00  0.00     0.023 C 
ENDROOT
BRANCH   1   2
ATOM      2  C   UNL A   1      31.859  30.488  26.802  1.00  0.00     0.023 C 
BRANCH   2   3
ATOM      3  C   UNL A   1      33.261  30.137  26.310  1.00  0.00     0.116 C 
BRANCH   3   4
ATOM      4  N   UNL A   1      33.273  29.800  24.899  1.00  0.00    -0.352 N 
ATOM      5  C   UNL A   1      33.042  28.700  24.144  1.00  0.00     0.251 C 
ATOM      6  O   UNL A   1      33.173  28.865  22.928  1.00  0.00    -0.270 OA
ATOM      7  H   UNL A   1      33.511  30.577  24.343  1.00  0.00     0.163 HD
BRANCH   5   8
ATOM      8  C   UNL A   1      32.656  27.357  24.670  1.00  0.00     0.067 C 
ATOM      9  C   UNL A   1      30.350  23.303  26.823  1.00  0.00     0.048 C 
ATOM     10  C   UNL A   1      31.755  23.627  26.402  1.00  0.00    -0.007 A 
ATOM     11  C   UNL A   1      32.776  22.677  26.538  1.00  0.00     0.027 A 
ATOM     12  C   UNL A   1      32.071  24.885  25.869  1.00  0.00     0.131 A 
ATOM     13  C   UNL A   1      34.080  22.990  26.154  1.00  0.00     0.042 A 
ATOM     14  C   UNL A   1      33.381  25.203  25.491  1.00  0.00     0.019 A 
ATOM     15  O   UNL A   1      31.059  25.801  25.781  1.00  0.00    -0.475 OA
ATOM     16  Cl  UNL A   1      35.323  21.813  26.331  1.00  0.00    -0.084 Cl
ATOM     17  C   UNL A   1      34.389  24.247  25.635  1.00  0.00     0.032 A 
ATOM     18  C   UNL A   1      33.677  26.540  24.992  1.00  0.00     0.025 C 
ATOM     19  C   UNL A   1      31.242  26.872  24.815  1.00  0.00     0.314 C 
BRANCH  19  20
ATOM     20  C   UNL A   1      30.614  26.461  23.470  1.00  0.00     0.429 C 
ATOM     21  F   UNL A   1      30.105  27.547  22.834  1.00  0.00    -0.167 F 
ATOM     22  F   UNL A   1      31.517  25.912  22.623  1.00  0.00    -0.167 F 
ATOM     23  F   UNL A   1      29.611  25.565  23.610  1.00  0.00    -0.167 F 
ENDBRANCH  19  20
ENDBRANCH   5   8
ENDBRANCH   3   4
ENDBRANCH   2   3
ENDBRANCH   1   2
BRANCH   1  24
ATOM     24  C   UNL A   1      32.751  32.863  27.306  1.00  0.00     0.116 C 
BRANCH  24  25
ATOM     25  N   UNL A   1      32.377  34.228  27.652  1.00  0.00    -0.352 N 
ATOM     26  C   UNL A   1      32.962  35.051  28.585  1.00  0.00     0.251 C 
ATOM     27  H   UNL A   1      31.614  34.606  27.158  1.00  0.00     0.163 HD
ATOM     28  O   UNL A   1      32.502  36.162  28.825  1.00  0.00    -0.269 OA
BRANCH  26  29
ATOM     29  C   UNL A   1      34.129  34.551  29.333  1.00  0.00     0.039 A 
ATOM     30  C   UNL A   1      33.918  33.922  30.562  1.00  0.00     0.014 A 
ATOM     31  C   UNL A   1      35.409  34.630  28.778  1.00  0.00     0.014 A 
ATOM     32  C   UNL A   1      34.988  33.294  31.199  1.00  0.00     0.010 A 
ATOM     33  C   UNL A   1      36.461  33.956  29.386  1.00  0.00     0.010 A 
ATOM     34  C   UNL A   1      36.254  33.271  30.595  1.00  0.00    -0.014 A 
BRANCH  34  35
ATOM     35  C   UNL A   1      37.377  32.517  31.201  1.00  0.00     0.031 A 
ATOM     36  C   UNL A   1      37.870  32.880  32.569  1.00  0.00     0.074 A 
ATOM     37  C   UNL A   1      37.987  31.551  30.489  1.00  0.00     0.049 A 
ATOM     38  N   UNL A   1      38.881  32.388  33.240  1.00  0.00    -0.248 NA
ATOM     39  C   UNL A   1      37.145  33.952  33.270  1.00  0.00     0.031 C 
ATOM     40  C   UNL A   1      37.618  31.139  29.134  1.00  0.00     0.029 A 
ATOM     41  N   UNL A   1      39.049  30.742  30.805  1.00  0.00    -0.354 N 
ATOM     42  C   UNL A   1      38.918  33.095  34.433  1.00  0.00     0.074 A 
ATOM     43  C   UNL A   1      37.862  34.082  34.377  1.00  0.00     0.031 C 
ATOM     44  C   UNL A   1      38.422  30.135  28.746  1.00  0.00     0.029 A 
ATOM     45  C   UNL A   1      39.381  29.856  29.811  1.00  0.00     0.049 A 
ATOM     46  H   UNL A   1      39.528  30.793  31.664  1.00  0.00     0.167 HD
ATOM     47  C   UNL A   1      39.745  32.919  35.489  1.00  0.00     0.037 A 
ATOM     48  C   UNL A   1      40.350  28.922  29.767  1.00  0.00     0.037 A 
ATOM     49  C   UNL A   1      40.779  31.921  35.551  1.00  0.00     0.049 A 
ATOM     50  C   UNL A   1      41.259  28.750  30.951  1.00  0.00     0.074 A 
ATOM     51  C   UNL A   1      41.646  31.639  36.592  1.00  0.00     0.029 A 
ATOM     52  N   UNL A   1      41.082  31.037  34.526  1.00  0.00    -0.354 N 
ATOM     53  N   UNL A   1      41.263  29.399  32.090  1.00  0.00    -0.248 NA
ATOM     54  C   UNL A   1      42.299  27.717  30.846  1.00  0.00     0.031 C 
ATOM     55  C   UNL A   1      42.492  30.602  36.186  1.00  0.00     0.029 A 
ATOM     56  C   UNL A   1      42.127  30.213  34.907  1.00  0.00     0.049 A 
ATOM     57  H   UNL A   1      40.620  30.999  33.657  1.00  0.00     0.167 HD
ATOM     58  C   UNL A   1      42.285  28.841  32.845  1.00  0.00     0.074 A 
ATOM     59  C   UNL A   1      42.875  27.793  32.038  1.00  0.00     0.031 C 
ATOM     60  C   UNL A   1      42.696  29.170  34.093  1.00  0.00     0.037 A 
BRANCH  47  61
ATOM     61  C   UNL A   1      39.553  33.816  36.674  1.00  0.00     0.064 A 
ATOM     62  C   UNL A   1      38.763  33.422  37.764  1.00  0.00     0.173 A 
ATOM     63  C   UNL A   1      40.192  35.062  36.739  1.00  0.00     0.173 A 
ATOM     64  F   UNL A   1      38.120  32.245  37.741  1.00  0.00    -0.203 F 
ATOM     65  C   UNL A   1      38.604  34.253  38.870  1.00  0.00     0.198 A 
ATOM     66  C   UNL A   1      40.052  35.879  37.858  1.00  0.00     0.198 A 
ATOM     67  F   UNL A   1      40.959  35.483  35.723  1.00  0.00    -0.203 F 
ATOM     68  F   UNL A   1      37.814  33.873  39.883  1.00  0.00    -0.200 F 
ATOM     69  C   UNL A   1      39.254  35.476  38.919  1.00  0.00     0.200 A 
ATOM     70  F   UNL A   1      40.686  37.058  37.908  1.00  0.00    -0.200 F 
ATOM     71  F   UNL A   1      39.108  36.272  39.988  1.00  0.00    -0.200 F 
ENDBRANCH  47  61
BRANCH  48  72
ATOM     72  C   UNL A   1      40.476  28.048  28.573  1.00  0.00     0.064 A 
ATOM     73  C   UNL A   1      41.250  28.449  27.476  1.00  0.00     0.173 A 
ATOM     74  C   UNL A   1      39.852  26.794  28.512  1.00  0.00     0.173 A 
ATOM     75  F   UNL A   1      41.851  29.649  27.484  1.00  0.00    -0.203 F 
ATOM     76  C   UNL A   1      41.389  27.632  26.356  1.00  0.00     0.198 A 
ATOM     77  C   UNL A   1      40.008  25.969  27.400  1.00  0.00     0.198 A 
ATOM     78  F   UNL A   1      39.105  26.364  29.538  1.00  0.00    -0.203 F 
ATOM     79  F   UNL A   1      42.112  28.051  25.310  1.00  0.00    -0.200 F 
ATOM     80  C   UNL A   1      40.773  26.391  26.322  1.00  0.00     0.200 A 
ATOM     81  F   UNL A   1      39.423  24.765  27.375  1.00  0.00    -0.200 F 
ATOM     82  F   UNL A   1      40.915  25.600  25.249  1.00  0.00    -0.200 F 
ENDBRANCH  48  72
BRANCH  60  83
ATOM     83  C   UNL A   1      43.824  28.377  34.679  1.00  0.00     0.064 A 
ATOM     84  C   UNL A   1      45.153  28.808  34.571  1.00  0.00     0.173 A 
ATOM     85  C   UNL A   1      43.564  27.214  35.420  1.00  0.00     0.173 A 
ATOM     86  F   UNL A   1      45.450  29.907  33.862  1.00  0.00    -0.203 F 
ATOM     87  C   UNL A   1      46.184  28.096  35.177  1.00  0.00     0.198 A 
ATOM     88  C   UNL A   1      44.595  26.518  36.042  1.00  0.00     0.198 A 
ATOM     89  F   UNL A   1      42.307  26.767  35.555  1.00  0.00    -0.203 F 
ATOM     90  F   UNL A   1      47.452  28.510  35.039  1.00  0.00    -0.200 F 
ATOM     91  C   UNL A   1      45.904  26.958  35.918  1.00  0.00     0.200 A 
ATOM     92  F   UNL A   1      44.321  25.425  36.768  1.00  0.00    -0.200 F 
ATOM     93  F   UNL A   1      46.897  26.283  36.513  1.00  0.00    -0.200 F 
ENDBRANCH  60  83
ENDBRANCH  34  35
ENDBRANCH  26  29
ENDBRANCH  24  25
ENDBRANCH   1  24
TORSDOF 12
ENDMDL
MODEL 2
REMARK VINA RESULT:     -13.3      0.168      1.602
REMARK SMILES Cc1cc(Cl)cc2c1O[C@H](C(F)(F)F)C(C(=O)NCCCCNC(=O)c1ccc(-c3c4nc(c(-c5c(F)c(F)c(F)c(F)c5F)c5ccc([nH]5)c(-c5c(F)c(F)c(F)c(F)c5F)c5nc(c(-c6c(F)c(F)c(F)c(F)c6F)c6ccc3[nH]6)C=C5)C=C4)cc1)=C2
REMARK SMILES IDX 21 1 20 2 19 3 18 4 16 5 17 6 15 8 1 9 2 10 3 11 8 12 4 13
REMARK SMILES IDX 7 14 9 15 5 16 6 17 89 18 10 19 11 20 12 21 13 22 14 23
REMARK SMILES IDX 22 24 23 25 24 26 25 28 26 29 27 30 88 31 28 32 87 33 29 34
REMARK SMILES IDX 30 35 31 36 81 37 32 38 86 39 80 40 82 41 33 42 85 43 79 44
REMARK SMILES IDX 78 45 34 47 66 48 46 49 65 50 47 51 50 52 64 53 83 54 48 55
REMARK SMILES IDX 49 56 63 58 84 59 51 60 35 61 36 62 44 63 37 64 38 65 42 66
REMARK SMILES IDX 45 67 39 68 40 69 43 70 41 71 67 72 68 73 76 74 69 75 70 76
REMARK SMILES IDX 74 77 77 78 71 79 72 80 75 81 73 82 52 83 53 84 61 85 54 86
REMARK SMILES IDX 55 87 59 88 62 89 56 90 57 91 60 92 58 93
REMARK H PARENT 18 7 23 27 82 46 50 57
REMARK Flexibility Score: inf
ROOT
ATOM      1  C   UNL A   1      31.613  32.045  26.621  1.00  0.00     0.023 C 
ENDROOT
BRANCH   1   2
ATOM      2  C   UNL A   1      31.790  30.525  26.598  1.00  0.00     0.023 C 
BRANCH   2   3
ATOM      3  C   UNL A   1      33.194  30.065  26.212  1.00  0.00     0.116 C 
BRANCH   3   4
ATOM      4  N   UNL A   1      33.273  29.675  24.816  1.00  0.00    -0.352 N 
ATOM      5  C   UNL A   1      33.069  28.549  24.093  1.00  0.00     0.251 C 
ATOM      6  O   UNL A   1      33.263  28.667  22.879  1.00  0.00    -0.270 OA
ATOM      7  H   UNL A   1      33.546  30.429  24.245  1.00  0.00     0.163 HD
BRANCH   5   8
ATOM      8  C   UNL A   1      32.644  27.230  24.648  1.00  0.00     0.067 C 
ATOM      9  C   UNL A   1      30.214  23.290  26.875  1.00  0.00     0.048 C 
ATOM     10  C   UNL A   1      31.632  23.569  26.464  1.00  0.00    -0.007 A 
ATOM     11  C   UNL A   1      32.627  22.599  26.637  1.00  0.00     0.027 A 
ATOM     12  C   UNL A   1      31.985  24.805  25.902  1.00  0.00     0.131 A 
ATOM     13  C   UNL A   1      33.942  22.870  26.260  1.00  0.00     0.042 A 
ATOM     14  C   UNL A   1      33.306  25.081  25.533  1.00  0.00     0.019 A 
ATOM     15  O   UNL A   1      30.997  25.743  25.779  1.00  0.00    -0.475 OA
ATOM     16  Cl  UNL A   1      35.154  21.667  26.483  1.00  0.00    -0.084 Cl
ATOM     17  C   UNL A   1      34.288  24.105  25.713  1.00  0.00     0.032 A 
ATOM     18  C   UNL A   1      33.641  26.397  25.003  1.00  0.00     0.025 C 
ATOM     19  C   UNL A   1      31.217  26.783  24.788  1.00  0.00     0.314 C 
BRANCH  19  20
ATOM     20  C   UNL A   1      30.595  26.353  23.446  1.00  0.00     0.429 C 
ATOM     21  F   UNL A   1      29.925  27.390  22.881  1.00  0.00    -0.167 F 
ATOM     22  F   UNL A   1      31.527  25.964  22.544  1.00  0.00    -0.167 F 
ATOM     23  F   UNL A   1      29.723  25.329  23.576  1.00  0.00    -0.167 F 
ENDBRANCH  19  20
ENDBRANCH   5   8
ENDBRANCH   3   4
ENDBRANCH   2   3
ENDBRANCH   1   2
BRANCH   1  24
ATOM     24  C   UNL A   1      32.735  32.827  27.302  1.00  0.00     0.116 C 
BRANCH  24  25
ATOM     25  N   UNL A   1      32.380  34.198  27.641  1.00  0.00    -0.352 N 
ATOM     26  C   UNL A   1      32.979  35.021  28.565  1.00  0.00     0.251 C 
ATOM     27  H   UNL A   1      31.618  34.582  27.148  1.00  0.00     0.163 HD
ATOM     28  O   UNL A   1      32.533  36.138  28.800  1.00  0.00    -0.269 OA
BRANCH  26  29
ATOM     29  C   UNL A   1      34.144  34.512  29.310  1.00  0.00     0.039 A 
ATOM     30  C   UNL A   1      33.932  33.888  30.541  1.00  0.00     0.014 A 
ATOM     31  C   UNL A   1      35.422  34.578  28.751  1.00  0.00     0.014 A 
ATOM     32  C   UNL A   1      34.997  33.252  31.177  1.00  0.00     0.010 A 
ATOM     33  C   UNL A   1      36.470  33.896  29.357  1.00  0.00     0.010 A 
ATOM     34  C   UNL A   1      36.262  33.216  30.568  1.00  0.00    -0.014 A 
BRANCH  34  35
ATOM     35  C   UNL A   1      37.379  32.454  31.172  1.00  0.00     0.031 A 
ATOM     36  C   UNL A   1      37.866  32.802  32.547  1.00  0.00     0.074 A 
ATOM     37  C   UNL A   1      37.991  31.493  30.455  1.00  0.00     0.049 A 
ATOM     38  N   UNL A   1      38.873  32.301  33.218  1.00  0.00    -0.248 NA
ATOM     39  C   UNL A   1      37.141  33.868  33.254  1.00  0.00     0.031 C 
ATOM     40  C   UNL A   1      37.628  31.095  29.093  1.00  0.00     0.029 A 
ATOM     41  N   UNL A   1      39.049  30.678  30.768  1.00  0.00    -0.354 N 
ATOM     42  C   UNL A   1      38.905  32.996  34.418  1.00  0.00     0.074 A 
ATOM     43  C   UNL A   1      37.852  33.986  34.366  1.00  0.00     0.031 C 
ATOM     44  C   UNL A   1      38.431  30.093  28.700  1.00  0.00     0.029 A 
ATOM     45  C   UNL A   1      39.385  29.801  29.767  1.00  0.00     0.049 A 
ATOM     46  H   UNL A   1      39.524  30.720  31.630  1.00  0.00     0.167 HD
ATOM     47  C   UNL A   1      39.727  32.807  35.477  1.00  0.00     0.037 A 
ATOM     48  C   UNL A   1      40.351  28.865  29.719  1.00  0.00     0.037 A 
ATOM     49  C   UNL A   1      40.758  31.807  35.534  1.00  0.00     0.049 A 
ATOM     50  C   UNL A   1      41.254  28.680  30.906  1.00  0.00     0.074 A 
ATOM     51  C   UNL A   1      41.619  31.513  36.576  1.00  0.00     0.029 A 
ATOM     52  N   UNL A   1      41.064  30.932  34.502  1.00  0.00    -0.354 N 
ATOM     53  N   UNL A   1      41.253  29.318  32.051  1.00  0.00    -0.248 NA
ATOM     54  C   UNL A   1      42.292  27.645  30.796  1.00  0.00     0.031 C 
ATOM     55  C   UNL A   1      42.464  30.477  36.165  1.00  0.00     0.029 A 
ATOM     56  C   UNL A   1      42.105  30.102  34.880  1.00  0.00     0.049 A 
ATOM     57  H   UNL A   1      40.606  30.904  33.630  1.00  0.00     0.167 HD
ATOM     58  C   UNL A   1      42.270  28.750  32.805  1.00  0.00     0.074 A 
ATOM     59  C   UNL A   1      42.862  27.708  31.991  1.00  0.00     0.031 C 
ATOM     60  C   UNL A   1      42.676  29.065  34.059  1.00  0.00     0.037 A 
BRANCH  47  61
ATOM     61  C   UNL A   1      39.530  33.694  36.669  1.00  0.00     0.064 A 
ATOM     62  C   UNL A   1      40.101  34.974  36.725  1.00  0.00     0.173 A 
ATOM     63  C   UNL A   1      38.735  33.279  37.746  1.00  0.00     0.173 A 
ATOM     64  F   UNL A   1      40.883  35.409  35.725  1.00  0.00    -0.203 F 
ATOM     65  C   UNL A   1      39.898  35.799  37.828  1.00  0.00     0.198 A 
ATOM     66  C   UNL A   1      38.513  34.117  38.835  1.00  0.00     0.198 A 
ATOM     67  F   UNL A   1      38.165  32.065  37.739  1.00  0.00    -0.203 F 
ATOM     68  F   UNL A   1      40.486  37.003  37.878  1.00  0.00    -0.200 F 
ATOM     69  C   UNL A   1      39.099  35.374  38.877  1.00  0.00     0.200 A 
ATOM     70  F   UNL A   1      37.734  33.709  39.846  1.00  0.00    -0.200 F 
ATOM     71  F   UNL A   1      38.898  36.173  39.934  1.00  0.00    -0.200 F 
ENDBRANCH  47  61
BRANCH  48  72
ATOM     72  C   UNL A   1      40.482  28.003  28.517  1.00  0.00     0.064 A 
ATOM     73  C   UNL A   1      41.255  28.416  27.425  1.00  0.00     0.173 A 
ATOM     74  C   UNL A   1      39.861  26.748  28.444  1.00  0.00     0.173 A 
ATOM     75  F   UNL A   1      41.852  29.617  27.444  1.00  0.00    -0.203 F 
ATOM     76  C   UNL A   1      41.398  27.610  26.297  1.00  0.00     0.198 A 
ATOM     77  C   UNL A   1      40.021  25.933  27.324  1.00  0.00     0.198 A 
ATOM     78  F   UNL A   1      39.114  26.306  29.465  1.00  0.00    -0.203 F 
ATOM     79  F   UNL A   1      42.120  28.041  25.255  1.00  0.00    -0.200 F 
ATOM     80  C   UNL A   1      40.786  26.367  26.251  1.00  0.00     0.200 A 
ATOM     81  F   UNL A   1      39.439  24.727  27.288  1.00  0.00    -0.200 F 
ATOM     82  F   UNL A   1      40.932  25.587  25.171  1.00  0.00    -0.200 F 
ENDBRANCH  48  72
BRANCH  60  83
ATOM     83  C   UNL A   1      43.799  28.264  34.643  1.00  0.00     0.064 A 
ATOM     84  C   UNL A   1      43.560  27.064  35.325  1.00  0.00     0.173 A 
ATOM     85  C   UNL A   1      45.130  28.663  34.452  1.00  0.00     0.173 A 
ATOM     86  F   UNL A   1      42.303  26.649  35.542  1.00  0.00    -0.203 F 
ATOM     87  C   UNL A   1      44.617  26.295  35.806  1.00  0.00     0.198 A 
ATOM     88  C   UNL A   1      46.184  27.881  34.914  1.00  0.00     0.198 A 
ATOM     89  F   UNL A   1      45.407  29.802  33.800  1.00  0.00    -0.203 F 
ATOM     90  F   UNL A   1      44.367  25.163  36.479  1.00  0.00    -0.200 F 
ATOM     91  C   UNL A   1      45.926  26.699  35.592  1.00  0.00     0.200 A 
ATOM     92  F   UNL A   1      47.449  28.268  34.697  1.00  0.00    -0.200 F 
ATOM     93  F   UNL A   1      46.942  25.950  36.043  1.00  0.00    -0.200 F 
ENDBRANCH  60  83
ENDBRANCH  34  35
ENDBRANCH  26  29
ENDBRANCH  24  25
ENDBRANCH   1  24
TORSDOF 12
ENDMDL
MODEL 3
REMARK VINA RESULT:     -13.2      0.425      7.333
REMARK SMILES Cc1cc(Cl)cc2c1O[C@H](C(F)(F)F)C(C(=O)NCCCCNC(=O)c1ccc(-c3c4nc(c(-c5c(F)c(F)c(F)c(F)c5F)c5ccc([nH]5)c(-c5c(F)c(F)c(F)c(F)c5F)c5nc(c(-c6c(F)c(F)c(F)c(F)c6F)c6ccc3[nH]6)C=C5)C=C4)cc1)=C2
REMARK SMILES IDX 21 1 20 2 19 3 18 4 16 5 17 6 15 8 1 9 2 10 3 11 8 12 4 13
REMARK SMILES IDX 7 14 9 15 5 16 6 17 89 18 10 19 11 20 12 21 13 22 14 23
REMARK SMILES IDX 22 24 23 25 24 26 25 28 26 29 27 30 88 31 28 32 87 33 29 34
REMARK SMILES IDX 30 35 31 36 81 37 32 38 86 39 80 40 82 41 33 42 85 43 79 44
REMARK SMILES IDX 78 45 34 47 66 48 46 49 65 50 47 51 50 52 64 53 83 54 48 55
REMARK SMILES IDX 49 56 63 58 84 59 51 60 35 61 36 62 44 63 37 64 38 65 42 66
REMARK SMILES IDX 45 67 39 68 40 69 43 70 41 71 67 72 68 73 76 74 69 75 70 76
REMARK SMILES IDX 74 77 77 78 71 79 72 80 75 81 73 82 52 83 53 84 61 85 54 86
REMARK SMILES IDX 55 87 59 88 62 89 56 90 57 91 60 92 58 93
REMARK H PARENT 18 7 23 27 82 46 50 57
REMARK Flexibility Score: inf
ROOT
ATOM      1  C   UNL A   1      31.781  31.848  26.877  1.00  0.00     0.023 C 
ENDROOT
BRANCH   1   2
ATOM      2  C   UNL A   1      32.067  30.345  26.930  1.00  0.00     0.023 C 
BRANCH   2   3
ATOM      3  C   UNL A   1      33.501  29.969  26.567  1.00  0.00     0.116 C 
BRANCH   3   4
ATOM      4  N   UNL A   1      33.636  29.636  25.161  1.00  0.00    -0.352 N 
ATOM      5  C   UNL A   1      33.430  28.549  24.380  1.00  0.00     0.251 C 
ATOM      6  O   UNL A   1      33.687  28.711  23.183  1.00  0.00    -0.270 OA
ATOM      7  H   UNL A   1      33.963  30.402  24.637  1.00  0.00     0.163 HD
BRANCH   5   8
ATOM      8  C   UNL A   1      32.933  27.224  24.856  1.00  0.00     0.067 C 
ATOM      9  C   UNL A   1      30.269  23.288  26.805  1.00  0.00     0.048 C 
ATOM     10  C   UNL A   1      31.711  23.528  26.459  1.00  0.00    -0.007 A 
ATOM     11  C   UNL A   1      32.660  22.511  26.621  1.00  0.00     0.027 A 
ATOM     12  C   UNL A   1      32.133  24.773  25.969  1.00  0.00     0.131 A 
ATOM     13  C   UNL A   1      33.999  22.745  26.306  1.00  0.00     0.042 A 
ATOM     14  C   UNL A   1      33.477  25.011  25.661  1.00  0.00     0.019 A 
ATOM     15  O   UNL A   1      31.187  25.755  25.855  1.00  0.00    -0.475 OA
ATOM     16  Cl  UNL A   1      35.153  21.485  26.515  1.00  0.00    -0.084 Cl
ATOM     17  C   UNL A   1      34.413  23.989  25.831  1.00  0.00     0.032 A 
ATOM     18  C   UNL A   1      33.883  26.336  25.208  1.00  0.00     0.025 C 
ATOM     19  C   UNL A   1      31.486  26.830  24.923  1.00  0.00     0.314 C 
BRANCH  19  20
ATOM     20  C   UNL A   1      30.898  26.488  23.541  1.00  0.00     0.429 C 
ATOM     21  F   UNL A   1      29.884  25.594  23.666  1.00  0.00    -0.167 F 
ATOM     22  F   UNL A   1      30.377  27.571  22.918  1.00  0.00    -0.167 F 
ATOM     23  F   UNL A   1      31.811  25.952  22.701  1.00  0.00    -0.167 F 
ENDBRANCH  19  20
ENDBRANCH   5   8
ENDBRANCH   3   4
ENDBRANCH   2   3
ENDBRANCH   1   2
BRANCH   1  24
ATOM     24  C   UNL A   1      32.890  32.747  27.422  1.00  0.00     0.116 C 
BRANCH  24  25
ATOM     25  N   UNL A   1      32.465  34.114  27.690  1.00  0.00    -0.352 N 
ATOM     26  C   UNL A   1      33.001  35.002  28.593  1.00  0.00     0.251 C 
ATOM     27  H   UNL A   1      31.702  34.442  27.161  1.00  0.00     0.163 HD
ATOM     28  O   UNL A   1      32.500  36.107  28.766  1.00  0.00    -0.269 OA
BRANCH  26  29
ATOM     29  C   UNL A   1      34.165  34.579  29.391  1.00  0.00     0.039 A 
ATOM     30  C   UNL A   1      33.947  34.020  30.651  1.00  0.00     0.014 A 
ATOM     31  C   UNL A   1      35.453  34.657  28.854  1.00  0.00     0.014 A 
ATOM     32  C   UNL A   1      35.020  33.460  31.344  1.00  0.00     0.010 A 
ATOM     33  C   UNL A   1      36.510  34.049  29.520  1.00  0.00     0.010 A 
ATOM     34  C   UNL A   1      36.298  33.434  30.765  1.00  0.00    -0.014 A 
BRANCH  34  35
ATOM     35  C   UNL A   1      37.427  32.748  31.435  1.00  0.00     0.031 A 
ATOM     36  C   UNL A   1      38.123  31.610  30.752  1.00  0.00     0.074 A 
ATOM     37  C   UNL A   1      37.779  33.113  32.683  1.00  0.00     0.049 A 
ATOM     38  N   UNL A   1      39.082  30.839  31.200  1.00  0.00    -0.248 NA
ATOM     39  C   UNL A   1      37.668  31.278  29.393  1.00  0.00     0.031 C 
ATOM     40  C   UNL A   1      37.147  34.180  33.461  1.00  0.00     0.029 A 
ATOM     41  N   UNL A   1      38.751  32.624  33.518  1.00  0.00    -0.354 N 
ATOM     42  C   UNL A   1      39.337  29.930  30.184  1.00  0.00     0.074 A 
ATOM     43  C   UNL A   1      38.403  30.210  29.116  1.00  0.00     0.031 C 
ATOM     44  C   UNL A   1      37.767  34.284  34.647  1.00  0.00     0.029 A 
ATOM     45  C   UNL A   1      38.815  33.271  34.726  1.00  0.00     0.049 A 
ATOM     46  H   UNL A   1      39.345  31.878  33.273  1.00  0.00     0.167 HD
ATOM     47  C   UNL A   1      40.284  28.963  30.139  1.00  0.00     0.037 A 
ATOM     48  C   UNL A   1      39.632  33.070  35.778  1.00  0.00     0.037 A 
ATOM     49  C   UNL A   1      41.227  28.703  31.193  1.00  0.00     0.049 A 
ATOM     50  C   UNL A   1      40.671  31.987  35.704  1.00  0.00     0.074 A 
ATOM     51  C   UNL A   1      42.247  27.769  31.227  1.00  0.00     0.029 A 
ATOM     52  N   UNL A   1      41.265  29.385  32.401  1.00  0.00    -0.354 N 
ATOM     53  N   UNL A   1      40.929  31.156  34.724  1.00  0.00    -0.248 NA
ATOM     54  C   UNL A   1      41.533  31.812  36.882  1.00  0.00     0.031 C 
ATOM     55  C   UNL A   1      42.887  27.868  32.467  1.00  0.00     0.029 A 
ATOM     56  C   UNL A   1      42.288  28.887  33.190  1.00  0.00     0.049 A 
ATOM     57  H   UNL A   1      40.657  30.115  32.658  1.00  0.00     0.167 HD
ATOM     58  C   UNL A   1      41.993  30.376  35.154  1.00  0.00     0.074 A 
ATOM     59  C   UNL A   1      42.340  30.839  36.482  1.00  0.00     0.031 C 
ATOM     60  C   UNL A   1      42.623  29.367  34.506  1.00  0.00     0.037 A 
BRANCH  47  61
ATOM     61  C   UNL A   1      40.356  28.126  28.899  1.00  0.00     0.064 A 
ATOM     62  C   UNL A   1      41.130  28.522  27.798  1.00  0.00     0.173 A 
ATOM     63  C   UNL A   1      39.680  26.900  28.822  1.00  0.00     0.173 A 
ATOM     64  F   UNL A   1      41.783  29.693  27.819  1.00  0.00    -0.203 F 
ATOM     65  C   UNL A   1      41.208  27.729  26.656  1.00  0.00     0.198 A 
ATOM     66  C   UNL A   1      39.780  26.098  27.689  1.00  0.00     0.198 A 
ATOM     67  F   UNL A   1      38.928  26.477  29.849  1.00  0.00    -0.203 F 
ATOM     68  F   UNL A   1      41.922  28.145  25.601  1.00  0.00    -0.200 F 
ATOM     69  C   UNL A   1      40.539  26.516  26.605  1.00  0.00     0.200 A 
ATOM     70  F   UNL A   1      39.141  24.921  27.643  1.00  0.00    -0.200 F 
ATOM     71  F   UNL A   1      40.622  25.749  25.509  1.00  0.00    -0.200 F 
ENDBRANCH  47  61
BRANCH  48  72
ATOM     72  C   UNL A   1      39.526  33.948  36.970  1.00  0.00     0.064 A 
ATOM     73  C   UNL A   1      40.182  35.185  37.004  1.00  0.00     0.173 A 
ATOM     74  C   UNL A   1      38.755  33.585  38.084  1.00  0.00     0.173 A 
ATOM     75  F   UNL A   1      40.946  35.566  35.969  1.00  0.00    -0.203 F 
ATOM     76  C   UNL A   1      40.079  36.026  38.111  1.00  0.00     0.198 A 
ATOM     77  C   UNL A   1      38.635  34.434  39.182  1.00  0.00     0.198 A 
ATOM     78  F   UNL A   1      38.105  32.412  38.097  1.00  0.00    -0.203 F 
ATOM     79  F   UNL A   1      40.738  37.191  38.129  1.00  0.00    -0.200 F 
ATOM     80  C   UNL A   1      39.300  35.652  39.195  1.00  0.00     0.200 A 
ATOM     81  F   UNL A   1      37.872  34.077  40.223  1.00  0.00    -0.200 F 
ATOM     82  F   UNL A   1      39.192  36.465  40.256  1.00  0.00    -0.200 F 
ENDBRANCH  48  72
BRANCH  60  83
ATOM     83  C   UNL A   1      43.770  28.706  35.209  1.00  0.00     0.064 A 
ATOM     84  C   UNL A   1      45.082  29.175  35.064  1.00  0.00     0.173 A 
ATOM     85  C   UNL A   1      43.541  27.641  36.093  1.00  0.00     0.173 A 
ATOM     86  F   UNL A   1      45.350  30.183  34.221  1.00  0.00    -0.203 F 
ATOM     87  C   UNL A   1      46.129  28.593  35.774  1.00  0.00     0.198 A 
ATOM     88  C   UNL A   1      44.587  27.076  36.817  1.00  0.00     0.198 A 
ATOM     89  F   UNL A   1      42.301  27.162  36.268  1.00  0.00    -0.203 F 
ATOM     90  F   UNL A   1      47.382  29.038  35.602  1.00  0.00    -0.200 F 
ATOM     91  C   UNL A   1      45.880  27.551  36.655  1.00  0.00     0.200 A 
ATOM     92  F   UNL A   1      44.342  26.077  37.676  1.00  0.00    -0.200 F 
ATOM     93  F   UNL A   1      46.887  27.002  37.348  1.00  0.00    -0.200 F 
ENDBRANCH  60  83
ENDBRANCH  34  35
ENDBRANCH  26  29
ENDBRANCH  24  25
ENDBRANCH   1  24
TORSDOF 12
ENDMDL
