MODEL 1
REMARK VINA RESULT:     -13.0      0.000      0.000
REMARK SMILES O=C(C[C@H](C(=O)NCCCCNC(=O)c1ccc(-c2c3nc(c(-c4c(F)c(F)c(F)c(F)c4F)c4ccc([nH]4)c(-c4c(F)c(F)c(F)c(F)c4F)c4nc(c(-c5c(F)c(F)c(F)c(F)c5F)c5ccc2[nH]5)C=C4)C=C3)cc1)c1ccccc1)Nc1ccc(Cl)cc1Cl
REMARK SMILES IDX 9 1 8 2 7 3 5 4 6 5 4 7 3 8 2 9 1 10 84 11 85 13 86 14 91 15
REMARK SMILES IDX 87 16 90 17 92 18 88 19 89 20 78 21 79 22 83 23 80 24 82 25
REMARK SMILES IDX 81 26 10 27 11 28 12 29 13 30 14 32 15 33 16 34 77 35 17 36
REMARK SMILES IDX 76 37 18 38 19 39 20 40 70 41 21 42 75 43 69 44 71 45 22 46
REMARK SMILES IDX 74 47 68 48 67 49 23 51 55 52 35 53 54 54 36 55 39 56 53 57
REMARK SMILES IDX 72 58 37 59 38 60 52 62 73 63 40 64 24 65 25 66 33 67 26 68
REMARK SMILES IDX 27 69 31 70 34 71 28 72 29 73 32 74 30 75 56 76 57 77 65 78
REMARK SMILES IDX 58 79 59 80 63 81 66 82 60 83 61 84 64 85 62 86 41 87 42 88
REMARK SMILES IDX 50 89 43 90 44 91 48 92 51 93 45 94 46 95 49 96 47 97
REMARK H PARENT 7 6 84 12 12 31 71 50 39 61
REMARK Flexibility Score: inf
ROOT
ATOM      1  C   UNL A   1      31.861  28.092  27.187  1.00  0.00     0.023 C 
ENDROOT
BRANCH   1   2
ATOM      2  C   UNL A   1      32.371  26.720  26.753  1.00  0.00     0.116 C 
BRANCH   2   3
ATOM      3  N   UNL A   1      31.336  25.715  26.595  1.00  0.00    -0.356 N 
ATOM      4  C   UNL A   1      31.168  24.702  25.696  1.00  0.00     0.228 C 
ATOM      5  O   UNL A   1      30.720  23.664  26.201  1.00  0.00    -0.274 OA
ATOM      6  H   UNL A   1      30.617  25.776  27.265  1.00  0.00     0.163 HD
BRANCH   4   7
ATOM      7  C   UNL A   1      31.230  24.888  24.155  1.00  0.00     0.118 C 
BRANCH   7   8
ATOM      8  C   UNL A   1      30.996  23.702  23.212  1.00  0.00     0.118 C 
BRANCH   8   9
ATOM      9  C   UNL A   1      32.148  22.725  23.120  1.00  0.00     0.225 C 
ATOM     10  O   UNL A   1      33.059  22.840  22.316  1.00  0.00    -0.275 OA
ATOM     11  N   UNL A   1      32.002  21.657  23.997  1.00  0.00    -0.325 N 
ATOM     12  H   UNL A   1      31.444  21.799  24.795  1.00  0.00     0.169 HD
BRANCH  11  13
ATOM     13  C   UNL A   1      32.594  20.379  23.832  1.00  0.00     0.060 A 
ATOM     14  C   UNL A   1      32.074  19.442  22.928  1.00  0.00     0.029 A 
ATOM     15  C   UNL A   1      33.649  19.986  24.674  1.00  0.00     0.066 A 
ATOM     16  C   UNL A   1      32.594  18.149  22.862  1.00  0.00     0.023 A 
ATOM     17  C   UNL A   1      34.192  18.700  24.588  1.00  0.00     0.043 A 
ATOM     18  Cl  UNL A   1      34.294  21.073  25.854  1.00  0.00    -0.082 Cl
ATOM     19  C   UNL A   1      33.660  17.789  23.680  1.00  0.00     0.042 A 
ATOM     20  Cl  UNL A   1      34.304  16.198  23.578  1.00  0.00    -0.084 Cl
ENDBRANCH  11  13
ENDBRANCH   8   9
ENDBRANCH   7   8
BRANCH   7  21
ATOM     21  C   UNL A   1      30.465  26.133  23.667  1.00  0.00    -0.035 A 
ATOM     22  C   UNL A   1      29.110  26.345  23.968  1.00  0.00     0.004 A 
ATOM     23  C   UNL A   1      31.130  27.107  22.900  1.00  0.00     0.004 A 
ATOM     24  C   UNL A   1      28.451  27.504  23.548  1.00  0.00     0.000 A 
ATOM     25  C   UNL A   1      30.467  28.264  22.475  1.00  0.00     0.000 A 
ATOM     26  C   UNL A   1      29.129  28.465  22.805  1.00  0.00     0.000 A 
ENDBRANCH   7  21
ENDBRANCH   4   7
ENDBRANCH   2   3
ENDBRANCH   1   2
BRANCH   1  27
ATOM     27  C   UNL A   1      31.388  28.981  26.014  1.00  0.00     0.023 C 
BRANCH  27  28
ATOM     28  C   UNL A   1      32.374  30.090  25.642  1.00  0.00     0.116 C 
BRANCH  28  29
ATOM     29  N   UNL A   1      32.384  31.221  26.552  1.00  0.00    -0.352 N 
ATOM     30  C   UNL A   1      33.339  31.877  27.283  1.00  0.00     0.251 C 
ATOM     31  H   UNL A   1      31.488  31.610  26.673  1.00  0.00     0.163 HD
ATOM     32  O   UNL A   1      33.066  33.031  27.626  1.00  0.00    -0.269 OA
BRANCH  30  33
ATOM     33  C   UNL A   1      34.606  31.281  27.789  1.00  0.00     0.039 A 
ATOM     34  C   UNL A   1      35.664  32.186  28.002  1.00  0.00     0.014 A 
ATOM     35  C   UNL A   1      34.829  29.932  28.064  1.00  0.00     0.014 A 
ATOM     36  C   UNL A   1      36.881  31.768  28.549  1.00  0.00     0.010 A 
ATOM     37  C   UNL A   1      36.038  29.511  28.637  1.00  0.00     0.010 A 
ATOM     38  C   UNL A   1      37.057  30.430  28.914  1.00  0.00    -0.014 A 
BRANCH  38  39
ATOM     39  C   UNL A   1      38.219  30.026  29.743  1.00  0.00     0.031 A 
ATOM     40  C   UNL A   1      38.424  30.547  31.132  1.00  0.00     0.074 A 
ATOM     41  C   UNL A   1      39.140  29.227  29.168  1.00  0.00     0.049 A 
ATOM     42  N   UNL A   1      39.374  30.260  31.987  1.00  0.00    -0.248 NA
ATOM     43  C   UNL A   1      37.453  31.536  31.619  1.00  0.00     0.031 C 
ATOM     44  C   UNL A   1      39.074  28.735  27.789  1.00  0.00     0.029 A 
ATOM     45  N   UNL A   1      40.311  28.704  29.651  1.00  0.00    -0.354 N 
ATOM     46  C   UNL A   1      39.112  31.021  33.118  1.00  0.00     0.074 A 
ATOM     47  C   UNL A   1      37.942  31.823  32.818  1.00  0.00     0.031 C 
ATOM     48  C   UNL A   1      40.151  27.976  27.541  1.00  0.00     0.029 A 
ATOM     49  C   UNL A   1      40.990  27.940  28.733  1.00  0.00     0.049 A 
ATOM     50  H   UNL A   1      40.636  28.862  30.567  1.00  0.00     0.167 HD
ATOM     51  C   UNL A   1      39.783  31.032  34.297  1.00  0.00     0.037 A 
ATOM     52  C   UNL A   1      42.155  27.276  28.842  1.00  0.00     0.037 A 
ATOM     53  C   UNL A   1      40.961  30.240  34.560  1.00  0.00     0.049 A 
ATOM     54  C   UNL A   1      42.869  27.293  30.164  1.00  0.00     0.074 A 
ATOM     55  C   UNL A   1      41.682  30.122  35.735  1.00  0.00     0.029 A 
ATOM     56  N   UNL A   1      41.606  29.446  33.619  1.00  0.00    -0.354 N 
ATOM     57  N   UNL A   1      42.544  27.919  31.271  1.00  0.00    -0.248 NA
ATOM     58  C   UNL A   1      44.096  26.495  30.262  1.00  0.00     0.031 C 
ATOM     59  C   UNL A   1      42.794  29.307  35.490  1.00  0.00     0.029 A 
ATOM     60  C   UNL A   1      42.731  28.861  34.180  1.00  0.00     0.049 A 
ATOM     61  H   UNL A   1      41.306  29.317  32.690  1.00  0.00     0.167 HD
ATOM     62  C   UNL A   1      43.507  27.567  32.205  1.00  0.00     0.074 A 
ATOM     63  C   UNL A   1      44.416  26.656  31.538  1.00  0.00     0.031 C 
ATOM     64  C   UNL A   1      43.628  27.959  33.498  1.00  0.00     0.037 A 
BRANCH  51  65
ATOM     65  C   UNL A   1      39.263  31.921  35.396  1.00  0.00     0.064 A 
ATOM     66  C   UNL A   1      38.441  31.422  36.420  1.00  0.00     0.173 A 
ATOM     67  C   UNL A   1      39.639  33.272  35.466  1.00  0.00     0.173 A 
ATOM     68  F   UNL A   1      38.052  30.139  36.408  1.00  0.00    -0.203 F 
ATOM     69  C   UNL A   1      37.992  32.247  37.450  1.00  0.00     0.198 A 
ATOM     70  C   UNL A   1      39.213  34.086  36.514  1.00  0.00     0.198 A 
ATOM     71  F   UNL A   1      40.433  33.804  34.524  1.00  0.00    -0.203 F 
ATOM     72  F   UNL A   1      37.171  31.755  38.389  1.00  0.00    -0.200 F 
ATOM     73  C   UNL A   1      38.384  33.575  37.501  1.00  0.00     0.200 A 
ATOM     74  F   UNL A   1      39.611  35.365  36.573  1.00  0.00    -0.200 F 
ATOM     75  F   UNL A   1      37.960  34.364  38.498  1.00  0.00    -0.200 F 
ENDBRANCH  51  65
BRANCH  52  76
ATOM     76  C   UNL A   1      42.673  26.499  27.687  1.00  0.00     0.064 A 
ATOM     77  C   UNL A   1      43.582  27.069  26.785  1.00  0.00     0.173 A 
ATOM     78  C   UNL A   1      42.298  25.164  27.476  1.00  0.00     0.173 A 
ATOM     79  F   UNL A   1      43.965  28.346  26.937  1.00  0.00    -0.203 F 
ATOM     80  C   UNL A   1      44.078  26.342  25.705  1.00  0.00     0.198 A 
ATOM     81  C   UNL A   1      42.820  24.427  26.414  1.00  0.00     0.198 A 
ATOM     82  F   UNL A   1      41.445  24.564  28.320  1.00  0.00    -0.203 F 
ATOM     83  F   UNL A   1      44.913  26.927  24.835  1.00  0.00    -0.200 F 
ATOM     84  C   UNL A   1      43.703  25.020  25.525  1.00  0.00     0.200 A 
ATOM     85  F   UNL A   1      42.472  23.142  26.257  1.00  0.00    -0.200 F 
ATOM     86  F   UNL A   1      44.189  24.317  24.492  1.00  0.00    -0.200 F 
ENDBRANCH  52  76
BRANCH  64  87
ATOM     87  C   UNL A   1      44.771  27.378  34.281  1.00  0.00     0.064 A 
ATOM     88  C   UNL A   1      44.650  26.164  34.974  1.00  0.00     0.173 A 
ATOM     89  C   UNL A   1      46.008  28.037  34.323  1.00  0.00     0.173 A 
ATOM     90  F   UNL A   1      43.483  25.502  34.980  1.00  0.00    -0.203 F 
ATOM     91  C   UNL A   1      45.713  25.653  35.713  1.00  0.00     0.198 A 
ATOM     92  C   UNL A   1      47.081  27.505  35.032  1.00  0.00     0.198 A 
ATOM     93  F   UNL A   1      46.180  29.197  33.672  1.00  0.00    -0.203 F 
ATOM     94  F   UNL A   1      45.555  24.527  36.421  1.00  0.00    -0.200 F 
ATOM     95  C   UNL A   1      46.930  26.320  35.735  1.00  0.00     0.200 A 
ATOM     96  F   UNL A   1      48.260  28.142  35.039  1.00  0.00    -0.200 F 
ATOM     97  F   UNL A   1      47.953  25.825  36.444  1.00  0.00    -0.200 F 
ENDBRANCH  64  87
ENDBRANCH  38  39
ENDBRANCH  30  33
ENDBRANCH  28  29
ENDBRANCH  27  28
ENDBRANCH   1  27
TORSDOF 15
ENDMDL
MODEL 2
REMARK VINA RESULT:     -13.0      1.243      2.329
REMARK SMILES O=C(C[C@H](C(=O)NCCCCNC(=O)c1ccc(-c2c3nc(c(-c4c(F)c(F)c(F)c(F)c4F)c4ccc([nH]4)c(-c4c(F)c(F)c(F)c(F)c4F)c4nc(c(-c5c(F)c(F)c(F)c(F)c5F)c5ccc2[nH]5)C=C4)C=C3)cc1)c1ccccc1)Nc1ccc(Cl)cc1Cl
REMARK SMILES IDX 9 1 8 2 7 3 5 4 6 5 4 7 3 8 2 9 1 10 84 11 85 13 86 14 91 15
REMARK SMILES IDX 87 16 90 17 92 18 88 19 89 20 78 21 79 22 83 23 80 24 82 25
REMARK SMILES IDX 81 26 10 27 11 28 12 29 13 30 14 32 15 33 16 34 77 35 17 36
REMARK SMILES IDX 76 37 18 38 19 39 20 40 70 41 21 42 75 43 69 44 71 45 22 46
REMARK SMILES IDX 74 47 68 48 67 49 23 51 55 52 35 53 54 54 36 55 39 56 53 57
REMARK SMILES IDX 72 58 37 59 38 60 52 62 73 63 40 64 24 65 25 66 33 67 26 68
REMARK SMILES IDX 27 69 31 70 34 71 28 72 29 73 32 74 30 75 56 76 57 77 65 78
REMARK SMILES IDX 58 79 59 80 63 81 66 82 60 83 61 84 64 85 62 86 41 87 42 88
REMARK SMILES IDX 50 89 43 90 44 91 48 92 51 93 45 94 46 95 49 96 47 97
REMARK H PARENT 7 6 84 12 12 31 71 50 39 61
REMARK Flexibility Score: inf
ROOT
ATOM      1  C   UNL A   1      32.916  29.195  24.713  1.00  0.00     0.023 C 
ENDROOT
BRANCH   1   2
ATOM      2  C   UNL A   1      32.898  29.016  23.197  1.00  0.00     0.116 C 
BRANCH   2   3
ATOM      3  N   UNL A   1      32.450  27.711  22.750  1.00  0.00    -0.356 N 
ATOM      4  C   UNL A   1      31.253  27.264  22.268  1.00  0.00     0.228 C 
ATOM      5  O   UNL A   1      31.368  26.449  21.343  1.00  0.00    -0.274 OA
ATOM      6  H   UNL A   1      33.142  27.012  22.805  1.00  0.00     0.163 HD
BRANCH   4   7
ATOM      7  C   UNL A   1      29.891  27.494  22.977  1.00  0.00     0.118 C 
BRANCH   7   8
ATOM      8  C   UNL A   1      29.692  27.097  24.443  1.00  0.00     0.118 C 
BRANCH   8   9
ATOM      9  C   UNL A   1      30.610  25.999  24.936  1.00  0.00     0.225 C 
ATOM     10  O   UNL A   1      31.670  26.217  25.499  1.00  0.00    -0.275 OA
ATOM     11  N   UNL A   1      30.141  24.734  24.603  1.00  0.00    -0.325 N 
ATOM     12  H   UNL A   1      29.174  24.636  24.449  1.00  0.00     0.169 HD
BRANCH  11  13
ATOM     13  C   UNL A   1      30.946  23.575  24.468  1.00  0.00     0.060 A 
ATOM     14  C   UNL A   1      31.591  23.267  23.262  1.00  0.00     0.029 A 
ATOM     15  C   UNL A   1      31.009  22.643  25.519  1.00  0.00     0.066 A 
ATOM     16  C   UNL A   1      32.282  22.064  23.107  1.00  0.00     0.023 A 
ATOM     17  C   UNL A   1      31.726  21.452  25.378  1.00  0.00     0.043 A 
ATOM     18  Cl  UNL A   1      30.184  22.934  27.011  1.00  0.00    -0.082 Cl
ATOM     19  C   UNL A   1      32.360  21.170  24.170  1.00  0.00     0.042 A 
ATOM     20  Cl  UNL A   1      33.229  19.699  23.976  1.00  0.00    -0.084 Cl
ENDBRANCH  11  13
ENDBRANCH   8   9
ENDBRANCH   7   8
BRANCH   7  21
ATOM     21  C   UNL A   1      29.296  28.889  22.702  1.00  0.00    -0.035 A 
ATOM     22  C   UNL A   1      29.770  29.713  21.669  1.00  0.00     0.004 A 
ATOM     23  C   UNL A   1      28.238  29.368  23.496  1.00  0.00     0.004 A 
ATOM     24  C   UNL A   1      29.186  30.958  21.415  1.00  0.00     0.000 A 
ATOM     25  C   UNL A   1      27.659  30.617  23.244  1.00  0.00     0.000 A 
ATOM     26  C   UNL A   1      28.128  31.408  22.199  1.00  0.00     0.000 A 
ENDBRANCH   7  21
ENDBRANCH   4   7
ENDBRANCH   2   3
ENDBRANCH   1   2
BRANCH   1  27
ATOM     27  C   UNL A   1      31.759  30.067  25.252  1.00  0.00     0.023 C 
BRANCH  27  28
ATOM     28  C   UNL A   1      31.806  30.291  26.765  1.00  0.00     0.116 C 
BRANCH  28  29
ATOM     29  N   UNL A   1      32.192  31.631  27.167  1.00  0.00    -0.352 N 
ATOM     30  C   UNL A   1      33.376  32.266  27.436  1.00  0.00     0.251 C 
ATOM     31  H   UNL A   1      31.416  32.227  27.274  1.00  0.00     0.163 HD
ATOM     32  O   UNL A   1      33.364  33.498  27.357  1.00  0.00    -0.269 OA
BRANCH  30  33
ATOM     33  C   UNL A   1      34.622  31.611  27.921  1.00  0.00     0.039 A 
ATOM     34  C   UNL A   1      35.717  32.469  28.139  1.00  0.00     0.014 A 
ATOM     35  C   UNL A   1      34.792  30.250  28.172  1.00  0.00     0.014 A 
ATOM     36  C   UNL A   1      36.921  31.993  28.668  1.00  0.00     0.010 A 
ATOM     37  C   UNL A   1      35.988  29.771  28.727  1.00  0.00     0.010 A 
ATOM     38  C   UNL A   1      37.046  30.643  29.010  1.00  0.00    -0.014 A 
BRANCH  38  39
ATOM     39  C   UNL A   1      38.197  30.179  29.822  1.00  0.00     0.031 A 
ATOM     40  C   UNL A   1      38.431  30.665  31.220  1.00  0.00     0.074 A 
ATOM     41  C   UNL A   1      39.083  29.358  29.225  1.00  0.00     0.049 A 
ATOM     42  N   UNL A   1      39.375  30.325  32.062  1.00  0.00    -0.248 NA
ATOM     43  C   UNL A   1      37.501  31.679  31.733  1.00  0.00     0.031 C 
ATOM     44  C   UNL A   1      38.989  28.896  27.838  1.00  0.00     0.029 A 
ATOM     45  N   UNL A   1      40.237  28.782  29.689  1.00  0.00    -0.354 N 
ATOM     46  C   UNL A   1      39.149  31.072  33.210  1.00  0.00     0.074 A 
ATOM     47  C   UNL A   1      38.009  31.924  32.935  1.00  0.00     0.031 C 
ATOM     48  C   UNL A   1      40.034  28.102  27.566  1.00  0.00     0.029 A 
ATOM     49  C   UNL A   1      40.879  28.011  28.751  1.00  0.00     0.049 A 
ATOM     50  H   UNL A   1      40.573  28.909  30.606  1.00  0.00     0.167 HD
ATOM     51  C   UNL A   1      39.827  31.035  34.384  1.00  0.00     0.037 A 
ATOM     52  C   UNL A   1      42.019  27.301  28.839  1.00  0.00     0.037 A 
ATOM     53  C   UNL A   1      40.977  30.194  34.622  1.00  0.00     0.049 A 
ATOM     54  C   UNL A   1      42.743  27.265  30.156  1.00  0.00     0.074 A 
ATOM     55  C   UNL A   1      41.701  30.025  35.790  1.00  0.00     0.029 A 
ATOM     56  N   UNL A   1      41.585  29.394  33.662  1.00  0.00    -0.354 N 
ATOM     57  N   UNL A   1      42.449  27.880  31.277  1.00  0.00    -0.248 NA
ATOM     58  C   UNL A   1      43.939  26.419  30.229  1.00  0.00     0.031 C 
ATOM     59  C   UNL A   1      42.779  29.174  35.520  1.00  0.00     0.029 A 
ATOM     60  C   UNL A   1      42.690  28.756  34.202  1.00  0.00     0.049 A 
ATOM     61  H   UNL A   1      41.275  29.296  32.732  1.00  0.00     0.167 HD
ATOM     62  C   UNL A   1      43.404  27.474  32.197  1.00  0.00     0.074 A 
ATOM     63  C   UNL A   1      44.274  26.542  31.505  1.00  0.00     0.031 C 
ATOM     64  C   UNL A   1      43.548  27.836  33.496  1.00  0.00     0.037 A 
BRANCH  51  65
ATOM     65  C   UNL A   1      39.349  31.921  35.504  1.00  0.00     0.064 A 
ATOM     66  C   UNL A   1      38.446  31.458  36.475  1.00  0.00     0.173 A 
ATOM     67  C   UNL A   1      39.844  33.227  35.649  1.00  0.00     0.173 A 
ATOM     68  F   UNL A   1      37.942  30.218  36.390  1.00  0.00    -0.203 F 
ATOM     69  C   UNL A   1      38.034  32.276  37.526  1.00  0.00     0.198 A 
ATOM     70  C   UNL A   1      39.455  34.031  36.718  1.00  0.00     0.198 A 
ATOM     71  F   UNL A   1      40.719  33.722  34.761  1.00  0.00    -0.203 F 
ATOM     72  F   UNL A   1      37.137  31.823  38.412  1.00  0.00    -0.200 F 
ATOM     73  C   UNL A   1      38.545  33.558  37.651  1.00  0.00     0.200 A 
ATOM     74  F   UNL A   1      39.965  35.264  36.850  1.00  0.00    -0.200 F 
ATOM     75  F   UNL A   1      38.156  34.340  38.668  1.00  0.00    -0.200 F 
ENDBRANCH  51  65
BRANCH  52  76
ATOM     76  C   UNL A   1      42.500  26.528  27.665  1.00  0.00     0.064 A 
ATOM     77  C   UNL A   1      43.438  27.075  26.778  1.00  0.00     0.173 A 
ATOM     78  C   UNL A   1      42.059  25.219  27.421  1.00  0.00     0.173 A 
ATOM     79  F   UNL A   1      43.884  28.327  26.962  1.00  0.00    -0.203 F 
ATOM     80  C   UNL A   1      43.898  26.351  25.680  1.00  0.00     0.198 A 
ATOM     81  C   UNL A   1      42.545  24.484  26.341  1.00  0.00     0.198 A 
ATOM     82  F   UNL A   1      41.175  24.642  28.249  1.00  0.00    -0.203 F 
ATOM     83  F   UNL A   1      44.764  26.914  24.825  1.00  0.00    -0.200 F 
ATOM     84  C   UNL A   1      43.458  25.054  25.467  1.00  0.00     0.200 A 
ATOM     85  F   UNL A   1      42.134  23.223  26.152  1.00  0.00    -0.200 F 
ATOM     86  F   UNL A   1      43.911  24.354  24.417  1.00  0.00    -0.200 F 
ENDBRANCH  52  76
BRANCH  64  87
ATOM     87  C   UNL A   1      44.674  27.196  34.259  1.00  0.00     0.064 A 
ATOM     88  C   UNL A   1      45.949  27.777  34.321  1.00  0.00     0.173 A 
ATOM     89  C   UNL A   1      44.467  25.992  34.949  1.00  0.00     0.173 A 
ATOM     90  F   UNL A   1      46.204  28.919  33.664  1.00  0.00    -0.203 F 
ATOM     91  C   UNL A   1      46.985  27.157  35.014  1.00  0.00     0.198 A 
ATOM     92  C   UNL A   1      45.494  25.394  35.672  1.00  0.00     0.198 A 
ATOM     93  F   UNL A   1      43.265  25.397  34.928  1.00  0.00    -0.203 F 
ATOM     94  F   UNL A   1      48.211  27.696  35.005  1.00  0.00    -0.200 F 
ATOM     95  C   UNL A   1      46.755  25.970  35.694  1.00  0.00     0.200 A 
ATOM     96  F   UNL A   1      45.266  24.256  36.342  1.00  0.00    -0.200 F 
ATOM     97  F   UNL A   1      47.752  25.377  36.364  1.00  0.00    -0.200 F 
ENDBRANCH  64  87
ENDBRANCH  38  39
ENDBRANCH  30  33
ENDBRANCH  28  29
ENDBRANCH  27  28
ENDBRANCH   1  27
TORSDOF 15
ENDMDL
MODEL 3
REMARK VINA RESULT:     -12.7      4.558     10.030
REMARK SMILES O=C(C[C@H](C(=O)NCCCCNC(=O)c1ccc(-c2c3nc(c(-c4c(F)c(F)c(F)c(F)c4F)c4ccc([nH]4)c(-c4c(F)c(F)c(F)c(F)c4F)c4nc(c(-c5c(F)c(F)c(F)c(F)c5F)c5ccc2[nH]5)C=C4)C=C3)cc1)c1ccccc1)Nc1ccc(Cl)cc1Cl
REMARK SMILES IDX 9 1 8 2 7 3 5 4 6 5 4 7 3 8 2 9 1 10 84 11 85 13 86 14 91 15
REMARK SMILES IDX 87 16 90 17 92 18 88 19 89 20 78 21 79 22 83 23 80 24 82 25
REMARK SMILES IDX 81 26 10 27 11 28 12 29 13 30 14 32 15 33 16 34 77 35 17 36
REMARK SMILES IDX 76 37 18 38 19 39 20 40 70 41 21 42 75 43 69 44 71 45 22 46
REMARK SMILES IDX 74 47 68 48 67 49 23 51 55 52 35 53 54 54 36 55 39 56 53 57
REMARK SMILES IDX 72 58 37 59 38 60 52 62 73 63 40 64 24 65 25 66 33 67 26 68
REMARK SMILES IDX 27 69 31 70 34 71 28 72 29 73 32 74 30 75 56 76 57 77 65 78
REMARK SMILES IDX 58 79 59 80 63 81 66 82 60 83 61 84 64 85 62 86 41 87 42 88
REMARK SMILES IDX 50 89 43 90 44 91 48 92 51 93 45 94 46 95 49 96 47 97
REMARK H PARENT 7 6 84 12 12 31 71 50 39 61
REMARK Flexibility Score: inf
ROOT
ATOM      1  C   UNL A   1      35.747  22.735  26.098  1.00  0.00     0.023 C 
ENDROOT
BRANCH   1   2
ATOM      2  C   UNL A   1      34.347  23.070  25.588  1.00  0.00     0.116 C 
BRANCH   2   3
ATOM      3  N   UNL A   1      33.428  23.531  26.611  1.00  0.00    -0.356 N 
ATOM      4  C   UNL A   1      32.162  24.039  26.548  1.00  0.00     0.228 C 
ATOM      5  O   UNL A   1      31.425  23.639  27.460  1.00  0.00    -0.274 OA
ATOM      6  H   UNL A   1      33.785  23.465  27.526  1.00  0.00     0.163 HD
BRANCH   4   7
ATOM      7  C   UNL A   1      31.744  25.222  25.633  1.00  0.00     0.118 C 
BRANCH   7   8
ATOM      8  C   UNL A   1      30.322  25.314  25.071  1.00  0.00     0.118 C 
BRANCH   8   9
ATOM      9  C   UNL A   1      30.190  26.128  23.802  1.00  0.00     0.225 C 
ATOM     10  O   UNL A   1      31.021  26.109  22.908  1.00  0.00    -0.275 OA
ATOM     11  N   UNL A   1      29.065  26.943  23.814  1.00  0.00    -0.325 N 
ATOM     12  H   UNL A   1      28.316  26.672  24.391  1.00  0.00     0.169 HD
BRANCH  11  13
ATOM     13  C   UNL A   1      28.912  28.135  23.061  1.00  0.00     0.060 A 
ATOM     14  C   UNL A   1      30.013  28.785  22.487  1.00  0.00     0.029 A 
ATOM     15  C   UNL A   1      27.652  28.753  22.983  1.00  0.00     0.066 A 
ATOM     16  C   UNL A   1      29.864  30.017  21.850  1.00  0.00     0.023 A 
ATOM     17  C   UNL A   1      27.494  29.973  22.318  1.00  0.00     0.043 A 
ATOM     18  Cl  UNL A   1      26.265  28.034  23.722  1.00  0.00    -0.082 Cl
ATOM     19  C   UNL A   1      28.603  30.598  21.754  1.00  0.00     0.042 A 
ATOM     20  Cl  UNL A   1      28.425  32.108  20.951  1.00  0.00    -0.084 Cl
ENDBRANCH  11  13
ENDBRANCH   8   9
ENDBRANCH   7   8
BRANCH   7  21
ATOM     21  C   UNL A   1      32.212  26.590  26.165  1.00  0.00    -0.035 A 
ATOM     22  C   UNL A   1      31.372  27.427  26.916  1.00  0.00     0.004 A 
ATOM     23  C   UNL A   1      33.523  27.030  25.908  1.00  0.00     0.004 A 
ATOM     24  C   UNL A   1      31.834  28.646  27.422  1.00  0.00     0.000 A 
ATOM     25  C   UNL A   1      33.983  28.253  26.411  1.00  0.00     0.000 A 
ATOM     26  C   UNL A   1      33.140  29.057  27.173  1.00  0.00     0.000 A 
ENDBRANCH   7  21
ENDBRANCH   4   7
ENDBRANCH   2   3
ENDBRANCH   1   2
BRANCH   1  27
ATOM     27  C   UNL A   1      36.248  21.336  25.673  1.00  0.00     0.023 C 
BRANCH  27  28
ATOM     28  C   UNL A   1      37.504  21.367  24.800  1.00  0.00     0.116 C 
BRANCH  28  29
ATOM     29  N   UNL A   1      38.670  20.739  25.396  1.00  0.00    -0.352 N 
ATOM     30  C   UNL A   1      39.548  21.061  26.397  1.00  0.00     0.251 C 
ATOM     31  H   UNL A   1      38.880  19.872  24.978  1.00  0.00     0.163 HD
ATOM     32  O   UNL A   1      40.169  20.121  26.901  1.00  0.00    -0.269 OA
BRANCH  30  33
ATOM     33  C   UNL A   1      39.894  22.440  26.836  1.00  0.00     0.039 A 
ATOM     34  C   UNL A   1      40.996  22.544  27.707  1.00  0.00     0.014 A 
ATOM     35  C   UNL A   1      39.234  23.612  26.468  1.00  0.00     0.014 A 
ATOM     36  C   UNL A   1      41.474  23.788  28.132  1.00  0.00     0.010 A 
ATOM     37  C   UNL A   1      39.724  24.864  26.869  1.00  0.00     0.010 A 
ATOM     38  C   UNL A   1      40.865  24.961  27.675  1.00  0.00    -0.014 A 
BRANCH  38  39
ATOM     39  C   UNL A   1      41.519  26.276  27.884  1.00  0.00     0.031 A 
ATOM     40  C   UNL A   1      42.911  26.555  27.407  1.00  0.00     0.074 A 
ATOM     41  C   UNL A   1      40.842  27.196  28.598  1.00  0.00     0.049 A 
ATOM     42  N   UNL A   1      43.602  27.665  27.489  1.00  0.00    -0.248 NA
ATOM     43  C   UNL A   1      43.632  25.442  26.777  1.00  0.00     0.031 C 
ATOM     44  C   UNL A   1      39.513  26.988  29.179  1.00  0.00     0.029 A 
ATOM     45  N   UNL A   1      41.172  28.472  28.973  1.00  0.00    -0.354 N 
ATOM     46  C   UNL A   1      44.834  27.391  26.912  1.00  0.00     0.074 A 
ATOM     47  C   UNL A   1      44.815  25.992  26.532  1.00  0.00     0.031 C 
ATOM     48  C   UNL A   1      39.138  28.100  29.829  1.00  0.00     0.029 A 
ATOM     49  C   UNL A   1      40.203  29.091  29.725  1.00  0.00     0.049 A 
ATOM     50  H   UNL A   1      42.023  28.904  28.728  1.00  0.00     0.167 HD
ATOM     51  C   UNL A   1      45.875  28.238  26.710  1.00  0.00     0.037 A 
ATOM     52  C   UNL A   1      40.173  30.323  30.264  1.00  0.00     0.037 A 
ATOM     53  C   UNL A   1      45.877  29.622  27.123  1.00  0.00     0.049 A 
ATOM     54  C   UNL A   1      41.332  31.245  30.012  1.00  0.00     0.074 A 
ATOM     55  C   UNL A   1      46.846  30.588  26.913  1.00  0.00     0.029 A 
ATOM     56  N   UNL A   1      44.863  30.231  27.853  1.00  0.00    -0.354 N 
ATOM     57  N   UNL A   1      42.444  31.015  29.355  1.00  0.00    -0.248 NA
ATOM     58  C   UNL A   1      41.223  32.605  30.554  1.00  0.00     0.031 C 
ATOM     59  C   UNL A   1      46.448  31.760  27.566  1.00  0.00     0.029 A 
ATOM     60  C   UNL A   1      45.199  31.548  28.126  1.00  0.00     0.049 A 
ATOM     61  H   UNL A   1      44.029  29.791  28.134  1.00  0.00     0.167 HD
ATOM     62  C   UNL A   1      43.154  32.206  29.377  1.00  0.00     0.074 A 
ATOM     63  C   UNL A   1      42.335  33.162  30.096  1.00  0.00     0.031 C 
ATOM     64  C   UNL A   1      44.372  32.485  28.849  1.00  0.00     0.037 A 
BRANCH  51  65
ATOM     65  C   UNL A   1      47.097  27.701  26.013  1.00  0.00     0.064 A 
ATOM     66  C   UNL A   1      47.217  27.728  24.613  1.00  0.00     0.173 A 
ATOM     67  C   UNL A   1      48.188  27.212  26.748  1.00  0.00     0.173 A 
ATOM     68  F   UNL A   1      46.208  28.188  23.858  1.00  0.00    -0.203 F 
ATOM     69  C   UNL A   1      48.366  27.258  23.979  1.00  0.00     0.198 A 
ATOM     70  C   UNL A   1      49.347  26.771  26.112  1.00  0.00     0.198 A 
ATOM     71  F   UNL A   1      48.138  27.172  28.088  1.00  0.00    -0.203 F 
ATOM     72  F   UNL A   1      48.435  27.254  22.641  1.00  0.00    -0.200 F 
ATOM     73  C   UNL A   1      49.432  26.788  24.729  1.00  0.00     0.200 A 
ATOM     74  F   UNL A   1      50.386  26.336  26.839  1.00  0.00    -0.200 F 
ATOM     75  F   UNL A   1      50.540  26.346  24.117  1.00  0.00    -0.200 F 
ENDBRANCH  51  65
BRANCH  52  76
ATOM     76  C   UNL A   1      38.981  30.762  31.034  1.00  0.00     0.064 A 
ATOM     77  C   UNL A   1      37.872  31.324  30.387  1.00  0.00     0.173 A 
ATOM     78  C   UNL A   1      38.910  30.602  32.426  1.00  0.00     0.173 A 
ATOM     79  F   UNL A   1      37.894  31.508  29.058  1.00  0.00    -0.203 F 
ATOM     80  C   UNL A   1      36.748  31.730  31.104  1.00  0.00     0.198 A 
ATOM     81  C   UNL A   1      37.772  30.978  33.138  1.00  0.00     0.198 A 
ATOM     82  F   UNL A   1      39.936  30.053  33.093  1.00  0.00    -0.203 F 
ATOM     83  F   UNL A   1      35.719  32.303  30.463  1.00  0.00    -0.200 F 
ATOM     84  C   UNL A   1      36.696  31.549  32.477  1.00  0.00     0.200 A 
ATOM     85  F   UNL A   1      37.717  30.780  34.463  1.00  0.00    -0.200 F 
ATOM     86  F   UNL A   1      35.609  31.929  33.165  1.00  0.00    -0.200 F 
ENDBRANCH  52  76
BRANCH  64  87
ATOM     87  C   UNL A   1      44.875  33.892  29.007  1.00  0.00     0.064 A 
ATOM     88  C   UNL A   1      44.578  34.892  28.068  1.00  0.00     0.173 A 
ATOM     89  C   UNL A   1      45.651  34.246  30.120  1.00  0.00     0.173 A 
ATOM     90  F   UNL A   1      43.854  34.602  26.977  1.00  0.00    -0.203 F 
ATOM     91  C   UNL A   1      45.073  36.185  28.221  1.00  0.00     0.198 A 
ATOM     92  C   UNL A   1      46.113  35.548  30.289  1.00  0.00     0.198 A 
ATOM     93  F   UNL A   1      45.958  33.330  31.051  1.00  0.00    -0.203 F 
ATOM     94  F   UNL A   1      44.832  37.107  27.279  1.00  0.00    -0.200 F 
ATOM     95  C   UNL A   1      45.833  36.513  29.333  1.00  0.00     0.200 A 
ATOM     96  F   UNL A   1      46.834  35.867  31.372  1.00  0.00    -0.200 F 
ATOM     97  F   UNL A   1      46.305  37.758  29.480  1.00  0.00    -0.200 F 
ENDBRANCH  64  87
ENDBRANCH  38  39
ENDBRANCH  30  33
ENDBRANCH  28  29
ENDBRANCH  27  28
ENDBRANCH   1  27
TORSDOF 15
ENDMDL
