MODEL 1
REMARK VINA RESULT:     -12.5      0.000      0.000
REMARK SMILES O=C(NCCCCNC(=O)[C@H]1C[C@](O)(c2ccccc2Cl)[C@@H](c2ccccc2Cl)O1)c1ccc(-c2c3nc(c(-c4c(F)c(F)c(F)c(F)c4F)c4ccc([nH]4)c(-c4c(F)c(F)c(F)c(F)c4F)c4nc(c(-c5c(F)c(F)c(F)c(F)c5F)c5ccc2[nH]5)C=C4)C=C3)cc1
REMARK SMILES IDX 5 1 4 2 3 3 1 4 2 5 31 7 32 8 93 9 33 10 92 11 34 12 35 13
REMARK SMILES IDX 36 14 86 15 37 16 91 17 85 18 87 19 38 20 90 21 84 22 83 23
REMARK SMILES IDX 39 25 71 26 51 27 70 28 52 29 55 30 69 31 88 32 53 33 54 34
REMARK SMILES IDX 68 36 89 37 56 38 40 39 41 40 49 41 42 42 43 43 47 44 50 45
REMARK SMILES IDX 44 46 45 47 48 48 46 49 72 50 73 51 81 52 74 53 75 54 79 55
REMARK SMILES IDX 82 56 76 57 77 58 80 59 78 60 57 61 58 62 66 63 59 64 60 65
REMARK SMILES IDX 64 66 67 67 61 68 62 69 65 70 63 71 6 72 7 73 8 74 9 75
REMARK SMILES IDX 10 77 11 78 12 79 30 80 13 81 22 82 15 83 16 84 20 85 17 86
REMARK SMILES IDX 19 87 21 88 18 89 14 90 23 92 24 93 28 94 25 95 27 96 29 97
REMARK SMILES IDX 26 98
REMARK H PARENT 3 6 87 24 55 35 8 76 14 91
REMARK Flexibility Score: inf
ROOT
ATOM      1  C   UNL A   1      39.435  20.707  25.464  1.00  0.00     0.023 C 
ENDROOT
BRANCH   1   2
ATOM      2  C   UNL A   1      39.795  19.637  26.474  1.00  0.00     0.116 C 
BRANCH   2   3
ATOM      3  N   UNL A   1      40.992  18.907  26.080  1.00  0.00    -0.352 N 
ATOM      4  O   UNL A   1      43.105  18.669  25.326  1.00  0.00    -0.269 OA
ATOM      5  C   UNL A   1      42.269  19.367  25.887  1.00  0.00     0.251 C 
ATOM      6  H   UNL A   1      40.866  17.942  25.930  1.00  0.00     0.163 HD
BRANCH   5   7
ATOM      7  C   UNL A   1      42.624  20.717  26.358  1.00  0.00     0.039 A 
ATOM      8  C   UNL A   1      42.580  21.018  27.722  1.00  0.00     0.014 A 
ATOM      9  C   UNL A   1      43.014  21.683  25.430  1.00  0.00     0.014 A 
ATOM     10  C   UNL A   1      42.779  22.320  28.148  1.00  0.00     0.010 A 
ATOM     11  C   UNL A   1      43.331  22.965  25.874  1.00  0.00     0.010 A 
ATOM     12  C   UNL A   1      43.197  23.294  27.233  1.00  0.00    -0.014 A 
BRANCH  12  13
ATOM     13  C   UNL A   1      43.589  24.633  27.724  1.00  0.00     0.031 A 
ATOM     14  C   UNL A   1      42.550  25.646  28.091  1.00  0.00     0.074 A 
ATOM     15  C   UNL A   1      44.899  24.928  27.794  1.00  0.00     0.049 A 
ATOM     16  N   UNL A   1      42.704  26.905  28.413  1.00  0.00    -0.248 NA
ATOM     17  C   UNL A   1      41.152  25.192  28.080  1.00  0.00     0.031 C 
ATOM     18  C   UNL A   1      45.989  24.006  27.463  1.00  0.00     0.029 A 
ATOM     19  N   UNL A   1      45.541  26.085  28.148  1.00  0.00    -0.354 N 
ATOM     20  C   UNL A   1      41.424  27.402  28.610  1.00  0.00     0.074 A 
ATOM     21  C   UNL A   1      40.503  26.316  28.350  1.00  0.00     0.031 C 
ATOM     22  C   UNL A   1      47.162  24.625  27.643  1.00  0.00     0.029 A 
ATOM     23  C   UNL A   1      46.905  26.011  28.015  1.00  0.00     0.049 A 
ATOM     24  H   UNL A   1      45.071  26.890  28.468  1.00  0.00     0.167 HD
ATOM     25  C   UNL A   1      41.061  28.657  28.972  1.00  0.00     0.037 A 
ATOM     26  C   UNL A   1      47.844  26.965  28.124  1.00  0.00     0.037 A 
ATOM     27  C   UNL A   1      42.002  29.719  29.223  1.00  0.00     0.049 A 
ATOM     28  C   UNL A   1      47.418  28.358  28.478  1.00  0.00     0.074 A 
ATOM     29  C   UNL A   1      41.750  31.017  29.629  1.00  0.00     0.029 A 
ATOM     30  N   UNL A   1      43.380  29.606  29.075  1.00  0.00    -0.354 N 
ATOM     31  N   UNL A   1      46.208  28.819  28.685  1.00  0.00    -0.248 NA
ATOM     32  C   UNL A   1      48.478  29.362  28.609  1.00  0.00     0.031 C 
ATOM     33  C   UNL A   1      42.966  31.707  29.661  1.00  0.00     0.029 A 
ATOM     34  C   UNL A   1      43.987  30.821  29.351  1.00  0.00     0.049 A 
ATOM     35  H   UNL A   1      43.854  28.785  28.813  1.00  0.00     0.167 HD
ATOM     36  C   UNL A   1      46.360  30.160  29.003  1.00  0.00     0.074 A 
ATOM     37  C   UNL A   1      47.783  30.437  28.959  1.00  0.00     0.031 C 
ATOM     38  C   UNL A   1      45.408  31.072  29.312  1.00  0.00     0.037 A 
BRANCH  25  39
ATOM     39  C   UNL A   1      39.591  28.954  29.064  1.00  0.00     0.064 A 
ATOM     40  C   UNL A   1      38.883  28.860  30.273  1.00  0.00     0.173 A 
ATOM     41  C   UNL A   1      38.875  29.338  27.919  1.00  0.00     0.173 A 
ATOM     42  F   UNL A   1      39.513  28.488  31.397  1.00  0.00    -0.203 F 
ATOM     43  C   UNL A   1      37.510  29.092  30.322  1.00  0.00     0.198 A 
ATOM     44  C   UNL A   1      37.510  29.606  27.979  1.00  0.00     0.198 A 
ATOM     45  F   UNL A   1      39.499  29.453  26.737  1.00  0.00    -0.203 F 
ATOM     46  F   UNL A   1      36.846  28.926  31.473  1.00  0.00    -0.200 F 
ATOM     47  C   UNL A   1      36.826  29.469  29.176  1.00  0.00     0.200 A 
ATOM     48  F   UNL A   1      36.854  29.986  26.874  1.00  0.00    -0.200 F 
ATOM     49  F   UNL A   1      35.505  29.687  29.224  1.00  0.00    -0.200 F 
ENDBRANCH  25  39
BRANCH  26  50
ATOM     50  C   UNL A   1      49.264  26.612  27.873  1.00  0.00     0.064 A 
ATOM     51  C   UNL A   1      49.782  26.587  26.573  1.00  0.00     0.173 A 
ATOM     52  C   UNL A   1      50.149  26.369  28.936  1.00  0.00     0.173 A 
ATOM     53  F   UNL A   1      48.973  26.804  25.525  1.00  0.00    -0.203 F 
ATOM     54  C   UNL A   1      51.132  26.327  26.343  1.00  0.00     0.198 A 
ATOM     55  C   UNL A   1      51.503  26.141  28.708  1.00  0.00     0.198 A 
ATOM     56  F   UNL A   1      49.704  26.400  30.201  1.00  0.00    -0.203 F 
ATOM     57  F   UNL A   1      51.600  26.286  25.089  1.00  0.00    -0.200 F 
ATOM     58  C   UNL A   1      51.992  26.116  27.411  1.00  0.00     0.200 A 
ATOM     59  F   UNL A   1      52.335  25.963  29.743  1.00  0.00    -0.200 F 
ATOM     60  F   UNL A   1      53.295  25.890  27.190  1.00  0.00    -0.200 F 
ENDBRANCH  26  50
BRANCH  38  61
ATOM     61  C   UNL A   1      45.869  32.450  29.685  1.00  0.00     0.064 A 
ATOM     62  C   UNL A   1      45.973  33.481  28.741  1.00  0.00     0.173 A 
ATOM     63  C   UNL A   1      46.136  32.758  31.029  1.00  0.00     0.173 A 
ATOM     64  F   UNL A   1      45.746  33.232  27.442  1.00  0.00    -0.203 F 
ATOM     65  C   UNL A   1      46.334  34.769  29.127  1.00  0.00     0.198 A 
ATOM     66  C   UNL A   1      46.466  34.053  31.415  1.00  0.00     0.198 A 
ATOM     67  F   UNL A   1      46.048  31.807  31.971  1.00  0.00    -0.203 F 
ATOM     68  F   UNL A   1      46.460  35.732  28.204  1.00  0.00    -0.200 F 
ATOM     69  C   UNL A   1      46.567  35.057  30.464  1.00  0.00     0.200 A 
ATOM     70  F   UNL A   1      46.675  34.331  32.709  1.00  0.00    -0.200 F 
ATOM     71  F   UNL A   1      46.892  36.302  30.836  1.00  0.00    -0.200 F 
ENDBRANCH  38  61
ENDBRANCH  12  13
ENDBRANCH   5   7
ENDBRANCH   2   3
ENDBRANCH   1   2
BRANCH   1  72
ATOM     72  C   UNL A   1      39.353  22.097  26.078  1.00  0.00     0.023 C 
BRANCH  72  73
ATOM     73  C   UNL A   1      37.987  22.775  25.969  1.00  0.00     0.116 C 
BRANCH  73  74
ATOM     74  N   UNL A   1      37.382  22.662  24.654  1.00  0.00    -0.354 N 
ATOM     75  C   UNL A   1      36.281  23.313  24.170  1.00  0.00     0.249 C 
ATOM     76  H   UNL A   1      37.821  22.037  24.032  1.00  0.00     0.163 HD
ATOM     77  O   UNL A   1      35.963  23.113  22.995  1.00  0.00    -0.272 OA
BRANCH  75  78
ATOM     78  C   UNL A   1      35.496  24.283  25.090  1.00  0.00     0.211 C 
ATOM     79  C   UNL A   1      34.594  25.245  24.319  1.00  0.00     0.085 C 
ATOM     80  O   UNL A   1      34.667  23.569  26.006  1.00  0.00    -0.357 OA
ATOM     81  C   UNL A   1      33.197  25.060  24.913  1.00  0.00     0.124 C 
ATOM     82  C   UNL A   1      33.281  23.701  25.640  1.00  0.00     0.187 C 
BRANCH  81  83
ATOM     83  C   UNL A   1      32.807  26.274  25.794  1.00  0.00     0.005 A 
ATOM     84  C   UNL A   1      33.858  27.158  26.151  1.00  0.00     0.008 A 
ATOM     85  C   UNL A   1      31.521  26.629  26.259  1.00  0.00     0.047 A 
ATOM     86  C   UNL A   1      33.633  28.369  26.810  1.00  0.00     0.001 A 
ATOM     87  C   UNL A   1      31.295  27.868  26.887  1.00  0.00     0.021 A 
ATOM     88  Cl  UNL A   1      30.117  25.618  26.209  1.00  0.00    -0.084 Cl
ATOM     89  C   UNL A   1      32.342  28.743  27.145  1.00  0.00     0.002 A 
ENDBRANCH  81  83
BRANCH  81  90
ATOM     90  O   UNL A   1      32.215  25.009  23.862  1.00  0.00    -0.382 OA
ATOM     91  H   UNL A   1      32.416  25.687  23.198  1.00  0.00     0.212 HD
ENDBRANCH  81  90
BRANCH  82  92
ATOM     92  C   UNL A   1      32.863  22.377  24.997  1.00  0.00     0.003 A 
ATOM     93  C   UNL A   1      32.438  22.305  23.655  1.00  0.00     0.008 A 
ATOM     94  C   UNL A   1      33.054  21.149  25.674  1.00  0.00     0.046 A 
ATOM     95  C   UNL A   1      32.249  21.078  23.010  1.00  0.00     0.000 A 
ATOM     96  C   UNL A   1      32.860  19.923  25.025  1.00  0.00     0.021 A 
ATOM     97  Cl  UNL A   1      33.605  21.048  27.315  1.00  0.00    -0.084 Cl
ATOM     98  C   UNL A   1      32.470  19.887  23.691  1.00  0.00     0.002 A 
ENDBRANCH  82  92
ENDBRANCH  75  78
ENDBRANCH  73  74
ENDBRANCH  72  73
ENDBRANCH   1  72
TORSDOF 14
ENDMDL
MODEL 2
REMARK VINA RESULT:     -12.5      0.217      1.651
REMARK SMILES O=C(NCCCCNC(=O)[C@H]1C[C@](O)(c2ccccc2Cl)[C@@H](c2ccccc2Cl)O1)c1ccc(-c2c3nc(c(-c4c(F)c(F)c(F)c(F)c4F)c4ccc([nH]4)c(-c4c(F)c(F)c(F)c(F)c4F)c4nc(c(-c5c(F)c(F)c(F)c(F)c5F)c5ccc2[nH]5)C=C4)C=C3)cc1
REMARK SMILES IDX 5 1 4 2 3 3 1 4 2 5 31 7 32 8 93 9 33 10 92 11 34 12 35 13
REMARK SMILES IDX 36 14 86 15 37 16 91 17 85 18 87 19 38 20 90 21 84 22 83 23
REMARK SMILES IDX 39 25 71 26 51 27 70 28 52 29 55 30 69 31 88 32 53 33 54 34
REMARK SMILES IDX 68 36 89 37 56 38 40 39 41 40 49 41 42 42 43 43 47 44 50 45
REMARK SMILES IDX 44 46 45 47 48 48 46 49 72 50 73 51 81 52 74 53 75 54 79 55
REMARK SMILES IDX 82 56 76 57 77 58 80 59 78 60 57 61 58 62 66 63 59 64 60 65
REMARK SMILES IDX 64 66 67 67 61 68 62 69 65 70 63 71 6 72 7 73 8 74 9 75
REMARK SMILES IDX 10 77 11 78 12 79 30 80 13 81 22 82 15 83 16 84 20 85 17 86
REMARK SMILES IDX 19 87 21 88 18 89 14 90 23 92 24 93 28 94 25 95 27 96 29 97
REMARK SMILES IDX 26 98
REMARK H PARENT 3 6 87 24 55 35 8 76 14 91
REMARK Flexibility Score: inf
ROOT
ATOM      1  C   UNL A   1      39.328  20.846  25.510  1.00  0.00     0.023 C 
ENDROOT
BRANCH   1   2
ATOM      2  C   UNL A   1      39.805  19.806  26.502  1.00  0.00     0.116 C 
BRANCH   2   3
ATOM      3  N   UNL A   1      40.974  19.090  26.010  1.00  0.00    -0.352 N 
ATOM      4  O   UNL A   1      43.035  18.880  25.117  1.00  0.00    -0.269 OA
ATOM      5  C   UNL A   1      42.236  19.558  25.751  1.00  0.00     0.251 C 
ATOM      6  H   UNL A   1      40.838  18.130  25.839  1.00  0.00     0.163 HD
BRANCH   5   7
ATOM      7  C   UNL A   1      42.621  20.893  26.241  1.00  0.00     0.039 A 
ATOM      8  C   UNL A   1      42.941  21.907  25.335  1.00  0.00     0.014 A 
ATOM      9  C   UNL A   1      42.650  21.134  27.616  1.00  0.00     0.014 A 
ATOM     10  C   UNL A   1      43.435  23.115  25.797  1.00  0.00     0.010 A 
ATOM     11  C   UNL A   1      43.032  22.390  28.079  1.00  0.00     0.010 A 
ATOM     12  C   UNL A   1      43.444  23.382  27.172  1.00  0.00    -0.014 A 
BRANCH  12  13
ATOM     13  C   UNL A   1      43.793  24.738  27.648  1.00  0.00     0.031 A 
ATOM     14  C   UNL A   1      42.723  25.719  28.010  1.00  0.00     0.074 A 
ATOM     15  C   UNL A   1      45.094  25.076  27.710  1.00  0.00     0.049 A 
ATOM     16  N   UNL A   1      42.837  26.985  28.320  1.00  0.00    -0.248 NA
ATOM     17  C   UNL A   1      41.341  25.220  28.009  1.00  0.00     0.031 C 
ATOM     18  C   UNL A   1      46.212  24.187  27.383  1.00  0.00     0.029 A 
ATOM     19  N   UNL A   1      45.699  26.257  28.050  1.00  0.00    -0.354 N 
ATOM     20  C   UNL A   1      41.542  27.442  28.518  1.00  0.00     0.074 A 
ATOM     21  C   UNL A   1      40.657  26.324  28.272  1.00  0.00     0.031 C 
ATOM     22  C   UNL A   1      47.364  24.846  27.551  1.00  0.00     0.029 A 
ATOM     23  C   UNL A   1      47.063  26.226  27.911  1.00  0.00     0.049 A 
ATOM     24  H   UNL A   1      45.204  27.049  28.364  1.00  0.00     0.167 HD
ATOM     25  C   UNL A   1      41.140  28.688  28.869  1.00  0.00     0.037 A 
ATOM     26  C   UNL A   1      47.971  27.212  28.007  1.00  0.00     0.037 A 
ATOM     27  C   UNL A   1      42.046  29.782  29.106  1.00  0.00     0.049 A 
ATOM     28  C   UNL A   1      47.501  28.593  28.349  1.00  0.00     0.074 A 
ATOM     29  C   UNL A   1      41.754  31.075  29.501  1.00  0.00     0.029 A 
ATOM     30  N   UNL A   1      43.427  29.714  28.953  1.00  0.00    -0.354 N 
ATOM     31  N   UNL A   1      46.278  29.016  28.558  1.00  0.00    -0.248 NA
ATOM     32  C   UNL A   1      48.528  29.633  28.466  1.00  0.00     0.031 C 
ATOM     33  C   UNL A   1      42.946  31.805  29.521  1.00  0.00     0.029 A 
ATOM     34  C   UNL A   1      43.995  30.950  29.215  1.00  0.00     0.049 A 
ATOM     35  H   UNL A   1      43.926  28.906  28.697  1.00  0.00     0.167 HD
ATOM     36  C   UNL A   1      46.386  30.364  28.862  1.00  0.00     0.074 A 
ATOM     37  C   UNL A   1      47.799  30.688  28.809  1.00  0.00     0.031 C 
ATOM     38  C   UNL A   1      45.407  31.248  29.167  1.00  0.00     0.037 A 
BRANCH  25  39
ATOM     39  C   UNL A   1      39.661  28.938  28.965  1.00  0.00     0.064 A 
ATOM     40  C   UNL A   1      38.891  29.301  27.849  1.00  0.00     0.173 A 
ATOM     41  C   UNL A   1      39.002  28.813  30.198  1.00  0.00     0.173 A 
ATOM     42  F   UNL A   1      39.468  29.443  26.647  1.00  0.00    -0.203 F 
ATOM     43  C   UNL A   1      37.530  29.575  27.974  1.00  0.00     0.198 A 
ATOM     44  C   UNL A   1      37.635  29.052  30.312  1.00  0.00     0.198 A 
ATOM     45  F   UNL A   1      39.685  28.461  31.299  1.00  0.00    -0.203 F 
ATOM     46  F   UNL A   1      36.832  29.990  26.908  1.00  0.00    -0.200 F 
ATOM     47  C   UNL A   1      36.904  29.447  29.204  1.00  0.00     0.200 A 
ATOM     48  F   UNL A   1      37.029  28.911  31.499  1.00  0.00    -0.200 F 
ATOM     49  F   UNL A   1      35.596  29.717  29.323  1.00  0.00    -0.200 F 
ENDBRANCH  25  39
BRANCH  26  50
ATOM     50  C   UNL A   1      49.401  26.903  27.753  1.00  0.00     0.064 A 
ATOM     51  C   UNL A   1      50.269  26.589  28.806  1.00  0.00     0.173 A 
ATOM     52  C   UNL A   1      49.908  26.840  26.445  1.00  0.00     0.173 A 
ATOM     53  F   UNL A   1      49.833  26.644  30.073  1.00  0.00    -0.203 F 
ATOM     54  C   UNL A   1      51.592  26.227  28.561  1.00  0.00     0.198 A 
ATOM     55  C   UNL A   1      51.221  26.449  26.200  1.00  0.00     0.198 A 
ATOM     56  F   UNL A   1      49.111  27.115  25.402  1.00  0.00    -0.203 F 
ATOM     57  F   UNL A   1      52.409  25.953  29.586  1.00  0.00    -0.200 F 
ATOM     58  C   UNL A   1      52.063  26.147  27.258  1.00  0.00     0.200 A 
ATOM     59  F   UNL A   1      51.664  26.346  24.939  1.00  0.00    -0.200 F 
ATOM     60  F   UNL A   1      53.329  25.775  27.024  1.00  0.00    -0.200 F 
ENDBRANCH  26  50
BRANCH  38  61
ATOM     61  C   UNL A   1      45.824  32.644  29.525  1.00  0.00     0.064 A 
ATOM     62  C   UNL A   1      45.890  33.668  28.570  1.00  0.00     0.173 A 
ATOM     63  C   UNL A   1      46.085  32.973  30.865  1.00  0.00     0.173 A 
ATOM     64  F   UNL A   1      45.667  33.399  27.275  1.00  0.00    -0.203 F 
ATOM     65  C   UNL A   1      46.210  34.971  28.942  1.00  0.00     0.198 A 
ATOM     66  C   UNL A   1      46.374  34.282  31.237  1.00  0.00     0.198 A 
ATOM     67  F   UNL A   1      46.032  32.029  31.816  1.00  0.00    -0.203 F 
ATOM     68  F   UNL A   1      46.301  35.929  28.010  1.00  0.00    -0.200 F 
ATOM     69  C   UNL A   1      46.438  35.279  30.276  1.00  0.00     0.200 A 
ATOM     70  F   UNL A   1      46.579  34.580  32.528  1.00  0.00    -0.200 F 
ATOM     71  F   UNL A   1      46.724  36.538  30.635  1.00  0.00    -0.200 F 
ENDBRANCH  38  61
ENDBRANCH  12  13
ENDBRANCH   5   7
ENDBRANCH   2   3
ENDBRANCH   1   2
BRANCH   1  72
ATOM     72  C   UNL A   1      39.274  22.247  26.100  1.00  0.00     0.023 C 
BRANCH  72  73
ATOM     73  C   UNL A   1      37.930  22.962  25.955  1.00  0.00     0.116 C 
BRANCH  73  74
ATOM     74  N   UNL A   1      37.337  22.829  24.636  1.00  0.00    -0.354 N 
ATOM     75  C   UNL A   1      36.217  23.442  24.146  1.00  0.00     0.249 C 
ATOM     76  H   UNL A   1      37.801  22.220  24.016  1.00  0.00     0.163 HD
ATOM     77  O   UNL A   1      35.914  23.233  22.969  1.00  0.00    -0.272 OA
BRANCH  75  78
ATOM     78  C   UNL A   1      35.394  24.383  25.062  1.00  0.00     0.211 C 
ATOM     79  C   UNL A   1      34.464  25.315  24.286  1.00  0.00     0.085 C 
ATOM     80  O   UNL A   1      34.584  23.641  25.973  1.00  0.00    -0.357 OA
ATOM     81  C   UNL A   1      33.070  25.081  24.871  1.00  0.00     0.124 C 
ATOM     82  C   UNL A   1      33.197  23.724  25.598  1.00  0.00     0.187 C 
BRANCH  81  83
ATOM     83  C   UNL A   1      32.633  26.280  25.751  1.00  0.00     0.005 A 
ATOM     84  C   UNL A   1      33.653  27.192  26.126  1.00  0.00     0.008 A 
ATOM     85  C   UNL A   1      31.331  26.596  26.200  1.00  0.00     0.047 A 
ATOM     86  C   UNL A   1      33.384  28.394  26.787  1.00  0.00     0.001 A 
ATOM     87  C   UNL A   1      31.061  27.825  26.829  1.00  0.00     0.021 A 
ATOM     88  Cl  UNL A   1      29.958  25.545  26.126  1.00  0.00    -0.084 Cl
ATOM     89  C   UNL A   1      32.078  28.729  27.105  1.00  0.00     0.002 A 
ENDBRANCH  81  83
BRANCH  81  90
ATOM     90  O   UNL A   1      32.097  24.997  23.814  1.00  0.00    -0.382 OA
ATOM     91  H   UNL A   1      32.541  24.765  22.983  1.00  0.00     0.212 HD
ENDBRANCH  81  90
BRANCH  82  92
ATOM     92  C   UNL A   1      32.828  22.388  24.951  1.00  0.00     0.003 A 
ATOM     93  C   UNL A   1      32.392  22.306  23.613  1.00  0.00     0.008 A 
ATOM     94  C   UNL A   1      33.080  21.166  25.618  1.00  0.00     0.046 A 
ATOM     95  C   UNL A   1      32.249  21.076  22.963  1.00  0.00     0.000 A 
ATOM     96  C   UNL A   1      32.931  19.936  24.963  1.00  0.00     0.021 A 
ATOM     97  Cl  UNL A   1      33.653  21.079  27.252  1.00  0.00    -0.084 Cl
ATOM     98  C   UNL A   1      32.528  19.891  23.633  1.00  0.00     0.002 A 
ENDBRANCH  82  92
ENDBRANCH  75  78
ENDBRANCH  73  74
ENDBRANCH  72  73
ENDBRANCH   1  72
TORSDOF 14
ENDMDL
MODEL 3
REMARK VINA RESULT:     -12.5      0.288      1.661
REMARK SMILES O=C(NCCCCNC(=O)[C@H]1C[C@](O)(c2ccccc2Cl)[C@@H](c2ccccc2Cl)O1)c1ccc(-c2c3nc(c(-c4c(F)c(F)c(F)c(F)c4F)c4ccc([nH]4)c(-c4c(F)c(F)c(F)c(F)c4F)c4nc(c(-c5c(F)c(F)c(F)c(F)c5F)c5ccc2[nH]5)C=C4)C=C3)cc1
REMARK SMILES IDX 5 1 4 2 3 3 1 4 2 5 31 7 32 8 93 9 33 10 92 11 34 12 35 13
REMARK SMILES IDX 36 14 86 15 37 16 91 17 85 18 87 19 38 20 90 21 84 22 83 23
REMARK SMILES IDX 39 25 71 26 51 27 70 28 52 29 55 30 69 31 88 32 53 33 54 34
REMARK SMILES IDX 68 36 89 37 56 38 40 39 41 40 49 41 42 42 43 43 47 44 50 45
REMARK SMILES IDX 44 46 45 47 48 48 46 49 72 50 73 51 81 52 74 53 75 54 79 55
REMARK SMILES IDX 82 56 76 57 77 58 80 59 78 60 57 61 58 62 66 63 59 64 60 65
REMARK SMILES IDX 64 66 67 67 61 68 62 69 65 70 63 71 6 72 7 73 8 74 9 75
REMARK SMILES IDX 10 77 11 78 12 79 30 80 13 81 22 82 15 83 16 84 20 85 17 86
REMARK SMILES IDX 19 87 21 88 18 89 14 90 23 92 24 93 28 94 25 95 27 96 29 97
REMARK SMILES IDX 26 98
REMARK H PARENT 3 6 87 24 55 35 8 76 14 91
REMARK Flexibility Score: inf
ROOT
ATOM      1  C   UNL A   1      39.339  20.863  25.525  1.00  0.00     0.023 C 
ENDROOT
BRANCH   1   2
ATOM      2  C   UNL A   1      39.809  19.826  26.523  1.00  0.00     0.116 C 
BRANCH   2   3
ATOM      3  N   UNL A   1      40.973  19.099  26.035  1.00  0.00    -0.352 N 
ATOM      4  O   UNL A   1      43.032  18.869  25.140  1.00  0.00    -0.269 OA
ATOM      5  C   UNL A   1      42.238  19.556  25.771  1.00  0.00     0.251 C 
ATOM      6  H   UNL A   1      40.831  18.138  25.870  1.00  0.00     0.163 HD
BRANCH   5   7
ATOM      7  C   UNL A   1      42.632  20.892  26.251  1.00  0.00     0.039 A 
ATOM      8  C   UNL A   1      42.968  21.895  25.338  1.00  0.00     0.014 A 
ATOM      9  C   UNL A   1      42.654  21.146  27.624  1.00  0.00     0.014 A 
ATOM     10  C   UNL A   1      43.471  23.102  25.792  1.00  0.00     0.010 A 
ATOM     11  C   UNL A   1      43.045  22.403  28.078  1.00  0.00     0.010 A 
ATOM     12  C   UNL A   1      43.473  23.382  27.165  1.00  0.00    -0.014 A 
BRANCH  12  13
ATOM     13  C   UNL A   1      43.832  24.739  27.631  1.00  0.00     0.031 A 
ATOM     14  C   UNL A   1      42.769  25.722  28.010  1.00  0.00     0.074 A 
ATOM     15  C   UNL A   1      45.133  25.076  27.667  1.00  0.00     0.049 A 
ATOM     16  N   UNL A   1      42.890  26.989  28.315  1.00  0.00    -0.248 NA
ATOM     17  C   UNL A   1      41.387  25.223  28.037  1.00  0.00     0.031 C 
ATOM     18  C   UNL A   1      46.244  24.186  27.322  1.00  0.00     0.029 A 
ATOM     19  N   UNL A   1      45.745  26.257  27.993  1.00  0.00    -0.354 N 
ATOM     20  C   UNL A   1      41.599  27.447  28.535  1.00  0.00     0.074 A 
ATOM     21  C   UNL A   1      40.708  26.329  28.309  1.00  0.00     0.031 C 
ATOM     22  C   UNL A   1      47.400  24.845  27.467  1.00  0.00     0.029 A 
ATOM     23  C   UNL A   1      47.107  26.225  27.829  1.00  0.00     0.049 A 
ATOM     24  H   UNL A   1      45.256  27.051  28.314  1.00  0.00     0.167 HD
ATOM     25  C   UNL A   1      41.204  28.694  28.891  1.00  0.00     0.037 A 
ATOM     26  C   UNL A   1      48.017  27.211  27.905  1.00  0.00     0.037 A 
ATOM     27  C   UNL A   1      42.115  29.788  29.108  1.00  0.00     0.049 A 
ATOM     28  C   UNL A   1      47.554  28.594  28.253  1.00  0.00     0.074 A 
ATOM     29  C   UNL A   1      41.831  31.082  29.505  1.00  0.00     0.029 A 
ATOM     30  N   UNL A   1      43.492  29.719  28.929  1.00  0.00    -0.354 N 
ATOM     31  N   UNL A   1      46.335  29.017  28.483  1.00  0.00    -0.248 NA
ATOM     32  C   UNL A   1      48.584  29.633  28.348  1.00  0.00     0.031 C 
ATOM     33  C   UNL A   1      43.024  31.812  29.501  1.00  0.00     0.029 A 
ATOM     34  C   UNL A   1      44.066  30.955  29.177  1.00  0.00     0.049 A 
ATOM     35  H   UNL A   1      43.987  28.909  28.666  1.00  0.00     0.167 HD
ATOM     36  C   UNL A   1      46.451  30.367  28.782  1.00  0.00     0.074 A 
ATOM     37  C   UNL A   1      47.863  30.689  28.701  1.00  0.00     0.031 C 
ATOM     38  C   UNL A   1      45.477  31.252  29.103  1.00  0.00     0.037 A 
BRANCH  25  39
ATOM     39  C   UNL A   1      39.727  28.945  29.014  1.00  0.00     0.064 A 
ATOM     40  C   UNL A   1      39.051  28.842  30.240  1.00  0.00     0.173 A 
ATOM     41  C   UNL A   1      38.974  29.292  27.882  1.00  0.00     0.173 A 
ATOM     42  F   UNL A   1      39.718  28.504  31.353  1.00  0.00    -0.203 F 
ATOM     43  C   UNL A   1      37.673  29.031  30.318  1.00  0.00     0.198 A 
ATOM     44  C   UNL A   1      37.602  29.517  27.970  1.00  0.00     0.198 A 
ATOM     45  F   UNL A   1      39.567  29.413  26.684  1.00  0.00    -0.203 F 
ATOM     46  F   UNL A   1      37.040  28.857  31.486  1.00  0.00    -0.200 F 
ATOM     47  C   UNL A   1      36.951  29.372  29.184  1.00  0.00     0.200 A 
ATOM     48  F   UNL A   1      36.910  29.862  26.876  1.00  0.00    -0.200 F 
ATOM     49  F   UNL A   1      35.624  29.548  29.261  1.00  0.00    -0.200 F 
ENDBRANCH  25  39
BRANCH  26  50
ATOM     50  C   UNL A   1      49.442  26.901  27.626  1.00  0.00     0.064 A 
ATOM     51  C   UNL A   1      50.329  26.591  28.663  1.00  0.00     0.173 A 
ATOM     52  C   UNL A   1      49.924  26.832  26.309  1.00  0.00     0.173 A 
ATOM     53  F   UNL A   1      49.917  26.651  29.938  1.00  0.00    -0.203 F 
ATOM     54  C   UNL A   1      51.648  26.227  28.394  1.00  0.00     0.198 A 
ATOM     55  C   UNL A   1      51.232  26.439  26.040  1.00  0.00     0.198 A 
ATOM     56  F   UNL A   1      49.107  27.103  25.280  1.00  0.00    -0.203 F 
ATOM     57  F   UNL A   1      52.484  25.956  29.405  1.00  0.00    -0.200 F 
ATOM     58  C   UNL A   1      52.094  26.141  27.083  1.00  0.00     0.200 A 
ATOM     59  F   UNL A   1      51.650  26.331  24.771  1.00  0.00    -0.200 F 
ATOM     60  F   UNL A   1      53.355  25.768  26.826  1.00  0.00    -0.200 F 
ENDBRANCH  26  50
BRANCH  38  61
ATOM     61  C   UNL A   1      45.902  32.648  29.449  1.00  0.00     0.064 A 
ATOM     62  C   UNL A   1      46.298  33.004  30.746  1.00  0.00     0.173 A 
ATOM     63  C   UNL A   1      45.986  33.624  28.442  1.00  0.00     0.173 A 
ATOM     64  F   UNL A   1      46.218  32.113  31.745  1.00  0.00    -0.203 F 
ATOM     65  C   UNL A   1      46.757  34.289  31.024  1.00  0.00     0.198 A 
ATOM     66  C   UNL A   1      46.474  34.896  28.717  1.00  0.00     0.198 A 
ATOM     67  F   UNL A   1      45.621  33.331  27.185  1.00  0.00    -0.203 F 
ATOM     68  F   UNL A   1      47.099  34.620  32.276  1.00  0.00    -0.200 F 
ATOM     69  C   UNL A   1      46.857  35.229  30.008  1.00  0.00     0.200 A 
ATOM     70  F   UNL A   1      46.585  35.797  27.731  1.00  0.00    -0.200 F 
ATOM     71  F   UNL A   1      47.320  36.459  30.273  1.00  0.00    -0.200 F 
ENDBRANCH  38  61
ENDBRANCH  12  13
ENDBRANCH   5   7
ENDBRANCH   2   3
ENDBRANCH   1   2
BRANCH   1  72
ATOM     72  C   UNL A   1      39.286  22.266  26.110  1.00  0.00     0.023 C 
BRANCH  72  73
ATOM     73  C   UNL A   1      37.943  22.982  25.963  1.00  0.00     0.116 C 
BRANCH  73  74
ATOM     74  N   UNL A   1      37.345  22.837  24.647  1.00  0.00    -0.354 N 
ATOM     75  C   UNL A   1      36.219  23.440  24.158  1.00  0.00     0.249 C 
ATOM     76  H   UNL A   1      37.810  22.227  24.030  1.00  0.00     0.163 HD
ATOM     77  O   UNL A   1      35.912  23.220  22.984  1.00  0.00    -0.272 OA
BRANCH  75  78
ATOM     78  C   UNL A   1      35.394  24.382  25.071  1.00  0.00     0.211 C 
ATOM     79  C   UNL A   1      34.468  25.315  24.292  1.00  0.00     0.085 C 
ATOM     80  O   UNL A   1      34.581  23.640  25.979  1.00  0.00    -0.357 OA
ATOM     81  C   UNL A   1      33.072  25.083  24.873  1.00  0.00     0.124 C 
ATOM     82  C   UNL A   1      33.194  23.726  25.601  1.00  0.00     0.187 C 
BRANCH  81  83
ATOM     83  C   UNL A   1      32.634  26.282  25.752  1.00  0.00     0.005 A 
ATOM     84  C   UNL A   1      33.653  27.196  26.126  1.00  0.00     0.008 A 
ATOM     85  C   UNL A   1      31.331  26.598  26.199  1.00  0.00     0.047 A 
ATOM     86  C   UNL A   1      33.383  28.398  26.785  1.00  0.00     0.001 A 
ATOM     87  C   UNL A   1      31.060  27.827  26.827  1.00  0.00     0.021 A 
ATOM     88  Cl  UNL A   1      29.959  25.546  26.126  1.00  0.00    -0.084 Cl
ATOM     89  C   UNL A   1      32.077  28.732  27.102  1.00  0.00     0.002 A 
ENDBRANCH  81  83
BRANCH  81  90
ATOM     90  O   UNL A   1      32.102  25.000  23.813  1.00  0.00    -0.382 OA
ATOM     91  H   UNL A   1      31.235  25.282  24.145  1.00  0.00     0.212 HD
ENDBRANCH  81  90
BRANCH  82  92
ATOM     92  C   UNL A   1      32.826  22.390  24.953  1.00  0.00     0.003 A 
ATOM     93  C   UNL A   1      32.389  22.309  23.615  1.00  0.00     0.008 A 
ATOM     94  C   UNL A   1      33.079  21.167  25.618  1.00  0.00     0.046 A 
ATOM     95  C   UNL A   1      32.246  21.079  22.963  1.00  0.00     0.000 A 
ATOM     96  C   UNL A   1      32.930  19.938  24.962  1.00  0.00     0.021 A 
ATOM     97  Cl  UNL A   1      33.653  21.079  27.251  1.00  0.00    -0.084 Cl
ATOM     98  C   UNL A   1      32.526  19.894  23.632  1.00  0.00     0.002 A 
ENDBRANCH  82  92
ENDBRANCH  75  78
ENDBRANCH  73  74
ENDBRANCH  72  73
ENDBRANCH   1  72
TORSDOF 14
ENDMDL
