MODEL 1
REMARK VINA RESULT:     -12.6      0.000      0.000
REMARK SMILES Cc1ccc(S(=O)(=O)N[C@H]2C=C[C@@H](C(=O)NCCCCNC(=O)c3ccc(-c4c5nc(c(-c6c(F)c(F)c(F)c(F)c6F)c6ccc([nH]6)c(-c6c(F)c(F)c(F)c(F)c6F)c6nc(c(-c7c(F)c(F)c(F)c(F)c7F)c7ccc4[nH]7)C=C6)C=C5)cc3)C2)c(C)c1
REMARK SMILES IDX 18 1 17 2 16 3 14 4 15 5 13 7 10 8 11 9 87 10 12 11 9 12
REMARK SMILES IDX 6 14 7 15 8 16 5 17 1 18 2 19 3 20 90 21 4 22 88 23 89 24
REMARK SMILES IDX 19 25 20 26 21 27 22 28 23 30 24 31 25 32 86 33 26 34 85 35
REMARK SMILES IDX 27 36 28 37 29 38 79 39 30 40 84 41 78 42 80 43 31 44 83 45
REMARK SMILES IDX 77 46 76 47 32 49 64 50 44 51 63 52 45 53 48 54 62 55 81 56
REMARK SMILES IDX 46 57 47 58 61 60 82 61 49 62 33 63 34 64 42 65 35 66 36 67
REMARK SMILES IDX 40 68 43 69 37 70 38 71 41 72 39 73 65 74 66 75 74 76 67 77
REMARK SMILES IDX 68 78 72 79 75 80 69 81 70 82 73 83 71 84 50 85 51 86 59 87
REMARK SMILES IDX 52 88 53 89 57 90 60 91 54 92 55 93 58 94 56 95
REMARK H PARENT 16 6 9 13 21 29 80 48 48 59
REMARK Flexibility Score: inf
ROOT
ATOM      1  C   UNL A   1      31.670  30.754  26.253  1.00  0.00     0.023 C 
ENDROOT
BRANCH   1   2
ATOM      2  C   UNL A   1      33.068  30.229  26.578  1.00  0.00     0.116 C 
BRANCH   2   3
ATOM      3  N   UNL A   1      33.710  29.657  25.409  1.00  0.00    -0.356 N 
ATOM      4  C   UNL A   1      33.474  28.498  24.740  1.00  0.00     0.226 C 
ATOM      5  O   UNL A   1      34.177  28.271  23.749  1.00  0.00    -0.274 OA
ATOM      6  H   UNL A   1      34.443  30.202  25.039  1.00  0.00     0.163 HD
BRANCH   4   7
ATOM      7  C   UNL A   1      32.387  27.499  25.149  1.00  0.00     0.103 C 
ATOM      8  C   UNL A   1      31.991  25.102  24.691  1.00  0.00     0.093 C 
ATOM      9  C   UNL A   1      32.567  25.336  26.043  1.00  0.00    -0.011 C 
ATOM     10  C   UNL A   1      31.951  26.511  24.062  1.00  0.00     0.042 C 
ATOM     11  C   UNL A   1      32.780  26.631  26.299  1.00  0.00    -0.016 C 
BRANCH   8  12
ATOM     12  N   UNL A   1      32.784  24.228  23.832  1.00  0.00    -0.204 NA
ATOM     13  H   UNL A   1      32.382  24.333  22.901  1.00  0.00     0.142 HD
BRANCH  12  14
ATOM     14  S   UNL A   1      33.003  22.579  24.031  1.00  0.00     0.241 S 
ATOM     15  O   UNL A   1      32.952  21.978  22.718  1.00  0.00    -0.207 OA
ATOM     16  O   UNL A   1      32.071  22.201  25.071  1.00  0.00    -0.207 OA
BRANCH  14  17
ATOM     17  C   UNL A   1      34.641  22.363  24.702  1.00  0.00     0.085 A 
ATOM     18  C   UNL A   1      38.757  21.988  25.928  1.00  0.00     0.044 C 
ATOM     19  C   UNL A   1      37.320  22.129  25.522  1.00  0.00    -0.051 A 
ATOM     20  C   UNL A   1      36.723  23.386  25.424  1.00  0.00     0.005 A 
ATOM     21  C   UNL A   1      36.543  20.988  25.279  1.00  0.00     0.008 A 
ATOM     22  C   UNL A   1      35.392  23.501  25.028  1.00  0.00     0.022 A 
ATOM     23  C   UNL A   1      35.194  21.082  24.885  1.00  0.00    -0.031 A 
ATOM     24  C   UNL A   1      34.440  19.791  24.720  1.00  0.00     0.046 C 
ENDBRANCH  14  17
ENDBRANCH  12  14
ENDBRANCH   8  12
ENDBRANCH   4   7
ENDBRANCH   2   3
ENDBRANCH   1   2
BRANCH   1  25
ATOM     25  C   UNL A   1      31.439  32.218  26.629  1.00  0.00     0.023 C 
BRANCH  25  26
ATOM     26  C   UNL A   1      32.597  32.886  27.361  1.00  0.00     0.116 C 
BRANCH  26  27
ATOM     27  N   UNL A   1      32.343  34.280  27.687  1.00  0.00    -0.352 N 
ATOM     28  C   UNL A   1      32.967  35.069  28.624  1.00  0.00     0.251 C 
ATOM     29  H   UNL A   1      31.628  34.716  27.170  1.00  0.00     0.163 HD
ATOM     30  O   UNL A   1      32.557  36.199  28.865  1.00  0.00    -0.269 OA
BRANCH  28  31
ATOM     31  C   UNL A   1      34.124  34.531  29.370  1.00  0.00     0.039 A 
ATOM     32  C   UNL A   1      33.909  33.972  30.632  1.00  0.00     0.014 A 
ATOM     33  C   UNL A   1      35.406  34.560  28.817  1.00  0.00     0.014 A 
ATOM     34  C   UNL A   1      34.975  33.383  31.315  1.00  0.00     0.010 A 
ATOM     35  C   UNL A   1      36.449  33.906  29.464  1.00  0.00     0.010 A 
ATOM     36  C   UNL A   1      36.245  33.317  30.721  1.00  0.00    -0.014 A 
BRANCH  36  37
ATOM     37  C   UNL A   1      37.381  32.651  31.403  1.00  0.00     0.031 A 
ATOM     38  C   UNL A   1      38.072  31.489  30.749  1.00  0.00     0.074 A 
ATOM     39  C   UNL A   1      37.747  33.049  32.636  1.00  0.00     0.049 A 
ATOM     40  N   UNL A   1      39.039  30.734  31.205  1.00  0.00    -0.248 NA
ATOM     41  C   UNL A   1      37.588  31.106  29.414  1.00  0.00     0.031 C 
ATOM     42  C   UNL A   1      37.127  34.136  33.393  1.00  0.00     0.029 A 
ATOM     43  N   UNL A   1      38.727  32.577  33.472  1.00  0.00    -0.354 N 
ATOM     44  C   UNL A   1      39.263  29.778  30.225  1.00  0.00     0.074 A 
ATOM     45  C   UNL A   1      38.294  30.011  29.176  1.00  0.00     0.031 C 
ATOM     46  C   UNL A   1      37.765  34.273  34.567  1.00  0.00     0.029 A 
ATOM     47  C   UNL A   1      38.812  33.261  34.660  1.00  0.00     0.049 A 
ATOM     48  H   UNL A   1      39.313  31.820  33.242  1.00  0.00     0.167 HD
ATOM     49  C   UNL A   1      40.208  28.808  30.188  1.00  0.00     0.037 A 
ATOM     50  C   UNL A   1      39.646  33.089  35.703  1.00  0.00     0.037 A 
ATOM     51  C   UNL A   1      41.187  28.596  31.222  1.00  0.00     0.049 A 
ATOM     52  C   UNL A   1      40.680  31.999  35.647  1.00  0.00     0.074 A 
ATOM     53  C   UNL A   1      42.226  27.684  31.254  1.00  0.00     0.029 A 
ATOM     54  N   UNL A   1      41.243  29.310  32.410  1.00  0.00    -0.354 N 
ATOM     55  N   UNL A   1      40.928  31.141  34.687  1.00  0.00    -0.248 NA
ATOM     56  C   UNL A   1      41.551  31.856  36.820  1.00  0.00     0.031 C 
ATOM     57  C   UNL A   1      42.886  27.817  32.482  1.00  0.00     0.029 A 
ATOM     58  C   UNL A   1      42.286  28.844  33.194  1.00  0.00     0.049 A 
ATOM     59  H   UNL A   1      40.631  30.040  32.660  1.00  0.00     0.167 HD
ATOM     60  C   UNL A   1      42.003  30.380  35.124  1.00  0.00     0.074 A 
ATOM     61  C   UNL A   1      42.363  30.881  36.435  1.00  0.00     0.031 C 
ATOM     62  C   UNL A   1      42.637  29.361  34.493  1.00  0.00     0.037 A 
BRANCH  49  63
ATOM     63  C   UNL A   1      40.216  27.905  28.989  1.00  0.00     0.064 A 
ATOM     64  C   UNL A   1      39.518  26.687  28.978  1.00  0.00     0.173 A 
ATOM     65  C   UNL A   1      40.941  28.254  27.839  1.00  0.00     0.173 A 
ATOM     66  F   UNL A   1      38.821  26.299  30.056  1.00  0.00    -0.203 F 
ATOM     67  C   UNL A   1      39.584  25.832  27.880  1.00  0.00     0.198 A 
ATOM     68  C   UNL A   1      40.975  27.412  26.731  1.00  0.00     0.198 A 
ATOM     69  F   UNL A   1      41.621  29.409  27.792  1.00  0.00    -0.203 F 
ATOM     70  F   UNL A   1      38.964  24.644  27.922  1.00  0.00    -0.200 F 
ATOM     71  C   UNL A   1      40.308  26.197  26.757  1.00  0.00     0.200 A 
ATOM     72  F   UNL A   1      41.667  27.772  25.639  1.00  0.00    -0.200 F 
ATOM     73  F   UNL A   1      40.374  25.371  25.704  1.00  0.00    -0.200 F 
ENDBRANCH  49  63
BRANCH  50  74
ATOM     74  C   UNL A   1      39.574  34.013  36.863  1.00  0.00     0.064 A 
ATOM     75  C   UNL A   1      38.834  33.666  38.002  1.00  0.00     0.173 A 
ATOM     76  C   UNL A   1      40.249  35.242  36.869  1.00  0.00     0.173 A 
ATOM     77  F   UNL A   1      38.156  32.510  38.033  1.00  0.00    -0.203 F 
ATOM     78  C   UNL A   1      38.764  34.520  39.102  1.00  0.00     0.198 A 
ATOM     79  C   UNL A   1      40.197  36.083  37.979  1.00  0.00     0.198 A 
ATOM     80  F   UNL A   1      40.972  35.617  35.805  1.00  0.00    -0.203 F 
ATOM     81  F   UNL A   1      38.024  34.178  40.165  1.00  0.00    -0.200 F 
ATOM     82  C   UNL A   1      39.451  35.724  39.091  1.00  0.00     0.200 A 
ATOM     83  F   UNL A   1      40.871  37.242  37.971  1.00  0.00    -0.200 F 
ATOM     84  F   UNL A   1      39.389  36.540  40.152  1.00  0.00    -0.200 F 
ENDBRANCH  50  74
BRANCH  62  85
ATOM     85  C   UNL A   1      43.813  28.747  35.194  1.00  0.00     0.064 A 
ATOM     86  C   UNL A   1      43.669  27.646  36.051  1.00  0.00     0.173 A 
ATOM     87  C   UNL A   1      45.106  29.245  34.975  1.00  0.00     0.173 A 
ATOM     88  F   UNL A   1      42.451  27.145  36.306  1.00  0.00    -0.203 F 
ATOM     89  C   UNL A   1      44.775  27.081  36.681  1.00  0.00     0.198 A 
ATOM     90  C   UNL A   1      46.213  28.659  35.584  1.00  0.00     0.198 A 
ATOM     91  F   UNL A   1      45.298  30.294  34.160  1.00  0.00    -0.203 F 
ATOM     92  F   UNL A   1      44.609  26.059  37.531  1.00  0.00    -0.200 F 
ATOM     93  C   UNL A   1      46.046  27.583  36.441  1.00  0.00     0.200 A 
ATOM     94  F   UNL A   1      47.441  29.139  35.343  1.00  0.00    -0.200 F 
ATOM     95  F   UNL A   1      47.109  27.033  37.044  1.00  0.00    -0.200 F 
ENDBRANCH  62  85
ENDBRANCH  36  37
ENDBRANCH  28  31
ENDBRANCH  26  27
ENDBRANCH  25  26
ENDBRANCH   1  25
TORSDOF 14
ENDMDL
MODEL 2
REMARK VINA RESULT:     -12.6      0.100      1.586
REMARK SMILES Cc1ccc(S(=O)(=O)N[C@H]2C=C[C@@H](C(=O)NCCCCNC(=O)c3ccc(-c4c5nc(c(-c6c(F)c(F)c(F)c(F)c6F)c6ccc([nH]6)c(-c6c(F)c(F)c(F)c(F)c6F)c6nc(c(-c7c(F)c(F)c(F)c(F)c7F)c7ccc4[nH]7)C=C6)C=C5)cc3)C2)c(C)c1
REMARK SMILES IDX 18 1 17 2 16 3 14 4 15 5 13 7 10 8 11 9 87 10 12 11 9 12
REMARK SMILES IDX 6 14 7 15 8 16 5 17 1 18 2 19 3 20 90 21 4 22 88 23 89 24
REMARK SMILES IDX 19 25 20 26 21 27 22 28 23 30 24 31 25 32 86 33 26 34 85 35
REMARK SMILES IDX 27 36 28 37 29 38 79 39 30 40 84 41 78 42 80 43 31 44 83 45
REMARK SMILES IDX 77 46 76 47 32 49 64 50 44 51 63 52 45 53 48 54 62 55 81 56
REMARK SMILES IDX 46 57 47 58 61 60 82 61 49 62 33 63 34 64 42 65 35 66 36 67
REMARK SMILES IDX 40 68 43 69 37 70 38 71 41 72 39 73 65 74 66 75 74 76 67 77
REMARK SMILES IDX 68 78 72 79 75 80 69 81 70 82 73 83 71 84 50 85 51 86 59 87
REMARK SMILES IDX 52 88 53 89 57 90 60 91 54 92 55 93 58 94 56 95
REMARK H PARENT 16 6 9 13 21 29 80 48 48 59
REMARK Flexibility Score: inf
ROOT
ATOM      1  C   UNL A   1      31.657  30.768  26.400  1.00  0.00     0.023 C 
ENDROOT
BRANCH   1   2
ATOM      2  C   UNL A   1      33.061  30.230  26.676  1.00  0.00     0.116 C 
BRANCH   2   3
ATOM      3  N   UNL A   1      33.680  29.706  25.473  1.00  0.00    -0.356 N 
ATOM      4  C   UNL A   1      33.441  28.565  24.773  1.00  0.00     0.226 C 
ATOM      5  O   UNL A   1      34.121  28.379  23.757  1.00  0.00    -0.274 OA
ATOM      6  H   UNL A   1      34.394  30.272  25.101  1.00  0.00     0.163 HD
BRANCH   4   7
ATOM      7  C   UNL A   1      32.380  27.537  25.179  1.00  0.00     0.103 C 
ATOM      8  C   UNL A   1      31.996  25.155  24.640  1.00  0.00     0.093 C 
ATOM      9  C   UNL A   1      32.615  25.343  25.980  1.00  0.00    -0.011 C 
ATOM     10  C   UNL A   1      31.918  26.587  24.069  1.00  0.00     0.042 C 
ATOM     11  C   UNL A   1      32.822  26.630  26.280  1.00  0.00    -0.016 C 
BRANCH   8  12
ATOM     12  N   UNL A   1      32.769  24.325  23.721  1.00  0.00    -0.204 NA
ATOM     13  H   UNL A   1      32.344  24.474  22.806  1.00  0.00     0.142 HD
BRANCH  12  14
ATOM     14  S   UNL A   1      32.994  22.669  23.835  1.00  0.00     0.241 S 
ATOM     15  O   UNL A   1      32.988  22.142  22.489  1.00  0.00    -0.207 OA
ATOM     16  O   UNL A   1      32.033  22.228  24.822  1.00  0.00    -0.207 OA
BRANCH  14  17
ATOM     17  C   UNL A   1      34.612  22.425  24.544  1.00  0.00     0.085 A 
ATOM     18  C   UNL A   1      38.691  21.939  25.851  1.00  0.00     0.044 C 
ATOM     19  C   UNL A   1      37.267  22.120  25.416  1.00  0.00    -0.051 A 
ATOM     20  C   UNL A   1      36.741  23.394  25.200  1.00  0.00     0.005 A 
ATOM     21  C   UNL A   1      36.431  21.006  25.264  1.00  0.00     0.008 A 
ATOM     22  C   UNL A   1      35.421  23.546  24.778  1.00  0.00     0.022 A 
ATOM     23  C   UNL A   1      35.092  21.138  24.846  1.00  0.00    -0.031 A 
ATOM     24  C   UNL A   1      34.269  19.879  24.786  1.00  0.00     0.046 C 
ENDBRANCH  14  17
ENDBRANCH  12  14
ENDBRANCH   8  12
ENDBRANCH   4   7
ENDBRANCH   2   3
ENDBRANCH   1   2
BRANCH   1  25
ATOM     25  C   UNL A   1      31.491  32.267  26.651  1.00  0.00     0.023 C 
BRANCH  25  26
ATOM     26  C   UNL A   1      32.641  32.926  27.402  1.00  0.00     0.116 C 
BRANCH  26  27
ATOM     27  N   UNL A   1      32.380  34.314  27.747  1.00  0.00    -0.352 N 
ATOM     28  C   UNL A   1      33.001  35.093  28.694  1.00  0.00     0.251 C 
ATOM     29  H   UNL A   1      31.665  34.755  27.235  1.00  0.00     0.163 HD
ATOM     30  O   UNL A   1      32.586  36.218  28.951  1.00  0.00    -0.269 OA
BRANCH  28  31
ATOM     31  C   UNL A   1      34.159  34.550  29.434  1.00  0.00     0.039 A 
ATOM     32  C   UNL A   1      33.948  33.983  30.693  1.00  0.00     0.014 A 
ATOM     33  C   UNL A   1      35.440  34.582  28.878  1.00  0.00     0.014 A 
ATOM     34  C   UNL A   1      35.015  33.390  31.369  1.00  0.00     0.010 A 
ATOM     35  C   UNL A   1      36.484  33.924  29.518  1.00  0.00     0.010 A 
ATOM     36  C   UNL A   1      36.284  33.327  30.771  1.00  0.00    -0.014 A 
BRANCH  36  37
ATOM     37  C   UNL A   1      37.421  32.656  31.447  1.00  0.00     0.031 A 
ATOM     38  C   UNL A   1      38.112  31.500  30.781  1.00  0.00     0.074 A 
ATOM     39  C   UNL A   1      37.788  33.043  32.682  1.00  0.00     0.049 A 
ATOM     40  N   UNL A   1      39.081  30.742  31.230  1.00  0.00    -0.248 NA
ATOM     41  C   UNL A   1      37.626  31.127  29.444  1.00  0.00     0.031 C 
ATOM     42  C   UNL A   1      37.169  34.124  33.449  1.00  0.00     0.029 A 
ATOM     43  N   UNL A   1      38.770  32.566  33.512  1.00  0.00    -0.354 N 
ATOM     44  C   UNL A   1      39.304  29.794  30.241  1.00  0.00     0.074 A 
ATOM     45  C   UNL A   1      38.332  30.035  29.196  1.00  0.00     0.031 C 
ATOM     46  C   UNL A   1      37.809  34.252  34.623  1.00  0.00     0.029 A 
ATOM     47  C   UNL A   1      38.857  33.240  34.706  1.00  0.00     0.049 A 
ATOM     48  H   UNL A   1      39.357  31.811  33.276  1.00  0.00     0.167 HD
ATOM     49  C   UNL A   1      40.249  28.825  30.195  1.00  0.00     0.037 A 
ATOM     50  C   UNL A   1      39.692  33.060  35.746  1.00  0.00     0.037 A 
ATOM     51  C   UNL A   1      41.230  28.605  31.225  1.00  0.00     0.049 A 
ATOM     52  C   UNL A   1      40.727  31.971  35.679  1.00  0.00     0.074 A 
ATOM     53  C   UNL A   1      42.270  27.694  31.249  1.00  0.00     0.029 A 
ATOM     54  N   UNL A   1      41.287  29.309  32.420  1.00  0.00    -0.354 N 
ATOM     55  N   UNL A   1      40.974  31.122  34.712  1.00  0.00    -0.248 NA
ATOM     56  C   UNL A   1      41.600  31.819  36.850  1.00  0.00     0.031 C 
ATOM     57  C   UNL A   1      42.931  27.817  32.476  1.00  0.00     0.029 A 
ATOM     58  C   UNL A   1      42.332  28.837  33.198  1.00  0.00     0.049 A 
ATOM     59  H   UNL A   1      40.675  30.037  32.677  1.00  0.00     0.167 HD
ATOM     60  C   UNL A   1      42.051  30.358  35.141  1.00  0.00     0.074 A 
ATOM     61  C   UNL A   1      42.412  30.848  36.455  1.00  0.00     0.031 C 
ATOM     62  C   UNL A   1      42.685  29.344  34.501  1.00  0.00     0.037 A 
BRANCH  49  63
ATOM     63  C   UNL A   1      40.256  27.932  28.989  1.00  0.00     0.064 A 
ATOM     64  C   UNL A   1      39.561  26.713  28.969  1.00  0.00     0.173 A 
ATOM     65  C   UNL A   1      40.976  28.293  27.839  1.00  0.00     0.173 A 
ATOM     66  F   UNL A   1      38.868  26.314  30.047  1.00  0.00    -0.203 F 
ATOM     67  C   UNL A   1      39.626  25.867  27.865  1.00  0.00     0.198 A 
ATOM     68  C   UNL A   1      41.010  27.460  26.724  1.00  0.00     0.198 A 
ATOM     69  F   UNL A   1      41.653  29.450  27.800  1.00  0.00    -0.203 F 
ATOM     70  F   UNL A   1      39.009  24.677  27.898  1.00  0.00    -0.200 F 
ATOM     71  C   UNL A   1      40.346  26.243  26.742  1.00  0.00     0.200 A 
ATOM     72  F   UNL A   1      41.697  27.830  25.634  1.00  0.00    -0.200 F 
ATOM     73  F   UNL A   1      40.411  25.426  25.682  1.00  0.00    -0.200 F 
ENDBRANCH  49  63
BRANCH  50  74
ATOM     74  C   UNL A   1      39.621  33.974  36.914  1.00  0.00     0.064 A 
ATOM     75  C   UNL A   1      40.291  35.206  36.894  1.00  0.00     0.173 A 
ATOM     76  C   UNL A   1      38.876  33.652  38.057  1.00  0.00     0.173 A 
ATOM     77  F   UNL A   1      41.032  35.547  35.829  1.00  0.00    -0.203 F 
ATOM     78  C   UNL A   1      40.228  36.077  37.979  1.00  0.00     0.198 A 
ATOM     79  C   UNL A   1      38.795  34.536  39.132  1.00  0.00     0.198 A 
ATOM     80  F   UNL A   1      38.216  32.488  38.123  1.00  0.00    -0.203 F 
ATOM     81  F   UNL A   1      40.903  37.234  37.946  1.00  0.00    -0.200 F 
ATOM     82  C   UNL A   1      39.474  35.744  39.094  1.00  0.00     0.200 A 
ATOM     83  F   UNL A   1      38.057  34.216  40.205  1.00  0.00    -0.200 F 
ATOM     84  F   UNL A   1      39.407  36.587  40.134  1.00  0.00    -0.200 F 
ENDBRANCH  50  74
BRANCH  62  85
ATOM     85  C   UNL A   1      43.862  28.725  35.195  1.00  0.00     0.064 A 
ATOM     86  C   UNL A   1      45.167  29.200  35.002  1.00  0.00     0.173 A 
ATOM     87  C   UNL A   1      43.675  27.665  36.096  1.00  0.00     0.173 A 
ATOM     88  F   UNL A   1      45.400  30.200  34.138  1.00  0.00    -0.203 F 
ATOM     89  C   UNL A   1      46.244  28.621  35.667  1.00  0.00     0.198 A 
ATOM     90  C   UNL A   1      44.751  27.108  36.781  1.00  0.00     0.198 A 
ATOM     91  F   UNL A   1      42.444  27.178  36.320  1.00  0.00    -0.203 F 
ATOM     92  F   UNL A   1      47.489  29.061  35.433  1.00  0.00    -0.200 F 
ATOM     93  C   UNL A   1      46.035  27.581  36.561  1.00  0.00     0.200 A 
ATOM     94  F   UNL A   1      44.545  26.111  37.653  1.00  0.00    -0.200 F 
ATOM     95  F   UNL A   1      47.073  27.031  37.205  1.00  0.00    -0.200 F 
ENDBRANCH  62  85
ENDBRANCH  36  37
ENDBRANCH  28  31
ENDBRANCH  26  27
ENDBRANCH  25  26
ENDBRANCH   1  25
TORSDOF 14
ENDMDL
MODEL 3
REMARK VINA RESULT:     -12.4      1.261      7.479
REMARK SMILES Cc1ccc(S(=O)(=O)N[C@H]2C=C[C@@H](C(=O)NCCCCNC(=O)c3ccc(-c4c5nc(c(-c6c(F)c(F)c(F)c(F)c6F)c6ccc([nH]6)c(-c6c(F)c(F)c(F)c(F)c6F)c6nc(c(-c7c(F)c(F)c(F)c(F)c7F)c7ccc4[nH]7)C=C6)C=C5)cc3)C2)c(C)c1
REMARK SMILES IDX 18 1 17 2 16 3 14 4 15 5 13 7 10 8 11 9 87 10 12 11 9 12
REMARK SMILES IDX 6 14 7 15 8 16 5 17 1 18 2 19 3 20 90 21 4 22 88 23 89 24
REMARK SMILES IDX 19 25 20 26 21 27 22 28 23 30 24 31 25 32 86 33 26 34 85 35
REMARK SMILES IDX 27 36 28 37 29 38 79 39 30 40 84 41 78 42 80 43 31 44 83 45
REMARK SMILES IDX 77 46 76 47 32 49 64 50 44 51 63 52 45 53 48 54 62 55 81 56
REMARK SMILES IDX 46 57 47 58 61 60 82 61 49 62 33 63 34 64 42 65 35 66 36 67
REMARK SMILES IDX 40 68 43 69 37 70 38 71 41 72 39 73 65 74 66 75 74 76 67 77
REMARK SMILES IDX 68 78 72 79 75 80 69 81 70 82 73 83 71 84 50 85 51 86 59 87
REMARK SMILES IDX 52 88 53 89 57 90 60 91 54 92 55 93 58 94 56 95
REMARK H PARENT 16 6 9 13 21 29 80 48 48 59
REMARK Flexibility Score: inf
ROOT
ATOM      1  C   UNL A   1      31.540  30.801  26.163  1.00  0.00     0.023 C 
ENDROOT
BRANCH   1   2
ATOM      2  C   UNL A   1      32.168  29.935  27.254  1.00  0.00     0.116 C 
BRANCH   2   3
ATOM      3  N   UNL A   1      31.552  28.622  27.318  1.00  0.00    -0.356 N 
ATOM      4  C   UNL A   1      31.761  27.504  26.575  1.00  0.00     0.226 C 
ATOM      5  O   UNL A   1      31.094  26.505  26.867  1.00  0.00    -0.274 OA
ATOM      6  H   UNL A   1      30.866  28.527  28.018  1.00  0.00     0.163 HD
BRANCH   4   7
ATOM      7  C   UNL A   1      32.776  27.433  25.429  1.00  0.00     0.103 C 
ATOM      8  C   UNL A   1      33.980  25.589  24.306  1.00  0.00     0.093 C 
ATOM      9  C   UNL A   1      32.817  26.076  23.514  1.00  0.00    -0.011 C 
ATOM     10  C   UNL A   1      33.908  26.417  25.607  1.00  0.00     0.042 C 
ATOM     11  C   UNL A   1      32.164  27.077  24.114  1.00  0.00    -0.016 C 
BRANCH   8  12
ATOM     12  N   UNL A   1      33.935  24.171  24.649  1.00  0.00    -0.204 NA
ATOM     13  H   UNL A   1      33.667  24.143  25.633  1.00  0.00     0.142 HD
BRANCH  12  14
ATOM     14  S   UNL A   1      35.197  23.079  24.508  1.00  0.00     0.241 S 
ATOM     15  O   UNL A   1      35.995  23.189  25.709  1.00  0.00    -0.207 OA
ATOM     16  O   UNL A   1      35.764  23.329  23.201  1.00  0.00    -0.207 OA
BRANCH  14  17
ATOM     17  C   UNL A   1      34.460  21.457  24.450  1.00  0.00     0.085 A 
ATOM     18  C   UNL A   1      32.465  17.643  24.694  1.00  0.00     0.044 C 
ATOM     19  C   UNL A   1      33.153  18.971  24.587  1.00  0.00    -0.051 A 
ATOM     20  C   UNL A   1      32.449  20.115  24.212  1.00  0.00     0.005 A 
ATOM     21  C   UNL A   1      34.532  19.069  24.818  1.00  0.00     0.008 A 
ATOM     22  C   UNL A   1      33.099  21.346  24.135  1.00  0.00     0.022 A 
ATOM     23  C   UNL A   1      35.210  20.301  24.737  1.00  0.00    -0.031 A 
ATOM     24  C   UNL A   1      36.701  20.274  24.937  1.00  0.00     0.046 C 
ENDBRANCH  14  17
ENDBRANCH  12  14
ENDBRANCH   8  12
ENDBRANCH   4   7
ENDBRANCH   2   3
ENDBRANCH   1   2
BRANCH   1  25
ATOM     25  C   UNL A   1      31.383  32.275  26.536  1.00  0.00     0.023 C 
BRANCH  25  26
ATOM     26  C   UNL A   1      32.602  32.907  27.197  1.00  0.00     0.116 C 
BRANCH  26  27
ATOM     27  N   UNL A   1      32.365  34.263  27.663  1.00  0.00    -0.352 N 
ATOM     28  C   UNL A   1      33.008  34.952  28.664  1.00  0.00     0.251 C 
ATOM     29  H   UNL A   1      31.649  34.755  27.200  1.00  0.00     0.163 HD
ATOM     30  O   UNL A   1      32.612  36.056  29.021  1.00  0.00    -0.269 OA
BRANCH  28  31
ATOM     31  C   UNL A   1      34.168  34.333  29.339  1.00  0.00     0.039 A 
ATOM     32  C   UNL A   1      33.941  33.482  30.423  1.00  0.00     0.014 A 
ATOM     33  C   UNL A   1      35.469  34.576  28.890  1.00  0.00     0.014 A 
ATOM     34  C   UNL A   1      35.018  32.823  31.019  1.00  0.00     0.010 A 
ATOM     35  C   UNL A   1      36.529  33.861  29.434  1.00  0.00     0.010 A 
ATOM     36  C   UNL A   1      36.315  32.983  30.507  1.00  0.00    -0.014 A 
BRANCH  36  37
ATOM     37  C   UNL A   1      37.468  32.254  31.089  1.00  0.00     0.031 A 
ATOM     38  C   UNL A   1      37.962  32.607  32.463  1.00  0.00     0.074 A 
ATOM     39  C   UNL A   1      38.109  31.323  30.359  1.00  0.00     0.049 A 
ATOM     40  N   UNL A   1      38.990  32.135  33.123  1.00  0.00    -0.248 NA
ATOM     41  C   UNL A   1      37.219  33.656  33.178  1.00  0.00     0.031 C 
ATOM     42  C   UNL A   1      37.751  30.921  28.999  1.00  0.00     0.029 A 
ATOM     43  N   UNL A   1      39.202  30.550  30.658  1.00  0.00    -0.354 N 
ATOM     44  C   UNL A   1      39.026  32.842  34.317  1.00  0.00     0.074 A 
ATOM     45  C   UNL A   1      37.955  33.814  34.266  1.00  0.00     0.031 C 
ATOM     46  C   UNL A   1      38.586  29.950  28.594  1.00  0.00     0.029 A 
ATOM     47  C   UNL A   1      39.558  29.688  29.650  1.00  0.00     0.049 A 
ATOM     48  H   UNL A   1      39.685  30.608  31.514  1.00  0.00     0.167 HD
ATOM     49  C   UNL A   1      39.860  32.679  35.372  1.00  0.00     0.037 A 
ATOM     50  C   UNL A   1      40.556  28.786  29.591  1.00  0.00     0.037 A 
ATOM     51  C   UNL A   1      40.907  31.694  35.428  1.00  0.00     0.049 A 
ATOM     52  C   UNL A   1      41.478  28.630  30.769  1.00  0.00     0.074 A 
ATOM     53  C   UNL A   1      41.766  31.403  36.473  1.00  0.00     0.029 A 
ATOM     54  N   UNL A   1      41.237  30.836  34.388  1.00  0.00    -0.354 N 
ATOM     55  N   UNL A   1      41.464  29.256  31.920  1.00  0.00    -0.248 NA
ATOM     56  C   UNL A   1      42.552  27.637  30.638  1.00  0.00     0.031 C 
ATOM     57  C   UNL A   1      42.644  30.399  36.049  1.00  0.00     0.029 A 
ATOM     58  C   UNL A   1      42.303  30.031  34.758  1.00  0.00     0.049 A 
ATOM     59  H   UNL A   1      40.782  30.805  33.516  1.00  0.00     0.167 HD
ATOM     60  C   UNL A   1      42.503  28.712  32.663  1.00  0.00     0.074 A 
ATOM     61  C   UNL A   1      43.124  27.701  31.832  1.00  0.00     0.031 C 
ATOM     62  C   UNL A   1      42.902  29.021  33.922  1.00  0.00     0.037 A 
BRANCH  49  63
ATOM     63  C   UNL A   1      39.667  33.596  36.544  1.00  0.00     0.064 A 
ATOM     64  C   UNL A   1      38.848  33.244  37.629  1.00  0.00     0.173 A 
ATOM     65  C   UNL A   1      40.300  34.848  36.582  1.00  0.00     0.173 A 
ATOM     66  F   UNL A   1      38.209  32.064  37.637  1.00  0.00    -0.203 F 
ATOM     67  C   UNL A   1      38.631  34.129  38.682  1.00  0.00     0.198 A 
ATOM     68  C   UNL A   1      40.107  35.716  37.654  1.00  0.00     0.198 A 
ATOM     69  F   UNL A   1      41.099  35.233  35.576  1.00  0.00    -0.203 F 
ATOM     70  F   UNL A   1      37.790  33.796  39.671  1.00  0.00    -0.200 F 
ATOM     71  C   UNL A   1      39.264  35.362  38.696  1.00  0.00     0.200 A 
ATOM     72  F   UNL A   1      40.730  36.904  37.672  1.00  0.00    -0.200 F 
ATOM     73  F   UNL A   1      39.051  36.214  39.707  1.00  0.00    -0.200 F 
ENDBRANCH  49  63
BRANCH  50  74
ATOM     74  C   UNL A   1      40.695  27.919  28.394  1.00  0.00     0.064 A 
ATOM     75  C   UNL A   1      41.460  28.340  27.297  1.00  0.00     0.173 A 
ATOM     76  C   UNL A   1      40.090  26.656  28.325  1.00  0.00     0.173 A 
ATOM     77  F   UNL A   1      42.040  29.549  27.311  1.00  0.00    -0.203 F 
ATOM     78  C   UNL A   1      41.606  27.534  26.170  1.00  0.00     0.198 A 
ATOM     79  C   UNL A   1      40.257  25.841  27.206  1.00  0.00     0.198 A 
ATOM     80  F   UNL A   1      39.352  26.207  29.349  1.00  0.00    -0.203 F 
ATOM     81  F   UNL A   1      42.316  27.974  25.123  1.00  0.00    -0.200 F 
ATOM     82  C   UNL A   1      41.010  26.283  26.128  1.00  0.00     0.200 A 
ATOM     83  F   UNL A   1      39.689  24.628  27.173  1.00  0.00    -0.200 F 
ATOM     84  F   UNL A   1      41.158  25.505  25.047  1.00  0.00    -0.200 F 
ENDBRANCH  50  74
BRANCH  62  85
ATOM     85  C   UNL A   1      44.040  28.227  34.494  1.00  0.00     0.064 A 
ATOM     86  C   UNL A   1      43.831  27.002  35.143  1.00  0.00     0.173 A 
ATOM     87  C   UNL A   1      45.360  28.682  34.356  1.00  0.00     0.173 A 
ATOM     88  F   UNL A   1      42.586  26.532  35.315  1.00  0.00    -0.203 F 
ATOM     89  C   UNL A   1      44.902  26.273  35.654  1.00  0.00     0.198 A 
ATOM     90  C   UNL A   1      46.430  27.937  34.843  1.00  0.00     0.198 A 
ATOM     91  F   UNL A   1      45.612  29.847  33.738  1.00  0.00    -0.203 F 
ATOM     92  F   UNL A   1      44.677  25.126  36.311  1.00  0.00    -0.200 F 
ATOM     93  C   UNL A   1      46.200  26.737  35.497  1.00  0.00     0.200 A 
ATOM     94  F   UNL A   1      47.684  28.381  34.680  1.00  0.00    -0.200 F 
ATOM     95  F   UNL A   1      47.228  26.030  35.984  1.00  0.00    -0.200 F 
ENDBRANCH  62  85
ENDBRANCH  36  37
ENDBRANCH  28  31
ENDBRANCH  26  27
ENDBRANCH  25  26
ENDBRANCH   1  25
TORSDOF 14
ENDMDL
