MODEL 1
REMARK VINA RESULT:     -13.1      0.000      0.000
REMARK SMILES Cc1cccc(C)c1NC(=O)/C(C#N)=C/c1ccc(C(=O)NCCCCNC(=O)c2ccc(-c3c4nc(c(-c5c(F)c(F)c(F)c(F)c5F)c5ccc([nH]5)c(-c5c(F)c(F)c(F)c(F)c5F)c5nc(c(-c6c(F)c(F)c(F)c(F)c6F)c6ccc3[nH]6)C=C5)C=C4)cc2)cc1
REMARK SMILES IDX 24 1 23 2 22 3 20 4 21 5 19 7 16 8 17 9 94 10 18 11 93 12
REMARK SMILES IDX 15 13 12 14 10 15 9 16 11 18 8 19 1 20 2 21 3 22 4 23 6 24
REMARK SMILES IDX 5 25 7 26 13 27 14 28 25 29 26 30 27 31 28 32 29 34 30 35
REMARK SMILES IDX 31 36 92 37 32 38 91 39 33 40 34 41 35 42 85 43 36 44 90 45
REMARK SMILES IDX 84 46 86 47 37 48 89 49 83 50 82 51 38 53 70 54 50 55 69 56
REMARK SMILES IDX 51 57 54 58 68 59 87 60 52 61 53 62 67 64 88 65 55 66 39 67
REMARK SMILES IDX 40 68 48 69 41 70 42 71 46 72 49 73 43 74 44 75 47 76 45 77
REMARK SMILES IDX 71 78 72 79 80 80 73 81 74 82 78 83 81 84 75 85 76 86 79 87
REMARK SMILES IDX 77 88 56 89 57 90 65 91 58 92 59 93 63 94 66 95 60 96 61 97
REMARK SMILES IDX 64 98 62 99
REMARK H PARENT 22 6 9 17 27 33 86 52 54 63
REMARK Flexibility Score: inf
ROOT
ATOM      1  C   UNL A   1      31.934  30.451  26.906  1.00  0.00     0.023 C 
ENDROOT
BRANCH   1   2
ATOM      2  C   UNL A   1      32.249  29.804  25.556  1.00  0.00     0.116 C 
BRANCH   2   3
ATOM      3  N   UNL A   1      31.182  30.041  24.600  1.00  0.00    -0.352 N 
ATOM      4  C   UNL A   1      30.480  29.167  23.805  1.00  0.00     0.251 C 
ATOM      5  O   UNL A   1      29.535  29.602  23.148  1.00  0.00    -0.269 OA
ATOM      6  H   UNL A   1      30.919  30.985  24.505  1.00  0.00     0.163 HD
BRANCH   4   7
ATOM      7  C   UNL A   1      30.781  27.710  23.776  1.00  0.00     0.039 A 
ATOM      8  C   UNL A   1      31.292  24.949  24.050  1.00  0.00    -0.024 A 
ATOM      9  C   UNL A   1      29.985  25.450  24.151  1.00  0.00     0.009 A 
ATOM     10  C   UNL A   1      32.305  25.821  23.654  1.00  0.00     0.009 A 
ATOM     11  C   UNL A   1      29.731  26.821  24.020  1.00  0.00     0.014 A 
ATOM     12  C   UNL A   1      32.048  27.188  23.514  1.00  0.00     0.014 A 
BRANCH   8  13
ATOM     13  C   UNL A   1      31.525  23.543  24.432  1.00  0.00     0.033 C 
ATOM     14  C   UNL A   1      32.368  22.667  23.837  1.00  0.00     0.118 C 
BRANCH  14  15
ATOM     15  C   UNL A   1      32.649  21.430  24.614  1.00  0.00     0.266 C 
ATOM     16  N   UNL A   1      33.862  21.178  25.198  1.00  0.00    -0.321 N 
ATOM     17  H   UNL A   1      33.927  20.271  25.575  1.00  0.00     0.170 HD
ATOM     18  O   UNL A   1      31.776  20.560  24.703  1.00  0.00    -0.268 OA
BRANCH  16  19
ATOM     19  C   UNL A   1      35.042  21.938  25.378  1.00  0.00     0.047 A 
ATOM     20  C   UNL A   1      36.371  19.822  24.784  1.00  0.00     0.046 C 
ATOM     21  C   UNL A   1      36.267  21.302  25.053  1.00  0.00    -0.027 A 
ATOM     22  C   UNL A   1      37.446  22.061  24.966  1.00  0.00     0.005 A 
ATOM     23  C   UNL A   1      37.437  23.417  25.254  1.00  0.00     0.001 A 
ATOM     24  C   UNL A   1      35.089  23.254  25.880  1.00  0.00    -0.027 A 
ATOM     25  C   UNL A   1      36.275  24.001  25.742  1.00  0.00     0.005 A 
ATOM     26  C   UNL A   1      34.033  23.846  26.777  1.00  0.00     0.046 C 
ENDBRANCH  16  19
ENDBRANCH  14  15
BRANCH  14  27
ATOM     27  C   UNL A   1      33.014  22.880  22.589  1.00  0.00     0.105 C 
ATOM     28  N   UNL A   1      33.497  23.076  21.550  1.00  0.00    -0.192 NA
ENDBRANCH  14  27
ENDBRANCH   8  13
ENDBRANCH   4   7
ENDBRANCH   2   3
ENDBRANCH   1   2
BRANCH   1  29
ATOM     29  C   UNL A   1      31.688  31.957  26.845  1.00  0.00     0.023 C 
BRANCH  29  30
ATOM     30  C   UNL A   1      32.861  32.812  27.297  1.00  0.00     0.116 C 
BRANCH  30  31
ATOM     31  N   UNL A   1      32.480  34.177  27.635  1.00  0.00    -0.352 N 
ATOM     32  C   UNL A   1      32.994  34.987  28.619  1.00  0.00     0.251 C 
ATOM     33  H   UNL A   1      31.763  34.569  27.087  1.00  0.00     0.163 HD
ATOM     34  O   UNL A   1      32.483  36.073  28.869  1.00  0.00    -0.269 OA
BRANCH  32  35
ATOM     35  C   UNL A   1      34.152  34.511  29.402  1.00  0.00     0.039 A 
ATOM     36  C   UNL A   1      33.924  33.868  30.620  1.00  0.00     0.014 A 
ATOM     37  C   UNL A   1      35.449  34.648  28.902  1.00  0.00     0.014 A 
ATOM     38  C   UNL A   1      34.998  33.300  31.305  1.00  0.00     0.010 A 
ATOM     39  C   UNL A   1      36.502  34.003  29.538  1.00  0.00     0.010 A 
ATOM     40  C   UNL A   1      36.289  33.326  30.748  1.00  0.00    -0.014 A 
BRANCH  40  41
ATOM     41  C   UNL A   1      37.428  32.651  31.420  1.00  0.00     0.031 A 
ATOM     42  C   UNL A   1      38.100  31.476  30.765  1.00  0.00     0.074 A 
ATOM     43  C   UNL A   1      37.818  33.057  32.644  1.00  0.00     0.049 A 
ATOM     44  N   UNL A   1      39.074  30.724  31.213  1.00  0.00    -0.248 NA
ATOM     45  C   UNL A   1      37.595  31.078  29.442  1.00  0.00     0.031 C 
ATOM     46  C   UNL A   1      37.212  34.153  33.404  1.00  0.00     0.029 A 
ATOM     47  N   UNL A   1      38.812  32.594  33.469  1.00  0.00    -0.354 N 
ATOM     48  C   UNL A   1      39.288  29.762  30.234  1.00  0.00     0.074 A 
ATOM     49  C   UNL A   1      38.301  29.984  29.200  1.00  0.00     0.031 C 
ATOM     50  C   UNL A   1      37.867  34.297  34.567  1.00  0.00     0.029 A 
ATOM     51  C   UNL A   1      38.904  33.274  34.659  1.00  0.00     0.049 A 
ATOM     52  H   UNL A   1      39.402  31.843  33.230  1.00  0.00     0.167 HD
ATOM     53  C   UNL A   1      40.238  28.800  30.189  1.00  0.00     0.037 A 
ATOM     54  C   UNL A   1      39.727  33.088  35.710  1.00  0.00     0.037 A 
ATOM     55  C   UNL A   1      41.224  28.592  31.216  1.00  0.00     0.049 A 
ATOM     56  C   UNL A   1      40.754  31.989  35.647  1.00  0.00     0.074 A 
ATOM     57  C   UNL A   1      42.262  27.678  31.243  1.00  0.00     0.029 A 
ATOM     58  N   UNL A   1      41.287  29.302  32.407  1.00  0.00    -0.354 N 
ATOM     59  N   UNL A   1      40.996  31.134  34.684  1.00  0.00    -0.248 NA
ATOM     60  C   UNL A   1      41.628  31.834  36.818  1.00  0.00     0.031 C 
ATOM     61  C   UNL A   1      42.910  27.787  32.477  1.00  0.00     0.029 A 
ATOM     62  C   UNL A   1      42.327  28.824  33.188  1.00  0.00     0.049 A 
ATOM     63  H   UNL A   1      40.683  30.038  32.659  1.00  0.00     0.167 HD
ATOM     64  C   UNL A   1      42.070  30.366  35.114  1.00  0.00     0.074 A 
ATOM     65  C   UNL A   1      42.442  30.866  36.421  1.00  0.00     0.031 C 
ATOM     66  C   UNL A   1      42.693  29.339  34.484  1.00  0.00     0.037 A 
BRANCH  53  67
ATOM     67  C   UNL A   1      40.256  27.892  28.990  1.00  0.00     0.064 A 
ATOM     68  C   UNL A   1      40.988  28.207  27.834  1.00  0.00     0.173 A 
ATOM     69  C   UNL A   1      39.559  26.675  29.010  1.00  0.00     0.173 A 
ATOM     70  F   UNL A   1      41.664  29.364  27.756  1.00  0.00    -0.203 F 
ATOM     71  C   UNL A   1      40.994  27.355  26.733  1.00  0.00     0.198 A 
ATOM     72  C   UNL A   1      39.598  25.807  27.922  1.00  0.00     0.198 A 
ATOM     73  F   UNL A   1      38.847  26.320  30.090  1.00  0.00    -0.203 F 
ATOM     74  F   UNL A   1      41.653  27.706  25.620  1.00  0.00    -0.200 F 
ATOM     75  C   UNL A   1      40.306  26.152  26.781  1.00  0.00     0.200 A 
ATOM     76  F   UNL A   1      38.947  24.637  27.977  1.00  0.00    -0.200 F 
ATOM     77  F   UNL A   1      40.321  25.328  25.724  1.00  0.00    -0.200 F 
ENDBRANCH  53  67
BRANCH  54  78
ATOM     78  C   UNL A   1      39.623  33.969  36.903  1.00  0.00     0.064 A 
ATOM     79  C   UNL A   1      38.872  33.585  38.023  1.00  0.00     0.173 A 
ATOM     80  C   UNL A   1      40.257  35.221  36.945  1.00  0.00     0.173 A 
ATOM     81  F   UNL A   1      38.230  32.407  38.027  1.00  0.00    -0.203 F 
ATOM     82  C   UNL A   1      38.734  34.428  39.124  1.00  0.00     0.198 A 
ATOM     83  C   UNL A   1      40.149  36.047  38.061  1.00  0.00     0.198 A 
ATOM     84  F   UNL A   1      40.994  35.636  35.904  1.00  0.00    -0.203 F 
ATOM     85  F   UNL A   1      37.962  34.059  40.155  1.00  0.00    -0.200 F 
ATOM     86  C   UNL A   1      39.377  35.656  39.144  1.00  0.00     0.200 A 
ATOM     87  F   UNL A   1      40.787  37.225  38.084  1.00  0.00    -0.200 F 
ATOM     88  F   UNL A   1      39.247  36.466  40.204  1.00  0.00    -0.200 F 
ENDBRANCH  54  78
BRANCH  66  89
ATOM     89  C   UNL A   1      43.877  28.718  35.172  1.00  0.00     0.064 A 
ATOM     90  C   UNL A   1      43.742  27.627  36.043  1.00  0.00     0.173 A 
ATOM     91  C   UNL A   1      45.172  29.199  34.919  1.00  0.00     0.173 A 
ATOM     92  F   UNL A   1      42.527  27.137  36.331  1.00  0.00    -0.203 F 
ATOM     93  C   UNL A   1      44.856  27.062  36.659  1.00  0.00     0.198 A 
ATOM     94  C   UNL A   1      46.285  28.606  35.505  1.00  0.00     0.198 A 
ATOM     95  F   UNL A   1      45.359  30.234  34.087  1.00  0.00    -0.203 F 
ATOM     96  F   UNL A   1      44.698  26.056  37.532  1.00  0.00    -0.200 F 
ATOM     97  C   UNL A   1      46.127  27.544  36.383  1.00  0.00     0.200 A 
ATOM     98  F   UNL A   1      47.513  29.061  35.220  1.00  0.00    -0.200 F 
ATOM     99  F   UNL A   1      47.198  26.991  36.967  1.00  0.00    -0.200 F 
ENDBRANCH  66  89
ENDBRANCH  40  41
ENDBRANCH  32  35
ENDBRANCH  30  31
ENDBRANCH  29  30
ENDBRANCH   1  29
TORSDOF 15
ENDMDL
MODEL 2
REMARK VINA RESULT:     -13.0      2.032      7.800
REMARK SMILES Cc1cccc(C)c1NC(=O)/C(C#N)=C/c1ccc(C(=O)NCCCCNC(=O)c2ccc(-c3c4nc(c(-c5c(F)c(F)c(F)c(F)c5F)c5ccc([nH]5)c(-c5c(F)c(F)c(F)c(F)c5F)c5nc(c(-c6c(F)c(F)c(F)c(F)c6F)c6ccc3[nH]6)C=C5)C=C4)cc2)cc1
REMARK SMILES IDX 24 1 23 2 22 3 20 4 21 5 19 7 16 8 17 9 94 10 18 11 93 12
REMARK SMILES IDX 15 13 12 14 10 15 9 16 11 18 8 19 1 20 2 21 3 22 4 23 6 24
REMARK SMILES IDX 5 25 7 26 13 27 14 28 25 29 26 30 27 31 28 32 29 34 30 35
REMARK SMILES IDX 31 36 92 37 32 38 91 39 33 40 34 41 35 42 85 43 36 44 90 45
REMARK SMILES IDX 84 46 86 47 37 48 89 49 83 50 82 51 38 53 70 54 50 55 69 56
REMARK SMILES IDX 51 57 54 58 68 59 87 60 52 61 53 62 67 64 88 65 55 66 39 67
REMARK SMILES IDX 40 68 48 69 41 70 42 71 46 72 49 73 43 74 44 75 47 76 45 77
REMARK SMILES IDX 71 78 72 79 80 80 73 81 74 82 78 83 81 84 75 85 76 86 79 87
REMARK SMILES IDX 77 88 56 89 57 90 65 91 58 92 59 93 63 94 66 95 60 96 61 97
REMARK SMILES IDX 64 98 62 99
REMARK H PARENT 22 6 9 17 27 33 86 52 54 63
REMARK Flexibility Score: inf
ROOT
ATOM      1  C   UNL A   1      34.423  33.286  29.023  1.00  0.00     0.023 C 
ENDROOT
BRANCH   1   2
ATOM      2  C   UNL A   1      34.615  32.346  27.831  1.00  0.00     0.116 C 
BRANCH   2   3
ATOM      3  N   UNL A   1      35.497  31.243  28.171  1.00  0.00    -0.352 N 
ATOM      4  C   UNL A   1      35.425  29.907  27.856  1.00  0.00     0.251 C 
ATOM      5  O   UNL A   1      36.363  29.179  28.173  1.00  0.00    -0.269 OA
ATOM      6  H   UNL A   1      36.275  31.495  28.718  1.00  0.00     0.163 HD
BRANCH   4   7
ATOM      7  C   UNL A   1      34.287  29.339  27.083  1.00  0.00     0.039 A 
ATOM      8  C   UNL A   1      32.098  28.040  25.864  1.00  0.00    -0.024 A 
ATOM      9  C   UNL A   1      31.915  28.846  27.000  1.00  0.00     0.009 A 
ATOM     10  C   UNL A   1      33.355  28.026  25.262  1.00  0.00     0.009 A 
ATOM     11  C   UNL A   1      33.001  29.486  27.607  1.00  0.00     0.014 A 
ATOM     12  C   UNL A   1      34.437  28.675  25.865  1.00  0.00     0.014 A 
BRANCH   8  13
ATOM     13  C   UNL A   1      30.966  27.207  25.416  1.00  0.00     0.033 C 
ATOM     14  C   UNL A   1      30.273  27.329  24.261  1.00  0.00     0.118 C 
BRANCH  14  15
ATOM     15  C   UNL A   1      29.406  26.170  23.916  1.00  0.00     0.266 C 
ATOM     16  N   UNL A   1      29.908  24.953  23.539  1.00  0.00    -0.321 N 
ATOM     17  H   UNL A   1      29.212  24.328  23.231  1.00  0.00     0.170 HD
ATOM     18  O   UNL A   1      28.179  26.312  23.916  1.00  0.00    -0.268 OA
BRANCH  16  19
ATOM     19  C   UNL A   1      31.208  24.398  23.494  1.00  0.00     0.047 A 
ATOM     20  C   UNL A   1      30.805  23.527  25.877  1.00  0.00     0.046 C 
ATOM     21  C   UNL A   1      31.597  23.593  24.595  1.00  0.00    -0.027 A 
ATOM     22  C   UNL A   1      32.762  22.812  24.513  1.00  0.00     0.005 A 
ATOM     23  C   UNL A   1      33.571  22.864  23.387  1.00  0.00     0.001 A 
ATOM     24  C   UNL A   1      32.145  24.610  22.462  1.00  0.00    -0.027 A 
ATOM     25  C   UNL A   1      33.283  23.783  22.386  1.00  0.00     0.005 A 
ATOM     26  C   UNL A   1      32.143  25.821  21.566  1.00  0.00     0.046 C 
ENDBRANCH  16  19
ENDBRANCH  14  15
BRANCH  14  27
ATOM     27  C   UNL A   1      30.367  28.432  23.369  1.00  0.00     0.105 C 
ATOM     28  N   UNL A   1      30.417  29.306  22.604  1.00  0.00    -0.192 NA
ENDBRANCH  14  27
ENDBRANCH   8  13
ENDBRANCH   4   7
ENDBRANCH   2   3
ENDBRANCH   1   2
BRANCH   1  29
ATOM     29  C   UNL A   1      33.292  34.298  28.855  1.00  0.00     0.023 C 
BRANCH  29  30
ATOM     30  C   UNL A   1      33.571  35.668  29.451  1.00  0.00     0.116 C 
BRANCH  30  31
ATOM     31  N   UNL A   1      32.612  36.054  30.478  1.00  0.00    -0.352 N 
ATOM     32  C   UNL A   1      32.649  35.782  31.824  1.00  0.00     0.251 C 
ATOM     33  H   UNL A   1      31.839  36.578  30.167  1.00  0.00     0.163 HD
ATOM     34  O   UNL A   1      31.701  36.065  32.548  1.00  0.00    -0.269 OA
BRANCH  32  35
ATOM     35  C   UNL A   1      33.836  35.105  32.382  1.00  0.00     0.039 A 
ATOM     36  C   UNL A   1      33.705  33.801  32.863  1.00  0.00     0.014 A 
ATOM     37  C   UNL A   1      35.082  35.737  32.374  1.00  0.00     0.014 A 
ATOM     38  C   UNL A   1      34.843  33.105  33.272  1.00  0.00     0.010 A 
ATOM     39  C   UNL A   1      36.222  35.012  32.694  1.00  0.00     0.010 A 
ATOM     40  C   UNL A   1      36.115  33.690  33.151  1.00  0.00    -0.014 A 
BRANCH  40  41
ATOM     41  C   UNL A   1      37.344  32.933  33.499  1.00  0.00     0.031 A 
ATOM     42  C   UNL A   1      38.073  33.228  34.780  1.00  0.00     0.074 A 
ATOM     43  C   UNL A   1      37.836  32.023  32.635  1.00  0.00     0.049 A 
ATOM     44  N   UNL A   1      39.187  32.715  35.236  1.00  0.00    -0.248 NA
ATOM     45  C   UNL A   1      37.486  34.256  35.654  1.00  0.00     0.031 C 
ATOM     46  C   UNL A   1      37.247  31.684  31.338  1.00  0.00     0.029 A 
ATOM     47  N   UNL A   1      38.947  31.222  32.713  1.00  0.00    -0.354 N 
ATOM     48  C   UNL A   1      39.436  33.362  36.440  1.00  0.00     0.074 A 
ATOM     49  C   UNL A   1      38.396  34.351  36.611  1.00  0.00     0.031 C 
ATOM     50  C   UNL A   1      37.983  30.723  30.758  1.00  0.00     0.029 A 
ATOM     51  C   UNL A   1      39.123  30.414  31.616  1.00  0.00     0.049 A 
ATOM     52  H   UNL A   1      39.561  31.227  33.482  1.00  0.00     0.167 HD
ATOM     53  C   UNL A   1      40.427  33.133  37.333  1.00  0.00     0.037 A 
ATOM     54  C   UNL A   1      40.098  29.530  31.329  1.00  0.00     0.037 A 
ATOM     55  C   UNL A   1      41.453  32.138  37.161  1.00  0.00     0.049 A 
ATOM     56  C   UNL A   1      41.206  29.317  32.327  1.00  0.00     0.074 A 
ATOM     57  C   UNL A   1      42.472  31.792  38.030  1.00  0.00     0.029 A 
ATOM     58  N   UNL A   1      41.598  31.338  36.037  1.00  0.00    -0.354 N 
ATOM     59  N   UNL A   1      41.391  29.881  33.495  1.00  0.00    -0.248 NA
ATOM     60  C   UNL A   1      42.241  28.339  31.966  1.00  0.00     0.031 C 
ATOM     61  C   UNL A   1      43.273  30.832  37.404  1.00  0.00     0.029 A 
ATOM     62  C   UNL A   1      42.708  30.521  36.178  1.00  0.00     0.049 A 
ATOM     63  H   UNL A   1      40.999  31.347  35.255  1.00  0.00     0.167 HD
ATOM     64  C   UNL A   1      42.536  29.302  34.025  1.00  0.00     0.074 A 
ATOM     65  C   UNL A   1      42.997  28.331  33.055  1.00  0.00     0.031 C 
ATOM     66  C   UNL A   1      43.151  29.551  35.209  1.00  0.00     0.037 A 
BRANCH  53  67
ATOM     67  C   UNL A   1      40.453  33.977  38.577  1.00  0.00     0.064 A 
ATOM     68  C   UNL A   1      41.189  35.170  38.646  1.00  0.00     0.173 A 
ATOM     69  C   UNL A   1      39.704  33.606  39.704  1.00  0.00     0.173 A 
ATOM     70  F   UNL A   1      41.932  35.568  37.601  1.00  0.00    -0.203 F 
ATOM     71  C   UNL A   1      41.202  35.941  39.805  1.00  0.00     0.198 A 
ATOM     72  C   UNL A   1      39.688  34.398  40.848  1.00  0.00     0.198 A 
ATOM     73  F   UNL A   1      38.978  32.478  39.693  1.00  0.00    -0.203 F 
ATOM     74  F   UNL A   1      41.959  37.045  39.866  1.00  0.00    -0.200 F 
ATOM     75  C   UNL A   1      40.445  35.559  40.902  1.00  0.00     0.200 A 
ATOM     76  F   UNL A   1      38.942  34.037  41.901  1.00  0.00    -0.200 F 
ATOM     77  F   UNL A   1      40.450  36.307  42.014  1.00  0.00    -0.200 F 
ENDBRANCH  53  67
BRANCH  54  78
ATOM     78  C   UNL A   1      40.065  28.769  30.052  1.00  0.00     0.064 A 
ATOM     79  C   UNL A   1      39.440  27.516  29.973  1.00  0.00     0.173 A 
ATOM     80  C   UNL A   1      40.670  29.267  28.888  1.00  0.00     0.173 A 
ATOM     81  F   UNL A   1      38.863  26.985  31.061  1.00  0.00    -0.203 F 
ATOM     82  C   UNL A   1      39.448  26.779  28.790  1.00  0.00     0.198 A 
ATOM     83  C   UNL A   1      40.646  28.547  27.697  1.00  0.00     0.198 A 
ATOM     84  F   UNL A   1      41.276  30.464  28.906  1.00  0.00    -0.203 F 
ATOM     85  F   UNL A   1      38.895  25.559  28.759  1.00  0.00    -0.200 F 
ATOM     86  C   UNL A   1      40.046  27.298  27.651  1.00  0.00     0.200 A 
ATOM     87  F   UNL A   1      41.209  29.059  26.595  1.00  0.00    -0.200 F 
ATOM     88  F   UNL A   1      40.051  26.590  26.513  1.00  0.00    -0.200 F 
ENDBRANCH  54  78
BRANCH  66  89
ATOM     89  C   UNL A   1      44.360  28.725  35.549  1.00  0.00     0.064 A 
ATOM     90  C   UNL A   1      45.659  29.140  35.223  1.00  0.00     0.173 A 
ATOM     91  C   UNL A   1      44.215  27.518  36.252  1.00  0.00     0.173 A 
ATOM     92  F   UNL A   1      45.854  30.278  34.539  1.00  0.00    -0.203 F 
ATOM     93  C   UNL A   1      46.765  28.364  35.560  1.00  0.00     0.198 A 
ATOM     94  C   UNL A   1      45.324  26.765  36.622  1.00  0.00     0.198 A 
ATOM     95  F   UNL A   1      42.996  27.078  36.597  1.00  0.00    -0.203 F 
ATOM     96  F   UNL A   1      47.993  28.752  35.189  1.00  0.00    -0.200 F 
ATOM     97  C   UNL A   1      46.598  27.182  36.268  1.00  0.00     0.200 A 
ATOM     98  F   UNL A   1      45.161  25.635  37.324  1.00  0.00    -0.200 F 
ATOM     99  F   UNL A   1      47.664  26.443  36.602  1.00  0.00    -0.200 F 
ENDBRANCH  66  89
ENDBRANCH  40  41
ENDBRANCH  32  35
ENDBRANCH  30  31
ENDBRANCH  29  30
ENDBRANCH   1  29
TORSDOF 15
ENDMDL
MODEL 3
REMARK VINA RESULT:     -13.0      5.356     11.235
REMARK SMILES Cc1cccc(C)c1NC(=O)/C(C#N)=C/c1ccc(C(=O)NCCCCNC(=O)c2ccc(-c3c4nc(c(-c5c(F)c(F)c(F)c(F)c5F)c5ccc([nH]5)c(-c5c(F)c(F)c(F)c(F)c5F)c5nc(c(-c6c(F)c(F)c(F)c(F)c6F)c6ccc3[nH]6)C=C5)C=C4)cc2)cc1
REMARK SMILES IDX 24 1 23 2 22 3 20 4 21 5 19 7 16 8 17 9 94 10 18 11 93 12
REMARK SMILES IDX 15 13 12 14 10 15 9 16 11 18 8 19 1 20 2 21 3 22 4 23 6 24
REMARK SMILES IDX 5 25 7 26 13 27 14 28 25 29 26 30 27 31 28 32 29 34 30 35
REMARK SMILES IDX 31 36 92 37 32 38 91 39 33 40 34 41 35 42 85 43 36 44 90 45
REMARK SMILES IDX 84 46 86 47 37 48 89 49 83 50 82 51 38 53 70 54 50 55 69 56
REMARK SMILES IDX 51 57 54 58 68 59 87 60 52 61 53 62 67 64 88 65 55 66 39 67
REMARK SMILES IDX 40 68 48 69 41 70 42 71 46 72 49 73 43 74 44 75 47 76 45 77
REMARK SMILES IDX 71 78 72 79 80 80 73 81 74 82 78 83 81 84 75 85 76 86 79 87
REMARK SMILES IDX 77 88 56 89 57 90 65 91 58 92 59 93 63 94 66 95 60 96 61 97
REMARK SMILES IDX 64 98 62 99
REMARK H PARENT 22 6 9 17 27 33 86 52 54 63
REMARK Flexibility Score: inf
ROOT
ATOM      1  C   UNL A   1      37.188  21.125  24.646  1.00  0.00     0.023 C 
ENDROOT
BRANCH   1   2
ATOM      2  C   UNL A   1      36.227  21.559  25.754  1.00  0.00     0.116 C 
BRANCH   2   3
ATOM      3  N   UNL A   1      35.022  20.748  25.749  1.00  0.00    -0.352 N 
ATOM      4  C   UNL A   1      33.792  20.973  25.179  1.00  0.00     0.251 C 
ATOM      5  O   UNL A   1      32.953  20.074  25.222  1.00  0.00    -0.269 OA
ATOM      6  H   UNL A   1      35.099  19.896  26.236  1.00  0.00     0.163 HD
BRANCH   4   7
ATOM      7  C   UNL A   1      33.476  22.233  24.452  1.00  0.00     0.039 A 
ATOM      8  C   UNL A   1      32.634  24.665  23.296  1.00  0.00    -0.024 A 
ATOM      9  C   UNL A   1      33.302  24.650  24.531  1.00  0.00     0.009 A 
ATOM     10  C   UNL A   1      32.540  23.471  22.582  1.00  0.00     0.009 A 
ATOM     11  C   UNL A   1      33.716  23.443  25.107  1.00  0.00     0.014 A 
ATOM     12  C   UNL A   1      32.963  22.268  23.155  1.00  0.00     0.014 A 
BRANCH   8  13
ATOM     13  C   UNL A   1      32.016  25.931  22.858  1.00  0.00     0.033 C 
ATOM     14  C   UNL A   1      31.101  26.665  23.532  1.00  0.00     0.118 C 
BRANCH  14  15
ATOM     15  C   UNL A   1      30.893  28.046  23.018  1.00  0.00     0.266 C 
ATOM     16  N   UNL A   1      31.379  29.157  23.654  1.00  0.00    -0.321 N 
ATOM     17  H   UNL A   1      31.060  29.999  23.256  1.00  0.00     0.170 HD
ATOM     18  O   UNL A   1      30.212  28.217  22.002  1.00  0.00    -0.268 OA
BRANCH  16  19
ATOM     19  C   UNL A   1      32.240  29.359  24.759  1.00  0.00     0.047 A 
ATOM     20  C   UNL A   1      30.651  31.227  25.523  1.00  0.00     0.046 C 
ATOM     21  C   UNL A   1      31.814  30.291  25.739  1.00  0.00    -0.027 A 
ATOM     22  C   UNL A   1      32.482  30.361  26.973  1.00  0.00     0.005 A 
ATOM     23  C   UNL A   1      33.594  29.570  27.221  1.00  0.00     0.001 A 
ATOM     24  C   UNL A   1      33.490  28.731  24.937  1.00  0.00    -0.027 A 
ATOM     25  C   UNL A   1      34.114  28.788  26.198  1.00  0.00     0.005 A 
ATOM     26  C   UNL A   1      34.330  28.202  23.804  1.00  0.00     0.046 C 
ENDBRANCH  16  19
ENDBRANCH  14  15
BRANCH  14  27
ATOM     27  C   UNL A   1      30.399  26.227  24.687  1.00  0.00     0.105 C 
ATOM     28  N   UNL A   1      29.870  25.874  25.661  1.00  0.00    -0.192 NA
ENDBRANCH  14  27
ENDBRANCH   8  13
ENDBRANCH   4   7
ENDBRANCH   2   3
ENDBRANCH   1   2
BRANCH   1  29
ATOM     29  C   UNL A   1      38.064  19.926  25.000  1.00  0.00     0.023 C 
BRANCH  29  30
ATOM     30  C   UNL A   1      39.340  20.269  25.752  1.00  0.00     0.116 C 
BRANCH  30  31
ATOM     31  N   UNL A   1      40.252  19.141  25.882  1.00  0.00    -0.352 N 
ATOM     32  C   UNL A   1      41.603  19.161  26.127  1.00  0.00     0.251 C 
ATOM     33  H   UNL A   1      39.847  18.250  25.782  1.00  0.00     0.163 HD
ATOM     34  O   UNL A   1      42.265  18.130  26.083  1.00  0.00    -0.269 OA
BRANCH  32  35
ATOM     35  C   UNL A   1      42.258  20.455  26.406  1.00  0.00     0.039 A 
ATOM     36  C   UNL A   1      42.804  21.178  25.344  1.00  0.00     0.014 A 
ATOM     37  C   UNL A   1      42.277  20.973  27.703  1.00  0.00     0.014 A 
ATOM     38  C   UNL A   1      43.309  22.457  25.575  1.00  0.00     0.010 A 
ATOM     39  C   UNL A   1      42.695  22.281  27.913  1.00  0.00     0.010 A 
ATOM     40  C   UNL A   1      43.219  23.036  26.853  1.00  0.00    -0.014 A 
BRANCH  40  41
ATOM     41  C   UNL A   1      43.671  24.429  27.099  1.00  0.00     0.031 A 
ATOM     42  C   UNL A   1      42.695  25.461  27.592  1.00  0.00     0.074 A 
ATOM     43  C   UNL A   1      44.943  24.778  26.822  1.00  0.00     0.049 A 
ATOM     44  N   UNL A   1      42.883  26.737  27.816  1.00  0.00    -0.248 NA
ATOM     45  C   UNL A   1      41.319  25.006  27.842  1.00  0.00     0.031 C 
ATOM     46  C   UNL A   1      45.970  23.878  26.292  1.00  0.00     0.029 A 
ATOM     47  N   UNL A   1      45.588  25.982  26.941  1.00  0.00    -0.354 N 
ATOM     48  C   UNL A   1      41.652  27.234  28.222  1.00  0.00     0.074 A 
ATOM     49  C   UNL A   1      40.709  26.140  28.150  1.00  0.00     0.031 C 
ATOM     50  C   UNL A   1      47.122  24.553  26.163  1.00  0.00     0.029 A 
ATOM     51  C   UNL A   1      46.905  25.944  26.550  1.00  0.00     0.049 A 
ATOM     52  H   UNL A   1      45.149  26.798  27.272  1.00  0.00     0.167 HD
ATOM     53  C   UNL A   1      41.342  28.483  28.643  1.00  0.00     0.037 A 
ATOM     54  C   UNL A   1      47.831  26.922  26.502  1.00  0.00     0.037 A 
ATOM     55  C   UNL A   1      42.288  29.564  28.724  1.00  0.00     0.049 A 
ATOM     56  C   UNL A   1      47.450  28.309  26.946  1.00  0.00     0.074 A 
ATOM     57  C   UNL A   1      42.087  30.853  29.185  1.00  0.00     0.029 A 
ATOM     58  N   UNL A   1      43.613  29.487  28.321  1.00  0.00    -0.354 N 
ATOM     59  N   UNL A   1      46.302  28.750  27.399  1.00  0.00    -0.248 NA
ATOM     60  C   UNL A   1      48.499  29.336  26.876  1.00  0.00     0.031 C 
ATOM     61  C   UNL A   1      43.269  31.574  28.998  1.00  0.00     0.029 A 
ATOM     62  C   UNL A   1      44.232  30.714  28.494  1.00  0.00     0.049 A 
ATOM     63  H   UNL A   1      44.050  28.679  27.966  1.00  0.00     0.167 HD
ATOM     64  C   UNL A   1      46.499  30.091  27.703  1.00  0.00     0.074 A 
ATOM     65  C   UNL A   1      47.882  30.388  27.396  1.00  0.00     0.031 C 
ATOM     66  C   UNL A   1      45.614  30.994  28.194  1.00  0.00     0.037 A 
BRANCH  53  67
ATOM     67  C   UNL A   1      39.918  28.749  29.046  1.00  0.00     0.064 A 
ATOM     68  C   UNL A   1      38.972  29.245  28.134  1.00  0.00     0.173 A 
ATOM     69  C   UNL A   1      39.483  28.471  30.350  1.00  0.00     0.173 A 
ATOM     70  F   UNL A   1      39.334  29.538  26.876  1.00  0.00    -0.203 F 
ATOM     71  C   UNL A   1      37.657  29.486  28.523  1.00  0.00     0.198 A 
ATOM     72  C   UNL A   1      38.159  28.677  30.725  1.00  0.00     0.198 A 
ATOM     73  F   UNL A   1      40.342  27.991  31.262  1.00  0.00    -0.203 F 
ATOM     74  F   UNL A   1      36.788  30.015  27.650  1.00  0.00    -0.200 F 
ATOM     75  C   UNL A   1      37.249  29.193  29.815  1.00  0.00     0.200 A 
ATOM     76  F   UNL A   1      37.762  28.377  31.970  1.00  0.00    -0.200 F 
ATOM     77  F   UNL A   1      35.980  29.415  30.186  1.00  0.00    -0.200 F 
ENDBRANCH  53  67
BRANCH  54  78
ATOM     78  C   UNL A   1      49.208  26.622  26.029  1.00  0.00     0.064 A 
ATOM     79  C   UNL A   1      49.598  26.903  24.711  1.00  0.00     0.173 A 
ATOM     80  C   UNL A   1      50.160  26.034  26.876  1.00  0.00     0.173 A 
ATOM     81  F   UNL A   1      48.721  27.448  23.856  1.00  0.00    -0.203 F 
ATOM     82  C   UNL A   1      50.874  26.581  24.252  1.00  0.00     0.198 A 
ATOM     83  C   UNL A   1      51.446  25.745  26.426  1.00  0.00     0.198 A 
ATOM     84  F   UNL A   1      49.843  25.750  28.148  1.00  0.00    -0.203 F 
ATOM     85  F   UNL A   1      51.199  26.807  22.971  1.00  0.00    -0.200 F 
ATOM     86  C   UNL A   1      51.798  26.007  25.111  1.00  0.00     0.200 A 
ATOM     87  F   UNL A   1      52.342  25.208  27.264  1.00  0.00    -0.200 F 
ATOM     88  F   UNL A   1      53.026  25.700  24.669  1.00  0.00    -0.200 F 
ENDBRANCH  54  78
BRANCH  66  89
ATOM     89  C   UNL A   1      46.124  32.379  28.481  1.00  0.00     0.064 A 
ATOM     90  C   UNL A   1      46.111  33.392  27.511  1.00  0.00     0.173 A 
ATOM     91  C   UNL A   1      46.594  32.706  29.764  1.00  0.00     0.173 A 
ATOM     92  F   UNL A   1      45.686  33.131  26.266  1.00  0.00    -0.203 F 
ATOM     93  C   UNL A   1      46.577  34.671  27.806  1.00  0.00     0.198 A 
ATOM     94  C   UNL A   1      47.021  33.995  30.065  1.00  0.00     0.198 A 
ATOM     95  F   UNL A   1      46.620  31.778  30.732  1.00  0.00    -0.203 F 
ATOM     96  F   UNL A   1      46.608  35.608  26.847  1.00  0.00    -0.200 F 
ATOM     97  C   UNL A   1      47.023  34.974  29.084  1.00  0.00     0.200 A 
ATOM     98  F   UNL A   1      47.432  34.290  31.306  1.00  0.00    -0.200 F 
ATOM     99  F   UNL A   1      47.460  36.208  29.368  1.00  0.00    -0.200 F 
ENDBRANCH  66  89
ENDBRANCH  40  41
ENDBRANCH  32  35
ENDBRANCH  30  31
ENDBRANCH  29  30
ENDBRANCH   1  29
TORSDOF 15
ENDMDL
