MODEL 1
REMARK VINA RESULT:     -13.1      0.000      0.000
REMARK SMILES O=C(C[C@H]1CN(S(=O)(=O)c2cc(F)cc(F)c2)CCO1)NCCCCNC(=O)c1ccc(-c2c3nc(c(-c4c(F)c(F)c(F)c(F)c4F)c4ccc([nH]4)c(-c4c(F)c(F)c(F)c(F)c4F)c4nc(c(-c5c(F)c(F)c(F)c(F)c5F)c5ccc2[nH]5)C=C4)C=C3)cc1
REMARK SMILES IDX 23 1 22 2 21 3 1 4 2 5 3 7 4 8 5 9 20 10 6 11 19 12 18 13
REMARK SMILES IDX 7 14 8 15 9 16 10 17 11 18 17 19 12 20 15 21 13 22 14 23
REMARK SMILES IDX 16 24 24 25 25 26 26 27 27 28 28 30 29 31 30 32 91 33 31 34
REMARK SMILES IDX 90 35 32 36 33 37 34 38 84 39 35 40 89 41 83 42 85 43 36 44
REMARK SMILES IDX 88 45 82 46 81 47 37 49 69 50 49 51 68 52 50 53 53 54 67 55
REMARK SMILES IDX 86 56 51 57 52 58 66 60 87 61 54 62 38 63 39 64 47 65 40 66
REMARK SMILES IDX 41 67 45 68 48 69 42 70 43 71 46 72 44 73 70 74 71 75 79 76
REMARK SMILES IDX 72 77 73 78 77 79 80 80 74 81 75 82 78 83 76 84 55 85 56 86
REMARK SMILES IDX 64 87 57 88 58 89 62 90 65 91 59 92 60 93 63 94 61 95
REMARK H PARENT 21 6 26 29 85 48 53 59
REMARK Flexibility Score: inf
ROOT
ATOM      1  C   UNL A   1      31.716  30.708  26.256  1.00  0.00     0.023 C 
ENDROOT
BRANCH   1   2
ATOM      2  C   UNL A   1      32.670  29.892  27.127  1.00  0.00     0.116 C 
BRANCH   2   3
ATOM      3  N   UNL A   1      33.014  28.593  26.592  1.00  0.00    -0.356 N 
ATOM      4  O   UNL A   1      31.416  27.431  27.738  1.00  0.00    -0.275 OA
ATOM      5  C   UNL A   1      32.284  27.465  26.869  1.00  0.00     0.222 C 
ATOM      6  H   UNL A   1      33.801  28.516  26.006  1.00  0.00     0.163 HD
BRANCH   5   7
ATOM      7  C   UNL A   1      32.735  26.204  26.156  1.00  0.00     0.133 C 
BRANCH   7   8
ATOM      8  C   UNL A   1      31.725  25.099  25.786  1.00  0.00     0.142 C 
ATOM      9  C   UNL A   1      30.384  25.592  25.179  1.00  0.00     0.135 C 
ATOM     10  O   UNL A   1      32.266  23.942  25.129  1.00  0.00    -0.375 OA
ATOM     11  N   UNL A   1      30.353  25.643  23.688  1.00  0.00    -0.193 NA
ATOM     12  C   UNL A   1      32.238  24.020  23.693  1.00  0.00     0.177 C 
ATOM     13  C   UNL A   1      30.835  24.320  23.164  1.00  0.00     0.131 C 
BRANCH  11  14
ATOM     14  S   UNL A   1      31.005  26.979  22.854  1.00  0.00     0.243 S 
ATOM     15  O   UNL A   1      32.098  27.506  23.650  1.00  0.00    -0.207 OA
ATOM     16  O   UNL A   1      31.231  26.556  21.498  1.00  0.00    -0.207 OA
BRANCH  14  17
ATOM     17  C   UNL A   1      29.749  28.233  22.814  1.00  0.00     0.088 A 
ATOM     18  C   UNL A   1      29.998  29.476  22.230  1.00  0.00     0.061 A 
ATOM     19  C   UNL A   1      28.450  27.905  23.219  1.00  0.00     0.061 A 
ATOM     20  C   UNL A   1      28.969  30.405  22.124  1.00  0.00     0.127 A 
ATOM     21  C   UNL A   1      27.430  28.840  23.061  1.00  0.00     0.127 A 
ATOM     22  F   UNL A   1      29.228  31.610  21.599  1.00  0.00    -0.207 F 
ATOM     23  C   UNL A   1      27.680  30.098  22.531  1.00  0.00     0.078 A 
ATOM     24  F   UNL A   1      26.179  28.511  23.407  1.00  0.00    -0.207 F 
ENDBRANCH  14  17
ENDBRANCH  11  14
ENDBRANCH   7   8
ENDBRANCH   5   7
ENDBRANCH   2   3
ENDBRANCH   1   2
BRANCH   1  25
ATOM     25  C   UNL A   1      31.456  32.140  26.724  1.00  0.00     0.023 C 
BRANCH  25  26
ATOM     26  C   UNL A   1      32.673  32.908  27.225  1.00  0.00     0.116 C 
BRANCH  26  27
ATOM     27  N   UNL A   1      32.365  34.265  27.643  1.00  0.00    -0.352 N 
ATOM     28  C   UNL A   1      32.963  35.036  28.610  1.00  0.00     0.251 C 
ATOM     29  H   UNL A   1      31.620  34.694  27.164  1.00  0.00     0.163 HD
ATOM     30  O   UNL A   1      32.503  36.138  28.892  1.00  0.00    -0.269 OA
BRANCH  28  31
ATOM     31  C   UNL A   1      34.142  34.527  29.346  1.00  0.00     0.039 A 
ATOM     32  C   UNL A   1      33.941  33.924  30.592  1.00  0.00     0.014 A 
ATOM     33  C   UNL A   1      35.433  34.643  28.824  1.00  0.00     0.014 A 
ATOM     34  C   UNL A   1      35.023  33.373  31.281  1.00  0.00     0.010 A 
ATOM     35  C   UNL A   1      36.505  34.047  29.488  1.00  0.00     0.010 A 
ATOM     36  C   UNL A   1      36.309  33.401  30.718  1.00  0.00    -0.014 A 
BRANCH  36  37
ATOM     37  C   UNL A   1      37.455  32.741  31.392  1.00  0.00     0.031 A 
ATOM     38  C   UNL A   1      38.181  31.610  30.724  1.00  0.00     0.074 A 
ATOM     39  C   UNL A   1      37.804  33.125  32.635  1.00  0.00     0.049 A 
ATOM     40  N   UNL A   1      39.149  30.861  31.188  1.00  0.00    -0.248 NA
ATOM     41  C   UNL A   1      37.748  31.262  29.362  1.00  0.00     0.031 C 
ATOM     42  C   UNL A   1      37.156  34.187  33.405  1.00  0.00     0.029 A 
ATOM     43  N   UNL A   1      38.785  32.657  33.473  1.00  0.00    -0.354 N 
ATOM     44  C   UNL A   1      39.428  29.943  30.186  1.00  0.00     0.074 A 
ATOM     45  C   UNL A   1      38.507  30.206  29.101  1.00  0.00     0.031 C 
ATOM     46  C   UNL A   1      37.771  34.306  34.593  1.00  0.00     0.029 A 
ATOM     47  C   UNL A   1      38.833  33.307  34.681  1.00  0.00     0.049 A 
ATOM     48  H   UNL A   1      39.396  31.924  33.232  1.00  0.00     0.167 HD
ATOM     49  C   UNL A   1      40.377  28.978  30.168  1.00  0.00     0.037 A 
ATOM     50  C   UNL A   1      39.639  33.119  35.743  1.00  0.00     0.037 A 
ATOM     51  C   UNL A   1      41.317  28.738  31.230  1.00  0.00     0.049 A 
ATOM     52  C   UNL A   1      40.692  32.047  35.693  1.00  0.00     0.074 A 
ATOM     53  C   UNL A   1      42.351  27.818  31.276  1.00  0.00     0.029 A 
ATOM     54  N   UNL A   1      41.341  29.427  32.433  1.00  0.00    -0.354 N 
ATOM     55  N   UNL A   1      40.969  31.208  34.726  1.00  0.00    -0.248 NA
ATOM     56  C   UNL A   1      41.544  31.897  36.882  1.00  0.00     0.031 C 
ATOM     57  C   UNL A   1      42.984  27.932  32.518  1.00  0.00     0.029 A 
ATOM     58  C   UNL A   1      42.364  28.944  33.233  1.00  0.00     0.049 A 
ATOM     59  H   UNL A   1      40.724  30.151  32.682  1.00  0.00     0.167 HD
ATOM     60  C   UNL A   1      42.034  30.443  35.179  1.00  0.00     0.074 A 
ATOM     61  C   UNL A   1      42.361  30.922  36.507  1.00  0.00     0.031 C 
ATOM     62  C   UNL A   1      42.680  29.433  34.549  1.00  0.00     0.037 A 
BRANCH  49  63
ATOM     63  C   UNL A   1      40.456  28.107  28.951  1.00  0.00     0.064 A 
ATOM     64  C   UNL A   1      41.227  28.496  27.846  1.00  0.00     0.173 A 
ATOM     65  C   UNL A   1      39.727  26.912  28.859  1.00  0.00     0.173 A 
ATOM     66  F   UNL A   1      41.939  29.632  27.884  1.00  0.00    -0.203 F 
ATOM     67  C   UNL A   1      41.262  27.722  26.690  1.00  0.00     0.198 A 
ATOM     68  C   UNL A   1      39.781  26.128  27.710  1.00  0.00     0.198 A 
ATOM     69  F   UNL A   1      38.985  26.493  29.896  1.00  0.00    -0.203 F 
ATOM     70  F   UNL A   1      41.990  28.121  25.639  1.00  0.00    -0.200 F 
ATOM     71  C   UNL A   1      40.542  26.537  26.624  1.00  0.00     0.200 A 
ATOM     72  F   UNL A   1      39.103  24.974  27.656  1.00  0.00    -0.200 F 
ATOM     73  F   UNL A   1      40.587  25.785  25.516  1.00  0.00    -0.200 F 
ENDBRANCH  49  63
BRANCH  50  74
ATOM     74  C   UNL A   1      39.499  33.994  36.932  1.00  0.00     0.064 A 
ATOM     75  C   UNL A   1      40.132  35.243  37.000  1.00  0.00     0.173 A 
ATOM     76  C   UNL A   1      38.746  33.579  38.039  1.00  0.00     0.173 A 
ATOM     77  F   UNL A   1      40.865  35.681  35.965  1.00  0.00    -0.203 F 
ATOM     78  C   UNL A   1      40.028  36.038  38.139  1.00  0.00     0.198 A 
ATOM     79  C   UNL A   1      38.628  34.384  39.169  1.00  0.00     0.198 A 
ATOM     80  F   UNL A   1      38.107  32.400  38.008  1.00  0.00    -0.203 F 
ATOM     81  F   UNL A   1      40.661  37.218  38.189  1.00  0.00    -0.200 F 
ATOM     82  C   UNL A   1      39.274  35.610  39.221  1.00  0.00     0.200 A 
ATOM     83  F   UNL A   1      37.881  33.975  40.205  1.00  0.00    -0.200 F 
ATOM     84  F   UNL A   1      39.167  36.379  40.313  1.00  0.00    -0.200 F 
ENDBRANCH  50  74
BRANCH  62  85
ATOM     85  C   UNL A   1      43.819  28.783  35.275  1.00  0.00     0.064 A 
ATOM     86  C   UNL A   1      45.134  29.224  35.072  1.00  0.00     0.173 A 
ATOM     87  C   UNL A   1      43.612  27.680  36.115  1.00  0.00     0.173 A 
ATOM     88  F   UNL A   1      45.380  30.272  34.273  1.00  0.00    -0.203 F 
ATOM     89  C   UNL A   1      46.206  28.573  35.678  1.00  0.00     0.198 A 
ATOM     90  C   UNL A   1      44.684  27.045  36.733  1.00  0.00     0.198 A 
ATOM     91  F   UNL A   1      42.369  27.232  36.347  1.00  0.00    -0.203 F 
ATOM     92  F   UNL A   1      47.458  28.996  35.453  1.00  0.00    -0.200 F 
ATOM     93  C   UNL A   1      45.980  27.487  36.509  1.00  0.00     0.200 A 
ATOM     94  F   UNL A   1      44.465  26.005  37.552  1.00  0.00    -0.200 F 
ATOM     95  F   UNL A   1      47.012  26.866  37.096  1.00  0.00    -0.200 F 
ENDBRANCH  62  85
ENDBRANCH  36  37
ENDBRANCH  28  31
ENDBRANCH  26  27
ENDBRANCH  25  26
ENDBRANCH   1  25
TORSDOF 14
ENDMDL
MODEL 2
REMARK VINA RESULT:     -13.1      0.197      2.120
REMARK SMILES O=C(C[C@H]1CN(S(=O)(=O)c2cc(F)cc(F)c2)CCO1)NCCCCNC(=O)c1ccc(-c2c3nc(c(-c4c(F)c(F)c(F)c(F)c4F)c4ccc([nH]4)c(-c4c(F)c(F)c(F)c(F)c4F)c4nc(c(-c5c(F)c(F)c(F)c(F)c5F)c5ccc2[nH]5)C=C4)C=C3)cc1
REMARK SMILES IDX 23 1 22 2 21 3 1 4 2 5 3 7 4 8 5 9 20 10 6 11 19 12 18 13
REMARK SMILES IDX 7 14 8 15 9 16 10 17 11 18 17 19 12 20 15 21 13 22 14 23
REMARK SMILES IDX 16 24 24 25 25 26 26 27 27 28 28 30 29 31 30 32 91 33 31 34
REMARK SMILES IDX 90 35 32 36 33 37 34 38 84 39 35 40 89 41 83 42 85 43 36 44
REMARK SMILES IDX 88 45 82 46 81 47 37 49 69 50 49 51 68 52 50 53 53 54 67 55
REMARK SMILES IDX 86 56 51 57 52 58 66 60 87 61 54 62 38 63 39 64 47 65 40 66
REMARK SMILES IDX 41 67 45 68 48 69 42 70 43 71 46 72 44 73 70 74 71 75 79 76
REMARK SMILES IDX 72 77 73 78 77 79 80 80 74 81 75 82 78 83 76 84 55 85 56 86
REMARK SMILES IDX 64 87 57 88 58 89 62 90 65 91 59 92 60 93 63 94 61 95
REMARK H PARENT 21 6 26 29 85 48 53 59
REMARK Flexibility Score: inf
ROOT
ATOM      1  C   UNL A   1      31.542  30.698  26.202  1.00  0.00     0.023 C 
ENDROOT
BRANCH   1   2
ATOM      2  C   UNL A   1      32.583  29.953  27.038  1.00  0.00     0.116 C 
BRANCH   2   3
ATOM      3  N   UNL A   1      32.965  28.661  26.513  1.00  0.00    -0.356 N 
ATOM      4  O   UNL A   1      31.469  27.452  27.744  1.00  0.00    -0.275 OA
ATOM      5  C   UNL A   1      32.299  27.507  26.840  1.00  0.00     0.222 C 
ATOM      6  H   UNL A   1      33.730  28.608  25.897  1.00  0.00     0.163 HD
BRANCH   5   7
ATOM      7  C   UNL A   1      32.780  26.253  26.133  1.00  0.00     0.133 C 
BRANCH   7   8
ATOM      8  C   UNL A   1      31.793  25.131  25.754  1.00  0.00     0.142 C 
ATOM      9  C   UNL A   1      30.437  25.601  25.163  1.00  0.00     0.135 C 
ATOM     10  O   UNL A   1      32.356  23.997  25.076  1.00  0.00    -0.375 OA
ATOM     11  N   UNL A   1      30.394  25.674  23.673  1.00  0.00    -0.193 NA
ATOM     12  C   UNL A   1      32.317  24.095  23.641  1.00  0.00     0.177 C 
ATOM     13  C   UNL A   1      30.903  24.370  23.126  1.00  0.00     0.131 C 
BRANCH  11  14
ATOM     14  S   UNL A   1      31.009  27.036  22.855  1.00  0.00     0.243 S 
ATOM     15  O   UNL A   1      32.019  27.642  23.703  1.00  0.00    -0.207 OA
ATOM     16  O   UNL A   1      31.339  26.610  21.521  1.00  0.00    -0.207 OA
BRANCH  14  17
ATOM     17  C   UNL A   1      29.682  28.208  22.722  1.00  0.00     0.088 A 
ATOM     18  C   UNL A   1      28.394  27.881  23.150  1.00  0.00     0.061 A 
ATOM     19  C   UNL A   1      29.974  29.524  22.345  1.00  0.00     0.061 A 
ATOM     20  C   UNL A   1      27.395  28.849  23.126  1.00  0.00     0.127 A 
ATOM     21  C   UNL A   1      28.963  30.481  22.372  1.00  0.00     0.127 A 
ATOM     22  F   UNL A   1      26.153  28.514  23.500  1.00  0.00    -0.207 F 
ATOM     23  C   UNL A   1      27.668  30.153  22.745  1.00  0.00     0.078 A 
ATOM     24  F   UNL A   1      29.253  31.750  22.054  1.00  0.00    -0.207 F 
ENDBRANCH  14  17
ENDBRANCH  11  14
ENDBRANCH   7   8
ENDBRANCH   5   7
ENDBRANCH   2   3
ENDBRANCH   1   2
BRANCH   1  25
ATOM     25  C   UNL A   1      31.400  32.191  26.501  1.00  0.00     0.023 C 
BRANCH  25  26
ATOM     26  C   UNL A   1      32.563  32.834  27.247  1.00  0.00     0.116 C 
BRANCH  26  27
ATOM     27  N   UNL A   1      32.306  34.210  27.635  1.00  0.00    -0.352 N 
ATOM     28  C   UNL A   1      32.949  34.987  28.568  1.00  0.00     0.251 C 
ATOM     29  H   UNL A   1      31.564  34.650  27.161  1.00  0.00     0.163 HD
ATOM     30  O   UNL A   1      32.530  36.110  28.830  1.00  0.00    -0.269 OA
BRANCH  28  31
ATOM     31  C   UNL A   1      34.128  34.460  29.291  1.00  0.00     0.039 A 
ATOM     32  C   UNL A   1      33.929  33.844  30.530  1.00  0.00     0.014 A 
ATOM     33  C   UNL A   1      35.418  34.573  28.764  1.00  0.00     0.014 A 
ATOM     34  C   UNL A   1      35.011  33.277  31.208  1.00  0.00     0.010 A 
ATOM     35  C   UNL A   1      36.488  33.962  29.415  1.00  0.00     0.010 A 
ATOM     36  C   UNL A   1      36.294  33.301  30.638  1.00  0.00    -0.014 A 
BRANCH  36  37
ATOM     37  C   UNL A   1      37.438  32.626  31.298  1.00  0.00     0.031 A 
ATOM     38  C   UNL A   1      38.157  31.503  30.609  1.00  0.00     0.074 A 
ATOM     39  C   UNL A   1      37.792  32.986  32.546  1.00  0.00     0.049 A 
ATOM     40  N   UNL A   1      39.123  30.741  31.058  1.00  0.00    -0.248 NA
ATOM     41  C   UNL A   1      37.720  31.179  29.243  1.00  0.00     0.031 C 
ATOM     42  C   UNL A   1      37.151  34.038  33.336  1.00  0.00     0.029 A 
ATOM     43  N   UNL A   1      38.773  32.499  33.374  1.00  0.00    -0.354 N 
ATOM     44  C   UNL A   1      39.396  29.840  30.040  1.00  0.00     0.074 A 
ATOM     45  C   UNL A   1      38.474  30.125  28.961  1.00  0.00     0.031 C 
ATOM     46  C   UNL A   1      37.768  34.134  34.524  1.00  0.00     0.029 A 
ATOM     47  C   UNL A   1      38.826  33.129  34.593  1.00  0.00     0.049 A 
ATOM     48  H   UNL A   1      39.380  31.768  33.119  1.00  0.00     0.167 HD
ATOM     49  C   UNL A   1      40.341  28.870  30.003  1.00  0.00     0.037 A 
ATOM     50  C   UNL A   1      39.634  32.919  35.650  1.00  0.00     0.037 A 
ATOM     51  C   UNL A   1      41.281  28.608  31.059  1.00  0.00     0.049 A 
ATOM     52  C   UNL A   1      40.682  31.844  35.579  1.00  0.00     0.074 A 
ATOM     53  C   UNL A   1      42.311  27.683  31.086  1.00  0.00     0.029 A 
ATOM     54  N   UNL A   1      41.311  29.276  32.273  1.00  0.00    -0.354 N 
ATOM     55  N   UNL A   1      40.953  31.020  34.597  1.00  0.00    -0.248 NA
ATOM     56  C   UNL A   1      41.536  31.669  36.763  1.00  0.00     0.031 C 
ATOM     57  C   UNL A   1      42.948  27.772  32.329  1.00  0.00     0.029 A 
ATOM     58  C   UNL A   1      42.334  28.775  33.062  1.00  0.00     0.049 A 
ATOM     59  H   UNL A   1      40.698  29.999  32.536  1.00  0.00     0.167 HD
ATOM     60  C   UNL A   1      42.015  30.242  35.035  1.00  0.00     0.074 A 
ATOM     61  C   UNL A   1      42.347  30.697  36.369  1.00  0.00     0.031 C 
ATOM     62  C   UNL A   1      42.655  29.240  34.386  1.00  0.00     0.037 A 
BRANCH  49  63
ATOM     63  C   UNL A   1      40.412  28.020  28.771  1.00  0.00     0.064 A 
ATOM     64  C   UNL A   1      39.729  26.797  28.711  1.00  0.00     0.173 A 
ATOM     65  C   UNL A   1      41.198  28.392  27.671  1.00  0.00     0.173 A 
ATOM     66  F   UNL A   1      38.968  26.395  29.740  1.00  0.00    -0.203 F 
ATOM     67  C   UNL A   1      39.835  25.973  27.593  1.00  0.00     0.198 A 
ATOM     68  C   UNL A   1      41.284  27.577  26.546  1.00  0.00     0.198 A 
ATOM     69  F   UNL A   1      41.860  29.559  27.678  1.00  0.00    -0.203 F 
ATOM     70  F   UNL A   1      39.189  24.800  27.563  1.00  0.00    -0.200 F 
ATOM     71  C   UNL A   1      40.608  26.366  26.510  1.00  0.00     0.200 A 
ATOM     72  F   UNL A   1      42.014  27.967  25.491  1.00  0.00    -0.200 F 
ATOM     73  F   UNL A   1      40.698  25.579  25.430  1.00  0.00    -0.200 F 
ENDBRANCH  49  63
BRANCH  50  74
ATOM     74  C   UNL A   1      39.500  33.774  36.854  1.00  0.00     0.064 A 
ATOM     75  C   UNL A   1      38.711  33.383  37.945  1.00  0.00     0.173 A 
ATOM     76  C   UNL A   1      40.141  35.018  36.920  1.00  0.00     0.173 A 
ATOM     77  F   UNL A   1      38.077  32.201  37.925  1.00  0.00    -0.203 F 
ATOM     78  C   UNL A   1      38.557  34.213  39.052  1.00  0.00     0.198 A 
ATOM     79  C   UNL A   1      40.002  35.839  38.037  1.00  0.00     0.198 A 
ATOM     80  F   UNL A   1      40.923  35.422  35.908  1.00  0.00    -0.203 F 
ATOM     81  F   UNL A   1      37.779  33.828  40.073  1.00  0.00    -0.200 F 
ATOM     82  C   UNL A   1      39.205  35.438  39.100  1.00  0.00     0.200 A 
ATOM     83  F   UNL A   1      40.646  37.013  38.087  1.00  0.00    -0.200 F 
ATOM     84  F   UNL A   1      39.064  36.233  40.169  1.00  0.00    -0.200 F 
ENDBRANCH  50  74
BRANCH  62  85
ATOM     85  C   UNL A   1      43.793  28.572  35.097  1.00  0.00     0.064 A 
ATOM     86  C   UNL A   1      43.564  27.450  35.905  1.00  0.00     0.173 A 
ATOM     87  C   UNL A   1      45.095  29.088  35.033  1.00  0.00     0.173 A 
ATOM     88  F   UNL A   1      42.333  26.924  36.001  1.00  0.00    -0.203 F 
ATOM     89  C   UNL A   1      44.600  26.872  36.635  1.00  0.00     0.198 A 
ATOM     90  C   UNL A   1      46.131  28.497  35.749  1.00  0.00     0.198 A 
ATOM     91  F   UNL A   1      45.362  30.153  34.263  1.00  0.00    -0.203 F 
ATOM     92  F   UNL A   1      44.356  25.813  37.420  1.00  0.00    -0.200 F 
ATOM     93  C   UNL A   1      45.882  27.395  36.554  1.00  0.00     0.200 A 
ATOM     94  F   UNL A   1      47.374  28.990  35.657  1.00  0.00    -0.200 F 
ATOM     95  F   UNL A   1      46.879  26.835  37.253  1.00  0.00    -0.200 F 
ENDBRANCH  62  85
ENDBRANCH  36  37
ENDBRANCH  28  31
ENDBRANCH  26  27
ENDBRANCH  25  26
ENDBRANCH   1  25
TORSDOF 14
ENDMDL
MODEL 3
REMARK VINA RESULT:     -13.0      6.277     11.692
REMARK SMILES O=C(C[C@H]1CN(S(=O)(=O)c2cc(F)cc(F)c2)CCO1)NCCCCNC(=O)c1ccc(-c2c3nc(c(-c4c(F)c(F)c(F)c(F)c4F)c4ccc([nH]4)c(-c4c(F)c(F)c(F)c(F)c4F)c4nc(c(-c5c(F)c(F)c(F)c(F)c5F)c5ccc2[nH]5)C=C4)C=C3)cc1
REMARK SMILES IDX 23 1 22 2 21 3 1 4 2 5 3 7 4 8 5 9 20 10 6 11 19 12 18 13
REMARK SMILES IDX 7 14 8 15 9 16 10 17 11 18 17 19 12 20 15 21 13 22 14 23
REMARK SMILES IDX 16 24 24 25 25 26 26 27 27 28 28 30 29 31 30 32 91 33 31 34
REMARK SMILES IDX 90 35 32 36 33 37 34 38 84 39 35 40 89 41 83 42 85 43 36 44
REMARK SMILES IDX 88 45 82 46 81 47 37 49 69 50 49 51 68 52 50 53 53 54 67 55
REMARK SMILES IDX 86 56 51 57 52 58 66 60 87 61 54 62 38 63 39 64 47 65 40 66
REMARK SMILES IDX 41 67 45 68 48 69 42 70 43 71 46 72 44 73 70 74 71 75 79 76
REMARK SMILES IDX 72 77 73 78 77 79 80 80 74 81 75 82 78 83 76 84 55 85 56 86
REMARK SMILES IDX 64 87 57 88 58 89 62 90 65 91 59 92 60 93 63 94 61 95
REMARK H PARENT 21 6 26 29 85 48 53 59
REMARK Flexibility Score: inf
ROOT
ATOM      1  C   UNL A   1      37.272  20.593  24.703  1.00  0.00     0.023 C 
ENDROOT
BRANCH   1   2
ATOM      2  C   UNL A   1      37.713  22.023  25.011  1.00  0.00     0.116 C 
BRANCH   2   3
ATOM      3  N   UNL A   1      36.635  22.986  25.073  1.00  0.00    -0.356 N 
ATOM      4  O   UNL A   1      36.491  23.328  22.819  1.00  0.00    -0.275 OA
ATOM      5  C   UNL A   1      36.036  23.493  23.948  1.00  0.00     0.222 C 
ATOM      6  H   UNL A   1      36.319  23.286  25.955  1.00  0.00     0.163 HD
BRANCH   5   7
ATOM      7  C   UNL A   1      34.865  24.427  24.197  1.00  0.00     0.133 C 
BRANCH   7   8
ATOM      8  C   UNL A   1      33.682  24.492  23.211  1.00  0.00     0.142 C 
ATOM      9  C   UNL A   1      33.224  23.131  22.621  1.00  0.00     0.135 C 
ATOM     10  O   UNL A   1      32.595  25.355  23.585  1.00  0.00    -0.375 OA
ATOM     11  N   UNL A   1      32.119  22.464  23.370  1.00  0.00    -0.193 NA
ATOM     12  C   UNL A   1      31.549  24.693  24.317  1.00  0.00     0.177 C 
ATOM     13  C   UNL A   1      31.018  23.467  23.573  1.00  0.00     0.131 C 
BRANCH  11  14
ATOM     14  S   UNL A   1      32.452  21.536  24.760  1.00  0.00     0.243 S 
ATOM     15  O   UNL A   1      33.665  22.060  25.361  1.00  0.00    -0.207 OA
ATOM     16  O   UNL A   1      31.233  21.470  25.522  1.00  0.00    -0.207 OA
BRANCH  14  17
ATOM     17  C   UNL A   1      32.823  19.889  24.211  1.00  0.00     0.088 A 
ATOM     18  C   UNL A   1      32.153  19.331  23.121  1.00  0.00     0.061 A 
ATOM     19  C   UNL A   1      33.916  19.217  24.772  1.00  0.00     0.061 A 
ATOM     20  C   UNL A   1      32.530  18.078  22.650  1.00  0.00     0.127 A 
ATOM     21  C   UNL A   1      34.297  17.983  24.251  1.00  0.00     0.127 A 
ATOM     22  F   UNL A   1      31.854  17.533  21.630  1.00  0.00    -0.207 F 
ATOM     23  C   UNL A   1      33.603  17.396  23.202  1.00  0.00     0.078 A 
ATOM     24  F   UNL A   1      35.369  17.361  24.758  1.00  0.00    -0.207 F 
ENDBRANCH  14  17
ENDBRANCH  11  14
ENDBRANCH   7   8
ENDBRANCH   5   7
ENDBRANCH   2   3
ENDBRANCH   1   2
BRANCH   1  25
ATOM     25  C   UNL A   1      38.305  19.505  25.001  1.00  0.00     0.023 C 
BRANCH  25  26
ATOM     26  C   UNL A   1      39.520  19.944  25.809  1.00  0.00     0.116 C 
BRANCH  26  27
ATOM     27  N   UNL A   1      40.557  18.929  25.886  1.00  0.00    -0.352 N 
ATOM     28  C   UNL A   1      41.902  19.074  26.126  1.00  0.00     0.251 C 
ATOM     29  H   UNL A   1      40.252  18.004  25.746  1.00  0.00     0.163 HD
ATOM     30  O   UNL A   1      42.648  18.102  26.060  1.00  0.00    -0.269 OA
BRANCH  28  31
ATOM     31  C   UNL A   1      42.466  20.410  26.425  1.00  0.00     0.039 A 
ATOM     32  C   UNL A   1      43.008  21.154  25.373  1.00  0.00     0.014 A 
ATOM     33  C   UNL A   1      42.470  20.925  27.723  1.00  0.00     0.014 A 
ATOM     34  C   UNL A   1      43.488  22.445  25.609  1.00  0.00     0.010 A 
ATOM     35  C   UNL A   1      42.900  22.233  27.948  1.00  0.00     0.010 A 
ATOM     36  C   UNL A   1      43.405  23.006  26.893  1.00  0.00    -0.014 A 
BRANCH  36  37
ATOM     37  C   UNL A   1      43.825  24.407  27.144  1.00  0.00     0.031 A 
ATOM     38  C   UNL A   1      42.838  25.417  27.654  1.00  0.00     0.074 A 
ATOM     39  C   UNL A   1      45.085  24.785  26.856  1.00  0.00     0.049 A 
ATOM     40  N   UNL A   1      42.997  26.700  27.856  1.00  0.00    -0.248 NA
ATOM     41  C   UNL A   1      41.486  24.921  27.958  1.00  0.00     0.031 C 
ATOM     42  C   UNL A   1      46.129  23.908  26.324  1.00  0.00     0.029 A 
ATOM     43  N   UNL A   1      45.699  26.008  26.962  1.00  0.00    -0.354 N 
ATOM     44  C   UNL A   1      41.767  27.169  28.292  1.00  0.00     0.074 A 
ATOM     45  C   UNL A   1      40.860  26.040  28.295  1.00  0.00     0.031 C 
ATOM     46  C   UNL A   1      47.261  24.615  26.171  1.00  0.00     0.029 A 
ATOM     47  C   UNL A   1      47.013  26.001  26.563  1.00  0.00     0.049 A 
ATOM     48  H   UNL A   1      45.242  26.814  27.293  1.00  0.00     0.167 HD
ATOM     49  C   UNL A   1      41.428  28.424  28.669  1.00  0.00     0.037 A 
ATOM     50  C   UNL A   1      47.916  26.998  26.513  1.00  0.00     0.037 A 
ATOM     51  C   UNL A   1      42.337  29.539  28.701  1.00  0.00     0.049 A 
ATOM     52  C   UNL A   1      47.518  28.381  26.948  1.00  0.00     0.074 A 
ATOM     53  C   UNL A   1      42.096  30.836  29.123  1.00  0.00     0.029 A 
ATOM     54  N   UNL A   1      43.663  29.488  28.300  1.00  0.00    -0.354 N 
ATOM     55  N   UNL A   1      46.360  28.804  27.391  1.00  0.00    -0.248 NA
ATOM     56  C   UNL A   1      48.552  29.423  26.876  1.00  0.00     0.031 C 
ATOM     57  C   UNL A   1      43.271  31.577  28.953  1.00  0.00     0.029 A 
ATOM     58  C   UNL A   1      44.251  30.733  28.454  1.00  0.00     0.049 A 
ATOM     59  H   UNL A   1      44.120  28.686  27.958  1.00  0.00     0.167 HD
ATOM     60  C   UNL A   1      46.528  30.153  27.665  1.00  0.00     0.074 A 
ATOM     61  C   UNL A   1      47.904  30.479  27.348  1.00  0.00     0.031 C 
ATOM     62  C   UNL A   1      45.620  31.041  28.138  1.00  0.00     0.037 A 
BRANCH  49  63
ATOM     63  C   UNL A   1      40.010  28.662  29.089  1.00  0.00     0.064 A 
ATOM     64  C   UNL A   1      39.611  28.425  30.412  1.00  0.00     0.173 A 
ATOM     65  C   UNL A   1      39.035  29.077  28.170  1.00  0.00     0.173 A 
ATOM     66  F   UNL A   1      40.505  28.023  31.328  1.00  0.00    -0.203 F 
ATOM     67  C   UNL A   1      38.283  28.589  30.799  1.00  0.00     0.198 A 
ATOM     68  C   UNL A   1      37.713  29.262  28.565  1.00  0.00     0.198 A 
ATOM     69  F   UNL A   1      39.373  29.328  26.896  1.00  0.00    -0.203 F 
ATOM     70  F   UNL A   1      37.919  28.338  32.064  1.00  0.00    -0.200 F 
ATOM     71  C   UNL A   1      37.337  29.011  29.877  1.00  0.00     0.200 A 
ATOM     72  F   UNL A   1      36.804  29.690  27.678  1.00  0.00    -0.200 F 
ATOM     73  F   UNL A   1      36.063  29.182  30.253  1.00  0.00    -0.200 F 
ENDBRANCH  49  63
BRANCH  50  74
ATOM     74  C   UNL A   1      49.300  26.710  26.063  1.00  0.00     0.064 A 
ATOM     75  C   UNL A   1      50.274  26.236  26.952  1.00  0.00     0.173 A 
ATOM     76  C   UNL A   1      49.678  26.933  24.733  1.00  0.00     0.173 A 
ATOM     77  F   UNL A   1      49.958  26.010  28.236  1.00  0.00    -0.203 F 
ATOM     78  C   UNL A   1      51.582  26.009  26.529  1.00  0.00     0.198 A 
ATOM     79  C   UNL A   1      50.981  26.687  24.306  1.00  0.00     0.198 A 
ATOM     80  F   UNL A   1      48.772  27.366  23.844  1.00  0.00    -0.203 F 
ATOM     81  F   UNL A   1      52.502  25.578  27.403  1.00  0.00    -0.200 F 
ATOM     82  C   UNL A   1      51.934  26.232  25.206  1.00  0.00     0.200 A 
ATOM     83  F   UNL A   1      51.312  26.884  23.022  1.00  0.00    -0.200 F 
ATOM     84  F   UNL A   1      53.189  26.005  24.797  1.00  0.00    -0.200 F 
ENDBRANCH  50  74
BRANCH  62  85
ATOM     85  C   UNL A   1      46.082  32.450  28.359  1.00  0.00     0.064 A 
ATOM     86  C   UNL A   1      46.004  33.393  27.325  1.00  0.00     0.173 A 
ATOM     87  C   UNL A   1      46.665  32.842  29.572  1.00  0.00     0.173 A 
ATOM     88  F   UNL A   1      45.459  33.061  26.146  1.00  0.00    -0.203 F 
ATOM     89  C   UNL A   1      46.506  34.681  27.495  1.00  0.00     0.198 A 
ATOM     90  C   UNL A   1      47.148  34.136  29.743  1.00  0.00     0.198 A 
ATOM     91  F   UNL A   1      46.749  31.976  30.593  1.00  0.00    -0.203 F 
ATOM     92  F   UNL A   1      46.443  35.561  26.486  1.00  0.00    -0.200 F 
ATOM     93  C   UNL A   1      47.075  35.051  28.704  1.00  0.00     0.200 A 
ATOM     94  F   UNL A   1      47.682  34.500  30.918  1.00  0.00    -0.200 F 
ATOM     95  F   UNL A   1      47.553  36.293  28.867  1.00  0.00    -0.200 F 
ENDBRANCH  62  85
ENDBRANCH  36  37
ENDBRANCH  28  31
ENDBRANCH  26  27
ENDBRANCH  25  26
ENDBRANCH   1  25
TORSDOF 14
ENDMDL
