MODEL 1
REMARK VINA RESULT:     -12.5      0.000      0.000
REMARK SMILES CN(C(=O)c1cccn1CC(=O)NCCCCNC(=O)c1ccc(-c2c3nc(c(-c4c(F)c(F)c(F)c(F)c4F)c4ccc([nH]4)c(-c4c(F)c(F)c(F)c(F)c4F)c4nc(c(-c5c(F)c(F)c(F)c(F)c5F)c5ccc2[nH]5)C=C4)C=C3)cc1)C1CCC(C)(C)CC1
REMARK SMILES IDX 14 1 13 2 11 3 12 4 10 6 9 7 5 8 6 9 7 10 8 11 3 12 4 13
REMARK SMILES IDX 2 14 1 15 84 16 85 17 91 18 86 19 90 20 87 21 88 22 89 23
REMARK SMILES IDX 15 24 16 25 17 26 18 27 19 28 20 30 21 31 22 32 83 33 23 34
REMARK SMILES IDX 82 35 24 36 25 37 26 38 76 39 27 40 81 41 75 42 77 43 28 44
REMARK SMILES IDX 80 45 74 46 73 47 29 49 61 50 41 51 60 52 42 53 45 54 59 55
REMARK SMILES IDX 78 56 43 57 44 58 58 60 79 61 46 62 30 63 31 64 39 65 32 66
REMARK SMILES IDX 33 67 37 68 40 69 34 70 35 71 38 72 36 73 62 74 63 75 71 76
REMARK SMILES IDX 64 77 65 78 69 79 72 80 66 81 67 82 70 83 68 84 47 85 48 86
REMARK SMILES IDX 56 87 49 88 50 89 54 90 57 91 51 92 52 93 55 94 53 95
REMARK H PARENT 13 5 18 29 77 48 45 59
REMARK Flexibility Score: inf
ROOT
ATOM      1  C   UNL A   1      32.935  30.110  26.401  1.00  0.00     0.116 C 
ENDROOT
BRANCH   1   2
ATOM      2  N   UNL A   1      33.505  29.598  25.173  1.00  0.00    -0.355 N 
ATOM      3  C   UNL A   1      33.420  28.338  24.648  1.00  0.00     0.239 C 
ATOM      4  O   UNL A   1      34.056  28.101  23.619  1.00  0.00    -0.273 OA
ATOM      5  H   UNL A   1      34.025  30.245  24.642  1.00  0.00     0.163 HD
BRANCH   3   6
ATOM      6  C   UNL A   1      32.512  27.297  25.275  1.00  0.00     0.222 C 
BRANCH   6   7
ATOM      7  N   UNL A   1      31.224  27.152  24.606  1.00  0.00    -0.334 N 
ATOM      8  C   UNL A   1      30.332  26.093  24.730  1.00  0.00     0.107 A 
ATOM      9  C   UNL A   1      29.212  26.445  23.984  1.00  0.00     0.033 A 
ATOM     10  C   UNL A   1      29.477  27.662  23.318  1.00  0.00     0.020 A 
ATOM     11  C   UNL A   1      30.716  28.085  23.731  1.00  0.00     0.087 A 
BRANCH   8  12
ATOM     12  C   UNL A   1      30.570  24.884  25.517  1.00  0.00     0.270 C 
ATOM     13  O   UNL A   1      30.232  24.838  26.698  1.00  0.00    -0.267 OA
BRANCH  12  14
ATOM     14  N   UNL A   1      31.269  23.812  24.915  1.00  0.00    -0.337 N 
ATOM     15  C   UNL A   1      31.466  23.759  23.467  1.00  0.00     0.147 C 
BRANCH  14  16
ATOM     16  C   UNL A   1      32.132  22.948  25.777  1.00  0.00     0.085 C 
ATOM     17  C   UNL A   1      32.612  21.637  25.112  1.00  0.00     0.026 C 
ATOM     18  C   UNL A   1      33.377  23.640  26.385  1.00  0.00     0.026 C 
ATOM     19  C   UNL A   1      33.718  21.854  24.081  1.00  0.00     0.008 C 
ATOM     20  C   UNL A   1      34.489  23.893  25.361  1.00  0.00     0.008 C 
ATOM     21  C   UNL A   1      34.944  22.618  24.626  1.00  0.00    -0.035 C 
ATOM     22  C   UNL A   1      35.842  23.013  23.439  1.00  0.00     0.011 C 
ATOM     23  C   UNL A   1      35.776  21.739  25.579  1.00  0.00     0.011 C 
ENDBRANCH  14  16
ENDBRANCH  12  14
ENDBRANCH   8  12
ENDBRANCH   6   7
ENDBRANCH   3   6
ENDBRANCH   1   2
BRANCH   1  24
ATOM     24  C   UNL A   1      31.560  30.734  26.162  1.00  0.00     0.023 C 
BRANCH  24  25
ATOM     25  C   UNL A   1      31.430  32.206  26.566  1.00  0.00     0.023 C 
BRANCH  25  26
ATOM     26  C   UNL A   1      32.662  32.754  27.278  1.00  0.00     0.116 C 
BRANCH  26  27
ATOM     27  N   UNL A   1      32.515  34.164  27.611  1.00  0.00    -0.352 N 
ATOM     28  C   UNL A   1      33.072  34.862  28.656  1.00  0.00     0.251 C 
ATOM     29  H   UNL A   1      31.939  34.687  27.007  1.00  0.00     0.163 HD
ATOM     30  O   UNL A   1      32.594  35.926  29.016  1.00  0.00    -0.269 OA
BRANCH  28  31
ATOM     31  C   UNL A   1      34.254  34.316  29.345  1.00  0.00     0.039 A 
ATOM     32  C   UNL A   1      34.076  33.614  30.543  1.00  0.00     0.014 A 
ATOM     33  C   UNL A   1      35.533  34.558  28.836  1.00  0.00     0.014 A 
ATOM     34  C   UNL A   1      35.188  33.106  31.201  1.00  0.00     0.010 A 
ATOM     35  C   UNL A   1      36.636  34.002  29.452  1.00  0.00     0.010 A 
ATOM     36  C   UNL A   1      36.459  33.287  30.639  1.00  0.00    -0.014 A 
BRANCH  36  37
ATOM     37  C   UNL A   1      37.626  32.654  31.276  1.00  0.00     0.031 A 
ATOM     38  C   UNL A   1      38.060  31.374  30.503  1.00  0.00     0.074 A 
ATOM     39  C   UNL A   1      38.072  33.305  32.399  1.00  0.00     0.049 A 
ATOM     40  N   UNL A   1      38.680  30.308  30.909  1.00  0.00    -0.248 NA
ATOM     41  C   UNL A   1      37.698  31.241  29.058  1.00  0.00     0.031 C 
ATOM     42  C   UNL A   1      37.520  34.583  32.927  1.00  0.00     0.029 A 
ATOM     43  N   UNL A   1      39.056  33.055  33.329  1.00  0.00    -0.354 N 
ATOM     44  C   UNL A   1      38.931  29.479  29.782  1.00  0.00     0.074 A 
ATOM     45  C   UNL A   1      38.220  30.066  28.689  1.00  0.00     0.031 C 
ATOM     46  C   UNL A   1      38.098  34.926  34.098  1.00  0.00     0.029 A 
ATOM     47  C   UNL A   1      39.070  33.920  34.463  1.00  0.00     0.049 A 
ATOM     48  H   UNL A   1      39.709  32.327  33.218  1.00  0.00     0.167 HD
ATOM     49  C   UNL A   1      39.799  28.419  29.813  1.00  0.00     0.037 A 
ATOM     50  C   UNL A   1      39.759  33.774  35.641  1.00  0.00     0.037 A 
ATOM     51  C   UNL A   1      40.352  28.300  31.117  1.00  0.00     0.049 A 
ATOM     52  C   UNL A   1      40.577  32.578  35.415  1.00  0.00     0.074 A 
ATOM     53  C   UNL A   1      39.834  27.786  32.273  1.00  0.00     0.029 A 
ATOM     54  N   UNL A   1      41.433  29.093  31.411  1.00  0.00    -0.354 N 
ATOM     55  N   UNL A   1      41.614  32.528  34.635  1.00  0.00    -0.248 NA
ATOM     56  C   UNL A   1      40.107  31.306  35.974  1.00  0.00     0.031 C 
ATOM     57  C   UNL A   1      40.277  28.705  33.242  1.00  0.00     0.029 A 
ATOM     58  C   UNL A   1      41.260  29.540  32.697  1.00  0.00     0.049 A 
ATOM     59  H   UNL A   1      42.188  29.301  30.815  1.00  0.00     0.167 HD
ATOM     60  C   UNL A   1      41.709  31.186  34.363  1.00  0.00     0.074 A 
ATOM     61  C   UNL A   1      40.998  30.494  35.416  1.00  0.00     0.031 C 
ATOM     62  C   UNL A   1      41.910  30.766  33.088  1.00  0.00     0.037 A 
BRANCH  49  63
ATOM     63  C   UNL A   1      40.411  27.517  28.771  1.00  0.00     0.064 A 
ATOM     64  C   UNL A   1      41.289  28.101  27.818  1.00  0.00     0.173 A 
ATOM     65  C   UNL A   1      39.880  26.269  28.436  1.00  0.00     0.173 A 
ATOM     66  F   UNL A   1      41.909  29.263  28.076  1.00  0.00    -0.203 F 
ATOM     67  C   UNL A   1      41.483  27.553  26.551  1.00  0.00     0.198 A 
ATOM     68  C   UNL A   1      40.118  25.696  27.177  1.00  0.00     0.198 A 
ATOM     69  F   UNL A   1      39.048  25.632  29.270  1.00  0.00    -0.203 F 
ATOM     70  F   UNL A   1      42.195  28.222  25.632  1.00  0.00    -0.200 F 
ATOM     71  C   UNL A   1      40.875  26.360  26.223  1.00  0.00     0.200 A 
ATOM     72  F   UNL A   1      39.542  24.527  26.862  1.00  0.00    -0.200 F 
ATOM     73  F   UNL A   1      40.991  25.865  24.982  1.00  0.00    -0.200 F 
ENDBRANCH  49  63
BRANCH  50  74
ATOM     74  C   UNL A   1      39.775  34.349  37.045  1.00  0.00     0.064 A 
ATOM     75  C   UNL A   1      38.792  34.180  38.026  1.00  0.00     0.173 A 
ATOM     76  C   UNL A   1      40.927  35.058  37.499  1.00  0.00     0.173 A 
ATOM     77  F   UNL A   1      37.596  33.668  37.722  1.00  0.00    -0.203 F 
ATOM     78  C   UNL A   1      39.009  34.554  39.370  1.00  0.00     0.198 A 
ATOM     79  C   UNL A   1      41.170  35.372  38.836  1.00  0.00     0.198 A 
ATOM     80  F   UNL A   1      41.880  35.471  36.651  1.00  0.00    -0.203 F 
ATOM     81  F   UNL A   1      38.043  34.361  40.280  1.00  0.00    -0.200 F 
ATOM     82  C   UNL A   1      40.215  35.099  39.782  1.00  0.00     0.200 A 
ATOM     83  F   UNL A   1      42.345  35.912  39.190  1.00  0.00    -0.200 F 
ATOM     84  F   UNL A   1      40.448  35.371  41.072  1.00  0.00    -0.200 F 
ENDBRANCH  50  74
BRANCH  62  85
ATOM     85  C   UNL A   1      42.492  31.825  32.163  1.00  0.00     0.064 A 
ATOM     86  C   UNL A   1      43.797  32.295  32.381  1.00  0.00     0.173 A 
ATOM     87  C   UNL A   1      41.773  32.479  31.147  1.00  0.00     0.173 A 
ATOM     88  F   UNL A   1      44.565  31.717  33.317  1.00  0.00    -0.203 F 
ATOM     89  C   UNL A   1      44.332  33.360  31.648  1.00  0.00     0.198 A 
ATOM     90  C   UNL A   1      42.304  33.540  30.407  1.00  0.00     0.198 A 
ATOM     91  F   UNL A   1      40.536  32.104  30.837  1.00  0.00    -0.203 F 
ATOM     92  F   UNL A   1      45.580  33.777  31.894  1.00  0.00    -0.200 F 
ATOM     93  C   UNL A   1      43.585  33.984  30.663  1.00  0.00     0.200 A 
ATOM     94  F   UNL A   1      41.570  34.122  29.445  1.00  0.00    -0.200 F 
ATOM     95  F   UNL A   1      44.102  34.996  29.952  1.00  0.00    -0.200 F 
ENDBRANCH  62  85
ENDBRANCH  36  37
ENDBRANCH  28  31
ENDBRANCH  26  27
ENDBRANCH  25  26
ENDBRANCH  24  25
ENDBRANCH   1  24
TORSDOF 15
ENDMDL
MODEL 2
REMARK VINA RESULT:     -12.5      3.881      8.355
REMARK SMILES CN(C(=O)c1cccn1CC(=O)NCCCCNC(=O)c1ccc(-c2c3nc(c(-c4c(F)c(F)c(F)c(F)c4F)c4ccc([nH]4)c(-c4c(F)c(F)c(F)c(F)c4F)c4nc(c(-c5c(F)c(F)c(F)c(F)c5F)c5ccc2[nH]5)C=C4)C=C3)cc1)C1CCC(C)(C)CC1
REMARK SMILES IDX 14 1 13 2 11 3 12 4 10 6 9 7 5 8 6 9 7 10 8 11 3 12 4 13
REMARK SMILES IDX 2 14 1 15 84 16 85 17 91 18 86 19 90 20 87 21 88 22 89 23
REMARK SMILES IDX 15 24 16 25 17 26 18 27 19 28 20 30 21 31 22 32 83 33 23 34
REMARK SMILES IDX 82 35 24 36 25 37 26 38 76 39 27 40 81 41 75 42 77 43 28 44
REMARK SMILES IDX 80 45 74 46 73 47 29 49 61 50 41 51 60 52 42 53 45 54 59 55
REMARK SMILES IDX 78 56 43 57 44 58 58 60 79 61 46 62 30 63 31 64 39 65 32 66
REMARK SMILES IDX 33 67 37 68 40 69 34 70 35 71 38 72 36 73 62 74 63 75 71 76
REMARK SMILES IDX 64 77 65 78 69 79 72 80 66 81 67 82 70 83 68 84 47 85 48 86
REMARK SMILES IDX 56 87 49 88 50 89 54 90 57 91 51 92 52 93 55 94 53 95
REMARK H PARENT 13 5 18 29 77 48 45 59
REMARK Flexibility Score: inf
ROOT
ATOM      1  C   UNL A   1      36.860  23.703  25.664  1.00  0.00     0.116 C 
ENDROOT
BRANCH   1   2
ATOM      2  N   UNL A   1      35.957  23.015  26.562  1.00  0.00    -0.355 N 
ATOM      3  C   UNL A   1      35.162  21.931  26.313  1.00  0.00     0.239 C 
ATOM      4  O   UNL A   1      34.405  21.556  27.210  1.00  0.00    -0.273 OA
ATOM      5  H   UNL A   1      35.908  23.377  27.476  1.00  0.00     0.163 HD
BRANCH   3   6
ATOM      6  C   UNL A   1      35.269  21.177  25.001  1.00  0.00     0.222 C 
BRANCH   6   7
ATOM      7  N   UNL A   1      33.986  20.939  24.347  1.00  0.00    -0.334 N 
ATOM      8  C   UNL A   1      33.282  21.826  23.541  1.00  0.00     0.107 A 
ATOM      9  C   UNL A   1      32.176  21.123  23.073  1.00  0.00     0.033 A 
ATOM     10  C   UNL A   1      32.154  19.852  23.689  1.00  0.00     0.020 A 
ATOM     11  C   UNL A   1      33.289  19.758  24.456  1.00  0.00     0.087 A 
BRANCH   8  12
ATOM     12  C   UNL A   1      33.681  23.204  23.262  1.00  0.00     0.270 C 
ATOM     13  O   UNL A   1      34.774  23.441  22.751  1.00  0.00    -0.267 OA
BRANCH  12  14
ATOM     14  N   UNL A   1      32.822  24.252  23.668  1.00  0.00    -0.337 N 
ATOM     15  C   UNL A   1      31.831  24.814  22.751  1.00  0.00     0.147 C 
BRANCH  14  16
ATOM     16  C   UNL A   1      32.661  24.516  25.131  1.00  0.00     0.085 C 
ATOM     17  C   UNL A   1      33.612  25.590  25.708  1.00  0.00     0.026 C 
ATOM     18  C   UNL A   1      31.226  24.874  25.593  1.00  0.00     0.026 C 
ATOM     19  C   UNL A   1      33.218  27.015  25.325  1.00  0.00     0.008 C 
ATOM     20  C   UNL A   1      30.799  26.291  25.194  1.00  0.00     0.008 C 
ATOM     21  C   UNL A   1      31.764  27.383  25.691  1.00  0.00    -0.035 C 
ATOM     22  C   UNL A   1      31.411  28.718  25.009  1.00  0.00     0.011 C 
ATOM     23  C   UNL A   1      31.598  27.569  27.211  1.00  0.00     0.011 C 
ENDBRANCH  14  16
ENDBRANCH  12  14
ENDBRANCH   8  12
ENDBRANCH   6   7
ENDBRANCH   3   6
ENDBRANCH   1   2
BRANCH   1  24
ATOM     24  C   UNL A   1      38.312  23.578  26.126  1.00  0.00     0.023 C 
BRANCH  24  25
ATOM     25  C   UNL A   1      38.998  22.252  25.781  1.00  0.00     0.023 C 
BRANCH  25  26
ATOM     26  C   UNL A   1      40.209  21.947  26.656  1.00  0.00     0.116 C 
BRANCH  26  27
ATOM     27  N   UNL A   1      41.460  22.139  25.936  1.00  0.00    -0.352 N 
ATOM     28  C   UNL A   1      42.185  23.295  25.769  1.00  0.00     0.251 C 
ATOM     29  H   UNL A   1      41.837  21.334  25.511  1.00  0.00     0.163 HD
ATOM     30  O   UNL A   1      43.004  23.389  24.869  1.00  0.00    -0.269 OA
BRANCH  28  31
ATOM     31  C   UNL A   1      41.968  24.427  26.687  1.00  0.00     0.039 A 
ATOM     32  C   UNL A   1      42.447  25.693  26.328  1.00  0.00     0.014 A 
ATOM     33  C   UNL A   1      41.349  24.216  27.923  1.00  0.00     0.014 A 
ATOM     34  C   UNL A   1      42.252  26.760  27.193  1.00  0.00     0.010 A 
ATOM     35  C   UNL A   1      41.098  25.285  28.759  1.00  0.00     0.010 A 
ATOM     36  C   UNL A   1      41.561  26.552  28.395  1.00  0.00    -0.014 A 
BRANCH  36  37
ATOM     37  C   UNL A   1      41.256  27.704  29.260  1.00  0.00     0.031 A 
ATOM     38  C   UNL A   1      42.110  27.667  30.562  1.00  0.00     0.074 A 
ATOM     39  C   UNL A   1      40.297  28.546  28.753  1.00  0.00     0.049 A 
ATOM     40  N   UNL A   1      41.879  28.160  31.741  1.00  0.00    -0.248 NA
ATOM     41  C   UNL A   1      43.404  26.918  30.561  1.00  0.00     0.031 C 
ATOM     42  C   UNL A   1      39.648  28.405  27.422  1.00  0.00     0.029 A 
ATOM     43  N   UNL A   1      39.664  29.674  29.222  1.00  0.00    -0.354 N 
ATOM     44  C   UNL A   1      43.027  27.942  32.550  1.00  0.00     0.074 A 
ATOM     45  C   UNL A   1      43.893  27.092  31.794  1.00  0.00     0.031 C 
ATOM     46  C   UNL A   1      38.677  29.326  27.244  1.00  0.00     0.029 A 
ATOM     47  C   UNL A   1      38.580  30.151  28.426  1.00  0.00     0.049 A 
ATOM     48  H   UNL A   1      39.942  30.125  30.052  1.00  0.00     0.167 HD
ATOM     49  C   UNL A   1      43.224  28.571  33.752  1.00  0.00     0.037 A 
ATOM     50  C   UNL A   1      37.630  31.087  28.750  1.00  0.00     0.037 A 
ATOM     51  C   UNL A   1      42.115  29.416  34.030  1.00  0.00     0.049 A 
ATOM     52  C   UNL A   1      38.060  31.575  30.065  1.00  0.00     0.074 A 
ATOM     53  C   UNL A   1      40.859  29.135  34.491  1.00  0.00     0.029 A 
ATOM     54  N   UNL A   1      42.126  30.666  33.462  1.00  0.00    -0.354 N 
ATOM     55  N   UNL A   1      39.089  32.339  30.268  1.00  0.00    -0.248 NA
ATOM     56  C   UNL A   1      37.388  31.037  31.252  1.00  0.00     0.031 C 
ATOM     57  C   UNL A   1      40.050  29.984  33.714  1.00  0.00     0.029 A 
ATOM     58  C   UNL A   1      40.843  30.927  33.050  1.00  0.00     0.049 A 
ATOM     59  H   UNL A   1      42.904  31.262  33.370  1.00  0.00     0.167 HD
ATOM     60  C   UNL A   1      39.369  32.103  31.591  1.00  0.00     0.074 A 
ATOM     61  C   UNL A   1      38.159  31.579  32.188  1.00  0.00     0.031 C 
ATOM     62  C   UNL A   1      40.648  31.877  31.983  1.00  0.00     0.037 A 
BRANCH  49  63
ATOM     63  C   UNL A   1      44.386  28.703  34.702  1.00  0.00     0.064 A 
ATOM     64  C   UNL A   1      45.569  29.332  34.225  1.00  0.00     0.173 A 
ATOM     65  C   UNL A   1      44.526  27.920  35.850  1.00  0.00     0.173 A 
ATOM     66  F   UNL A   1      45.527  30.164  33.173  1.00  0.00    -0.203 F 
ATOM     67  C   UNL A   1      46.826  29.054  34.758  1.00  0.00     0.198 A 
ATOM     68  C   UNL A   1      45.788  27.683  36.416  1.00  0.00     0.198 A 
ATOM     69  F   UNL A   1      43.470  27.291  36.384  1.00  0.00    -0.203 F 
ATOM     70  F   UNL A   1      47.927  29.549  34.174  1.00  0.00    -0.200 F 
ATOM     71  C   UNL A   1      46.937  28.208  35.842  1.00  0.00     0.200 A 
ATOM     72  F   UNL A   1      45.897  26.874  37.479  1.00  0.00    -0.200 F 
ATOM     73  F   UNL A   1      48.147  27.874  36.313  1.00  0.00    -0.200 F 
ENDBRANCH  49  63
BRANCH  50  74
ATOM     74  C   UNL A   1      36.285  31.582  28.252  1.00  0.00     0.064 A 
ATOM     75  C   UNL A   1      35.169  30.796  27.944  1.00  0.00     0.173 A 
ATOM     76  C   UNL A   1      36.043  32.985  28.163  1.00  0.00     0.173 A 
ATOM     77  F   UNL A   1      35.270  29.467  27.837  1.00  0.00    -0.203 F 
ATOM     78  C   UNL A   1      33.897  31.364  27.717  1.00  0.00     0.198 A 
ATOM     79  C   UNL A   1      34.777  33.548  28.003  1.00  0.00     0.198 A 
ATOM     80  F   UNL A   1      37.040  33.878  28.242  1.00  0.00    -0.203 F 
ATOM     81  F   UNL A   1      32.852  30.571  27.438  1.00  0.00    -0.200 F 
ATOM     82  C   UNL A   1      33.693  32.733  27.800  1.00  0.00     0.200 A 
ATOM     83  F   UNL A   1      34.626  34.878  28.074  1.00  0.00    -0.200 F 
ATOM     84  F   UNL A   1      32.469  33.260  27.671  1.00  0.00    -0.200 F 
ENDBRANCH  50  74
BRANCH  62  85
ATOM     85  C   UNL A   1      41.701  32.383  31.008  1.00  0.00     0.064 A 
ATOM     86  C   UNL A   1      41.839  33.763  30.791  1.00  0.00     0.173 A 
ATOM     87  C   UNL A   1      42.496  31.558  30.194  1.00  0.00     0.173 A 
ATOM     88  F   UNL A   1      41.135  34.628  31.537  1.00  0.00    -0.203 F 
ATOM     89  C   UNL A   1      42.695  34.276  29.810  1.00  0.00     0.198 A 
ATOM     90  C   UNL A   1      43.358  32.064  29.215  1.00  0.00     0.198 A 
ATOM     91  F   UNL A   1      42.466  30.236  30.325  1.00  0.00    -0.203 F 
ATOM     92  F   UNL A   1      42.790  35.600  29.636  1.00  0.00    -0.200 F 
ATOM     93  C   UNL A   1      43.453  33.427  29.021  1.00  0.00     0.200 A 
ATOM     94  F   UNL A   1      44.095  31.226  28.470  1.00  0.00    -0.200 F 
ATOM     95  F   UNL A   1      44.281  33.919  28.089  1.00  0.00    -0.200 F 
ENDBRANCH  62  85
ENDBRANCH  36  37
ENDBRANCH  28  31
ENDBRANCH  26  27
ENDBRANCH  25  26
ENDBRANCH  24  25
ENDBRANCH   1  24
TORSDOF 15
ENDMDL
MODEL 3
REMARK VINA RESULT:     -12.4      5.220     10.801
REMARK SMILES CN(C(=O)c1cccn1CC(=O)NCCCCNC(=O)c1ccc(-c2c3nc(c(-c4c(F)c(F)c(F)c(F)c4F)c4ccc([nH]4)c(-c4c(F)c(F)c(F)c(F)c4F)c4nc(c(-c5c(F)c(F)c(F)c(F)c5F)c5ccc2[nH]5)C=C4)C=C3)cc1)C1CCC(C)(C)CC1
REMARK SMILES IDX 14 1 13 2 11 3 12 4 10 6 9 7 5 8 6 9 7 10 8 11 3 12 4 13
REMARK SMILES IDX 2 14 1 15 84 16 85 17 91 18 86 19 90 20 87 21 88 22 89 23
REMARK SMILES IDX 15 24 16 25 17 26 18 27 19 28 20 30 21 31 22 32 83 33 23 34
REMARK SMILES IDX 82 35 24 36 25 37 26 38 76 39 27 40 81 41 75 42 77 43 28 44
REMARK SMILES IDX 80 45 74 46 73 47 29 49 61 50 41 51 60 52 42 53 45 54 59 55
REMARK SMILES IDX 78 56 43 57 44 58 58 60 79 61 46 62 30 63 31 64 39 65 32 66
REMARK SMILES IDX 33 67 37 68 40 69 34 70 35 71 38 72 36 73 62 74 63 75 71 76
REMARK SMILES IDX 64 77 65 78 69 79 72 80 66 81 67 82 70 83 68 84 47 85 48 86
REMARK SMILES IDX 56 87 49 88 50 89 54 90 57 91 51 92 52 93 55 94 53 95
REMARK H PARENT 13 5 18 29 77 48 45 59
REMARK Flexibility Score: inf
ROOT
ATOM      1  C   UNL A   1      36.803  21.894  25.531  1.00  0.00     0.116 C 
ENDROOT
BRANCH   1   2
ATOM      2  N   UNL A   1      35.849  22.067  26.606  1.00  0.00    -0.355 N 
ATOM      3  C   UNL A   1      34.653  22.728  26.591  1.00  0.00     0.239 C 
ATOM      4  O   UNL A   1      34.034  22.818  27.654  1.00  0.00    -0.273 OA
ATOM      5  H   UNL A   1      36.096  21.652  27.464  1.00  0.00     0.163 HD
BRANCH   3   6
ATOM      6  C   UNL A   1      34.079  23.264  25.293  1.00  0.00     0.222 C 
BRANCH   6   7
ATOM      7  N   UNL A   1      33.328  22.277  24.524  1.00  0.00    -0.334 N 
ATOM      8  C   UNL A   1      32.780  22.446  23.258  1.00  0.00     0.107 A 
ATOM      9  C   UNL A   1      32.249  21.210  22.902  1.00  0.00     0.033 A 
ATOM     10  C   UNL A   1      32.375  20.331  24.000  1.00  0.00     0.020 A 
ATOM     11  C   UNL A   1      33.059  21.008  24.980  1.00  0.00     0.087 A 
BRANCH   8  12
ATOM     12  C   UNL A   1      32.803  23.692  22.493  1.00  0.00     0.270 C 
ATOM     13  O   UNL A   1      33.674  23.883  21.647  1.00  0.00    -0.267 OA
BRANCH  12  14
ATOM     14  N   UNL A   1      31.858  24.696  22.808  1.00  0.00    -0.337 N 
ATOM     15  C   UNL A   1      30.668  24.390  23.601  1.00  0.00     0.147 C 
BRANCH  14  16
ATOM     16  C   UNL A   1      32.265  26.128  22.669  1.00  0.00     0.085 C 
ATOM     17  C   UNL A   1      31.127  27.152  22.885  1.00  0.00     0.026 C 
ATOM     18  C   UNL A   1      33.460  26.574  23.547  1.00  0.00     0.026 C 
ATOM     19  C   UNL A   1      30.738  27.321  24.353  1.00  0.00     0.008 C 
ATOM     20  C   UNL A   1      33.099  26.721  25.029  1.00  0.00     0.008 C 
ATOM     21  C   UNL A   1      31.920  27.681  25.278  1.00  0.00    -0.035 C 
ATOM     22  C   UNL A   1      31.457  27.544  26.740  1.00  0.00     0.011 C 
ATOM     23  C   UNL A   1      32.380  29.135  25.061  1.00  0.00     0.011 C 
ENDBRANCH  14  16
ENDBRANCH  12  14
ENDBRANCH   8  12
ENDBRANCH   6   7
ENDBRANCH   3   6
ENDBRANCH   1   2
BRANCH   1  24
ATOM     24  C   UNL A   1      36.732  20.486  24.940  1.00  0.00     0.023 C 
BRANCH  24  25
ATOM     25  C   UNL A   1      38.080  19.779  24.766  1.00  0.00     0.023 C 
BRANCH  25  26
ATOM     26  C   UNL A   1      39.138  20.232  25.767  1.00  0.00     0.116 C 
BRANCH  26  27
ATOM     27  N   UNL A   1      40.149  19.206  25.988  1.00  0.00    -0.352 N 
ATOM     28  C   UNL A   1      41.511  19.355  26.100  1.00  0.00     0.251 C 
ATOM     29  H   UNL A   1      39.812  18.284  26.068  1.00  0.00     0.163 HD
ATOM     30  O   UNL A   1      42.254  18.402  25.930  1.00  0.00    -0.269 OA
BRANCH  28  31
ATOM     31  C   UNL A   1      42.073  20.677  26.427  1.00  0.00     0.039 A 
ATOM     32  C   UNL A   1      42.459  21.526  25.383  1.00  0.00     0.014 A 
ATOM     33  C   UNL A   1      42.274  21.040  27.762  1.00  0.00     0.014 A 
ATOM     34  C   UNL A   1      42.998  22.769  25.686  1.00  0.00     0.010 A 
ATOM     35  C   UNL A   1      42.751  22.299  28.068  1.00  0.00     0.010 A 
ATOM     36  C   UNL A   1      43.121  23.154  27.028  1.00  0.00    -0.014 A 
BRANCH  36  37
ATOM     37  C   UNL A   1      43.588  24.514  27.347  1.00  0.00     0.031 A 
ATOM     38  C   UNL A   1      42.388  25.464  27.632  1.00  0.00     0.074 A 
ATOM     39  C   UNL A   1      44.953  24.658  27.320  1.00  0.00     0.049 A 
ATOM     40  N   UNL A   1      42.277  26.752  27.503  1.00  0.00    -0.248 NA
ATOM     41  C   UNL A   1      41.089  24.878  28.084  1.00  0.00     0.031 C 
ATOM     42  C   UNL A   1      45.927  23.560  27.075  1.00  0.00     0.029 A 
ATOM     43  N   UNL A   1      45.811  25.722  27.480  1.00  0.00    -0.354 N 
ATOM     44  C   UNL A   1      41.005  27.145  28.000  1.00  0.00     0.074 A 
ATOM     45  C   UNL A   1      40.286  25.935  28.257  1.00  0.00     0.031 C 
ATOM     46  C   UNL A   1      47.193  24.026  27.011  1.00  0.00     0.029 A 
ATOM     47  C   UNL A   1      47.183  25.459  27.194  1.00  0.00     0.049 A 
ATOM     48  H   UNL A   1      45.498  26.607  27.776  1.00  0.00     0.167 HD
ATOM     49  C   UNL A   1      40.676  28.448  28.264  1.00  0.00     0.037 A 
ATOM     50  C   UNL A   1      48.210  26.356  27.035  1.00  0.00     0.037 A 
ATOM     51  C   UNL A   1      41.778  29.287  27.943  1.00  0.00     0.049 A 
ATOM     52  C   UNL A   1      47.590  27.648  27.349  1.00  0.00     0.074 A 
ATOM     53  C   UNL A   1      42.242  29.747  26.742  1.00  0.00     0.029 A 
ATOM     54  N   UNL A   1      42.757  29.424  28.895  1.00  0.00    -0.354 N 
ATOM     55  N   UNL A   1      47.248  28.032  28.540  1.00  0.00    -0.248 NA
ATOM     56  C   UNL A   1      47.177  28.504  26.232  1.00  0.00     0.031 C 
ATOM     57  C   UNL A   1      43.637  29.640  26.891  1.00  0.00     0.029 A 
ATOM     58  C   UNL A   1      43.960  29.413  28.234  1.00  0.00     0.049 A 
ATOM     59  H   UNL A   1      42.623  29.513  29.866  1.00  0.00     0.167 HD
ATOM     60  C   UNL A   1      46.307  28.996  28.275  1.00  0.00     0.074 A 
ATOM     61  C   UNL A   1      46.536  29.443  26.918  1.00  0.00     0.031 C 
ATOM     62  C   UNL A   1      45.136  29.008  28.962  1.00  0.00     0.037 A 
BRANCH  49  63
ATOM     63  C   UNL A   1      39.531  29.133  28.965  1.00  0.00     0.064 A 
ATOM     64  C   UNL A   1      39.419  28.972  30.373  1.00  0.00     0.173 A 
ATOM     65  C   UNL A   1      38.380  29.566  28.302  1.00  0.00     0.173 A 
ATOM     66  F   UNL A   1      40.487  28.632  31.112  1.00  0.00    -0.203 F 
ATOM     67  C   UNL A   1      38.199  29.070  31.039  1.00  0.00     0.198 A 
ATOM     68  C   UNL A   1      37.163  29.713  28.985  1.00  0.00     0.198 A 
ATOM     69  F   UNL A   1      38.383  29.755  26.976  1.00  0.00    -0.203 F 
ATOM     70  F   UNL A   1      38.117  28.754  32.340  1.00  0.00    -0.200 F 
ATOM     71  C   UNL A   1      37.064  29.418  30.337  1.00  0.00     0.200 A 
ATOM     72  F   UNL A   1      36.061  30.066  28.309  1.00  0.00    -0.200 F 
ATOM     73  F   UNL A   1      35.873  29.439  30.953  1.00  0.00    -0.200 F 
ENDBRANCH  49  63
BRANCH  50  74
ATOM     74  C   UNL A   1      49.629  26.399  26.501  1.00  0.00     0.064 A 
ATOM     75  C   UNL A   1      50.016  26.356  25.156  1.00  0.00     0.173 A 
ATOM     76  C   UNL A   1      50.714  26.601  27.406  1.00  0.00     0.173 A 
ATOM     77  F   UNL A   1      49.143  26.028  24.199  1.00  0.00    -0.203 F 
ATOM     78  C   UNL A   1      51.338  26.640  24.752  1.00  0.00     0.198 A 
ATOM     79  C   UNL A   1      52.006  26.944  27.007  1.00  0.00     0.198 A 
ATOM     80  F   UNL A   1      50.555  26.484  28.732  1.00  0.00    -0.203 F 
ATOM     81  F   UNL A   1      51.661  26.600  23.451  1.00  0.00    -0.200 F 
ATOM     82  C   UNL A   1      52.316  26.985  25.672  1.00  0.00     0.200 A 
ATOM     83  F   UNL A   1      52.926  27.256  27.931  1.00  0.00    -0.200 F 
ATOM     84  F   UNL A   1      53.546  27.338  25.277  1.00  0.00    -0.200 F 
ENDBRANCH  50  74
BRANCH  62  85
ATOM     85  C   UNL A   1      45.178  28.255  30.284  1.00  0.00     0.064 A 
ATOM     86  C   UNL A   1      45.985  28.732  31.329  1.00  0.00     0.173 A 
ATOM     87  C   UNL A   1      44.547  27.022  30.520  1.00  0.00     0.173 A 
ATOM     88  F   UNL A   1      46.610  29.912  31.201  1.00  0.00    -0.203 F 
ATOM     89  C   UNL A   1      46.165  28.011  32.514  1.00  0.00     0.198 A 
ATOM     90  C   UNL A   1      44.718  26.298  31.704  1.00  0.00     0.198 A 
ATOM     91  F   UNL A   1      43.740  26.482  29.610  1.00  0.00    -0.203 F 
ATOM     92  F   UNL A   1      46.948  28.503  33.481  1.00  0.00    -0.200 F 
ATOM     93  C   UNL A   1      45.533  26.792  32.701  1.00  0.00     0.200 A 
ATOM     94  F   UNL A   1      44.085  25.125  31.872  1.00  0.00    -0.200 F 
ATOM     95  F   UNL A   1      45.696  26.107  33.841  1.00  0.00    -0.200 F 
ENDBRANCH  62  85
ENDBRANCH  36  37
ENDBRANCH  28  31
ENDBRANCH  26  27
ENDBRANCH  25  26
ENDBRANCH  24  25
ENDBRANCH   1  24
TORSDOF 15
ENDMDL
