MODEL 1
REMARK VINA RESULT:     -11.9      0.000      0.000
REMARK SMILES C[NH2+][C@@]1(C(=O)NCCCCNC(=O)c2ccc(-c3c4nc(c(-c5c(F)c(F)c(F)c(F)c5F)c5ccc([nH]5)c(-c5c(F)c(F)c(F)c(F)c5F)c5nc(c(-c6c(F)c(F)c(F)c(F)c6F)c6ccc3[nH]6)C=C5)C=C4)cc2)CCC[C@H]1CCSc1nccc(=O)[nH]1
REMARK SMILES IDX 7 1 6 2 4 3 5 4 3 6 77 7 80 8 78 9 79 10 2 11 1 12 81 15
REMARK SMILES IDX 82 16 83 17 84 18 85 19 90 20 86 21 88 22 87 24 89 25 8 26
REMARK SMILES IDX 9 27 10 28 11 29 12 30 13 32 14 33 15 34 76 35 16 36 75 37
REMARK SMILES IDX 17 38 18 39 19 40 69 41 20 42 74 43 68 44 70 45 21 46 73 47
REMARK SMILES IDX 67 48 66 49 22 51 54 52 34 53 53 54 35 55 38 56 52 57 71 58
REMARK SMILES IDX 36 59 37 60 51 62 72 63 39 64 23 65 24 66 32 67 25 68 26 69
REMARK SMILES IDX 30 70 33 71 27 72 28 73 31 74 29 75 55 76 56 77 64 78 57 79
REMARK SMILES IDX 58 80 62 81 65 82 59 83 60 84 63 85 61 86 40 87 41 88 49 89
REMARK SMILES IDX 42 90 43 91 47 92 50 93 44 94 45 95 48 96 46 97
REMARK H PARENT 6 5 2 13 2 14 90 23 11 31 70 50 38 61
REMARK Flexibility Score: inf
ROOT
ATOM      1  C   UNL A   1      30.785  27.459  22.806  1.00  0.00     0.116 C 
ENDROOT
BRANCH   1   2
ATOM      2  N   UNL A   1      31.794  26.963  21.907  1.00  0.00    -0.351 N 
ATOM      3  C   UNL A   1      32.655  25.908  21.934  1.00  0.00     0.281 C 
ATOM      4  O   UNL A   1      33.276  25.797  20.866  1.00  0.00    -0.268 OA
ATOM      5  H   UNL A   1      31.881  27.507  21.091  1.00  0.00     0.163 HD
BRANCH   3   6
ATOM      6  C   UNL A   1      32.836  24.875  23.152  1.00  0.00     0.178 C 
ATOM      7  C   UNL A   1      33.654  23.629  22.752  1.00  0.00     0.079 C 
ATOM      8  C   UNL A   1      31.456  24.312  23.663  1.00  0.00     0.061 C 
ATOM      9  C   UNL A   1      32.695  22.490  22.482  1.00  0.00     0.008 C 
ATOM     10  C   UNL A   1      31.424  22.814  23.248  1.00  0.00     0.011 C 
BRANCH   6  11
ATOM     11  N   UNL A   1      33.560  25.567  24.266  1.00  0.00    -0.336 N 
ATOM     12  C   UNL A   1      34.734  24.895  24.814  1.00  0.00     0.331 C 
ATOM     13  H   UNL A   1      33.862  26.477  23.917  1.00  0.00     0.346 HD
ATOM     14  H   UNL A   1      32.891  25.602  25.035  1.00  0.00     0.346 HD
ENDBRANCH   6  11
BRANCH   8  15
ATOM     15  C   UNL A   1      31.134  24.349  25.185  1.00  0.00     0.022 C 
BRANCH  15  16
ATOM     16  C   UNL A   1      31.040  23.026  25.954  1.00  0.00     0.079 C 
BRANCH  16  17
ATOM     17  S   UNL A   1      32.510  22.697  26.974  1.00  0.00    -0.088 SA
BRANCH  17  18
ATOM     18  C   UNL A   1      33.291  21.457  26.053  1.00  0.00     0.168 A 
ATOM     19  N   UNL A   1      34.531  21.502  25.713  1.00  0.00    -0.233 NA
ATOM     20  N   UNL A   1      32.446  20.441  25.743  1.00  0.00    -0.301 N 
ATOM     21  C   UNL A   1      35.008  20.435  25.000  1.00  0.00     0.120 A 
ATOM     22  C   UNL A   1      32.874  19.339  25.069  1.00  0.00     0.251 A 
ATOM     23  H   UNL A   1      31.502  20.502  26.013  1.00  0.00     0.172 HD
ATOM     24  C   UNL A   1      34.287  19.362  24.662  1.00  0.00     0.091 A 
ATOM     25  O   UNL A   1      32.157  18.375  24.832  1.00  0.00    -0.269 OA
ENDBRANCH  17  18
ENDBRANCH  16  17
ENDBRANCH  15  16
ENDBRANCH   8  15
ENDBRANCH   3   6
ENDBRANCH   1   2
BRANCH   1  26
ATOM     26  C   UNL A   1      31.235  28.657  23.634  1.00  0.00     0.023 C 
BRANCH  26  27
ATOM     27  C   UNL A   1      32.057  28.326  24.876  1.00  0.00     0.023 C 
BRANCH  27  28
ATOM     28  C   UNL A   1      33.101  29.361  25.282  1.00  0.00     0.116 C 
BRANCH  28  29
ATOM     29  N   UNL A   1      32.556  30.539  25.939  1.00  0.00    -0.352 N 
ATOM     30  C   UNL A   1      33.110  31.299  26.947  1.00  0.00     0.251 C 
ATOM     31  H   UNL A   1      31.672  30.835  25.621  1.00  0.00     0.163 HD
ATOM     32  O   UNL A   1      32.503  32.245  27.423  1.00  0.00    -0.269 OA
BRANCH  30  33
ATOM     33  C   UNL A   1      34.434  30.917  27.484  1.00  0.00     0.039 A 
ATOM     34  C   UNL A   1      35.407  31.908  27.631  1.00  0.00     0.014 A 
ATOM     35  C   UNL A   1      34.683  29.609  27.904  1.00  0.00     0.014 A 
ATOM     36  C   UNL A   1      36.602  31.606  28.287  1.00  0.00     0.010 A 
ATOM     37  C   UNL A   1      35.839  29.330  28.625  1.00  0.00     0.010 A 
ATOM     38  C   UNL A   1      36.805  30.327  28.832  1.00  0.00    -0.014 A 
BRANCH  38  39
ATOM     39  C   UNL A   1      38.011  30.016  29.639  1.00  0.00     0.031 A 
ATOM     40  C   UNL A   1      39.040  29.056  29.114  1.00  0.00     0.074 A 
ATOM     41  C   UNL A   1      38.135  30.530  30.878  1.00  0.00     0.049 A 
ATOM     42  N   UNL A   1      40.112  28.587  29.702  1.00  0.00    -0.248 NA
ATOM     43  C   UNL A   1      38.818  28.526  27.759  1.00  0.00     0.031 C 
ATOM     44  C   UNL A   1      37.172  31.423  31.525  1.00  0.00     0.029 A 
ATOM     45  N   UNL A   1      39.117  30.363  31.823  1.00  0.00    -0.354 N 
ATOM     46  C   UNL A   1      40.675  27.694  28.800  1.00  0.00     0.074 A 
ATOM     47  C   UNL A   1      39.801  27.646  27.649  1.00  0.00     0.031 C 
ATOM     48  C   UNL A   1      37.618  31.740  32.751  1.00  0.00     0.029 A 
ATOM     49  C   UNL A   1      38.881  31.048  32.990  1.00  0.00     0.049 A 
ATOM     50  H   UNL A   1      39.914  29.804  31.678  1.00  0.00     0.167 HD
ATOM     51  C   UNL A   1      41.828  26.994  28.916  1.00  0.00     0.037 A 
ATOM     52  C   UNL A   1      39.600  31.106  34.127  1.00  0.00     0.037 A 
ATOM     53  C   UNL A   1      42.713  27.074  30.047  1.00  0.00     0.049 A 
ATOM     54  C   UNL A   1      40.891  30.340  34.219  1.00  0.00     0.074 A 
ATOM     55  C   UNL A   1      43.943  26.465  30.226  1.00  0.00     0.029 A 
ATOM     56  N   UNL A   1      42.461  27.811  31.195  1.00  0.00    -0.354 N 
ATOM     57  N   UNL A   1      41.454  29.556  33.330  1.00  0.00    -0.248 NA
ATOM     58  C   UNL A   1      41.654  30.472  35.468  1.00  0.00     0.031 C 
ATOM     59  C   UNL A   1      44.417  26.801  31.497  1.00  0.00     0.029 A 
ATOM     60  C   UNL A   1      43.505  27.658  32.094  1.00  0.00     0.049 A 
ATOM     61  H   UNL A   1      41.660  28.361  31.349  1.00  0.00     0.167 HD
ATOM     62  C   UNL A   1      42.643  29.125  33.899  1.00  0.00     0.074 A 
ATOM     63  C   UNL A   1      42.730  29.744  35.205  1.00  0.00     0.031 C 
ATOM     64  C   UNL A   1      43.578  28.288  33.387  1.00  0.00     0.037 A 
BRANCH  51  65
ATOM     65  C   UNL A   1      42.204  26.086  27.782  1.00  0.00     0.064 A 
ATOM     66  C   UNL A   1      41.664  24.797  27.660  1.00  0.00     0.173 A 
ATOM     67  C   UNL A   1      43.090  26.523  26.784  1.00  0.00     0.173 A 
ATOM     68  F   UNL A   1      40.822  24.328  28.594  1.00  0.00    -0.203 F 
ATOM     69  C   UNL A   1      42.019  23.968  26.599  1.00  0.00     0.198 A 
ATOM     70  C   UNL A   1      43.420  25.703  25.709  1.00  0.00     0.198 A 
ATOM     71  F   UNL A   1      43.631  27.749  26.850  1.00  0.00    -0.203 F 
ATOM     72  F   UNL A   1      41.529  22.723  26.533  1.00  0.00    -0.200 F 
ATOM     73  C   UNL A   1      42.890  24.423  25.622  1.00  0.00     0.200 A 
ATOM     74  F   UNL A   1      44.252  26.148  24.758  1.00  0.00    -0.200 F 
ATOM     75  F   UNL A   1      43.225  23.626  24.598  1.00  0.00    -0.200 F 
ENDBRANCH  51  65
BRANCH  52  76
ATOM     76  C   UNL A   1      39.129  31.943  35.261  1.00  0.00     0.064 A 
ATOM     77  C   UNL A   1      38.382  31.381  36.306  1.00  0.00     0.173 A 
ATOM     78  C   UNL A   1      39.414  33.314  35.325  1.00  0.00     0.173 A 
ATOM     79  F   UNL A   1      38.067  30.078  36.276  1.00  0.00    -0.203 F 
ATOM     80  C   UNL A   1      37.921  32.163  37.363  1.00  0.00     0.198 A 
ATOM     81  C   UNL A   1      38.975  34.091  36.396  1.00  0.00     0.198 A 
ATOM     82  F   UNL A   1      40.130  33.898  34.353  1.00  0.00    -0.203 F 
ATOM     83  F   UNL A   1      37.173  31.610  38.325  1.00  0.00    -0.200 F 
ATOM     84  C   UNL A   1      38.223  33.516  37.410  1.00  0.00     0.200 A 
ATOM     85  F   UNL A   1      39.279  35.395  36.445  1.00  0.00    -0.200 F 
ATOM     86  F   UNL A   1      37.782  34.267  38.429  1.00  0.00    -0.200 F 
ENDBRANCH  52  76
BRANCH  64  87
ATOM     87  C   UNL A   1      44.794  28.018  34.224  1.00  0.00     0.064 A 
ATOM     88  C   UNL A   1      45.925  28.845  34.166  1.00  0.00     0.173 A 
ATOM     89  C   UNL A   1      44.807  26.945  35.129  1.00  0.00     0.173 A 
ATOM     90  F   UNL A   1      45.964  29.874  33.306  1.00  0.00    -0.203 F 
ATOM     91  C   UNL A   1      47.034  28.595  34.968  1.00  0.00     0.198 A 
ATOM     92  C   UNL A   1      45.907  26.716  35.950  1.00  0.00     0.198 A 
ATOM     93  F   UNL A   1      43.747  26.130  35.227  1.00  0.00    -0.203 F 
ATOM     94  F   UNL A   1      48.121  29.372  34.866  1.00  0.00    -0.200 F 
ATOM     95  C   UNL A   1      47.022  27.536  35.864  1.00  0.00     0.200 A 
ATOM     96  F   UNL A   1      45.889  25.700  36.823  1.00  0.00    -0.200 F 
ATOM     97  F   UNL A   1      48.088  27.302  36.642  1.00  0.00    -0.200 F 
ENDBRANCH  64  87
ENDBRANCH  38  39
ENDBRANCH  30  33
ENDBRANCH  28  29
ENDBRANCH  27  28
ENDBRANCH  26  27
ENDBRANCH   1  26
TORSDOF 16
ENDMDL
MODEL 2
REMARK VINA RESULT:     -11.9      2.005      7.690
REMARK SMILES C[NH2+][C@@]1(C(=O)NCCCCNC(=O)c2ccc(-c3c4nc(c(-c5c(F)c(F)c(F)c(F)c5F)c5ccc([nH]5)c(-c5c(F)c(F)c(F)c(F)c5F)c5nc(c(-c6c(F)c(F)c(F)c(F)c6F)c6ccc3[nH]6)C=C5)C=C4)cc2)CCC[C@H]1CCSc1nccc(=O)[nH]1
REMARK SMILES IDX 7 1 6 2 4 3 5 4 3 6 77 7 80 8 78 9 79 10 2 11 1 12 81 15
REMARK SMILES IDX 82 16 83 17 84 18 85 19 90 20 86 21 88 22 87 24 89 25 8 26
REMARK SMILES IDX 9 27 10 28 11 29 12 30 13 32 14 33 15 34 76 35 16 36 75 37
REMARK SMILES IDX 17 38 18 39 19 40 69 41 20 42 74 43 68 44 70 45 21 46 73 47
REMARK SMILES IDX 67 48 66 49 22 51 54 52 34 53 53 54 35 55 38 56 52 57 71 58
REMARK SMILES IDX 36 59 37 60 51 62 72 63 39 64 23 65 24 66 32 67 25 68 26 69
REMARK SMILES IDX 30 70 33 71 27 72 28 73 31 74 29 75 55 76 56 77 64 78 57 79
REMARK SMILES IDX 58 80 62 81 65 82 59 83 60 84 63 85 61 86 40 87 41 88 49 89
REMARK SMILES IDX 42 90 43 91 47 92 50 93 44 94 45 95 48 96 46 97
REMARK H PARENT 6 5 2 13 2 14 90 23 11 31 70 50 38 61
REMARK Flexibility Score: inf
ROOT
ATOM      1  C   UNL A   1      31.482  29.859  25.184  1.00  0.00     0.116 C 
ENDROOT
BRANCH   1   2
ATOM      2  N   UNL A   1      32.564  29.592  24.272  1.00  0.00    -0.351 N 
ATOM      3  C   UNL A   1      33.084  28.461  23.721  1.00  0.00     0.281 C 
ATOM      4  O   UNL A   1      33.958  28.722  22.879  1.00  0.00    -0.268 OA
ATOM      5  H   UNL A   1      33.030  30.409  23.982  1.00  0.00     0.163 HD
BRANCH   3   6
ATOM      6  C   UNL A   1      32.619  26.957  24.046  1.00  0.00     0.178 C 
ATOM      7  C   UNL A   1      32.716  26.622  25.549  1.00  0.00     0.079 C 
ATOM      8  C   UNL A   1      33.525  25.887  23.328  1.00  0.00     0.061 C 
ATOM      9  C   UNL A   1      33.985  25.831  25.785  1.00  0.00     0.008 C 
ATOM     10  C   UNL A   1      34.338  25.189  24.454  1.00  0.00     0.011 C 
BRANCH   6  11
ATOM     11  N   UNL A   1      31.190  26.795  23.625  1.00  0.00    -0.336 N 
ATOM     12  C   UNL A   1      30.776  27.478  22.403  1.00  0.00     0.331 C 
ATOM     13  H   UNL A   1      31.020  25.798  23.493  1.00  0.00     0.346 HD
ATOM     14  H   UNL A   1      30.644  27.230  24.369  1.00  0.00     0.346 HD
ENDBRANCH   6  11
BRANCH   8  15
ATOM     15  C   UNL A   1      32.854  24.748  22.506  1.00  0.00     0.022 C 
BRANCH  15  16
ATOM     16  C   UNL A   1      33.510  23.363  22.489  1.00  0.00     0.079 C 
BRANCH  16  17
ATOM     17  S   UNL A   1      32.406  22.052  23.099  1.00  0.00    -0.088 SA
BRANCH  17  18
ATOM     18  C   UNL A   1      32.631  22.187  24.809  1.00  0.00     0.168 A 
ATOM     19  N   UNL A   1      33.638  21.684  25.433  1.00  0.00    -0.233 NA
ATOM     20  N   UNL A   1      31.631  22.885  25.404  1.00  0.00    -0.301 N 
ATOM     21  C   UNL A   1      33.686  21.892  26.785  1.00  0.00     0.120 A 
ATOM     22  C   UNL A   1      31.644  23.152  26.738  1.00  0.00     0.251 A 
ATOM     23  H   UNL A   1      30.878  23.206  24.858  1.00  0.00     0.172 HD
ATOM     24  C   UNL A   1      32.782  22.587  27.480  1.00  0.00     0.091 A 
ATOM     25  O   UNL A   1      30.794  23.835  27.296  1.00  0.00    -0.269 OA
ENDBRANCH  17  18
ENDBRANCH  16  17
ENDBRANCH  15  16
ENDBRANCH   8  15
ENDBRANCH   3   6
ENDBRANCH   1   2
BRANCH   1  26
ATOM     26  C   UNL A   1      31.935  30.405  26.532  1.00  0.00     0.023 C 
BRANCH  26  27
ATOM     27  C   UNL A   1      31.610  31.874  26.790  1.00  0.00     0.023 C 
BRANCH  27  28
ATOM     28  C   UNL A   1      32.775  32.745  27.245  1.00  0.00     0.116 C 
BRANCH  28  29
ATOM     29  N   UNL A   1      32.401  34.097  27.633  1.00  0.00    -0.352 N 
ATOM     30  C   UNL A   1      32.984  34.917  28.575  1.00  0.00     0.251 C 
ATOM     31  H   UNL A   1      31.627  34.478  27.159  1.00  0.00     0.163 HD
ATOM     32  O   UNL A   1      32.523  36.022  28.814  1.00  0.00    -0.269 OA
BRANCH  30  33
ATOM     33  C   UNL A   1      34.150  34.416  29.336  1.00  0.00     0.039 A 
ATOM     34  C   UNL A   1      33.924  33.743  30.538  1.00  0.00     0.014 A 
ATOM     35  C   UNL A   1      35.443  34.549  28.828  1.00  0.00     0.014 A 
ATOM     36  C   UNL A   1      34.991  33.119  31.187  1.00  0.00     0.010 A 
ATOM     37  C   UNL A   1      36.490  33.863  29.433  1.00  0.00     0.010 A 
ATOM     38  C   UNL A   1      36.273  33.134  30.613  1.00  0.00    -0.014 A 
BRANCH  38  39
ATOM     39  C   UNL A   1      37.398  32.377  31.218  1.00  0.00     0.031 A 
ATOM     40  C   UNL A   1      37.900  32.741  32.585  1.00  0.00     0.074 A 
ATOM     41  C   UNL A   1      38.019  31.421  30.500  1.00  0.00     0.049 A 
ATOM     42  N   UNL A   1      38.924  32.262  33.246  1.00  0.00    -0.248 NA
ATOM     43  C   UNL A   1      37.175  33.809  33.292  1.00  0.00     0.031 C 
ATOM     44  C   UNL A   1      37.666  31.020  29.137  1.00  0.00     0.029 A 
ATOM     45  N   UNL A   1      39.092  30.622  30.812  1.00  0.00    -0.354 N 
ATOM     46  C   UNL A   1      38.978  32.985  34.430  1.00  0.00     0.074 A 
ATOM     47  C   UNL A   1      37.919  33.968  34.376  1.00  0.00     0.031 C 
ATOM     48  C   UNL A   1      38.492  30.040  28.737  1.00  0.00     0.029 A 
ATOM     49  C   UNL A   1      39.453  29.766  29.801  1.00  0.00     0.049 A 
ATOM     50  H   UNL A   1      39.558  30.661  31.678  1.00  0.00     0.167 HD
ATOM     51  C   UNL A   1      39.823  32.827  35.476  1.00  0.00     0.037 A 
ATOM     52  C   UNL A   1      40.452  28.865  29.738  1.00  0.00     0.037 A 
ATOM     53  C   UNL A   1      40.851  31.823  35.541  1.00  0.00     0.049 A 
ATOM     54  C   UNL A   1      41.360  28.690  30.924  1.00  0.00     0.074 A 
ATOM     55  C   UNL A   1      41.707  31.530  36.589  1.00  0.00     0.029 A 
ATOM     56  N   UNL A   1      41.162  30.944  34.514  1.00  0.00    -0.354 N 
ATOM     57  N   UNL A   1      41.355  29.328  32.071  1.00  0.00    -0.248 NA
ATOM     58  C   UNL A   1      42.407  27.665  30.814  1.00  0.00     0.031 C 
ATOM     59  C   UNL A   1      42.562  30.501  36.181  1.00  0.00     0.029 A 
ATOM     60  C   UNL A   1      42.209  30.121  34.896  1.00  0.00     0.049 A 
ATOM     61  H   UNL A   1      40.706  30.911  33.642  1.00  0.00     0.167 HD
ATOM     62  C   UNL A   1      42.375  28.766  32.824  1.00  0.00     0.074 A 
ATOM     63  C   UNL A   1      42.971  27.725  32.012  1.00  0.00     0.031 C 
ATOM     64  C   UNL A   1      42.784  29.085  34.077  1.00  0.00     0.037 A 
BRANCH  51  65
ATOM     65  C   UNL A   1      39.663  33.757  36.642  1.00  0.00     0.064 A 
ATOM     66  C   UNL A   1      38.867  33.422  37.747  1.00  0.00     0.173 A 
ATOM     67  C   UNL A   1      40.341  34.986  36.671  1.00  0.00     0.173 A 
ATOM     68  F   UNL A   1      38.188  32.265  37.764  1.00  0.00    -0.203 F 
ATOM     69  C   UNL A   1      38.731  34.294  38.825  1.00  0.00     0.198 A 
ATOM     70  C   UNL A   1      40.228  35.842  37.763  1.00  0.00     0.198 A 
ATOM     71  F   UNL A   1      41.119  35.353  35.642  1.00  0.00    -0.203 F 
ATOM     72  F   UNL A   1      37.925  33.974  39.846  1.00  0.00    -0.200 F 
ATOM     73  C   UNL A   1      39.417  35.499  38.835  1.00  0.00     0.200 A 
ATOM     74  F   UNL A   1      40.900  37.001  37.777  1.00  0.00    -0.200 F 
ATOM     75  F   UNL A   1      39.291  36.334  39.876  1.00  0.00    -0.200 F 
ENDBRANCH  51  65
BRANCH  52  76
ATOM     76  C   UNL A   1      40.629  28.037  28.516  1.00  0.00     0.064 A 
ATOM     77  C   UNL A   1      40.012  26.783  28.403  1.00  0.00     0.173 A 
ATOM     78  C   UNL A   1      41.412  28.479  27.440  1.00  0.00     0.173 A 
ATOM     79  F   UNL A   1      39.272  26.309  29.416  1.00  0.00    -0.203 F 
ATOM     80  C   UNL A   1      40.189  25.993  27.269  1.00  0.00     0.198 A 
ATOM     81  C   UNL A   1      41.566  27.700  26.295  1.00  0.00     0.198 A 
ATOM     82  F   UNL A   1      42.018  29.674  27.497  1.00  0.00    -0.203 F 
ATOM     83  F   UNL A   1      39.624  24.781  27.206  1.00  0.00    -0.200 F 
ATOM     84  C   UNL A   1      40.960  26.456  26.213  1.00  0.00     0.200 A 
ATOM     85  F   UNL A   1      42.302  28.155  25.272  1.00  0.00    -0.200 F 
ATOM     86  F   UNL A   1      41.127  25.696  25.121  1.00  0.00    -0.200 F 
ENDBRANCH  52  76
BRANCH  64  87
ATOM     87  C   UNL A   1      43.907  28.280  34.660  1.00  0.00     0.064 A 
ATOM     88  C   UNL A   1      45.242  28.695  34.554  1.00  0.00     0.173 A 
ATOM     89  C   UNL A   1      43.638  27.102  35.375  1.00  0.00     0.173 A 
ATOM     90  F   UNL A   1      45.550  29.806  33.867  1.00  0.00    -0.203 F 
ATOM     91  C   UNL A   1      46.271  27.949  35.122  1.00  0.00     0.198 A 
ATOM     92  C   UNL A   1      44.667  26.375  35.967  1.00  0.00     0.198 A 
ATOM     93  F   UNL A   1      42.377  26.667  35.512  1.00  0.00    -0.203 F 
ATOM     94  F   UNL A   1      47.543  28.341  34.972  1.00  0.00    -0.200 F 
ATOM     95  C   UNL A   1      45.982  26.794  35.834  1.00  0.00     0.200 A 
ATOM     96  F   UNL A   1      44.385  25.266  36.665  1.00  0.00    -0.200 F 
ATOM     97  F   UNL A   1      46.972  26.082  36.389  1.00  0.00    -0.200 F 
ENDBRANCH  64  87
ENDBRANCH  38  39
ENDBRANCH  30  33
ENDBRANCH  28  29
ENDBRANCH  27  28
ENDBRANCH  26  27
ENDBRANCH   1  26
TORSDOF 16
ENDMDL
MODEL 3
REMARK VINA RESULT:     -11.8      2.019      7.936
REMARK SMILES C[NH2+][C@@]1(C(=O)NCCCCNC(=O)c2ccc(-c3c4nc(c(-c5c(F)c(F)c(F)c(F)c5F)c5ccc([nH]5)c(-c5c(F)c(F)c(F)c(F)c5F)c5nc(c(-c6c(F)c(F)c(F)c(F)c6F)c6ccc3[nH]6)C=C5)C=C4)cc2)CCC[C@H]1CCSc1nccc(=O)[nH]1
REMARK SMILES IDX 7 1 6 2 4 3 5 4 3 6 77 7 80 8 78 9 79 10 2 11 1 12 81 15
REMARK SMILES IDX 82 16 83 17 84 18 85 19 90 20 86 21 88 22 87 24 89 25 8 26
REMARK SMILES IDX 9 27 10 28 11 29 12 30 13 32 14 33 15 34 76 35 16 36 75 37
REMARK SMILES IDX 17 38 18 39 19 40 69 41 20 42 74 43 68 44 70 45 21 46 73 47
REMARK SMILES IDX 67 48 66 49 22 51 54 52 34 53 53 54 35 55 38 56 52 57 71 58
REMARK SMILES IDX 36 59 37 60 51 62 72 63 39 64 23 65 24 66 32 67 25 68 26 69
REMARK SMILES IDX 30 70 33 71 27 72 28 73 31 74 29 75 55 76 56 77 64 78 57 79
REMARK SMILES IDX 58 80 62 81 65 82 59 83 60 84 63 85 61 86 40 87 41 88 49 89
REMARK SMILES IDX 42 90 43 91 47 92 50 93 44 94 45 95 48 96 46 97
REMARK H PARENT 6 5 2 13 2 14 90 23 11 31 70 50 38 61
REMARK Flexibility Score: inf
ROOT
ATOM      1  C   UNL A   1      31.559  29.707  25.455  1.00  0.00     0.116 C 
ENDROOT
BRANCH   1   2
ATOM      2  N   UNL A   1      32.597  29.524  24.473  1.00  0.00    -0.351 N 
ATOM      3  C   UNL A   1      33.094  28.447  23.805  1.00  0.00     0.281 C 
ATOM      4  O   UNL A   1      33.925  28.784  22.947  1.00  0.00    -0.268 OA
ATOM      5  H   UNL A   1      33.046  30.366  24.231  1.00  0.00     0.163 HD
BRANCH   3   6
ATOM      6  C   UNL A   1      32.650  26.918  24.026  1.00  0.00     0.178 C 
ATOM      7  C   UNL A   1      32.771  26.476  25.499  1.00  0.00     0.079 C 
ATOM      8  C   UNL A   1      33.560  25.914  23.221  1.00  0.00     0.061 C 
ATOM      9  C   UNL A   1      34.052  25.686  25.662  1.00  0.00     0.008 C 
ATOM     10  C   UNL A   1      34.395  25.147  24.284  1.00  0.00     0.011 C 
BRANCH   6  11
ATOM     11  N   UNL A   1      31.218  26.769  23.612  1.00  0.00    -0.336 N 
ATOM     12  C   UNL A   1      30.776  27.548  22.459  1.00  0.00     0.331 C 
ATOM     13  H   UNL A   1      31.062  25.785  23.397  1.00  0.00     0.346 HD
ATOM     14  H   UNL A   1      30.676  27.129  24.398  1.00  0.00     0.346 HD
ENDBRANCH   6  11
BRANCH   8  15
ATOM     15  C   UNL A   1      32.891  24.829  22.327  1.00  0.00     0.022 C 
BRANCH  15  16
ATOM     16  C   UNL A   1      33.411  23.389  22.398  1.00  0.00     0.079 C 
BRANCH  16  17
ATOM     17  S   UNL A   1      32.157  22.217  23.004  1.00  0.00    -0.088 SA
BRANCH  17  18
ATOM     18  C   UNL A   1      32.412  22.302  24.713  1.00  0.00     0.168 A 
ATOM     19  N   UNL A   1      33.441  21.801  25.301  1.00  0.00    -0.233 NA
ATOM     20  N   UNL A   1      31.408  22.958  25.349  1.00  0.00    -0.301 N 
ATOM     21  C   UNL A   1      33.510  21.965  26.658  1.00  0.00     0.120 A 
ATOM     22  C   UNL A   1      31.441  23.182  26.690  1.00  0.00     0.251 A 
ATOM     23  H   UNL A   1      30.639  23.280  24.827  1.00  0.00     0.172 HD
ATOM     24  C   UNL A   1      32.604  22.618  27.393  1.00  0.00     0.091 A 
ATOM     25  O   UNL A   1      30.588  23.828  27.285  1.00  0.00    -0.269 OA
ENDBRANCH  17  18
ENDBRANCH  16  17
ENDBRANCH  15  16
ENDBRANCH   8  15
ENDBRANCH   3   6
ENDBRANCH   1   2
BRANCH   1  26
ATOM     26  C   UNL A   1      32.028  30.416  26.720  1.00  0.00     0.023 C 
BRANCH  26  27
ATOM     27  C   UNL A   1      31.718  31.909  26.790  1.00  0.00     0.023 C 
BRANCH  27  28
ATOM     28  C   UNL A   1      32.864  32.808  27.241  1.00  0.00     0.116 C 
BRANCH  28  29
ATOM     29  N   UNL A   1      32.454  34.135  27.675  1.00  0.00    -0.352 N 
ATOM     30  C   UNL A   1      33.008  34.932  28.653  1.00  0.00     0.251 C 
ATOM     31  H   UNL A   1      31.674  34.514  27.209  1.00  0.00     0.163 HD
ATOM     32  O   UNL A   1      32.518  36.016  28.928  1.00  0.00    -0.269 OA
BRANCH  30  33
ATOM     33  C   UNL A   1      34.179  34.432  29.405  1.00  0.00     0.039 A 
ATOM     34  C   UNL A   1      33.963  33.770  30.616  1.00  0.00     0.014 A 
ATOM     35  C   UNL A   1      35.468  34.552  28.882  1.00  0.00     0.014 A 
ATOM     36  C   UNL A   1      35.033  33.146  31.259  1.00  0.00     0.010 A 
ATOM     37  C   UNL A   1      36.517  33.866  29.482  1.00  0.00     0.010 A 
ATOM     38  C   UNL A   1      36.309  33.148  30.671  1.00  0.00    -0.014 A 
BRANCH  38  39
ATOM     39  C   UNL A   1      37.435  32.390  31.270  1.00  0.00     0.031 A 
ATOM     40  C   UNL A   1      37.946  32.755  32.635  1.00  0.00     0.074 A 
ATOM     41  C   UNL A   1      38.052  31.432  30.550  1.00  0.00     0.049 A 
ATOM     42  N   UNL A   1      38.973  32.275  33.290  1.00  0.00    -0.248 NA
ATOM     43  C   UNL A   1      37.226  33.824  33.344  1.00  0.00     0.031 C 
ATOM     44  C   UNL A   1      37.691  31.031  29.189  1.00  0.00     0.029 A 
ATOM     45  N   UNL A   1      39.125  30.633  30.856  1.00  0.00    -0.354 N 
ATOM     46  C   UNL A   1      39.034  32.998  34.473  1.00  0.00     0.074 A 
ATOM     47  C   UNL A   1      37.976  33.982  34.425  1.00  0.00     0.031 C 
ATOM     48  C   UNL A   1      38.513  30.050  28.786  1.00  0.00     0.029 A 
ATOM     49  C   UNL A   1      39.480  29.775  29.845  1.00  0.00     0.049 A 
ATOM     50  H   UNL A   1      39.595  30.671  31.720  1.00  0.00     0.167 HD
ATOM     51  C   UNL A   1      39.884  32.840  35.515  1.00  0.00     0.037 A 
ATOM     52  C   UNL A   1      40.477  28.872  29.776  1.00  0.00     0.037 A 
ATOM     53  C   UNL A   1      40.911  31.834  35.576  1.00  0.00     0.049 A 
ATOM     54  C   UNL A   1      41.390  28.697  30.958  1.00  0.00     0.074 A 
ATOM     55  C   UNL A   1      41.773  31.541  36.619  1.00  0.00     0.029 A 
ATOM     56  N   UNL A   1      41.215  30.954  34.547  1.00  0.00    -0.354 N 
ATOM     57  N   UNL A   1      41.393  29.336  32.104  1.00  0.00    -0.248 NA
ATOM     58  C   UNL A   1      42.436  27.671  30.843  1.00  0.00     0.031 C 
ATOM     59  C   UNL A   1      42.624  30.511  36.207  1.00  0.00     0.029 A 
ATOM     60  C   UNL A   1      42.263  30.130  34.924  1.00  0.00     0.049 A 
ATOM     61  H   UNL A   1      40.754  30.921  33.678  1.00  0.00     0.167 HD
ATOM     62  C   UNL A   1      42.416  28.773  32.853  1.00  0.00     0.074 A 
ATOM     63  C   UNL A   1      43.006  27.731  32.038  1.00  0.00     0.031 C 
ATOM     64  C   UNL A   1      42.833  29.092  34.103  1.00  0.00     0.037 A 
BRANCH  51  65
ATOM     65  C   UNL A   1      39.732  33.771  36.682  1.00  0.00     0.064 A 
ATOM     66  C   UNL A   1      40.381  35.014  36.721  1.00  0.00     0.173 A 
ATOM     67  C   UNL A   1      38.900  33.431  37.760  1.00  0.00     0.173 A 
ATOM     68  F   UNL A   1      41.196  35.381  35.720  1.00  0.00    -0.203 F 
ATOM     69  C   UNL A   1      40.226  35.871  37.808  1.00  0.00     0.198 A 
ATOM     70  C   UNL A   1      38.724  34.302  38.832  1.00  0.00     0.198 A 
ATOM     71  F   UNL A   1      38.253  32.256  37.771  1.00  0.00    -0.203 F 
ATOM     72  F   UNL A   1      40.896  37.030  37.845  1.00  0.00    -0.200 F 
ATOM     73  C   UNL A   1      39.393  35.517  38.859  1.00  0.00     0.200 A 
ATOM     74  F   UNL A   1      37.909  33.966  39.841  1.00  0.00    -0.200 F 
ATOM     75  F   UNL A   1      39.240  36.345  39.901  1.00  0.00    -0.200 F 
ENDBRANCH  51  65
BRANCH  52  76
ATOM     76  C   UNL A   1      40.646  28.044  28.554  1.00  0.00     0.064 A 
ATOM     77  C   UNL A   1      41.442  28.490  27.489  1.00  0.00     0.173 A 
ATOM     78  C   UNL A   1      40.020  26.796  28.425  1.00  0.00     0.173 A 
ATOM     79  F   UNL A   1      42.042  29.687  27.559  1.00  0.00    -0.203 F 
ATOM     80  C   UNL A   1      41.589  27.727  26.332  1.00  0.00     0.198 A 
ATOM     81  C   UNL A   1      40.190  26.022  27.279  1.00  0.00     0.198 A 
ATOM     82  F   UNL A   1      39.253  26.322  29.418  1.00  0.00    -0.203 F 
ATOM     83  F   UNL A   1      42.319  28.196  25.313  1.00  0.00    -0.200 F 
ATOM     84  C   UNL A   1      40.968  26.491  26.231  1.00  0.00     0.200 A 
ATOM     85  F   UNL A   1      39.599  24.823  27.188  1.00  0.00    -0.200 F 
ATOM     86  F   UNL A   1      41.114  25.756  25.119  1.00  0.00    -0.200 F 
ENDBRANCH  52  76
BRANCH  64  87
ATOM     87  C   UNL A   1      43.958  28.286  34.681  1.00  0.00     0.064 A 
ATOM     88  C   UNL A   1      43.724  27.089  35.372  1.00  0.00     0.173 A 
ATOM     89  C   UNL A   1      45.288  28.695  34.500  1.00  0.00     0.173 A 
ATOM     90  F   UNL A   1      42.469  26.665  35.582  1.00  0.00    -0.203 F 
ATOM     91  C   UNL A   1      44.782  26.340  35.881  1.00  0.00     0.198 A 
ATOM     92  C   UNL A   1      46.344  27.928  34.986  1.00  0.00     0.198 A 
ATOM     93  F   UNL A   1      45.564  29.829  33.840  1.00  0.00    -0.203 F 
ATOM     94  F   UNL A   1      44.534  25.221  36.575  1.00  0.00    -0.200 F 
ATOM     95  C   UNL A   1      46.090  26.756  35.681  1.00  0.00     0.200 A 
ATOM     96  F   UNL A   1      47.607  28.326  34.781  1.00  0.00    -0.200 F 
ATOM     97  F   UNL A   1      47.107  26.029  36.164  1.00  0.00    -0.200 F 
ENDBRANCH  64  87
ENDBRANCH  38  39
ENDBRANCH  30  33
ENDBRANCH  28  29
ENDBRANCH  27  28
ENDBRANCH  26  27
ENDBRANCH   1  26
TORSDOF 16
ENDMDL
