MODEL 1
REMARK VINA RESULT:     -11.9      0.000      0.000
REMARK SMILES COc1c(Br)cc(C)cc1C(=O)NCCCCNC(=O)c1ccc(-c2c3nc(c(-c4c(F)c(F)c(F)c(F)c4F)c4ccc([nH]4)c(-c4c(F)c(F)c(F)c(F)c4F)c4nc(c(-c5c(F)c(F)c(F)c(F)c5F)c5ccc2[nH]5)C=C4)C=C3)cc1
REMARK SMILES IDX 16 1 15 2 14 3 13 4 11 5 12 6 10 8 3 9 4 10 5 11 6 12 9 13
REMARK SMILES IDX 7 14 8 15 2 16 1 17 17 18 18 19 19 20 20 22 21 23 22 24
REMARK SMILES IDX 83 25 23 26 82 27 24 28 25 29 26 30 76 31 27 32 81 33 75 34
REMARK SMILES IDX 77 35 28 36 80 37 74 38 73 39 29 41 61 42 41 43 60 44 42 45
REMARK SMILES IDX 45 46 59 47 78 48 43 49 44 50 58 52 79 53 46 54 30 55 31 56
REMARK SMILES IDX 39 57 32 58 33 59 37 60 40 61 34 62 35 63 38 64 36 65 62 66
REMARK SMILES IDX 63 67 71 68 64 69 65 70 69 71 72 72 66 73 67 74 70 75 68 76
REMARK SMILES IDX 47 77 48 78 56 79 49 80 50 81 54 82 57 83 51 84 52 85 55 86
REMARK SMILES IDX 53 87
REMARK H PARENT 13 7 18 21 77 40 45 51
REMARK Flexibility Score: inf
ROOT
ATOM      1  C   UNL A   1      31.607  32.067  26.653  1.00  0.00     0.023 C 
ENDROOT
BRANCH   1   2
ATOM      2  C   UNL A   1      31.767  30.543  26.592  1.00  0.00     0.023 C 
BRANCH   2   3
ATOM      3  C   UNL A   1      33.219  30.065  26.509  1.00  0.00     0.116 C 
BRANCH   3   4
ATOM      4  N   UNL A   1      33.537  29.609  25.174  1.00  0.00    -0.352 N 
ATOM      5  C   UNL A   1      33.105  28.589  24.363  1.00  0.00     0.255 C 
ATOM      6  O   UNL A   1      33.665  28.566  23.267  1.00  0.00    -0.269 OA
ATOM      7  H   UNL A   1      34.227  30.163  24.743  1.00  0.00     0.163 HD
BRANCH   5   8
ATOM      8  C   UNL A   1      32.034  27.585  24.717  1.00  0.00     0.083 A 
ATOM      9  C   UNL A   1      32.342  26.471  25.529  1.00  0.00     0.145 A 
ATOM     10  C   UNL A   1      31.393  25.449  25.730  1.00  0.00     0.061 A 
ATOM     11  Br  UNL A   1      31.790  23.898  26.756  1.00  0.00    -0.047 Br
ATOM     12  C   UNL A   1      30.121  25.535  25.165  1.00  0.00     0.023 A 
ATOM     13  C   UNL A   1      30.714  27.681  24.243  1.00  0.00     0.021 A 
ATOM     14  C   UNL A   1      29.771  26.656  24.419  1.00  0.00    -0.049 A 
ATOM     15  C   UNL A   1      28.413  26.746  23.784  1.00  0.00     0.044 C 
BRANCH   9  16
ATOM     16  O   UNL A   1      33.583  26.298  26.094  1.00  0.00    -0.495 OA
ATOM     17  C   UNL A   1      34.422  25.503  25.250  1.00  0.00     0.278 C 
ENDBRANCH   9  16
ENDBRANCH   5   8
ENDBRANCH   3   4
ENDBRANCH   2   3
ENDBRANCH   1   2
BRANCH   1  18
ATOM     18  C   UNL A   1      32.745  32.808  27.346  1.00  0.00     0.116 C 
BRANCH  18  19
ATOM     19  N   UNL A   1      32.417  34.184  27.686  1.00  0.00    -0.352 N 
ATOM     20  C   UNL A   1      33.001  34.989  28.635  1.00  0.00     0.251 C 
ATOM     21  H   UNL A   1      31.683  34.591  27.171  1.00  0.00     0.163 HD
ATOM     22  O   UNL A   1      32.553  36.101  28.872  1.00  0.00    -0.269 OA
BRANCH  20  23
ATOM     23  C   UNL A   1      34.151  34.468  29.400  1.00  0.00     0.039 A 
ATOM     24  C   UNL A   1      33.913  33.845  30.626  1.00  0.00     0.014 A 
ATOM     25  C   UNL A   1      35.446  34.566  28.888  1.00  0.00     0.014 A 
ATOM     26  C   UNL A   1      34.976  33.264  31.318  1.00  0.00     0.010 A 
ATOM     27  C   UNL A   1      36.492  33.925  29.542  1.00  0.00     0.010 A 
ATOM     28  C   UNL A   1      36.267  33.274  30.765  1.00  0.00    -0.014 A 
BRANCH  28  29
ATOM     29  C   UNL A   1      37.404  32.629  31.462  1.00  0.00     0.031 A 
ATOM     30  C   UNL A   1      38.132  31.490  30.808  1.00  0.00     0.074 A 
ATOM     31  C   UNL A   1      37.737  33.025  32.705  1.00  0.00     0.049 A 
ATOM     32  N   UNL A   1      39.113  30.758  31.270  1.00  0.00    -0.248 NA
ATOM     33  C   UNL A   1      37.673  31.103  29.465  1.00  0.00     0.031 C 
ATOM     34  C   UNL A   1      37.074  34.089  33.458  1.00  0.00     0.029 A 
ATOM     35  N   UNL A   1      38.714  32.572  33.553  1.00  0.00    -0.354 N 
ATOM     36  C   UNL A   1      39.373  29.816  30.285  1.00  0.00     0.074 A 
ATOM     37  C   UNL A   1      38.409  30.030  29.228  1.00  0.00     0.031 C 
ATOM     38  C   UNL A   1      37.685  34.232  34.645  1.00  0.00     0.029 A 
ATOM     39  C   UNL A   1      38.761  33.249  34.747  1.00  0.00     0.049 A 
ATOM     40  H   UNL A   1      39.324  31.833  33.328  1.00  0.00     0.167 HD
ATOM     41  C   UNL A   1      40.346  28.873  30.253  1.00  0.00     0.037 A 
ATOM     42  C   UNL A   1      39.584  33.093  35.800  1.00  0.00     0.037 A 
ATOM     43  C   UNL A   1      41.317  28.682  31.297  1.00  0.00     0.049 A 
ATOM     44  C   UNL A   1      40.653  32.036  35.746  1.00  0.00     0.074 A 
ATOM     45  C   UNL A   1      42.379  27.796  31.341  1.00  0.00     0.029 A 
ATOM     46  N   UNL A   1      41.338  29.390  32.491  1.00  0.00    -0.354 N 
ATOM     47  N   UNL A   1      40.937  31.194  34.782  1.00  0.00    -0.248 NA
ATOM     48  C   UNL A   1      41.519  31.914  36.925  1.00  0.00     0.031 C 
ATOM     49  C   UNL A   1      43.018  27.942  32.577  1.00  0.00     0.029 A 
ATOM     50  C   UNL A   1      42.384  28.950  33.285  1.00  0.00     0.049 A 
ATOM     51  H   UNL A   1      40.702  30.102  32.736  1.00  0.00     0.167 HD
ATOM     52  C   UNL A   1      42.033  30.467  35.222  1.00  0.00     0.074 A 
ATOM     53  C   UNL A   1      42.367  30.971  36.539  1.00  0.00     0.031 C 
ATOM     54  C   UNL A   1      42.706  29.473  34.590  1.00  0.00     0.037 A 
BRANCH  41  55
ATOM     55  C   UNL A   1      40.394  27.983  29.044  1.00  0.00     0.064 A 
ATOM     56  C   UNL A   1      41.142  28.325  27.907  1.00  0.00     0.173 A 
ATOM     57  C   UNL A   1      39.672  26.781  29.016  1.00  0.00     0.173 A 
ATOM     58  F   UNL A   1      41.841  29.470  27.877  1.00  0.00    -0.203 F 
ATOM     59  C   UNL A   1      41.125  27.522  26.769  1.00  0.00     0.198 A 
ATOM     60  C   UNL A   1      39.684  25.963  27.888  1.00  0.00     0.198 A 
ATOM     61  F   UNL A   1      38.944  26.402  30.077  1.00  0.00    -0.203 F 
ATOM     62  F   UNL A   1      41.788  27.909  25.670  1.00  0.00    -0.200 F 
ATOM     63  C   UNL A   1      40.398  26.342  26.761  1.00  0.00     0.200 A 
ATOM     64  F   UNL A   1      38.990  24.817  27.885  1.00  0.00    -0.200 F 
ATOM     65  F   UNL A   1      40.376  25.575  25.663  1.00  0.00    -0.200 F 
ENDBRANCH  41  55
BRANCH  42  66
ATOM     66  C   UNL A   1      39.467  34.004  36.966  1.00  0.00     0.064 A 
ATOM     67  C   UNL A   1      38.731  33.621  38.096  1.00  0.00     0.173 A 
ATOM     68  C   UNL A   1      40.100  35.255  36.991  1.00  0.00     0.173 A 
ATOM     69  F   UNL A   1      38.095  32.441  38.111  1.00  0.00    -0.203 F 
ATOM     70  C   UNL A   1      38.623  34.459  39.203  1.00  0.00     0.198 A 
ATOM     71  C   UNL A   1      40.010  36.083  38.107  1.00  0.00     0.198 A 
ATOM     72  F   UNL A   1      40.821  35.663  35.936  1.00  0.00    -0.203 F 
ATOM     73  F   UNL A   1      37.888  34.082  40.258  1.00  0.00    -0.200 F 
ATOM     74  C   UNL A   1      39.268  35.687  39.211  1.00  0.00     0.200 A 
ATOM     75  F   UNL A   1      40.645  37.263  38.118  1.00  0.00    -0.200 F 
ATOM     76  F   UNL A   1      39.171  36.489  40.279  1.00  0.00    -0.200 F 
ENDBRANCH  42  66
BRANCH  54  77
ATOM     77  C   UNL A   1      43.898  28.897  35.295  1.00  0.00     0.064 A 
ATOM     78  C   UNL A   1      45.191  29.404  35.098  1.00  0.00     0.173 A 
ATOM     79  C   UNL A   1      43.737  27.847  36.213  1.00  0.00     0.173 A 
ATOM     80  F   UNL A   1      45.398  30.397  34.219  1.00  0.00    -0.203 F 
ATOM     81  C   UNL A   1      46.282  28.865  35.775  1.00  0.00     0.198 A 
ATOM     82  C   UNL A   1      44.825  27.329  36.909  1.00  0.00     0.198 A 
ATOM     83  F   UNL A   1      42.520  27.330  36.442  1.00  0.00    -0.203 F 
ATOM     84  F   UNL A   1      47.513  29.334  35.536  1.00  0.00    -0.200 F 
ATOM     85  C   UNL A   1      46.097  27.834  36.684  1.00  0.00     0.200 A 
ATOM     86  F   UNL A   1      44.643  26.342  37.796  1.00  0.00    -0.200 F 
ATOM     87  F   UNL A   1      47.147  27.322  37.340  1.00  0.00    -0.200 F 
ENDBRANCH  54  77
ENDBRANCH  28  29
ENDBRANCH  20  23
ENDBRANCH  18  19
ENDBRANCH   1  18
TORSDOF 12
ENDMDL
MODEL 2
REMARK VINA RESULT:     -11.9      0.632      1.773
REMARK SMILES COc1c(Br)cc(C)cc1C(=O)NCCCCNC(=O)c1ccc(-c2c3nc(c(-c4c(F)c(F)c(F)c(F)c4F)c4ccc([nH]4)c(-c4c(F)c(F)c(F)c(F)c4F)c4nc(c(-c5c(F)c(F)c(F)c(F)c5F)c5ccc2[nH]5)C=C4)C=C3)cc1
REMARK SMILES IDX 16 1 15 2 14 3 13 4 11 5 12 6 10 8 3 9 4 10 5 11 6 12 9 13
REMARK SMILES IDX 7 14 8 15 2 16 1 17 17 18 18 19 19 20 20 22 21 23 22 24
REMARK SMILES IDX 83 25 23 26 82 27 24 28 25 29 26 30 76 31 27 32 81 33 75 34
REMARK SMILES IDX 77 35 28 36 80 37 74 38 73 39 29 41 61 42 41 43 60 44 42 45
REMARK SMILES IDX 45 46 59 47 78 48 43 49 44 50 58 52 79 53 46 54 30 55 31 56
REMARK SMILES IDX 39 57 32 58 33 59 37 60 40 61 34 62 35 63 38 64 36 65 62 66
REMARK SMILES IDX 63 67 71 68 64 69 65 70 69 71 72 72 66 73 67 74 70 75 68 76
REMARK SMILES IDX 47 77 48 78 56 79 49 80 50 81 54 82 57 83 51 84 52 85 55 86
REMARK SMILES IDX 53 87
REMARK H PARENT 13 7 18 21 77 40 45 51
REMARK Flexibility Score: inf
ROOT
ATOM      1  C   UNL A   1      31.493  32.043  26.564  1.00  0.00     0.023 C 
ENDROOT
BRANCH   1   2
ATOM      2  C   UNL A   1      31.681  30.528  26.415  1.00  0.00     0.023 C 
BRANCH   2   3
ATOM      3  C   UNL A   1      33.123  30.097  26.136  1.00  0.00     0.116 C 
BRANCH   3   4
ATOM      4  N   UNL A   1      33.309  29.796  24.733  1.00  0.00    -0.352 N 
ATOM      5  C   UNL A   1      33.335  28.651  23.976  1.00  0.00     0.255 C 
ATOM      6  O   UNL A   1      33.532  28.862  22.779  1.00  0.00    -0.269 OA
ATOM      7  H   UNL A   1      33.451  30.606  24.192  1.00  0.00     0.163 HD
BRANCH   5   8
ATOM      8  C   UNL A   1      33.119  27.252  24.500  1.00  0.00     0.083 A 
ATOM      9  C   UNL A   1      31.829  26.827  24.887  1.00  0.00     0.145 A 
ATOM     10  C   UNL A   1      31.647  25.583  25.525  1.00  0.00     0.061 A 
ATOM     11  Br  UNL A   1      29.939  25.004  26.127  1.00  0.00    -0.047 Br
ATOM     12  C   UNL A   1      32.728  24.733  25.751  1.00  0.00     0.023 A 
ATOM     13  C   UNL A   1      34.167  26.329  24.660  1.00  0.00     0.021 A 
ATOM     14  C   UNL A   1      33.998  25.099  25.316  1.00  0.00    -0.049 A 
ATOM     15  C   UNL A   1      35.174  24.202  25.579  1.00  0.00     0.044 C 
BRANCH   9  16
ATOM     16  O   UNL A   1      30.719  27.621  24.727  1.00  0.00    -0.495 OA
ATOM     17  C   UNL A   1      30.146  27.443  23.426  1.00  0.00     0.278 C 
ENDBRANCH   9  16
ENDBRANCH   5   8
ENDBRANCH   3   4
ENDBRANCH   2   3
ENDBRANCH   1   2
BRANCH   1  18
ATOM     18  C   UNL A   1      32.634  32.769  27.267  1.00  0.00     0.116 C 
BRANCH  18  19
ATOM     19  N   UNL A   1      32.325  34.150  27.599  1.00  0.00    -0.352 N 
ATOM     20  C   UNL A   1      32.933  34.960  28.528  1.00  0.00     0.251 C 
ATOM     21  H   UNL A   1      31.585  34.558  27.093  1.00  0.00     0.163 HD
ATOM     22  O   UNL A   1      32.499  36.079  28.761  1.00  0.00    -0.269 OA
BRANCH  20  23
ATOM     23  C   UNL A   1      34.093  34.438  29.276  1.00  0.00     0.039 A 
ATOM     24  C   UNL A   1      33.868  33.780  30.487  1.00  0.00     0.014 A 
ATOM     25  C   UNL A   1      35.385  34.568  28.764  1.00  0.00     0.014 A 
ATOM     26  C   UNL A   1      34.941  33.197  31.161  1.00  0.00     0.010 A 
ATOM     27  C   UNL A   1      36.442  33.926  29.399  1.00  0.00     0.010 A 
ATOM     28  C   UNL A   1      36.230  33.241  30.605  1.00  0.00    -0.014 A 
BRANCH  28  29
ATOM     29  C   UNL A   1      37.379  32.596  31.283  1.00  0.00     0.031 A 
ATOM     30  C   UNL A   1      38.115  31.478  30.603  1.00  0.00     0.074 A 
ATOM     31  C   UNL A   1      37.715  32.972  32.531  1.00  0.00     0.049 A 
ATOM     32  N   UNL A   1      39.107  30.748  31.046  1.00  0.00    -0.248 NA
ATOM     33  C   UNL A   1      37.651  31.110  29.257  1.00  0.00     0.031 C 
ATOM     34  C   UNL A   1      37.046  34.015  33.309  1.00  0.00     0.029 A 
ATOM     35  N   UNL A   1      38.703  32.515  33.364  1.00  0.00    -0.354 N 
ATOM     36  C   UNL A   1      39.371  29.827  30.042  1.00  0.00     0.074 A 
ATOM     37  C   UNL A   1      38.398  30.049  28.995  1.00  0.00     0.031 C 
ATOM     38  C   UNL A   1      37.664  34.143  34.494  1.00  0.00     0.029 A 
ATOM     39  C   UNL A   1      38.750  33.169  34.570  1.00  0.00     0.049 A 
ATOM     40  H   UNL A   1      39.320  31.787  33.121  1.00  0.00     0.167 HD
ATOM     41  C   UNL A   1      40.354  28.895  29.986  1.00  0.00     0.037 A 
ATOM     42  C   UNL A   1      39.582  33.003  35.615  1.00  0.00     0.037 A 
ATOM     43  C   UNL A   1      41.333  28.695  31.020  1.00  0.00     0.049 A 
ATOM     44  C   UNL A   1      40.662  31.960  35.535  1.00  0.00     0.074 A 
ATOM     45  C   UNL A   1      42.406  27.821  31.041  1.00  0.00     0.029 A 
ATOM     46  N   UNL A   1      41.354  29.382  32.227  1.00  0.00    -0.354 N 
ATOM     47  N   UNL A   1      40.949  31.139  34.554  1.00  0.00    -0.248 NA
ATOM     48  C   UNL A   1      41.538  31.825  36.706  1.00  0.00     0.031 C 
ATOM     49  C   UNL A   1      43.051  27.951  32.275  1.00  0.00     0.029 A 
ATOM     50  C   UNL A   1      42.410  28.939  33.006  1.00  0.00     0.049 A 
ATOM     51  H   UNL A   1      40.713  30.082  32.489  1.00  0.00     0.167 HD
ATOM     52  C   UNL A   1      42.056  30.415  34.973  1.00  0.00     0.074 A 
ATOM     53  C   UNL A   1      42.393  30.898  36.297  1.00  0.00     0.031 C 
ATOM     54  C   UNL A   1      42.736  29.441  34.318  1.00  0.00     0.037 A 
BRANCH  41  55
ATOM     55  C   UNL A   1      40.403  28.028  28.761  1.00  0.00     0.064 A 
ATOM     56  C   UNL A   1      39.730  26.798  28.702  1.00  0.00     0.173 A 
ATOM     57  C   UNL A   1      41.144  28.423  27.638  1.00  0.00     0.173 A 
ATOM     58  F   UNL A   1      39.018  26.366  29.753  1.00  0.00    -0.203 F 
ATOM     59  C   UNL A   1      39.839  25.974  27.584  1.00  0.00     0.198 A 
ATOM     60  C   UNL A   1      41.223  27.612  26.508  1.00  0.00     0.198 A 
ATOM     61  F   UNL A   1      41.803  29.592  27.638  1.00  0.00    -0.203 F 
ATOM     62  F   UNL A   1      39.247  24.771  27.582  1.00  0.00    -0.200 F 
ATOM     63  C   UNL A   1      40.582  26.382  26.488  1.00  0.00     0.200 A 
ATOM     64  F   UNL A   1      41.933  28.012  25.445  1.00  0.00    -0.200 F 
ATOM     65  F   UNL A   1      40.692  25.585  25.417  1.00  0.00    -0.200 F 
ENDBRANCH  41  55
BRANCH  42  66
ATOM     66  C   UNL A   1      39.463  33.891  36.799  1.00  0.00     0.064 A 
ATOM     67  C   UNL A   1      38.720  33.489  37.917  1.00  0.00     0.173 A 
ATOM     68  C   UNL A   1      40.101  35.139  36.852  1.00  0.00     0.173 A 
ATOM     69  F   UNL A   1      38.079  32.311  37.905  1.00  0.00    -0.203 F 
ATOM     70  C   UNL A   1      38.610  34.305  39.040  1.00  0.00     0.198 A 
ATOM     71  C   UNL A   1      40.008  35.945  37.984  1.00  0.00     0.198 A 
ATOM     72  F   UNL A   1      40.829  35.565  35.809  1.00  0.00    -0.203 F 
ATOM     73  F   UNL A   1      37.868  33.909  40.084  1.00  0.00    -0.200 F 
ATOM     74  C   UNL A   1      39.260  35.530  39.076  1.00  0.00     0.200 A 
ATOM     75  F   UNL A   1      40.648  37.122  38.021  1.00  0.00    -0.200 F 
ATOM     76  F   UNL A   1      39.161  36.311  40.159  1.00  0.00    -0.200 F 
ENDBRANCH  42  66
BRANCH  54  77
ATOM     77  C   UNL A   1      43.938  28.865  35.005  1.00  0.00     0.064 A 
ATOM     78  C   UNL A   1      45.214  29.429  34.859  1.00  0.00     0.173 A 
ATOM     79  C   UNL A   1      43.803  27.755  35.854  1.00  0.00     0.173 A 
ATOM     80  F   UNL A   1      45.397  30.481  34.046  1.00  0.00    -0.203 F 
ATOM     81  C   UNL A   1      46.315  28.888  35.519  1.00  0.00     0.198 A 
ATOM     82  C   UNL A   1      44.900  27.234  36.534  1.00  0.00     0.198 A 
ATOM     83  F   UNL A   1      42.603  27.182  36.032  1.00  0.00    -0.203 F 
ATOM     84  F   UNL A   1      47.531  29.415  35.328  1.00  0.00    -0.200 F 
ATOM     85  C   UNL A   1      46.156  27.797  36.359  1.00  0.00     0.200 A 
ATOM     86  F   UNL A   1      44.743  26.188  37.355  1.00  0.00    -0.200 F 
ATOM     87  F   UNL A   1      47.215  27.282  36.999  1.00  0.00    -0.200 F 
ENDBRANCH  54  77
ENDBRANCH  28  29
ENDBRANCH  20  23
ENDBRANCH  18  19
ENDBRANCH   1  18
TORSDOF 12
ENDMDL
MODEL 3
REMARK VINA RESULT:     -11.8      0.161      1.656
REMARK SMILES COc1c(Br)cc(C)cc1C(=O)NCCCCNC(=O)c1ccc(-c2c3nc(c(-c4c(F)c(F)c(F)c(F)c4F)c4ccc([nH]4)c(-c4c(F)c(F)c(F)c(F)c4F)c4nc(c(-c5c(F)c(F)c(F)c(F)c5F)c5ccc2[nH]5)C=C4)C=C3)cc1
REMARK SMILES IDX 16 1 15 2 14 3 13 4 11 5 12 6 10 8 3 9 4 10 5 11 6 12 9 13
REMARK SMILES IDX 7 14 8 15 2 16 1 17 17 18 18 19 19 20 20 22 21 23 22 24
REMARK SMILES IDX 83 25 23 26 82 27 24 28 25 29 26 30 76 31 27 32 81 33 75 34
REMARK SMILES IDX 77 35 28 36 80 37 74 38 73 39 29 41 61 42 41 43 60 44 42 45
REMARK SMILES IDX 45 46 59 47 78 48 43 49 44 50 58 52 79 53 46 54 30 55 31 56
REMARK SMILES IDX 39 57 32 58 33 59 37 60 40 61 34 62 35 63 38 64 36 65 62 66
REMARK SMILES IDX 63 67 71 68 64 69 65 70 69 71 72 72 66 73 67 74 70 75 68 76
REMARK SMILES IDX 47 77 48 78 56 79 49 80 50 81 54 82 57 83 51 84 52 85 55 86
REMARK SMILES IDX 53 87
REMARK H PARENT 13 7 18 21 77 40 45 51
REMARK Flexibility Score: inf
ROOT
ATOM      1  C   UNL A   1      31.620  32.022  26.794  1.00  0.00     0.023 C 
ENDROOT
BRANCH   1   2
ATOM      2  C   UNL A   1      31.805  30.500  26.837  1.00  0.00     0.023 C 
BRANCH   2   3
ATOM      3  C   UNL A   1      33.249  30.035  26.631  1.00  0.00     0.116 C 
BRANCH   3   4
ATOM      4  N   UNL A   1      33.487  29.690  25.247  1.00  0.00    -0.352 N 
ATOM      5  C   UNL A   1      33.015  28.729  24.386  1.00  0.00     0.255 C 
ATOM      6  O   UNL A   1      33.506  28.801  23.259  1.00  0.00    -0.269 OA
ATOM      7  H   UNL A   1      34.143  30.286  24.819  1.00  0.00     0.163 HD
BRANCH   5   8
ATOM      8  C   UNL A   1      31.979  27.686  24.725  1.00  0.00     0.083 A 
ATOM      9  C   UNL A   1      32.321  26.577  25.531  1.00  0.00     0.145 A 
ATOM     10  C   UNL A   1      31.408  25.520  25.718  1.00  0.00     0.061 A 
ATOM     11  Br  UNL A   1      31.853  23.976  26.735  1.00  0.00    -0.047 Br
ATOM     12  C   UNL A   1      30.137  25.565  25.145  1.00  0.00     0.023 A 
ATOM     13  C   UNL A   1      30.659  27.738  24.243  1.00  0.00     0.021 A 
ATOM     14  C   UNL A   1      29.752  26.679  24.405  1.00  0.00    -0.049 A 
ATOM     15  C   UNL A   1      28.395  26.725  23.761  1.00  0.00     0.044 C 
BRANCH   9  16
ATOM     16  O   UNL A   1      33.563  26.445  26.103  1.00  0.00    -0.495 OA
ATOM     17  C   UNL A   1      34.408  25.611  25.302  1.00  0.00     0.278 C 
ENDBRANCH   9  16
ENDBRANCH   5   8
ENDBRANCH   3   4
ENDBRANCH   2   3
ENDBRANCH   1   2
BRANCH   1  18
ATOM     18  C   UNL A   1      32.807  32.832  27.303  1.00  0.00     0.116 C 
BRANCH  18  19
ATOM     19  N   UNL A   1      32.463  34.196  27.670  1.00  0.00    -0.352 N 
ATOM     20  C   UNL A   1      33.035  34.988  28.636  1.00  0.00     0.251 C 
ATOM     21  H   UNL A   1      31.726  34.605  27.161  1.00  0.00     0.163 HD
ATOM     22  O   UNL A   1      32.574  36.090  28.894  1.00  0.00    -0.269 OA
BRANCH  20  23
ATOM     23  C   UNL A   1      34.190  34.466  29.393  1.00  0.00     0.039 A 
ATOM     24  C   UNL A   1      33.954  33.801  30.599  1.00  0.00     0.014 A 
ATOM     25  C   UNL A   1      35.486  34.601  28.895  1.00  0.00     0.014 A 
ATOM     26  C   UNL A   1      35.023  33.218  31.280  1.00  0.00     0.010 A 
ATOM     27  C   UNL A   1      36.539  33.960  29.537  1.00  0.00     0.010 A 
ATOM     28  C   UNL A   1      36.317  33.269  30.737  1.00  0.00    -0.014 A 
BRANCH  28  29
ATOM     29  C   UNL A   1      37.461  32.623  31.423  1.00  0.00     0.031 A 
ATOM     30  C   UNL A   1      38.203  31.506  30.748  1.00  0.00     0.074 A 
ATOM     31  C   UNL A   1      37.788  32.999  32.674  1.00  0.00     0.049 A 
ATOM     32  N   UNL A   1      39.192  30.776  31.197  1.00  0.00    -0.248 NA
ATOM     33  C   UNL A   1      37.749  31.140  29.397  1.00  0.00     0.031 C 
ATOM     34  C   UNL A   1      37.112  34.040  33.447  1.00  0.00     0.029 A 
ATOM     35  N   UNL A   1      38.770  32.541  33.514  1.00  0.00    -0.354 N 
ATOM     36  C   UNL A   1      39.464  29.856  30.194  1.00  0.00     0.074 A 
ATOM     37  C   UNL A   1      38.498  30.080  29.140  1.00  0.00     0.031 C 
ATOM     38  C   UNL A   1      37.721  34.167  34.637  1.00  0.00     0.029 A 
ATOM     39  C   UNL A   1      38.808  33.194  34.721  1.00  0.00     0.049 A 
ATOM     40  H   UNL A   1      39.389  31.814  33.275  1.00  0.00     0.167 HD
ATOM     41  C   UNL A   1      40.448  28.926  30.145  1.00  0.00     0.037 A 
ATOM     42  C   UNL A   1      39.631  33.027  35.772  1.00  0.00     0.037 A 
ATOM     43  C   UNL A   1      41.419  28.725  31.186  1.00  0.00     0.049 A 
ATOM     44  C   UNL A   1      40.713  31.985  35.698  1.00  0.00     0.074 A 
ATOM     45  C   UNL A   1      42.492  27.851  31.214  1.00  0.00     0.029 A 
ATOM     46  N   UNL A   1      41.431  29.411  32.394  1.00  0.00    -0.354 N 
ATOM     47  N   UNL A   1      41.007  31.165  34.719  1.00  0.00    -0.248 NA
ATOM     48  C   UNL A   1      41.580  31.850  36.876  1.00  0.00     0.031 C 
ATOM     49  C   UNL A   1      43.128  27.981  32.453  1.00  0.00     0.029 A 
ATOM     50  C   UNL A   1      42.481  28.967  33.180  1.00  0.00     0.049 A 
ATOM     51  H   UNL A   1      40.787  30.110  32.651  1.00  0.00     0.167 HD
ATOM     52  C   UNL A   1      42.112  30.441  35.146  1.00  0.00     0.074 A 
ATOM     53  C   UNL A   1      42.438  30.923  36.473  1.00  0.00     0.031 C 
ATOM     54  C   UNL A   1      42.797  29.468  34.495  1.00  0.00     0.037 A 
BRANCH  41  55
ATOM     55  C   UNL A   1      40.507  28.060  28.919  1.00  0.00     0.064 A 
ATOM     56  C   UNL A   1      41.259  28.429  27.792  1.00  0.00     0.173 A 
ATOM     57  C   UNL A   1      39.792  26.855  28.863  1.00  0.00     0.173 A 
ATOM     58  F   UNL A   1      41.951  29.578  27.789  1.00  0.00    -0.203 F 
ATOM     59  C   UNL A   1      41.251  27.648  26.639  1.00  0.00     0.198 A 
ATOM     60  C   UNL A   1      39.814  26.060  27.719  1.00  0.00     0.198 A 
ATOM     61  F   UNL A   1      39.061  26.451  29.913  1.00  0.00    -0.203 F 
ATOM     62  F   UNL A   1      41.919  28.060  25.551  1.00  0.00    -0.200 F 
ATOM     63  C   UNL A   1      40.532  26.464  26.603  1.00  0.00     0.200 A 
ATOM     64  F   UNL A   1      39.127  24.910  27.690  1.00  0.00    -0.200 F 
ATOM     65  F   UNL A   1      40.520  25.719  25.490  1.00  0.00    -0.200 F 
ENDBRANCH  41  55
BRANCH  42  66
ATOM     66  C   UNL A   1      39.504  33.914  36.955  1.00  0.00     0.064 A 
ATOM     67  C   UNL A   1      40.117  35.175  36.968  1.00  0.00     0.173 A 
ATOM     68  C   UNL A   1      38.756  33.539  38.081  1.00  0.00     0.173 A 
ATOM     69  F   UNL A   1      40.856  35.569  35.921  1.00  0.00    -0.203 F 
ATOM     70  C   UNL A   1      39.996  36.024  38.065  1.00  0.00     0.198 A 
ATOM     71  C   UNL A   1      38.617  34.398  39.169  1.00  0.00     0.198 A 
ATOM     72  F   UNL A   1      38.146  32.346  38.114  1.00  0.00    -0.203 F 
ATOM     73  F   UNL A   1      40.617  37.211  38.064  1.00  0.00    -0.200 F 
ATOM     74  C   UNL A   1      39.240  35.638  39.163  1.00  0.00     0.200 A 
ATOM     75  F   UNL A   1      37.875  34.028  40.222  1.00  0.00    -0.200 F 
ATOM     76  F   UNL A   1      39.116  36.457  40.215  1.00  0.00    -0.200 F 
ENDBRANCH  42  66
BRANCH  54  77
ATOM     77  C   UNL A   1      43.994  28.892  35.190  1.00  0.00     0.064 A 
ATOM     78  C   UNL A   1      43.896  27.767  36.023  1.00  0.00     0.173 A 
ATOM     79  C   UNL A   1      45.266  29.450  34.987  1.00  0.00     0.173 A 
ATOM     80  F   UNL A   1      42.699  27.208  36.260  1.00  0.00    -0.203 F 
ATOM     81  C   UNL A   1      45.023  27.238  36.646  1.00  0.00     0.198 A 
ATOM     82  C   UNL A   1      46.395  28.901  35.588  1.00  0.00     0.198 A 
ATOM     83  F   UNL A   1      45.415  30.523  34.195  1.00  0.00    -0.203 F 
ATOM     84  F   UNL A   1      44.898  26.192  37.473  1.00  0.00    -0.200 F 
ATOM     85  C   UNL A   1      46.270  27.799  36.423  1.00  0.00     0.200 A 
ATOM     86  F   UNL A   1      47.601  29.437  35.363  1.00  0.00    -0.200 F 
ATOM     87  F   UNL A   1      47.355  27.284  37.018  1.00  0.00    -0.200 F 
ENDBRANCH  54  77
ENDBRANCH  28  29
ENDBRANCH  20  23
ENDBRANCH  18  19
ENDBRANCH   1  18
TORSDOF 12
ENDMDL
