MODEL 1
REMARK VINA RESULT:     -12.2      0.000      0.000
REMARK SMILES Cn1cc2cc(C(=O)NCCCCNC(=O)c3ccc(-c4c5nc(c(-c6c(F)c(F)c(F)c(F)c6F)c6ccc([nH]6)c(-c6c(F)c(F)c(F)c(F)c6F)c6nc(c(-c7c(F)c(F)c(F)c(F)c7F)c7ccc4[nH]7)C=C6)C=C5)cc3)ccc2n1
REMARK SMILES IDX 12 1 11 2 10 3 9 4 7 5 8 6 6 8 1 9 2 10 3 11 83 12 4 13
REMARK SMILES IDX 82 14 5 15 81 16 80 17 13 18 14 19 15 20 16 22 17 23 18 24
REMARK SMILES IDX 79 25 19 26 78 27 20 28 21 29 22 30 72 31 23 32 77 33 71 34
REMARK SMILES IDX 73 35 24 36 76 37 70 38 69 39 25 41 57 42 37 43 56 44 38 45
REMARK SMILES IDX 41 46 55 47 74 48 39 49 40 50 54 52 75 53 42 54 26 55 27 56
REMARK SMILES IDX 35 57 28 58 29 59 33 60 36 61 30 62 31 63 34 64 32 65 58 66
REMARK SMILES IDX 59 67 67 68 60 69 61 70 65 71 68 72 62 73 63 74 66 75 64 76
REMARK SMILES IDX 43 77 44 78 52 79 45 80 46 81 50 82 53 83 47 84 48 85 51 86
REMARK SMILES IDX 49 87
REMARK H PARENT 9 7 14 21 73 40 41 51
REMARK Flexibility Score: inf
ROOT
ATOM      1  C   UNL A   1      31.369  32.211  26.589  1.00  0.00     0.023 C 
ENDROOT
BRANCH   1   2
ATOM      2  C   UNL A   1      31.627  30.803  26.043  1.00  0.00     0.023 C 
BRANCH   2   3
ATOM      3  C   UNL A   1      31.747  29.720  27.118  1.00  0.00     0.116 C 
BRANCH   3   4
ATOM      4  N   UNL A   1      33.136  29.485  27.454  1.00  0.00    -0.352 N 
ATOM      5  C   UNL A   1      34.142  28.786  26.839  1.00  0.00     0.251 C 
ATOM      6  O   UNL A   1      35.242  28.805  27.396  1.00  0.00    -0.269 OA
ATOM      7  H   UNL A   1      33.414  29.917  28.293  1.00  0.00     0.163 HD
BRANCH   5   8
ATOM      8  C   UNL A   1      34.002  28.042  25.544  1.00  0.00     0.040 A 
ATOM      9  C   UNL A   1      33.220  23.261  22.218  1.00  0.00     0.173 C 
ATOM     10  N   UNL A   1      33.464  24.494  22.927  1.00  0.00    -0.275 N 
ATOM     11  C   UNL A   1      33.639  24.639  24.273  1.00  0.00     0.117 A 
ATOM     12  N   UNL A   1      33.508  25.649  22.230  1.00  0.00    -0.173 NA
ATOM     13  C   UNL A   1      33.777  25.987  24.456  1.00  0.00     0.021 A 
ATOM     14  C   UNL A   1      33.673  26.602  23.162  1.00  0.00     0.092 A 
ATOM     15  C   UNL A   1      33.949  26.627  25.678  1.00  0.00     0.025 A 
ATOM     16  C   UNL A   1      33.730  27.994  23.029  1.00  0.00     0.032 A 
ATOM     17  C   UNL A   1      33.865  28.679  24.264  1.00  0.00     0.016 A 
ENDBRANCH   5   8
ENDBRANCH   3   4
ENDBRANCH   2   3
ENDBRANCH   1   2
BRANCH   1  18
ATOM     18  C   UNL A   1      32.567  32.872  27.261  1.00  0.00     0.116 C 
BRANCH  18  19
ATOM     19  N   UNL A   1      32.320  34.248  27.661  1.00  0.00    -0.352 N 
ATOM     20  C   UNL A   1      32.976  34.996  28.610  1.00  0.00     0.251 C 
ATOM     21  H   UNL A   1      31.585  34.704  27.191  1.00  0.00     0.163 HD
ATOM     22  O   UNL A   1      32.584  36.118  28.897  1.00  0.00    -0.269 OA
BRANCH  20  23
ATOM     23  C   UNL A   1      34.135  34.411  29.315  1.00  0.00     0.039 A 
ATOM     24  C   UNL A   1      33.905  33.661  30.472  1.00  0.00     0.014 A 
ATOM     25  C   UNL A   1      35.432  34.573  28.824  1.00  0.00     0.014 A 
ATOM     26  C   UNL A   1      34.971  33.014  31.098  1.00  0.00     0.010 A 
ATOM     27  C   UNL A   1      36.483  33.877  29.410  1.00  0.00     0.010 A 
ATOM     28  C   UNL A   1      36.262  33.087  30.549  1.00  0.00    -0.014 A 
BRANCH  28  29
ATOM     29  C   UNL A   1      37.393  32.336  31.146  1.00  0.00     0.031 A 
ATOM     30  C   UNL A   1      37.898  32.695  32.514  1.00  0.00     0.074 A 
ATOM     31  C   UNL A   1      38.009  31.379  30.424  1.00  0.00     0.049 A 
ATOM     32  N   UNL A   1      38.922  32.212  33.171  1.00  0.00    -0.248 NA
ATOM     33  C   UNL A   1      37.174  33.758  33.228  1.00  0.00     0.031 C 
ATOM     34  C   UNL A   1      37.643  30.977  29.065  1.00  0.00     0.029 A 
ATOM     35  N   UNL A   1      39.084  30.582  30.728  1.00  0.00    -0.354 N 
ATOM     36  C   UNL A   1      38.974  32.923  34.363  1.00  0.00     0.074 A 
ATOM     37  C   UNL A   1      37.908  33.901  34.321  1.00  0.00     0.031 C 
ATOM     38  C   UNL A   1      38.467  29.998  28.659  1.00  0.00     0.029 A 
ATOM     39  C   UNL A   1      39.440  29.727  29.713  1.00  0.00     0.049 A 
ATOM     40  H   UNL A   1      39.556  30.619  31.591  1.00  0.00     0.167 HD
ATOM     41  C   UNL A   1      39.821  32.757  35.407  1.00  0.00     0.037 A 
ATOM     42  C   UNL A   1      40.442  28.829  29.642  1.00  0.00     0.037 A 
ATOM     43  C   UNL A   1      40.856  31.760  35.459  1.00  0.00     0.049 A 
ATOM     44  C   UNL A   1      41.359  28.660  30.822  1.00  0.00     0.074 A 
ATOM     45  C   UNL A   1      41.723  31.469  36.499  1.00  0.00     0.029 A 
ATOM     46  N   UNL A   1      41.165  30.889  34.425  1.00  0.00    -0.354 N 
ATOM     47  N   UNL A   1      41.353  29.288  31.972  1.00  0.00    -0.248 NA
ATOM     48  C   UNL A   1      42.421  27.651  30.695  1.00  0.00     0.031 C 
ATOM     49  C   UNL A   1      42.580  30.447  36.080  1.00  0.00     0.029 A 
ATOM     50  C   UNL A   1      42.219  30.070  34.797  1.00  0.00     0.049 A 
ATOM     51  H   UNL A   1      40.703  30.856  33.557  1.00  0.00     0.167 HD
ATOM     52  C   UNL A   1      42.384  28.731  32.717  1.00  0.00     0.074 A 
ATOM     53  C   UNL A   1      42.988  27.705  31.893  1.00  0.00     0.031 C 
ATOM     54  C   UNL A   1      42.796  29.043  33.969  1.00  0.00     0.037 A 
BRANCH  41  55
ATOM     55  C   UNL A   1      39.659  33.670  36.586  1.00  0.00     0.064 A 
ATOM     56  C   UNL A   1      40.280  34.928  36.631  1.00  0.00     0.173 A 
ATOM     57  C   UNL A   1      38.834  33.307  37.661  1.00  0.00     0.173 A 
ATOM     58  F   UNL A   1      41.089  35.317  35.633  1.00  0.00    -0.203 F 
ATOM     59  C   UNL A   1      40.097  35.778  37.718  1.00  0.00     0.198 A 
ATOM     60  C   UNL A   1      38.631  34.171  38.733  1.00  0.00     0.198 A 
ATOM     61  F   UNL A   1      38.213  32.117  37.665  1.00  0.00    -0.203 F 
ATOM     62  F   UNL A   1      40.732  36.957  37.757  1.00  0.00    -0.200 F 
ATOM     63  C   UNL A   1      39.267  35.403  38.763  1.00  0.00     0.200 A 
ATOM     64  F   UNL A   1      37.819  33.813  39.737  1.00  0.00    -0.200 F 
ATOM     65  F   UNL A   1      39.084  36.228  39.803  1.00  0.00    -0.200 F 
ENDBRANCH  41  55
BRANCH  42  66
ATOM     66  C   UNL A   1      40.617  28.004  28.419  1.00  0.00     0.064 A 
ATOM     67  C   UNL A   1      40.025  26.737  28.317  1.00  0.00     0.173 A 
ATOM     68  C   UNL A   1      41.393  28.450  27.340  1.00  0.00     0.173 A 
ATOM     69  F   UNL A   1      39.291  26.259  29.332  1.00  0.00    -0.203 F 
ATOM     70  C   UNL A   1      40.223  25.938  27.192  1.00  0.00     0.198 A 
ATOM     71  C   UNL A   1      41.568  27.662  26.204  1.00  0.00     0.198 A 
ATOM     72  F   UNL A   1      41.977  29.657  27.386  1.00  0.00    -0.203 F 
ATOM     73  F   UNL A   1      39.687  24.712  27.143  1.00  0.00    -0.200 F 
ATOM     74  C   UNL A   1      40.991  26.403  26.136  1.00  0.00     0.200 A 
ATOM     75  F   UNL A   1      42.300  28.119  25.180  1.00  0.00    -0.200 F 
ATOM     76  F   UNL A   1      41.182  25.633  25.056  1.00  0.00    -0.200 F 
ENDBRANCH  42  66
BRANCH  54  77
ATOM     77  C   UNL A   1      43.925  28.238  34.542  1.00  0.00     0.064 A 
ATOM     78  C   UNL A   1      45.253  28.684  34.476  1.00  0.00     0.173 A 
ATOM     79  C   UNL A   1      43.668  27.027  35.201  1.00  0.00     0.173 A 
ATOM     80  F   UNL A   1      45.550  29.828  33.842  1.00  0.00    -0.203 F 
ATOM     81  C   UNL A   1      46.286  27.934  35.032  1.00  0.00     0.198 A 
ATOM     82  C   UNL A   1      44.700  26.294  35.780  1.00  0.00     0.198 A 
ATOM     83  F   UNL A   1      42.413  26.561  35.296  1.00  0.00    -0.203 F 
ATOM     84  F   UNL A   1      47.553  28.357  34.919  1.00  0.00    -0.200 F 
ATOM     85  C   UNL A   1      46.008  26.745  35.688  1.00  0.00     0.200 A 
ATOM     86  F   UNL A   1      44.429  25.151  36.426  1.00  0.00    -0.200 F 
ATOM     87  F   UNL A   1      47.004  26.029  36.229  1.00  0.00    -0.200 F 
ENDBRANCH  54  77
ENDBRANCH  28  29
ENDBRANCH  20  23
ENDBRANCH  18  19
ENDBRANCH   1  18
TORSDOF 11
ENDMDL
MODEL 2
REMARK VINA RESULT:     -12.2      0.111      2.023
REMARK SMILES Cn1cc2cc(C(=O)NCCCCNC(=O)c3ccc(-c4c5nc(c(-c6c(F)c(F)c(F)c(F)c6F)c6ccc([nH]6)c(-c6c(F)c(F)c(F)c(F)c6F)c6nc(c(-c7c(F)c(F)c(F)c(F)c7F)c7ccc4[nH]7)C=C6)C=C5)cc3)ccc2n1
REMARK SMILES IDX 12 1 11 2 10 3 9 4 7 5 8 6 6 8 1 9 2 10 3 11 83 12 4 13
REMARK SMILES IDX 82 14 5 15 81 16 80 17 13 18 14 19 15 20 16 22 17 23 18 24
REMARK SMILES IDX 79 25 19 26 78 27 20 28 21 29 22 30 72 31 23 32 77 33 71 34
REMARK SMILES IDX 73 35 24 36 76 37 70 38 69 39 25 41 57 42 37 43 56 44 38 45
REMARK SMILES IDX 41 46 55 47 74 48 39 49 40 50 54 52 75 53 42 54 26 55 27 56
REMARK SMILES IDX 35 57 28 58 29 59 33 60 36 61 30 62 31 63 34 64 32 65 58 66
REMARK SMILES IDX 59 67 67 68 60 69 61 70 65 71 68 72 62 73 63 74 66 75 64 76
REMARK SMILES IDX 43 77 44 78 52 79 45 80 46 81 50 82 53 83 47 84 48 85 51 86
REMARK SMILES IDX 49 87
REMARK H PARENT 9 7 14 21 73 40 41 51
REMARK Flexibility Score: inf
ROOT
ATOM      1  C   UNL A   1      31.358  32.163  26.594  1.00  0.00     0.023 C 
ENDROOT
BRANCH   1   2
ATOM      2  C   UNL A   1      31.627  30.764  26.034  1.00  0.00     0.023 C 
BRANCH   2   3
ATOM      3  C   UNL A   1      31.759  29.671  27.099  1.00  0.00     0.116 C 
BRANCH   3   4
ATOM      4  N   UNL A   1      33.150  29.451  27.434  1.00  0.00    -0.352 N 
ATOM      5  C   UNL A   1      34.162  28.757  26.822  1.00  0.00     0.251 C 
ATOM      6  O   UNL A   1      35.262  28.789  27.378  1.00  0.00    -0.269 OA
ATOM      7  H   UNL A   1      33.426  29.890  28.271  1.00  0.00     0.163 HD
BRANCH   5   8
ATOM      8  C   UNL A   1      34.027  28.004  25.532  1.00  0.00     0.040 A 
ATOM      9  C   UNL A   1      33.215  23.209  22.235  1.00  0.00     0.173 C 
ATOM     10  N   UNL A   1      33.469  24.444  22.936  1.00  0.00    -0.275 N 
ATOM     11  C   UNL A   1      33.629  24.597  24.284  1.00  0.00     0.117 A 
ATOM     12  N   UNL A   1      33.539  25.592  22.231  1.00  0.00    -0.173 NA
ATOM     13  C   UNL A   1      33.785  25.944  24.458  1.00  0.00     0.021 A 
ATOM     14  C   UNL A   1      33.707  26.550  23.157  1.00  0.00     0.092 A 
ATOM     15  C   UNL A   1      33.952  26.592  25.676  1.00  0.00     0.025 A 
ATOM     16  C   UNL A   1      33.786  27.940  23.014  1.00  0.00     0.032 A 
ATOM     17  C   UNL A   1      33.916  28.634  24.245  1.00  0.00     0.016 A 
ENDBRANCH   5   8
ENDBRANCH   3   4
ENDBRANCH   2   3
ENDBRANCH   1   2
BRANCH   1  18
ATOM     18  C   UNL A   1      32.545  32.818  27.292  1.00  0.00     0.116 C 
BRANCH  18  19
ATOM     19  N   UNL A   1      32.312  34.208  27.649  1.00  0.00    -0.352 N 
ATOM     20  C   UNL A   1      32.974  34.978  28.576  1.00  0.00     0.251 C 
ATOM     21  H   UNL A   1      31.582  34.657  27.163  1.00  0.00     0.163 HD
ATOM     22  O   UNL A   1      32.593  36.113  28.827  1.00  0.00    -0.269 OA
BRANCH  20  23
ATOM     23  C   UNL A   1      34.125  34.403  29.301  1.00  0.00     0.039 A 
ATOM     24  C   UNL A   1      33.882  33.663  30.460  1.00  0.00     0.014 A 
ATOM     25  C   UNL A   1      35.428  34.566  28.826  1.00  0.00     0.014 A 
ATOM     26  C   UNL A   1      34.942  33.024  31.106  1.00  0.00     0.010 A 
ATOM     27  C   UNL A   1      36.474  33.878  29.432  1.00  0.00     0.010 A 
ATOM     28  C   UNL A   1      36.240  33.097  30.575  1.00  0.00    -0.014 A 
BRANCH  28  29
ATOM     29  C   UNL A   1      37.365  32.355  31.193  1.00  0.00     0.031 A 
ATOM     30  C   UNL A   1      37.854  32.730  32.562  1.00  0.00     0.074 A 
ATOM     31  C   UNL A   1      37.991  31.390  30.489  1.00  0.00     0.049 A 
ATOM     32  N   UNL A   1      38.871  32.256  33.237  1.00  0.00    -0.248 NA
ATOM     33  C   UNL A   1      37.119  33.800  33.255  1.00  0.00     0.031 C 
ATOM     34  C   UNL A   1      37.641  30.973  29.130  1.00  0.00     0.029 A 
ATOM     35  N   UNL A   1      39.064  30.599  30.814  1.00  0.00    -0.354 N 
ATOM     36  C   UNL A   1      38.907  32.980  34.421  1.00  0.00     0.074 A 
ATOM     37  C   UNL A   1      37.841  33.956  34.356  1.00  0.00     0.031 C 
ATOM     38  C   UNL A   1      38.471  29.991  28.745  1.00  0.00     0.029 A 
ATOM     39  C   UNL A   1      39.432  29.733  29.813  1.00  0.00     0.049 A 
ATOM     40  H   UNL A   1      39.526  30.647  31.682  1.00  0.00     0.167 HD
ATOM     41  C   UNL A   1      39.743  32.828  35.476  1.00  0.00     0.037 A 
ATOM     42  C   UNL A   1      40.437  28.837  29.763  1.00  0.00     0.037 A 
ATOM     43  C   UNL A   1      40.779  31.834  35.551  1.00  0.00     0.049 A 
ATOM     44  C   UNL A   1      41.341  28.682  30.955  1.00  0.00     0.074 A 
ATOM     45  C   UNL A   1      41.634  31.555  36.604  1.00  0.00     0.029 A 
ATOM     46  N   UNL A   1      41.101  30.951  34.531  1.00  0.00    -0.354 N 
ATOM     47  N   UNL A   1      41.321  29.323  32.098  1.00  0.00    -0.248 NA
ATOM     48  C   UNL A   1      42.405  27.674  30.852  1.00  0.00     0.031 C 
ATOM     49  C   UNL A   1      42.498  30.530  36.207  1.00  0.00     0.029 A 
ATOM     50  C   UNL A   1      42.153  30.139  34.924  1.00  0.00     0.049 A 
ATOM     51  H   UNL A   1      40.649  30.908  33.658  1.00  0.00     0.167 HD
ATOM     52  C   UNL A   1      42.344  28.777  32.861  1.00  0.00     0.074 A 
ATOM     53  C   UNL A   1      42.958  27.742  32.056  1.00  0.00     0.031 C 
ATOM     54  C   UNL A   1      42.741  29.103  34.114  1.00  0.00     0.037 A 
BRANCH  41  55
ATOM     55  C   UNL A   1      39.566  33.754  36.643  1.00  0.00     0.064 A 
ATOM     56  C   UNL A   1      38.779  33.398  37.749  1.00  0.00     0.173 A 
ATOM     57  C   UNL A   1      40.230  34.988  36.681  1.00  0.00     0.173 A 
ATOM     58  F   UNL A   1      38.113  32.232  37.756  1.00  0.00    -0.203 F 
ATOM     59  C   UNL A   1      38.647  34.253  38.839  1.00  0.00     0.198 A 
ATOM     60  C   UNL A   1      40.118  35.829  37.785  1.00  0.00     0.198 A 
ATOM     61  F   UNL A   1      40.999  35.375  35.651  1.00  0.00    -0.203 F 
ATOM     62  F   UNL A   1      37.857  33.909  39.866  1.00  0.00    -0.200 F 
ATOM     63  C   UNL A   1      39.323  35.463  38.860  1.00  0.00     0.200 A 
ATOM     64  F   UNL A   1      40.782  36.993  37.809  1.00  0.00    -0.200 F 
ATOM     65  F   UNL A   1      39.203  36.281  39.915  1.00  0.00    -0.200 F 
ENDBRANCH  41  55
BRANCH  42  66
ATOM     66  C   UNL A   1      40.628  27.998  28.552  1.00  0.00     0.064 A 
ATOM     67  C   UNL A   1      41.411  28.451  27.481  1.00  0.00     0.173 A 
ATOM     68  C   UNL A   1      40.019  26.741  28.430  1.00  0.00     0.173 A 
ATOM     69  F   UNL A   1      41.996  29.656  27.543  1.00  0.00    -0.203 F 
ATOM     70  C   UNL A   1      41.557  27.689  26.323  1.00  0.00     0.198 A 
ATOM     71  C   UNL A   1      40.188  25.968  27.283  1.00  0.00     0.198 A 
ATOM     72  F   UNL A   1      39.264  26.260  29.429  1.00  0.00    -0.203 F 
ATOM     73  F   UNL A   1      42.268  28.168  25.295  1.00  0.00    -0.200 F 
ATOM     74  C   UNL A   1      40.949  26.447  26.227  1.00  0.00     0.200 A 
ATOM     75  F   UNL A   1      39.610  24.763  27.198  1.00  0.00    -0.200 F 
ATOM     76  F   UNL A   1      41.088  25.716  25.112  1.00  0.00    -0.200 F 
ENDBRANCH  42  66
BRANCH  54  77
ATOM     77  C   UNL A   1      43.865  28.307  34.709  1.00  0.00     0.064 A 
ATOM     78  C   UNL A   1      43.639  27.079  35.346  1.00  0.00     0.173 A 
ATOM     79  C   UNL A   1      45.188  28.762  34.603  1.00  0.00     0.173 A 
ATOM     80  F   UNL A   1      42.390  26.611  35.485  1.00  0.00    -0.203 F 
ATOM     81  C   UNL A   1      44.697  26.344  35.874  1.00  0.00     0.198 A 
ATOM     82  C   UNL A   1      46.245  28.011  35.108  1.00  0.00     0.198 A 
ATOM     83  F   UNL A   1      45.456  29.929  33.998  1.00  0.00    -0.203 F 
ATOM     84  F   UNL A   1      44.454  25.193  36.517  1.00  0.00    -0.200 F 
ATOM     85  C   UNL A   1      45.998  26.807  35.749  1.00  0.00     0.200 A 
ATOM     86  F   UNL A   1      47.504  28.453  34.974  1.00  0.00    -0.200 F 
ATOM     87  F   UNL A   1      47.015  26.093  36.251  1.00  0.00    -0.200 F 
ENDBRANCH  54  77
ENDBRANCH  28  29
ENDBRANCH  20  23
ENDBRANCH  18  19
ENDBRANCH   1  18
TORSDOF 11
ENDMDL
MODEL 3
REMARK VINA RESULT:     -12.1      0.567      7.496
REMARK SMILES Cn1cc2cc(C(=O)NCCCCNC(=O)c3ccc(-c4c5nc(c(-c6c(F)c(F)c(F)c(F)c6F)c6ccc([nH]6)c(-c6c(F)c(F)c(F)c(F)c6F)c6nc(c(-c7c(F)c(F)c(F)c(F)c7F)c7ccc4[nH]7)C=C6)C=C5)cc3)ccc2n1
REMARK SMILES IDX 12 1 11 2 10 3 9 4 7 5 8 6 6 8 1 9 2 10 3 11 83 12 4 13
REMARK SMILES IDX 82 14 5 15 81 16 80 17 13 18 14 19 15 20 16 22 17 23 18 24
REMARK SMILES IDX 79 25 19 26 78 27 20 28 21 29 22 30 72 31 23 32 77 33 71 34
REMARK SMILES IDX 73 35 24 36 76 37 70 38 69 39 25 41 57 42 37 43 56 44 38 45
REMARK SMILES IDX 41 46 55 47 74 48 39 49 40 50 54 52 75 53 42 54 26 55 27 56
REMARK SMILES IDX 35 57 28 58 29 59 33 60 36 61 30 62 31 63 34 64 32 65 58 66
REMARK SMILES IDX 59 67 67 68 60 69 61 70 65 71 68 72 62 73 63 74 66 75 64 76
REMARK SMILES IDX 43 77 44 78 52 79 45 80 46 81 50 82 53 83 47 84 48 85 51 86
REMARK SMILES IDX 49 87
REMARK H PARENT 9 7 14 21 73 40 41 51
REMARK Flexibility Score: inf
ROOT
ATOM      1  C   UNL A   1      31.414  32.192  26.735  1.00  0.00     0.023 C 
ENDROOT
BRANCH   1   2
ATOM      2  C   UNL A   1      31.763  30.831  26.128  1.00  0.00     0.023 C 
BRANCH   2   3
ATOM      3  C   UNL A   1      31.872  29.693  27.147  1.00  0.00     0.116 C 
BRANCH   3   4
ATOM      4  N   UNL A   1      33.259  29.417  27.458  1.00  0.00    -0.352 N 
ATOM      5  C   UNL A   1      34.235  28.695  26.822  1.00  0.00     0.251 C 
ATOM      6  O   UNL A   1      35.344  28.679  27.361  1.00  0.00    -0.269 OA
ATOM      7  H   UNL A   1      33.563  29.834  28.296  1.00  0.00     0.163 HD
BRANCH   5   8
ATOM      8  C   UNL A   1      34.054  27.965  25.524  1.00  0.00     0.040 A 
ATOM      9  C   UNL A   1      33.133  23.227  22.173  1.00  0.00     0.173 C 
ATOM     10  N   UNL A   1      33.409  24.450  22.887  1.00  0.00    -0.275 N 
ATOM     11  C   UNL A   1      33.620  24.580  24.230  1.00  0.00     0.117 A 
ATOM     12  N   UNL A   1      33.448  25.612  22.201  1.00  0.00    -0.173 NA
ATOM     13  C   UNL A   1      33.778  25.924  24.422  1.00  0.00     0.021 A 
ATOM     14  C   UNL A   1      33.647  26.553  23.137  1.00  0.00     0.092 A 
ATOM     15  C   UNL A   1      33.989  26.551  25.645  1.00  0.00     0.025 A 
ATOM     16  C   UNL A   1      33.717  27.946  23.016  1.00  0.00     0.032 A 
ATOM     17  C   UNL A   1      33.891  28.617  24.254  1.00  0.00     0.016 A 
ENDBRANCH   5   8
ENDBRANCH   3   4
ENDBRANCH   2   3
ENDBRANCH   1   2
BRANCH   1  18
ATOM     18  C   UNL A   1      32.565  32.895  27.448  1.00  0.00     0.116 C 
BRANCH  18  19
ATOM     19  N   UNL A   1      32.304  34.298  27.725  1.00  0.00    -0.352 N 
ATOM     20  C   UNL A   1      32.956  35.136  28.598  1.00  0.00     0.251 C 
ATOM     21  H   UNL A   1      31.559  34.701  27.222  1.00  0.00     0.163 HD
ATOM     22  O   UNL A   1      32.552  36.275  28.786  1.00  0.00    -0.269 OA
BRANCH  20  23
ATOM     23  C   UNL A   1      34.127  34.631  29.343  1.00  0.00     0.039 A 
ATOM     24  C   UNL A   1      33.921  34.051  30.597  1.00  0.00     0.014 A 
ATOM     25  C   UNL A   1      35.411  34.699  28.798  1.00  0.00     0.014 A 
ATOM     26  C   UNL A   1      34.996  33.475  31.276  1.00  0.00     0.010 A 
ATOM     27  C   UNL A   1      36.469  34.069  29.444  1.00  0.00     0.010 A 
ATOM     28  C   UNL A   1      36.271  33.447  30.687  1.00  0.00    -0.014 A 
BRANCH  28  29
ATOM     29  C   UNL A   1      37.408  32.763  31.349  1.00  0.00     0.031 A 
ATOM     30  C   UNL A   1      38.079  31.598  30.681  1.00  0.00     0.074 A 
ATOM     31  C   UNL A   1      37.786  33.148  32.584  1.00  0.00     0.049 A 
ATOM     32  N   UNL A   1      39.032  30.821  31.132  1.00  0.00    -0.248 NA
ATOM     33  C   UNL A   1      37.597  31.238  29.338  1.00  0.00     0.031 C 
ATOM     34  C   UNL A   1      37.175  34.232  33.356  1.00  0.00     0.029 A 
ATOM     35  N   UNL A   1      38.763  32.659  33.413  1.00  0.00    -0.354 N 
ATOM     36  C   UNL A   1      39.249  29.875  30.138  1.00  0.00     0.074 A 
ATOM     37  C   UNL A   1      38.299  30.145  29.081  1.00  0.00     0.031 C 
ATOM     38  C   UNL A   1      37.804  34.337  34.538  1.00  0.00     0.029 A 
ATOM     39  C   UNL A   1      38.837  33.309  34.622  1.00  0.00     0.049 A 
ATOM     40  H   UNL A   1      39.357  31.913  33.166  1.00  0.00     0.167 HD
ATOM     41  C   UNL A   1      40.173  28.886  30.105  1.00  0.00     0.037 A 
ATOM     42  C   UNL A   1      39.643  33.093  35.679  1.00  0.00     0.037 A 
ATOM     43  C   UNL A   1      41.138  28.644  31.143  1.00  0.00     0.049 A 
ATOM     44  C   UNL A   1      40.668  31.994  35.607  1.00  0.00     0.074 A 
ATOM     45  C   UNL A   1      42.159  27.709  31.172  1.00  0.00     0.029 A 
ATOM     46  N   UNL A   1      41.204  29.345  32.338  1.00  0.00    -0.354 N 
ATOM     47  N   UNL A   1      40.912  31.152  34.633  1.00  0.00    -0.248 NA
ATOM     48  C   UNL A   1      41.534  31.820  36.781  1.00  0.00     0.031 C 
ATOM     49  C   UNL A   1      42.818  27.819  32.401  1.00  0.00     0.029 A 
ATOM     50  C   UNL A   1      42.237  28.852  33.118  1.00  0.00     0.049 A 
ATOM     51  H   UNL A   1      40.605  30.083  32.594  1.00  0.00     0.167 HD
ATOM     52  C   UNL A   1      41.977  30.371  35.061  1.00  0.00     0.074 A 
ATOM     53  C   UNL A   1      42.341  30.847  36.378  1.00  0.00     0.031 C 
ATOM     54  C   UNL A   1      42.595  29.350  34.421  1.00  0.00     0.037 A 
BRANCH  41  55
ATOM     55  C   UNL A   1      40.193  27.993  28.900  1.00  0.00     0.064 A 
ATOM     56  C   UNL A   1      40.915  28.334  27.746  1.00  0.00     0.173 A 
ATOM     57  C   UNL A   1      39.525  26.759  28.916  1.00  0.00     0.173 A 
ATOM     58  F   UNL A   1      41.560  29.508  27.676  1.00  0.00    -0.203 F 
ATOM     59  C   UNL A   1      40.949  27.482  26.645  1.00  0.00     0.198 A 
ATOM     60  C   UNL A   1      39.585  25.898  27.824  1.00  0.00     0.198 A 
ATOM     61  F   UNL A   1      38.824  26.383  29.997  1.00  0.00    -0.203 F 
ATOM     62  F   UNL A   1      41.612  27.847  25.539  1.00  0.00    -0.200 F 
ATOM     63  C   UNL A   1      40.293  26.262  26.688  1.00  0.00     0.200 A 
ATOM     64  F   UNL A   1      38.960  24.713  27.872  1.00  0.00    -0.200 F 
ATOM     65  F   UNL A   1      40.336  25.439  25.632  1.00  0.00    -0.200 F 
ENDBRANCH  41  55
BRANCH  42  66
ATOM     66  C   UNL A   1      39.532  33.950  36.888  1.00  0.00     0.064 A 
ATOM     67  C   UNL A   1      38.756  33.548  37.984  1.00  0.00     0.173 A 
ATOM     68  C   UNL A   1      40.179  35.191  36.966  1.00  0.00     0.173 A 
ATOM     69  F   UNL A   1      38.102  32.378  37.947  1.00  0.00    -0.203 F 
ATOM     70  C   UNL A   1      38.611  34.367  39.102  1.00  0.00     0.198 A 
ATOM     71  C   UNL A   1      40.055  35.997  38.096  1.00  0.00     0.198 A 
ATOM     72  F   UNL A   1      40.938  35.619  35.946  1.00  0.00    -0.203 F 
ATOM     73  F   UNL A   1      37.822  33.981  40.113  1.00  0.00    -0.200 F 
ATOM     74  C   UNL A   1      39.263  35.588  39.158  1.00  0.00     0.200 A 
ATOM     75  F   UNL A   1      40.697  37.171  38.153  1.00  0.00    -0.200 F 
ATOM     76  F   UNL A   1      39.122  36.376  40.233  1.00  0.00    -0.200 F 
ENDBRANCH  42  66
BRANCH  54  77
ATOM     77  C   UNL A   1      43.757  28.705  35.118  1.00  0.00     0.064 A 
ATOM     78  C   UNL A   1      45.064  29.193  34.973  1.00  0.00     0.173 A 
ATOM     79  C   UNL A   1      43.552  27.613  35.974  1.00  0.00     0.173 A 
ATOM     80  F   UNL A   1      45.311  30.225  34.154  1.00  0.00    -0.203 F 
ATOM     81  C   UNL A   1      46.128  28.595  35.643  1.00  0.00     0.198 A 
ATOM     82  C   UNL A   1      44.614  27.035  36.665  1.00  0.00     0.198 A 
ATOM     83  F   UNL A   1      42.320  27.113  36.151  1.00  0.00    -0.203 F 
ATOM     84  F   UNL A   1      47.375  29.049  35.456  1.00  0.00    -0.200 F 
ATOM     85  C   UNL A   1      45.901  27.522  36.493  1.00  0.00     0.200 A 
ATOM     86  F   UNL A   1      44.392  26.007  37.495  1.00  0.00    -0.200 F 
ATOM     87  F   UNL A   1      46.926  26.954  37.143  1.00  0.00    -0.200 F 
ENDBRANCH  54  77
ENDBRANCH  28  29
ENDBRANCH  20  23
ENDBRANCH  18  19
ENDBRANCH   1  18
TORSDOF 11
ENDMDL
