MODEL 1
REMARK VINA RESULT:     -12.8      0.000      0.000
REMARK SMILES COc1ccc(F)cc1[C@H](C)NC(=O)[C@H]1CC=CC[C@@H]1C(=O)NCCCCNC(=O)c1ccc(-c2c3nc(c(-c4c(F)c(F)c(F)c(F)c4F)c4ccc([nH]4)c(-c4c(F)c(F)c(F)c(F)c4F)c4nc(c(-c5c(F)c(F)c(F)c(F)c5F)c5ccc2[nH]5)C=C4)C=C3)cc1
REMARK SMILES IDX 24 1 23 2 21 3 22 4 20 6 15 7 16 8 17 9 19 10 18 11 13 12
REMARK SMILES IDX 12 13 14 15 10 16 11 17 9 18 3 19 4 20 5 21 8 22 6 23 7 24
REMARK SMILES IDX 2 25 1 26 25 27 26 28 27 29 28 30 29 31 30 33 31 34 32 35
REMARK SMILES IDX 93 36 33 37 92 38 34 39 35 40 36 41 86 42 37 43 91 44 85 45
REMARK SMILES IDX 87 46 38 47 90 48 84 49 83 50 39 52 71 53 51 54 70 55 52 56
REMARK SMILES IDX 55 57 69 58 88 59 53 60 54 61 68 63 89 64 56 65 40 66 41 67
REMARK SMILES IDX 49 68 42 69 43 70 47 71 50 72 44 73 45 74 48 75 46 76 72 77
REMARK SMILES IDX 73 78 81 79 74 80 75 81 79 82 82 83 76 84 77 85 80 86 78 87
REMARK SMILES IDX 57 88 58 89 66 90 59 91 60 92 64 93 67 94 61 95 62 96 65 97
REMARK SMILES IDX 63 98
REMARK H PARENT 23 5 12 14 28 32 87 51 55 62
REMARK Flexibility Score: inf
ROOT
ATOM      1  C   UNL A   1      33.418  27.166  25.744  1.00  0.00     0.116 C 
ENDROOT
BRANCH   1   2
ATOM      2  N   UNL A   1      33.943  25.859  26.067  1.00  0.00    -0.356 N 
ATOM      3  C   UNL A   1      34.410  24.839  25.303  1.00  0.00     0.224 C 
ATOM      4  O   UNL A   1      35.047  23.973  25.919  1.00  0.00    -0.275 OA
ATOM      5  H   UNL A   1      33.966  25.671  27.033  1.00  0.00     0.163 HD
BRANCH   3   6
ATOM      6  C   UNL A   1      34.105  24.619  23.813  1.00  0.00     0.095 C 
ATOM      7  C   UNL A   1      32.697  24.975  23.294  1.00  0.00     0.095 C 
ATOM      8  C   UNL A   1      31.752  23.767  23.091  1.00  0.00     0.041 C 
ATOM      9  C   UNL A   1      32.288  22.404  23.380  1.00  0.00    -0.030 C 
ATOM     10  C   UNL A   1      34.620  23.229  23.413  1.00  0.00     0.041 C 
ATOM     11  C   UNL A   1      33.593  22.151  23.507  1.00  0.00    -0.030 C 
BRANCH   7  12
ATOM     12  C   UNL A   1      32.728  25.684  21.932  1.00  0.00     0.224 C 
ATOM     13  N   UNL A   1      32.004  26.838  21.757  1.00  0.00    -0.349 N 
ATOM     14  H   UNL A   1      31.650  26.988  20.851  1.00  0.00     0.164 HD
ATOM     15  O   UNL A   1      33.277  25.184  20.950  1.00  0.00    -0.275 OA
BRANCH  13  16
ATOM     16  C   UNL A   1      31.688  27.876  22.742  1.00  0.00     0.113 C 
ATOM     17  C   UNL A   1      32.777  28.952  22.559  1.00  0.00     0.036 C 
BRANCH  16  18
ATOM     18  C   UNL A   1      30.246  28.410  22.688  1.00  0.00     0.019 A 
ATOM     19  C   UNL A   1      29.127  27.657  23.127  1.00  0.00     0.124 A 
ATOM     20  C   UNL A   1      27.853  28.249  23.213  1.00  0.00     0.050 A 
ATOM     21  C   UNL A   1      27.660  29.585  22.877  1.00  0.00     0.043 A 
ATOM     22  C   UNL A   1      30.009  29.761  22.347  1.00  0.00     0.049 A 
ATOM     23  C   UNL A   1      28.740  30.327  22.443  1.00  0.00     0.123 A 
ATOM     24  F   UNL A   1      28.571  31.621  22.138  1.00  0.00    -0.207 F 
BRANCH  19  25
ATOM     25  O   UNL A   1      29.353  26.361  23.495  1.00  0.00    -0.496 OA
ATOM     26  C   UNL A   1      29.380  26.053  24.887  1.00  0.00     0.278 C 
ENDBRANCH  19  25
ENDBRANCH  16  18
ENDBRANCH  13  16
ENDBRANCH   7  12
ENDBRANCH   3   6
ENDBRANCH   1   2
BRANCH   1  27
ATOM     27  C   UNL A   1      32.255  27.605  26.630  1.00  0.00     0.023 C 
BRANCH  27  28
ATOM     28  C   UNL A   1      31.758  29.029  26.382  1.00  0.00     0.023 C 
BRANCH  28  29
ATOM     29  C   UNL A   1      32.830  30.065  26.057  1.00  0.00     0.116 C 
BRANCH  29  30
ATOM     30  N   UNL A   1      32.590  31.387  26.618  1.00  0.00    -0.352 N 
ATOM     31  C   UNL A   1      33.417  32.114  27.450  1.00  0.00     0.251 C 
ATOM     32  H   UNL A   1      31.737  31.812  26.377  1.00  0.00     0.163 HD
ATOM     33  O   UNL A   1      33.071  33.199  27.896  1.00  0.00    -0.269 OA
BRANCH  31  34
ATOM     34  C   UNL A   1      34.715  31.524  27.842  1.00  0.00     0.039 A 
ATOM     35  C   UNL A   1      35.818  32.365  28.001  1.00  0.00     0.014 A 
ATOM     36  C   UNL A   1      34.806  30.166  28.160  1.00  0.00     0.014 A 
ATOM     37  C   UNL A   1      36.986  31.862  28.580  1.00  0.00     0.010 A 
ATOM     38  C   UNL A   1      35.940  29.689  28.808  1.00  0.00     0.010 A 
ATOM     39  C   UNL A   1      37.035  30.536  29.041  1.00  0.00    -0.014 A 
BRANCH  39  40
ATOM     40  C   UNL A   1      38.210  30.017  29.788  1.00  0.00     0.031 A 
ATOM     41  C   UNL A   1      38.483  30.500  31.185  1.00  0.00     0.074 A 
ATOM     42  C   UNL A   1      39.070  29.169  29.187  1.00  0.00     0.049 A 
ATOM     43  N   UNL A   1      39.509  30.253  31.960  1.00  0.00    -0.248 NA
ATOM     44  C   UNL A   1      37.483  31.399  31.785  1.00  0.00     0.031 C 
ATOM     45  C   UNL A   1      38.940  28.656  27.822  1.00  0.00     0.029 A 
ATOM     46  N   UNL A   1      40.228  28.590  29.647  1.00  0.00    -0.354 N 
ATOM     47  C   UNL A   1      39.284  30.975  33.124  1.00  0.00     0.074 A 
ATOM     48  C   UNL A   1      38.054  31.711  32.939  1.00  0.00     0.031 C 
ATOM     49  C   UNL A   1      39.954  27.812  27.570  1.00  0.00     0.029 A 
ATOM     50  C   UNL A   1      40.830  27.755  28.735  1.00  0.00     0.049 A 
ATOM     51  H   UNL A   1      40.592  28.758  30.546  1.00  0.00     0.167 HD
ATOM     52  C   UNL A   1      40.023  30.998  34.257  1.00  0.00     0.037 A 
ATOM     53  C   UNL A   1      41.961  27.030  28.830  1.00  0.00     0.037 A 
ATOM     54  C   UNL A   1      41.224  30.233  34.460  1.00  0.00     0.049 A 
ATOM     55  C   UNL A   1      42.767  27.084  30.102  1.00  0.00     0.074 A 
ATOM     56  C   UNL A   1      42.021  30.168  35.589  1.00  0.00     0.029 A 
ATOM     57  N   UNL A   1      41.792  29.391  33.517  1.00  0.00    -0.354 N 
ATOM     58  N   UNL A   1      42.525  27.747  31.205  1.00  0.00    -0.248 NA
ATOM     59  C   UNL A   1      44.003  26.289  30.139  1.00  0.00     0.031 C 
ATOM     60  C   UNL A   1      43.086  29.304  35.321  1.00  0.00     0.029 A 
ATOM     61  C   UNL A   1      42.931  28.803  34.039  1.00  0.00     0.049 A 
ATOM     62  H   UNL A   1      41.437  29.234  32.611  1.00  0.00     0.167 HD
ATOM     63  C   UNL A   1      43.557  27.425  32.077  1.00  0.00     0.074 A 
ATOM     64  C   UNL A   1      44.423  26.501  31.379  1.00  0.00     0.031 C 
ATOM     65  C   UNL A   1      43.766  27.861  33.342  1.00  0.00     0.037 A 
BRANCH  52  66
ATOM     66  C   UNL A   1      39.539  31.848  35.392  1.00  0.00     0.064 A 
ATOM     67  C   UNL A   1      38.599  31.352  36.307  1.00  0.00     0.173 A 
ATOM     68  C   UNL A   1      39.939  33.186  35.517  1.00  0.00     0.173 A 
ATOM     69  F   UNL A   1      38.181  30.079  36.226  1.00  0.00    -0.203 F 
ATOM     70  C   UNL A   1      38.062  32.173  37.295  1.00  0.00     0.198 A 
ATOM     71  C   UNL A   1      39.420  33.997  36.521  1.00  0.00     0.198 A 
ATOM     72  F   UNL A   1      40.846  33.701  34.673  1.00  0.00    -0.203 F 
ATOM     73  F   UNL A   1      37.139  31.689  38.137  1.00  0.00    -0.200 F 
ATOM     74  C   UNL A   1      38.474  33.493  37.402  1.00  0.00     0.200 A 
ATOM     75  F   UNL A   1      39.834  35.266  36.637  1.00  0.00    -0.200 F 
ATOM     76  F   UNL A   1      37.957  34.283  38.354  1.00  0.00    -0.200 F 
ENDBRANCH  52  66
BRANCH  53  77
ATOM     77  C   UNL A   1      42.387  26.157  27.705  1.00  0.00     0.064 A 
ATOM     78  C   UNL A   1      43.361  26.564  26.784  1.00  0.00     0.173 A 
ATOM     79  C   UNL A   1      41.831  24.879  27.545  1.00  0.00     0.173 A 
ATOM     80  F   UNL A   1      43.923  27.778  26.891  1.00  0.00    -0.203 F 
ATOM     81  C   UNL A   1      43.758  25.730  25.740  1.00  0.00     0.198 A 
ATOM     82  C   UNL A   1      42.249  24.035  26.517  1.00  0.00     0.198 A 
ATOM     83  F   UNL A   1      40.912  24.436  28.415  1.00  0.00    -0.203 F 
ATOM     84  F   UNL A   1      44.678  26.151  24.861  1.00  0.00    -0.200 F 
ATOM     85  C   UNL A   1      43.208  24.464  25.613  1.00  0.00     0.200 A 
ATOM     86  F   UNL A   1      41.733  22.802  26.416  1.00  0.00    -0.200 F 
ATOM     87  F   UNL A   1      43.610  23.652  24.625  1.00  0.00    -0.200 F 
ENDBRANCH  53  77
BRANCH  65  88
ATOM     88  C   UNL A   1      44.951  27.317  34.080  1.00  0.00     0.064 A 
ATOM     89  C   UNL A   1      46.198  27.952  33.982  1.00  0.00     0.173 A 
ATOM     90  C   UNL A   1      44.874  26.123  34.810  1.00  0.00     0.173 A 
ATOM     91  F   UNL A   1      46.323  29.092  33.288  1.00  0.00    -0.203 F 
ATOM     92  C   UNL A   1      47.330  27.402  34.576  1.00  0.00     0.198 A 
ATOM     93  C   UNL A   1      46.003  25.588  35.425  1.00  0.00     0.198 A 
ATOM     94  F   UNL A   1      43.700  25.486  34.941  1.00  0.00    -0.203 F 
ATOM     95  F   UNL A   1      48.518  28.006  34.440  1.00  0.00    -0.200 F 
ATOM     96  C   UNL A   1      47.231  26.222  35.298  1.00  0.00     0.200 A 
ATOM     97  F   UNL A   1      45.903  24.459  36.139  1.00  0.00    -0.200 F 
ATOM     98  F   UNL A   1      48.320  25.694  35.874  1.00  0.00    -0.200 F 
ENDBRANCH  65  88
ENDBRANCH  39  40
ENDBRANCH  31  34
ENDBRANCH  29  30
ENDBRANCH  28  29
ENDBRANCH  27  28
ENDBRANCH   1  27
TORSDOF 15
ENDMDL
MODEL 2
REMARK VINA RESULT:     -12.7      1.491      3.296
REMARK SMILES COc1ccc(F)cc1[C@H](C)NC(=O)[C@H]1CC=CC[C@@H]1C(=O)NCCCCNC(=O)c1ccc(-c2c3nc(c(-c4c(F)c(F)c(F)c(F)c4F)c4ccc([nH]4)c(-c4c(F)c(F)c(F)c(F)c4F)c4nc(c(-c5c(F)c(F)c(F)c(F)c5F)c5ccc2[nH]5)C=C4)C=C3)cc1
REMARK SMILES IDX 24 1 23 2 21 3 22 4 20 6 15 7 16 8 17 9 19 10 18 11 13 12
REMARK SMILES IDX 12 13 14 15 10 16 11 17 9 18 3 19 4 20 5 21 8 22 6 23 7 24
REMARK SMILES IDX 2 25 1 26 25 27 26 28 27 29 28 30 29 31 30 33 31 34 32 35
REMARK SMILES IDX 93 36 33 37 92 38 34 39 35 40 36 41 86 42 37 43 91 44 85 45
REMARK SMILES IDX 87 46 38 47 90 48 84 49 83 50 39 52 71 53 51 54 70 55 52 56
REMARK SMILES IDX 55 57 69 58 88 59 53 60 54 61 68 63 89 64 56 65 40 66 41 67
REMARK SMILES IDX 49 68 42 69 43 70 47 71 50 72 44 73 45 74 48 75 46 76 72 77
REMARK SMILES IDX 73 78 81 79 74 80 75 81 79 82 82 83 76 84 77 85 80 86 78 87
REMARK SMILES IDX 57 88 58 89 66 90 59 91 60 92 64 93 67 94 61 95 62 96 65 97
REMARK SMILES IDX 63 98
REMARK H PARENT 23 5 12 14 28 32 87 51 55 62
REMARK Flexibility Score: inf
ROOT
ATOM      1  C   UNL A   1      31.898  26.658  26.230  1.00  0.00     0.116 C 
ENDROOT
BRANCH   1   2
ATOM      2  N   UNL A   1      30.610  26.618  25.577  1.00  0.00    -0.356 N 
ATOM      3  C   UNL A   1      30.227  26.304  24.314  1.00  0.00     0.224 C 
ATOM      4  O   UNL A   1      29.013  26.098  24.171  1.00  0.00    -0.275 OA
ATOM      5  H   UNL A   1      29.861  26.868  26.166  1.00  0.00     0.163 HD
BRANCH   3   6
ATOM      6  C   UNL A   1      31.130  26.315  23.070  1.00  0.00     0.095 C 
ATOM      7  C   UNL A   1      32.515  25.643  23.167  1.00  0.00     0.095 C 
ATOM      8  C   UNL A   1      33.702  26.620  23.349  1.00  0.00     0.041 C 
ATOM      9  C   UNL A   1      33.405  28.083  23.382  1.00  0.00    -0.030 C 
ATOM     10  C   UNL A   1      31.127  27.732  22.481  1.00  0.00     0.041 C 
ATOM     11  C   UNL A   1      32.243  28.594  22.969  1.00  0.00    -0.030 C 
BRANCH   7  12
ATOM     12  C   UNL A   1      32.866  24.825  21.917  1.00  0.00     0.224 C 
ATOM     13  N   UNL A   1      32.862  23.453  21.987  1.00  0.00    -0.349 N 
ATOM     14  H   UNL A   1      33.512  22.993  21.407  1.00  0.00     0.164 HD
ATOM     15  O   UNL A   1      33.279  25.356  20.884  1.00  0.00    -0.275 OA
BRANCH  13  16
ATOM     16  C   UNL A   1      32.019  22.583  22.811  1.00  0.00     0.113 C 
ATOM     17  C   UNL A   1      32.153  21.180  22.185  1.00  0.00     0.036 C 
BRANCH  16  18
ATOM     18  C   UNL A   1      32.305  22.638  24.322  1.00  0.00     0.019 A 
ATOM     19  C   UNL A   1      33.617  22.681  24.858  1.00  0.00     0.124 A 
ATOM     20  C   UNL A   1      33.824  22.898  26.233  1.00  0.00     0.050 A 
ATOM     21  C   UNL A   1      32.751  23.081  27.098  1.00  0.00     0.043 A 
ATOM     22  C   UNL A   1      31.240  22.819  25.234  1.00  0.00     0.049 A 
ATOM     23  C   UNL A   1      31.468  23.036  26.591  1.00  0.00     0.123 A 
ATOM     24  F   UNL A   1      30.427  23.234  27.410  1.00  0.00    -0.207 F 
BRANCH  19  25
ATOM     25  O   UNL A   1      34.655  22.545  23.979  1.00  0.00    -0.496 OA
ATOM     26  C   UNL A   1      35.821  23.340  24.187  1.00  0.00     0.278 C 
ENDBRANCH  19  25
ENDBRANCH  16  18
ENDBRANCH  13  16
ENDBRANCH   7  12
ENDBRANCH   3   6
ENDBRANCH   1   2
BRANCH   1  27
ATOM     27  C   UNL A   1      32.064  27.819  27.208  1.00  0.00     0.023 C 
BRANCH  27  28
ATOM     28  C   UNL A   1      31.696  29.193  26.646  1.00  0.00     0.023 C 
BRANCH  28  29
ATOM     29  C   UNL A   1      32.864  30.129  26.349  1.00  0.00     0.116 C 
BRANCH  29  30
ATOM     30  N   UNL A   1      32.695  31.488  26.843  1.00  0.00    -0.352 N 
ATOM     31  C   UNL A   1      33.575  32.224  27.610  1.00  0.00     0.251 C 
ATOM     32  H   UNL A   1      31.853  31.936  26.601  1.00  0.00     0.163 HD
ATOM     33  O   UNL A   1      33.287  33.345  28.004  1.00  0.00    -0.269 OA
BRANCH  31  34
ATOM     34  C   UNL A   1      34.858  31.601  27.999  1.00  0.00     0.039 A 
ATOM     35  C   UNL A   1      35.987  32.411  28.139  1.00  0.00     0.014 A 
ATOM     36  C   UNL A   1      34.912  30.246  28.334  1.00  0.00     0.014 A 
ATOM     37  C   UNL A   1      37.144  31.882  28.715  1.00  0.00     0.010 A 
ATOM     38  C   UNL A   1      36.037  29.743  28.980  1.00  0.00     0.010 A 
ATOM     39  C   UNL A   1      37.158  30.561  29.193  1.00  0.00    -0.014 A 
BRANCH  39  40
ATOM     40  C   UNL A   1      38.324  30.018  29.938  1.00  0.00     0.031 A 
ATOM     41  C   UNL A   1      38.602  30.484  31.339  1.00  0.00     0.074 A 
ATOM     42  C   UNL A   1      39.172  29.162  29.330  1.00  0.00     0.049 A 
ATOM     43  N   UNL A   1      39.622  30.214  32.114  1.00  0.00    -0.248 NA
ATOM     44  C   UNL A   1      37.614  31.393  31.945  1.00  0.00     0.031 C 
ATOM     45  C   UNL A   1      39.037  28.663  27.960  1.00  0.00     0.029 A 
ATOM     46  N   UNL A   1      40.320  28.561  29.787  1.00  0.00    -0.354 N 
ATOM     47  C   UNL A   1      39.406  30.929  33.284  1.00  0.00     0.074 A 
ATOM     48  C   UNL A   1      38.187  31.685  33.104  1.00  0.00     0.031 C 
ATOM     49  C   UNL A   1      40.039  27.806  27.702  1.00  0.00     0.029 A 
ATOM     50  C   UNL A   1      40.911  27.726  28.869  1.00  0.00     0.049 A 
ATOM     51  H   UNL A   1      40.685  28.716  30.688  1.00  0.00     0.167 HD
ATOM     52  C   UNL A   1      40.144  30.930  34.418  1.00  0.00     0.037 A 
ATOM     53  C   UNL A   1      42.031  26.983  28.959  1.00  0.00     0.037 A 
ATOM     54  C   UNL A   1      41.332  30.146  34.616  1.00  0.00     0.049 A 
ATOM     55  C   UNL A   1      42.835  27.013  30.232  1.00  0.00     0.074 A 
ATOM     56  C   UNL A   1      42.126  30.058  35.746  1.00  0.00     0.029 A 
ATOM     57  N   UNL A   1      41.889  29.304  33.667  1.00  0.00    -0.354 N 
ATOM     58  N   UNL A   1      42.601  27.669  31.341  1.00  0.00    -0.248 NA
ATOM     59  C   UNL A   1      44.059  26.199  30.264  1.00  0.00     0.031 C 
ATOM     60  C   UNL A   1      43.178  29.180  35.472  1.00  0.00     0.029 A 
ATOM     61  C   UNL A   1      43.018  28.694  34.185  1.00  0.00     0.049 A 
ATOM     62  H   UNL A   1      41.534  29.161  32.759  1.00  0.00     0.167 HD
ATOM     63  C   UNL A   1      43.626  27.324  32.212  1.00  0.00     0.074 A 
ATOM     64  C   UNL A   1      44.480  26.393  31.507  1.00  0.00     0.031 C 
ATOM     65  C   UNL A   1      43.840  27.745  33.481  1.00  0.00     0.037 A 
BRANCH  52  66
ATOM     66  C   UNL A   1      39.670  31.778  35.560  1.00  0.00     0.064 A 
ATOM     67  C   UNL A   1      38.660  31.320  36.419  1.00  0.00     0.173 A 
ATOM     68  C   UNL A   1      40.154  33.080  35.745  1.00  0.00     0.173 A 
ATOM     69  F   UNL A   1      38.161  30.083  36.279  1.00  0.00    -0.203 F 
ATOM     70  C   UNL A   1      38.139  32.146  37.411  1.00  0.00     0.198 A 
ATOM     71  C   UNL A   1      39.649  33.895  36.753  1.00  0.00     0.198 A 
ATOM     72  F   UNL A   1      41.129  33.556  34.956  1.00  0.00    -0.203 F 
ATOM     73  F   UNL A   1      37.150  31.703  38.199  1.00  0.00    -0.200 F 
ATOM     74  C   UNL A   1      38.634  33.431  37.578  1.00  0.00     0.200 A 
ATOM     75  F   UNL A   1      40.143  35.128  36.928  1.00  0.00    -0.200 F 
ATOM     76  F   UNL A   1      38.132  34.226  38.534  1.00  0.00    -0.200 F 
ENDBRANCH  52  66
BRANCH  53  77
ATOM     77  C   UNL A   1      42.446  26.114  27.827  1.00  0.00     0.064 A 
ATOM     78  C   UNL A   1      41.901  24.836  27.640  1.00  0.00     0.173 A 
ATOM     79  C   UNL A   1      43.392  26.563  26.893  1.00  0.00     0.173 A 
ATOM     80  F   UNL A   1      40.994  24.359  28.506  1.00  0.00    -0.203 F 
ATOM     81  C   UNL A   1      42.292  24.037  26.567  1.00  0.00     0.198 A 
ATOM     82  C   UNL A   1      43.761  25.773  25.805  1.00  0.00     0.198 A 
ATOM     83  F   UNL A   1      43.924  27.787  27.016  1.00  0.00    -0.203 F 
ATOM     84  F   UNL A   1      41.770  22.811  26.422  1.00  0.00    -0.200 F 
ATOM     85  C   UNL A   1      43.215  24.509  25.646  1.00  0.00     0.200 A 
ATOM     86  F   UNL A   1      44.633  26.246  24.903  1.00  0.00    -0.200 F 
ATOM     87  F   UNL A   1      43.570  23.751  24.600  1.00  0.00    -0.200 F 
ENDBRANCH  53  77
BRANCH  65  88
ATOM     88  C   UNL A   1      45.015  27.176  34.217  1.00  0.00     0.064 A 
ATOM     89  C   UNL A   1      46.272  27.793  34.126  1.00  0.00     0.173 A 
ATOM     90  C   UNL A   1      44.918  25.978  34.937  1.00  0.00     0.173 A 
ATOM     91  F   UNL A   1      46.416  28.937  33.441  1.00  0.00    -0.203 F 
ATOM     92  C   UNL A   1      47.394  27.220  34.717  1.00  0.00     0.198 A 
ATOM     93  C   UNL A   1      46.038  25.421  35.548  1.00  0.00     0.198 A 
ATOM     94  F   UNL A   1      43.734  25.359  35.061  1.00  0.00    -0.203 F 
ATOM     95  F   UNL A   1      48.592  27.807  34.587  1.00  0.00    -0.200 F 
ATOM     96  C   UNL A   1      47.275  26.036  35.429  1.00  0.00     0.200 A 
ATOM     97  F   UNL A   1      45.919  24.287  36.253  1.00  0.00    -0.200 F 
ATOM     98  F   UNL A   1      48.355  25.486  36.001  1.00  0.00    -0.200 F 
ENDBRANCH  65  88
ENDBRANCH  39  40
ENDBRANCH  31  34
ENDBRANCH  29  30
ENDBRANCH  28  29
ENDBRANCH  27  28
ENDBRANCH   1  27
TORSDOF 15
ENDMDL
MODEL 3
REMARK VINA RESULT:     -12.7      1.863      7.901
REMARK SMILES COc1ccc(F)cc1[C@H](C)NC(=O)[C@H]1CC=CC[C@@H]1C(=O)NCCCCNC(=O)c1ccc(-c2c3nc(c(-c4c(F)c(F)c(F)c(F)c4F)c4ccc([nH]4)c(-c4c(F)c(F)c(F)c(F)c4F)c4nc(c(-c5c(F)c(F)c(F)c(F)c5F)c5ccc2[nH]5)C=C4)C=C3)cc1
REMARK SMILES IDX 24 1 23 2 21 3 22 4 20 6 15 7 16 8 17 9 19 10 18 11 13 12
REMARK SMILES IDX 12 13 14 15 10 16 11 17 9 18 3 19 4 20 5 21 8 22 6 23 7 24
REMARK SMILES IDX 2 25 1 26 25 27 26 28 27 29 28 30 29 31 30 33 31 34 32 35
REMARK SMILES IDX 93 36 33 37 92 38 34 39 35 40 36 41 86 42 37 43 91 44 85 45
REMARK SMILES IDX 87 46 38 47 90 48 84 49 83 50 39 52 71 53 51 54 70 55 52 56
REMARK SMILES IDX 55 57 69 58 88 59 53 60 54 61 68 63 89 64 56 65 40 66 41 67
REMARK SMILES IDX 49 68 42 69 43 70 47 71 50 72 44 73 45 74 48 75 46 76 72 77
REMARK SMILES IDX 73 78 81 79 74 80 75 81 79 82 82 83 76 84 77 85 80 86 78 87
REMARK SMILES IDX 57 88 58 89 66 90 59 91 60 92 64 93 67 94 61 95 62 96 65 97
REMARK SMILES IDX 63 98
REMARK H PARENT 23 5 12 14 28 32 87 51 55 62
REMARK Flexibility Score: inf
ROOT
ATOM      1  C   UNL A   1      32.000  26.644  26.209  1.00  0.00     0.116 C 
ENDROOT
BRANCH   1   2
ATOM      2  N   UNL A   1      30.687  26.618  25.608  1.00  0.00    -0.356 N 
ATOM      3  C   UNL A   1      30.249  26.297  24.364  1.00  0.00     0.224 C 
ATOM      4  O   UNL A   1      29.028  26.109  24.271  1.00  0.00    -0.275 OA
ATOM      5  H   UNL A   1      29.966  26.886  26.223  1.00  0.00     0.163 HD
BRANCH   3   6
ATOM      6  C   UNL A   1      31.103  26.281  23.086  1.00  0.00     0.095 C 
ATOM      7  C   UNL A   1      32.549  25.751  23.180  1.00  0.00     0.095 C 
ATOM      8  C   UNL A   1      33.642  26.845  23.226  1.00  0.00     0.041 C 
ATOM      9  C   UNL A   1      33.208  28.272  23.148  1.00  0.00    -0.030 C 
ATOM     10  C   UNL A   1      30.944  27.634  22.379  1.00  0.00     0.041 C 
ATOM     11  C   UNL A   1      31.989  28.635  22.744  1.00  0.00    -0.030 C 
BRANCH   7  12
ATOM     12  C   UNL A   1      32.932  24.861  21.989  1.00  0.00     0.224 C 
ATOM     13  N   UNL A   1      33.093  23.511  22.182  1.00  0.00    -0.349 N 
ATOM     14  H   UNL A   1      33.763  23.073  21.609  1.00  0.00     0.164 HD
ATOM     15  O   UNL A   1      33.229  25.333  20.891  1.00  0.00    -0.275 OA
BRANCH  13  16
ATOM     16  C   UNL A   1      32.400  22.635  23.131  1.00  0.00     0.113 C 
ATOM     17  C   UNL A   1      32.144  21.325  22.358  1.00  0.00     0.036 C 
BRANCH  16  18
ATOM     18  C   UNL A   1      33.104  22.450  24.485  1.00  0.00     0.019 A 
ATOM     19  C   UNL A   1      32.487  22.760  25.724  1.00  0.00     0.124 A 
ATOM     20  C   UNL A   1      33.108  22.418  26.941  1.00  0.00     0.050 A 
ATOM     21  C   UNL A   1      34.336  21.765  26.959  1.00  0.00     0.043 A 
ATOM     22  C   UNL A   1      34.355  21.795  24.545  1.00  0.00     0.049 A 
ATOM     23  C   UNL A   1      34.950  21.463  25.760  1.00  0.00     0.123 A 
ATOM     24  F   UNL A   1      36.122  20.814  25.765  1.00  0.00    -0.207 F 
BRANCH  19  25
ATOM     25  O   UNL A   1      31.259  23.359  25.678  1.00  0.00    -0.496 OA
ATOM     26  C   UNL A   1      30.276  22.950  26.625  1.00  0.00     0.278 C 
ENDBRANCH  19  25
ENDBRANCH  16  18
ENDBRANCH  13  16
ENDBRANCH   7  12
ENDBRANCH   3   6
ENDBRANCH   1   2
BRANCH   1  27
ATOM     27  C   UNL A   1      32.247  27.851  27.111  1.00  0.00     0.023 C 
BRANCH  27  28
ATOM     28  C   UNL A   1      31.698  29.176  26.580  1.00  0.00     0.023 C 
BRANCH  28  29
ATOM     29  C   UNL A   1      32.738  30.219  26.182  1.00  0.00     0.116 C 
BRANCH  29  30
ATOM     30  N   UNL A   1      32.474  31.562  26.679  1.00  0.00    -0.352 N 
ATOM     31  C   UNL A   1      33.276  32.334  27.495  1.00  0.00     0.251 C 
ATOM     32  H   UNL A   1      31.622  31.968  26.400  1.00  0.00     0.163 HD
ATOM     33  O   UNL A   1      32.910  33.434  27.884  1.00  0.00    -0.269 OA
BRANCH  31  34
ATOM     34  C   UNL A   1      34.570  31.775  27.940  1.00  0.00     0.039 A 
ATOM     35  C   UNL A   1      35.684  32.614  27.997  1.00  0.00     0.014 A 
ATOM     36  C   UNL A   1      34.648  30.460  28.406  1.00  0.00     0.014 A 
ATOM     37  C   UNL A   1      36.851  32.165  28.619  1.00  0.00     0.010 A 
ATOM     38  C   UNL A   1      35.782  30.043  29.096  1.00  0.00     0.010 A 
ATOM     39  C   UNL A   1      36.889  30.897  29.225  1.00  0.00    -0.014 A 
BRANCH  39  40
ATOM     40  C   UNL A   1      38.065  30.450  30.017  1.00  0.00     0.031 A 
ATOM     41  C   UNL A   1      39.051  29.489  29.416  1.00  0.00     0.074 A 
ATOM     42  C   UNL A   1      38.206  30.852  31.296  1.00  0.00     0.049 A 
ATOM     43  N   UNL A   1      40.077  28.898  29.977  1.00  0.00    -0.248 NA
ATOM     44  C   UNL A   1      38.847  29.121  28.005  1.00  0.00     0.031 C 
ATOM     45  C   UNL A   1      37.297  31.752  32.009  1.00  0.00     0.029 A 
ATOM     46  N   UNL A   1      39.170  30.553  32.229  1.00  0.00    -0.354 N 
ATOM     47  C   UNL A   1      40.625  28.084  28.996  1.00  0.00     0.074 A 
ATOM     48  C   UNL A   1      39.793  28.212  27.820  1.00  0.00     0.031 C 
ATOM     49  C   UNL A   1      37.766  31.961  33.250  1.00  0.00     0.029 A 
ATOM     50  C   UNL A   1      38.982  31.178  33.439  1.00  0.00     0.049 A 
ATOM     51  H   UNL A   1      39.924  29.947  32.047  1.00  0.00     0.167 HD
ATOM     52  C   UNL A   1      41.741  27.321  29.061  1.00  0.00     0.037 A 
ATOM     53  C   UNL A   1      39.709  31.121  34.572  1.00  0.00     0.037 A 
ATOM     54  C   UNL A   1      42.593  27.226  30.214  1.00  0.00     0.049 A 
ATOM     55  C   UNL A   1      40.940  30.255  34.616  1.00  0.00     0.074 A 
ATOM     56  C   UNL A   1      43.765  26.503  30.360  1.00  0.00     0.029 A 
ATOM     57  N   UNL A   1      42.375  27.884  31.414  1.00  0.00    -0.354 N 
ATOM     58  N   UNL A   1      41.463  29.516  33.671  1.00  0.00    -0.248 NA
ATOM     59  C   UNL A   1      41.680  30.217  35.886  1.00  0.00     0.031 C 
ATOM     60  C   UNL A   1      44.243  26.705  31.657  1.00  0.00     0.029 A 
ATOM     61  C   UNL A   1      43.390  27.582  32.306  1.00  0.00     0.049 A 
ATOM     62  H   UNL A   1      41.613  28.478  31.603  1.00  0.00     0.167 HD
ATOM     63  C   UNL A   1      42.608  28.951  34.217  1.00  0.00     0.074 A 
ATOM     64  C   UNL A   1      42.709  29.440  35.575  1.00  0.00     0.031 C 
ATOM     65  C   UNL A   1      43.493  28.102  33.644  1.00  0.00     0.037 A 
BRANCH  52  66
ATOM     66  C   UNL A   1      42.135  26.552  27.837  1.00  0.00     0.064 A 
ATOM     67  C   UNL A   1      41.601  25.278  27.590  1.00  0.00     0.173 A 
ATOM     68  C   UNL A   1      43.111  27.040  26.957  1.00  0.00     0.173 A 
ATOM     69  F   UNL A   1      40.668  24.765  28.406  1.00  0.00    -0.203 F 
ATOM     70  C   UNL A   1      42.047  24.513  26.516  1.00  0.00     0.198 A 
ATOM     71  C   UNL A   1      43.536  26.284  25.869  1.00  0.00     0.198 A 
ATOM     72  F   UNL A   1      43.640  28.258  27.145  1.00  0.00    -0.203 F 
ATOM     73  F   UNL A   1      41.551  23.285  26.318  1.00  0.00    -0.200 F 
ATOM     74  C   UNL A   1      43.013  25.017  25.656  1.00  0.00     0.200 A 
ATOM     75  F   UNL A   1      44.454  26.780  25.028  1.00  0.00    -0.200 F 
ATOM     76  F   UNL A   1      43.441  24.280  24.621  1.00  0.00    -0.200 F 
ENDBRANCH  52  66
BRANCH  53  77
ATOM     77  C   UNL A   1      39.319  31.936  35.753  1.00  0.00     0.064 A 
ATOM     78  C   UNL A   1      39.859  33.209  35.981  1.00  0.00     0.173 A 
ATOM     79  C   UNL A   1      38.374  31.454  36.671  1.00  0.00     0.173 A 
ATOM     80  F   UNL A   1      40.768  33.716  35.134  1.00  0.00    -0.203 F 
ATOM     81  C   UNL A   1      39.475  33.966  37.087  1.00  0.00     0.198 A 
ATOM     82  C   UNL A   1      37.970  32.223  37.761  1.00  0.00     0.198 A 
ATOM     83  F   UNL A   1      37.812  30.252  36.483  1.00  0.00    -0.203 F 
ATOM     84  F   UNL A   1      40.021  35.172  37.292  1.00  0.00    -0.200 F 
ATOM     85  C   UNL A   1      38.525  33.477  37.970  1.00  0.00     0.200 A 
ATOM     86  F   UNL A   1      37.032  31.756  38.596  1.00  0.00    -0.200 F 
ATOM     87  F   UNL A   1      38.137  34.216  39.018  1.00  0.00    -0.200 F 
ENDBRANCH  53  77
BRANCH  65  88
ATOM     88  C   UNL A   1      44.677  27.673  34.457  1.00  0.00     0.064 A 
ATOM     89  C   UNL A   1      44.609  26.518  35.249  1.00  0.00     0.173 A 
ATOM     90  C   UNL A   1      45.841  28.450  34.520  1.00  0.00     0.173 A 
ATOM     91  F   UNL A   1      43.512  25.746  35.229  1.00  0.00    -0.203 F 
ATOM     92  C   UNL A   1      45.660  26.163  36.089  1.00  0.00     0.198 A 
ATOM     93  C   UNL A   1      46.902  28.080  35.343  1.00  0.00     0.198 A 
ATOM     94  F   UNL A   1      45.956  29.557  33.772  1.00  0.00    -0.203 F 
ATOM     95  F   UNL A   1      45.561  25.075  36.864  1.00  0.00    -0.200 F 
ATOM     96  C   UNL A   1      46.807  26.944  36.134  1.00  0.00     0.200 A 
ATOM     97  F   UNL A   1      48.017  28.822  35.370  1.00  0.00    -0.200 F 
ATOM     98  F   UNL A   1      47.821  26.601  36.939  1.00  0.00    -0.200 F 
ENDBRANCH  65  88
ENDBRANCH  39  40
ENDBRANCH  31  34
ENDBRANCH  29  30
ENDBRANCH  28  29
ENDBRANCH  27  28
ENDBRANCH   1  27
TORSDOF 15
ENDMDL
