MODEL 1
REMARK VINA RESULT:     -16.0      0.000      0.000
REMARK SMILES C[C@H]1Oc2ccccc2C=C1/C=C\C(=O)N[C@H](C(=O)NCCCCNC(=O)c1ccc(-c2c3nc(c(-c4c(F)c(F)c(F)c(F)c4F)c4ccc([nH]4)c(-c4c(F)c(F)c(F)c(F)c4F)c4nc(c(-c5c(F)c(F)c(F)c(F)c5F)c5ccc2[nH]5)C=C4)C=C3)cc1)c1ccccc1
REMARK SMILES IDX 22 1 21 2 20 3 18 4 19 5 17 7 16 8 14 9 15 10 13 12 12 13
REMARK SMILES IDX 11 14 1 15 2 16 3 17 4 18 10 19 5 20 9 21 6 22 8 23 7 24
REMARK SMILES IDX 91 25 92 26 96 27 93 28 95 29 94 30 23 31 24 32 25 33 26 34
REMARK SMILES IDX 27 36 28 37 29 38 90 39 30 40 89 41 31 42 32 43 33 44 83 45
REMARK SMILES IDX 34 46 88 47 82 48 84 49 35 50 87 51 81 52 80 53 36 55 68 56
REMARK SMILES IDX 48 57 67 58 49 59 52 60 66 61 85 62 50 63 51 64 65 66 86 67
REMARK SMILES IDX 53 68 37 69 38 70 46 71 39 72 40 73 44 74 47 75 41 76 42 77
REMARK SMILES IDX 45 78 43 79 69 80 70 81 78 82 71 83 72 84 76 85 79 86 73 87
REMARK SMILES IDX 74 88 77 89 75 90 54 91 55 92 63 93 56 94 57 95 61 96 64 97
REMARK SMILES IDX 58 98 59 99 62 100 60 101
REMARK H PARENT 20 6 16 11 25 35 84 54 52 65
REMARK Flexibility Score: inf
ROOT
ATOM      1  C   UNL A   1      35.080  30.785  27.641  1.00  0.00     0.023 C 
ENDROOT
BRANCH   1   2
ATOM      2  C   UNL A   1      33.463  29.942  26.767  1.00  0.00     0.116 C 
BRANCH   2   3
ATOM      3  N   UNL A   1      33.392  29.787  24.905  1.00  0.00    -0.354 N 
ATOM      4  C   UNL A   1      33.370  28.658  23.808  1.00  0.00     0.247 C 
ATOM      5  O   UNL A   1      34.328  28.593  23.026  1.00  0.00    -0.272 OA
ATOM      6  H   UNL A   1      33.357  30.677  24.485  1.00  0.00     0.163 HD
BRANCH   4   7
ATOM      7  C   UNL A   1      32.207  27.536  23.797  1.00  0.00     0.202 C 
BRANCH   7   8
ATOM      8  N   UNL A   1      32.472  26.931  25.062  1.00  0.00    -0.337 N 
ATOM      9  C   UNL A   1      33.342  25.880  25.083  1.00  0.00     0.244 C 
ATOM     10  O   UNL A   1      33.846  25.457  26.110  1.00  0.00    -0.270 OA
ATOM     11  H   UNL A   1      32.045  27.259  25.887  1.00  0.00     0.164 HD
BRANCH   9  12
ATOM     12  C   UNL A   1      33.542  25.263  23.712  1.00  0.00     0.071 C 
ATOM     13  C   UNL A   1      33.174  24.045  23.171  1.00  0.00     0.013 C 
BRANCH  13  14
ATOM     14  C   UNL A   1      31.820  22.874  23.111  1.00  0.00    -0.007 C 
ATOM     15  C   UNL A   1      30.879  23.294  25.775  1.00  0.00     0.058 C 
ATOM     16  C   UNL A   1      32.061  22.707  24.988  1.00  0.00     0.200 C 
ATOM     17  O   UNL A   1      32.653  21.265  25.589  1.00  0.00    -0.485 OA
ATOM     18  C   UNL A   1      32.786  19.885  24.805  1.00  0.00     0.127 A 
ATOM     19  C   UNL A   1      31.747  21.366  22.210  1.00  0.00     0.019 C 
ATOM     20  C   UNL A   1      32.850  18.891  25.769  1.00  0.00     0.047 A 
ATOM     21  C   UNL A   1      32.425  19.708  23.126  1.00  0.00     0.017 A 
ATOM     22  C   UNL A   1      32.636  17.625  25.284  1.00  0.00     0.004 A 
ATOM     23  C   UNL A   1      32.542  18.368  22.801  1.00  0.00     0.012 A 
ATOM     24  C   UNL A   1      32.561  17.378  23.876  1.00  0.00     0.001 A 
ENDBRANCH  13  14
ENDBRANCH   9  12
ENDBRANCH   7   8
BRANCH   7  25
ATOM     25  C   UNL A   1      30.731  27.367  23.297  1.00  0.00    -0.016 A 
ATOM     26  C   UNL A   1      29.902  26.343  23.852  1.00  0.00     0.006 A 
ATOM     27  C   UNL A   1      30.027  28.486  22.794  1.00  0.00     0.006 A 
ATOM     28  C   UNL A   1      28.493  26.469  23.947  1.00  0.00     0.000 A 
ATOM     29  C   UNL A   1      28.621  28.606  22.881  1.00  0.00     0.000 A 
ATOM     30  C   UNL A   1      27.854  27.608  23.470  1.00  0.00     0.000 A 
ENDBRANCH   7  25
ENDBRANCH   4   7
ENDBRANCH   2   3
ENDBRANCH   1   2
BRANCH   1  31
ATOM     31  C   UNL A   1      34.899  32.911  28.222  1.00  0.00     0.023 C 
BRANCH  31  32
ATOM     32  C   UNL A   1      33.257  33.755  28.690  1.00  0.00     0.116 C 
BRANCH  32  33
ATOM     33  N   UNL A   1      33.145  35.214  29.270  1.00  0.00    -0.352 N 
ATOM     34  C   UNL A   1      33.105  35.697  30.574  1.00  0.00     0.251 C 
ATOM     35  H   UNL A   1      33.095  35.916  28.581  1.00  0.00     0.163 HD
ATOM     36  O   UNL A   1      32.558  36.736  30.914  1.00  0.00    -0.269 OA
BRANCH  34  37
ATOM     37  C   UNL A   1      33.897  34.917  31.503  1.00  0.00     0.039 A 
ATOM     38  C   UNL A   1      35.235  35.231  31.334  1.00  0.00     0.014 A 
ATOM     39  C   UNL A   1      33.441  33.819  32.236  1.00  0.00     0.014 A 
ATOM     40  C   UNL A   1      36.132  34.245  31.565  1.00  0.00     0.010 A 
ATOM     41  C   UNL A   1      34.399  32.928  32.700  1.00  0.00     0.010 A 
ATOM     42  C   UNL A   1      35.733  33.133  32.319  1.00  0.00    -0.014 A 
BRANCH  42  43
ATOM     43  C   UNL A   1      36.855  32.345  32.819  1.00  0.00     0.031 A 
ATOM     44  C   UNL A   1      37.568  31.388  31.941  1.00  0.00     0.074 A 
ATOM     45  C   UNL A   1      37.318  32.752  34.016  1.00  0.00     0.049 A 
ATOM     46  N   UNL A   1      38.683  30.758  32.185  1.00  0.00    -0.248 NA
ATOM     47  C   UNL A   1      36.969  31.088  30.631  1.00  0.00     0.031 C 
ATOM     48  C   UNL A   1      36.667  33.769  34.861  1.00  0.00     0.029 A 
ATOM     49  N   UNL A   1      38.474  32.468  34.672  1.00  0.00    -0.354 N 
ATOM     50  C   UNL A   1      38.910  29.962  31.078  1.00  0.00     0.074 A 
ATOM     51  C   UNL A   1      37.814  30.179  30.158  1.00  0.00     0.031 C 
ATOM     52  C   UNL A   1      37.491  34.107  35.853  1.00  0.00     0.029 A 
ATOM     53  C   UNL A   1      38.641  33.221  35.804  1.00  0.00     0.049 A 
ATOM     54  H   UNL A   1      39.123  31.793  34.366  1.00  0.00     0.167 HD
ATOM     55  C   UNL A   1      39.953  29.124  30.886  1.00  0.00     0.037 A 
ATOM     56  C   UNL A   1      39.601  33.163  36.737  1.00  0.00     0.037 A 
ATOM     57  C   UNL A   1      41.020  28.963  31.843  1.00  0.00     0.049 A 
ATOM     58  C   UNL A   1      40.693  32.170  36.523  1.00  0.00     0.074 A 
ATOM     59  C   UNL A   1      42.129  28.144  31.764  1.00  0.00     0.029 A 
ATOM     60  N   UNL A   1      41.104  29.635  33.059  1.00  0.00    -0.354 N 
ATOM     61  N   UNL A   1      40.902  31.393  35.487  1.00  0.00    -0.248 NA
ATOM     62  C   UNL A   1      41.669  32.027  37.602  1.00  0.00     0.031 C 
ATOM     63  C   UNL A   1      42.844  28.264  32.959  1.00  0.00     0.029 A 
ATOM     64  C   UNL A   1      42.226  29.216  33.756  1.00  0.00     0.049 A 
ATOM     65  H   UNL A   1      40.461  30.308  33.378  1.00  0.00     0.167 HD
ATOM     66  C   UNL A   1      42.036  30.661  35.785  1.00  0.00     0.074 A 
ATOM     67  C   UNL A   1      42.488  31.120  37.087  1.00  0.00     0.031 C 
ATOM     68  C   UNL A   1      42.641  29.692  35.056  1.00  0.00     0.037 A 
BRANCH  55  69
ATOM     69  C   UNL A   1      39.972  28.291  29.639  1.00  0.00     0.064 A 
ATOM     70  C   UNL A   1      40.633  28.704  28.474  1.00  0.00     0.173 A 
ATOM     71  C   UNL A   1      39.370  27.022  29.636  1.00  0.00     0.173 A 
ATOM     72  F   UNL A   1      41.207  29.915  28.416  1.00  0.00    -0.203 F 
ATOM     73  C   UNL A   1      40.689  27.880  27.352  1.00  0.00     0.198 A 
ATOM     74  C   UNL A   1      39.456  26.189  28.524  1.00  0.00     0.198 A 
ATOM     75  F   UNL A   1      38.718  26.579  30.721  1.00  0.00    -0.203 F 
ATOM     76  F   UNL A   1      41.299  28.309  26.238  1.00  0.00    -0.200 F 
ATOM     77  C   UNL A   1      40.113  26.619  27.383  1.00  0.00     0.200 A 
ATOM     78  F   UNL A   1      38.910  24.965  28.563  1.00  0.00    -0.200 F 
ATOM     79  F   UNL A   1      40.187  25.820  26.309  1.00  0.00    -0.200 F 
ENDBRANCH  55  69
BRANCH  56  80
ATOM     80  C   UNL A   1      39.493  34.028  37.934  1.00  0.00     0.064 A 
ATOM     81  C   UNL A   1      39.951  35.348  37.914  1.00  0.00     0.173 A 
ATOM     82  C   UNL A   1      38.831  33.578  39.091  1.00  0.00     0.173 A 
ATOM     83  F   UNL A   1      40.587  35.820  36.832  1.00  0.00    -0.203 F 
ATOM     84  C   UNL A   1      39.751  36.189  39.006  1.00  0.00     0.198 A 
ATOM     85  C   UNL A   1      38.596  34.432  40.164  1.00  0.00     0.198 A 
ATOM     86  F   UNL A   1      38.353  32.326  39.151  1.00  0.00    -0.203 F 
ATOM     87  F   UNL A   1      40.216  37.445  38.973  1.00  0.00    -0.200 F 
ATOM     88  C   UNL A   1      39.062  35.735  40.123  1.00  0.00     0.200 A 
ATOM     89  F   UNL A   1      37.897  33.998  41.222  1.00  0.00    -0.200 F 
ATOM     90  F   UNL A   1      38.844  36.557  41.158  1.00  0.00    -0.200 F 
ENDBRANCH  56  80
BRANCH  68  91
ATOM     91  C   UNL A   1      43.866  29.072  35.656  1.00  0.00     0.064 A 
ATOM     92  C   UNL A   1      43.787  27.929  36.463  1.00  0.00     0.173 A 
ATOM     93  C   UNL A   1      45.137  29.596  35.374  1.00  0.00     0.173 A 
ATOM     94  F   UNL A   1      42.592  27.405  36.777  1.00  0.00    -0.203 F 
ATOM     95  C   UNL A   1      44.935  27.345  36.984  1.00  0.00     0.198 A 
ATOM     96  C   UNL A   1      46.284  28.986  35.863  1.00  0.00     0.198 A 
ATOM     97  F   UNL A   1      45.263  30.687  34.602  1.00  0.00    -0.203 F 
ATOM     98  F   UNL A   1      44.834  26.283  37.797  1.00  0.00    -0.200 F 
ATOM     99  C   UNL A   1      46.183  27.864  36.674  1.00  0.00     0.200 A 
ATOM    100  F   UNL A   1      47.490  29.477  35.546  1.00  0.00    -0.200 F 
ATOM    101  F   UNL A   1      47.290  27.288  37.160  1.00  0.00    -0.200 F 
ENDBRANCH  68  91
ENDBRANCH  42  43
ENDBRANCH  34  37
ENDBRANCH  32  33
ENDBRANCH  31  32
ENDBRANCH   1  31
TORSDOF 15
ENDMDL
MODEL 2
REMARK VINA RESULT:     -15.9      1.629      7.326
REMARK SMILES C[C@H]1Oc2ccccc2C=C1/C=C\C(=O)N[C@H](C(=O)NCCCCNC(=O)c1ccc(-c2c3nc(c(-c4c(F)c(F)c(F)c(F)c4F)c4ccc([nH]4)c(-c4c(F)c(F)c(F)c(F)c4F)c4nc(c(-c5c(F)c(F)c(F)c(F)c5F)c5ccc2[nH]5)C=C4)C=C3)cc1)c1ccccc1
REMARK SMILES IDX 22 1 21 2 20 3 18 4 19 5 17 7 16 8 14 9 15 10 13 12 12 13
REMARK SMILES IDX 11 14 1 15 2 16 3 17 4 18 10 19 5 20 9 21 6 22 8 23 7 24
REMARK SMILES IDX 91 25 92 26 96 27 93 28 95 29 94 30 23 31 24 32 25 33 26 34
REMARK SMILES IDX 27 36 28 37 29 38 90 39 30 40 89 41 31 42 32 43 33 44 83 45
REMARK SMILES IDX 34 46 88 47 82 48 84 49 35 50 87 51 81 52 80 53 36 55 68 56
REMARK SMILES IDX 48 57 67 58 49 59 52 60 66 61 85 62 50 63 51 64 65 66 86 67
REMARK SMILES IDX 53 68 37 69 38 70 46 71 39 72 40 73 44 74 47 75 41 76 42 77
REMARK SMILES IDX 45 78 43 79 69 80 70 81 78 82 71 83 72 84 76 85 79 86 73 87
REMARK SMILES IDX 74 88 77 89 75 90 54 91 55 92 63 93 56 94 57 95 61 96 64 97
REMARK SMILES IDX 58 98 59 99 62 100 60 101
REMARK H PARENT 20 6 16 11 25 35 84 54 52 65
REMARK Flexibility Score: inf
ROOT
ATOM      1  C   UNL A   1      34.968  29.241  27.546  1.00  0.00     0.023 C 
ENDROOT
BRANCH   1   2
ATOM      2  C   UNL A   1      33.467  28.287  26.585  1.00  0.00     0.116 C 
BRANCH   2   3
ATOM      3  N   UNL A   1      33.376  28.346  24.718  1.00  0.00    -0.354 N 
ATOM      4  C   UNL A   1      32.581  27.656  23.547  1.00  0.00     0.247 C 
ATOM      5  O   UNL A   1      33.220  26.962  22.745  1.00  0.00    -0.272 OA
ATOM      6  H   UNL A   1      34.014  29.005  24.362  1.00  0.00     0.163 HD
BRANCH   4   7
ATOM      7  C   UNL A   1      30.968  27.737  23.480  1.00  0.00     0.202 C 
BRANCH   7   8
ATOM      8  N   UNL A   1      30.679  27.514  24.860  1.00  0.00    -0.337 N 
ATOM      9  C   UNL A   1      30.334  26.246  25.229  1.00  0.00     0.244 C 
ATOM     10  O   UNL A   1      30.323  25.875  26.391  1.00  0.00    -0.270 OA
ATOM     11  H   UNL A   1      30.727  28.244  25.518  1.00  0.00     0.164 HD
BRANCH   9  12
ATOM     12  C   UNL A   1      29.899  25.395  24.053  1.00  0.00     0.071 C 
ATOM     13  C   UNL A   1      30.521  24.377  23.353  1.00  0.00     0.013 C 
BRANCH  13  14
ATOM     14  C   UNL A   1      31.535  22.919  23.581  1.00  0.00    -0.007 C 
ATOM     15  C   UNL A   1      31.105  22.630  26.390  1.00  0.00     0.058 C 
ATOM     16  C   UNL A   1      31.789  23.539  25.358  1.00  0.00     0.200 C 
ATOM     17  O   UNL A   1      33.306  24.081  25.802  1.00  0.00    -0.485 OA
ATOM     18  C   UNL A   1      34.666  23.884  24.997  1.00  0.00     0.127 A 
ATOM     19  C   UNL A   1      32.996  22.482  22.704  1.00  0.00     0.019 C 
ATOM     20  C   UNL A   1      35.692  24.042  25.915  1.00  0.00     0.047 A 
ATOM     21  C   UNL A   1      34.747  23.150  23.435  1.00  0.00     0.017 A 
ATOM     22  C   UNL A   1      36.911  23.586  25.477  1.00  0.00     0.004 A 
ATOM     23  C   UNL A   1      36.080  23.042  23.081  1.00  0.00     0.012 A 
ATOM     24  C   UNL A   1      37.102  23.181  24.117  1.00  0.00     0.001 A 
ENDBRANCH  13  14
ENDBRANCH   9  12
ENDBRANCH   7   8
BRANCH   7  25
ATOM     25  C   UNL A   1      29.854  28.520  22.705  1.00  0.00    -0.016 A 
ATOM     26  C   UNL A   1      28.492  28.433  23.131  1.00  0.00     0.006 A 
ATOM     27  C   UNL A   1      30.181  29.715  22.021  1.00  0.00     0.006 A 
ATOM     28  C   UNL A   1      27.562  29.486  22.938  1.00  0.00     0.000 A 
ATOM     29  C   UNL A   1      29.250  30.760  21.822  1.00  0.00     0.000 A 
ATOM     30  C   UNL A   1      27.947  30.655  22.293  1.00  0.00     0.000 A 
ENDBRANCH   7  25
ENDBRANCH   4   7
ENDBRANCH   2   3
ENDBRANCH   1   2
BRANCH   1  31
ATOM     31  C   UNL A   1      34.830  31.446  27.663  1.00  0.00     0.023 C 
BRANCH  31  32
ATOM     32  C   UNL A   1      33.191  32.415  27.668  1.00  0.00     0.116 C 
BRANCH  32  33
ATOM     33  N   UNL A   1      33.091  33.984  27.722  1.00  0.00    -0.352 N 
ATOM     34  C   UNL A   1      33.213  34.889  28.771  1.00  0.00     0.251 C 
ATOM     35  H   UNL A   1      32.907  34.404  26.850  1.00  0.00     0.163 HD
ATOM     36  O   UNL A   1      32.670  35.983  28.812  1.00  0.00    -0.269 OA
BRANCH  34  37
ATOM     37  C   UNL A   1      34.168  34.478  29.779  1.00  0.00     0.039 A 
ATOM     38  C   UNL A   1      35.439  34.861  29.385  1.00  0.00     0.014 A 
ATOM     39  C   UNL A   1      33.912  33.587  30.824  1.00  0.00     0.014 A 
ATOM     40  C   UNL A   1      36.466  34.070  29.768  1.00  0.00     0.010 A 
ATOM     41  C   UNL A   1      35.008  32.957  31.398  1.00  0.00     0.010 A 
ATOM     42  C   UNL A   1      36.271  33.177  30.831  1.00  0.00    -0.014 A 
BRANCH  42  43
ATOM     43  C   UNL A   1      37.518  32.671  31.394  1.00  0.00     0.031 A 
ATOM     44  C   UNL A   1      37.924  33.008  32.778  1.00  0.00     0.074 A 
ATOM     45  C   UNL A   1      38.096  31.702  30.659  1.00  0.00     0.049 A 
ATOM     46  N   UNL A   1      38.901  32.494  33.472  1.00  0.00    -0.248 NA
ATOM     47  C   UNL A   1      37.154  34.047  33.480  1.00  0.00     0.031 C 
ATOM     48  C   UNL A   1      37.648  31.294  29.316  1.00  0.00     0.029 A 
ATOM     49  N   UNL A   1      39.082  30.818  30.960  1.00  0.00    -0.354 N 
ATOM     50  C   UNL A   1      38.890  33.164  34.682  1.00  0.00     0.074 A 
ATOM     51  C   UNL A   1      37.813  34.130  34.631  1.00  0.00     0.031 C 
ATOM     52  C   UNL A   1      38.274  30.169  28.968  1.00  0.00     0.029 A 
ATOM     53  C   UNL A   1      39.272  29.878  29.982  1.00  0.00     0.049 A 
ATOM     54  H   UNL A   1      39.606  30.848  31.794  1.00  0.00     0.167 HD
ATOM     55  C   UNL A   1      39.731  32.968  35.721  1.00  0.00     0.037 A 
ATOM     56  C   UNL A   1      40.195  28.912  29.890  1.00  0.00     0.037 A 
ATOM     57  C   UNL A   1      40.780  31.977  35.709  1.00  0.00     0.049 A 
ATOM     58  C   UNL A   1      41.153  28.780  31.026  1.00  0.00     0.074 A 
ATOM     59  C   UNL A   1      41.697  31.686  36.699  1.00  0.00     0.029 A 
ATOM     60  N   UNL A   1      41.050  31.120  34.646  1.00  0.00    -0.354 N 
ATOM     61  N   UNL A   1      41.164  29.428  32.166  1.00  0.00    -0.248 NA
ATOM     62  C   UNL A   1      42.230  27.807  30.864  1.00  0.00     0.031 C 
ATOM     63  C   UNL A   1      42.567  30.707  36.210  1.00  0.00     0.029 A 
ATOM     64  C   UNL A   1      42.148  30.328  34.943  1.00  0.00     0.049 A 
ATOM     65  H   UNL A   1      40.538  31.082  33.806  1.00  0.00     0.167 HD
ATOM     66  C   UNL A   1      42.254  28.945  32.866  1.00  0.00     0.074 A 
ATOM     67  C   UNL A   1      42.853  27.920  32.029  1.00  0.00     0.031 C 
ATOM     68  C   UNL A   1      42.721  29.321  34.081  1.00  0.00     0.037 A 
BRANCH  55  69
ATOM     69  C   UNL A   1      39.594  33.857  36.921  1.00  0.00     0.064 A 
ATOM     70  C   UNL A   1      40.134  35.150  36.959  1.00  0.00     0.173 A 
ATOM     71  C   UNL A   1      38.846  33.426  38.029  1.00  0.00     0.173 A 
ATOM     72  F   UNL A   1      40.874  35.605  35.937  1.00  0.00    -0.203 F 
ATOM     73  C   UNL A   1      39.934  35.977  38.062  1.00  0.00     0.198 A 
ATOM     74  C   UNL A   1      38.622  34.267  39.115  1.00  0.00     0.198 A 
ATOM     75  F   UNL A   1      38.312  32.196  38.048  1.00  0.00    -0.203 F 
ATOM     76  F   UNL A   1      40.488  37.197  38.091  1.00  0.00    -0.200 F 
ATOM     77  C   UNL A   1      39.167  35.540  39.132  1.00  0.00     0.200 A 
ATOM     78  F   UNL A   1      37.868  33.846  40.141  1.00  0.00    -0.200 F 
ATOM     79  F   UNL A   1      38.959  36.346  40.183  1.00  0.00    -0.200 F 
ENDBRANCH  55  69
BRANCH  56  80
ATOM     80  C   UNL A   1      40.250  28.084  28.663  1.00  0.00     0.064 A 
ATOM     81  C   UNL A   1      41.003  28.485  27.555  1.00  0.00     0.173 A 
ATOM     82  C   UNL A   1      39.632  26.821  28.617  1.00  0.00     0.173 A 
ATOM     83  F   UNL A   1      41.610  29.680  27.556  1.00  0.00    -0.203 F 
ATOM     84  C   UNL A   1      41.139  27.654  26.446  1.00  0.00     0.198 A 
ATOM     85  C   UNL A   1      39.804  25.976  27.525  1.00  0.00     0.198 A 
ATOM     86  F   UNL A   1      38.917  26.381  29.663  1.00  0.00    -0.203 F 
ATOM     87  F   UNL A   1      41.848  28.067  25.388  1.00  0.00    -0.200 F 
ATOM     88  C   UNL A   1      40.551  26.395  26.438  1.00  0.00     0.200 A 
ATOM     89  F   UNL A   1      39.266  24.748  27.541  1.00  0.00    -0.200 F 
ATOM     90  F   UNL A   1      40.710  25.586  25.382  1.00  0.00    -0.200 F 
ENDBRANCH  56  80
BRANCH  68  91
ATOM     91  C   UNL A   1      43.941  28.606  34.576  1.00  0.00     0.064 A 
ATOM     92  C   UNL A   1      43.845  27.393  35.273  1.00  0.00     0.173 A 
ATOM     93  C   UNL A   1      45.221  29.112  34.303  1.00  0.00     0.173 A 
ATOM     94  F   UNL A   1      42.643  26.881  35.576  1.00  0.00    -0.203 F 
ATOM     95  C   UNL A   1      44.988  26.723  35.697  1.00  0.00     0.198 A 
ATOM     96  C   UNL A   1      46.360  28.420  34.692  1.00  0.00     0.198 A 
ATOM     97  F   UNL A   1      45.363  30.267  33.635  1.00  0.00    -0.203 F 
ATOM     98  F   UNL A   1      44.874  25.592  36.407  1.00  0.00    -0.200 F 
ATOM     99  C   UNL A   1      46.243  27.229  35.394  1.00  0.00     0.200 A 
ATOM    100  F   UNL A   1      47.573  28.899  34.382  1.00  0.00    -0.200 F 
ATOM    101  F   UNL A   1      47.343  26.572  35.785  1.00  0.00    -0.200 F 
ENDBRANCH  68  91
ENDBRANCH  42  43
ENDBRANCH  34  37
ENDBRANCH  32  33
ENDBRANCH  31  32
ENDBRANCH   1  31
TORSDOF 15
ENDMDL
MODEL 3
REMARK VINA RESULT:     -15.3      1.226      2.343
REMARK SMILES C[C@H]1Oc2ccccc2C=C1/C=C\C(=O)N[C@H](C(=O)NCCCCNC(=O)c1ccc(-c2c3nc(c(-c4c(F)c(F)c(F)c(F)c4F)c4ccc([nH]4)c(-c4c(F)c(F)c(F)c(F)c4F)c4nc(c(-c5c(F)c(F)c(F)c(F)c5F)c5ccc2[nH]5)C=C4)C=C3)cc1)c1ccccc1
REMARK SMILES IDX 22 1 21 2 20 3 18 4 19 5 17 7 16 8 14 9 15 10 13 12 12 13
REMARK SMILES IDX 11 14 1 15 2 16 3 17 4 18 10 19 5 20 9 21 6 22 8 23 7 24
REMARK SMILES IDX 91 25 92 26 96 27 93 28 95 29 94 30 23 31 24 32 25 33 26 34
REMARK SMILES IDX 27 36 28 37 29 38 90 39 30 40 89 41 31 42 32 43 33 44 83 45
REMARK SMILES IDX 34 46 88 47 82 48 84 49 35 50 87 51 81 52 80 53 36 55 68 56
REMARK SMILES IDX 48 57 67 58 49 59 52 60 66 61 85 62 50 63 51 64 65 66 86 67
REMARK SMILES IDX 53 68 37 69 38 70 46 71 39 72 40 73 44 74 47 75 41 76 42 77
REMARK SMILES IDX 45 78 43 79 69 80 70 81 78 82 71 83 72 84 76 85 79 86 73 87
REMARK SMILES IDX 74 88 77 89 75 90 54 91 55 92 63 93 56 94 57 95 61 96 64 97
REMARK SMILES IDX 58 98 59 99 62 100 60 101
REMARK H PARENT 20 6 16 11 25 35 84 54 52 65
REMARK Flexibility Score: inf
ROOT
ATOM      1  C   UNL A   1      34.818  30.031  27.337  1.00  0.00     0.023 C 
ENDROOT
BRANCH   1   2
ATOM      2  C   UNL A   1      33.270  29.285  26.271  1.00  0.00     0.116 C 
BRANCH   2   3
ATOM      3  N   UNL A   1      33.197  29.564  24.424  1.00  0.00    -0.354 N 
ATOM      4  C   UNL A   1      32.663  28.835  23.134  1.00  0.00     0.247 C 
ATOM      5  O   UNL A   1      33.493  28.472  22.290  1.00  0.00    -0.272 OA
ATOM      6  H   UNL A   1      33.618  30.423  24.187  1.00  0.00     0.163 HD
BRANCH   4   7
ATOM      7  C   UNL A   1      31.101  28.450  22.988  1.00  0.00     0.202 C 
BRANCH   7   8
ATOM      8  N   UNL A   1      30.916  27.797  24.244  1.00  0.00    -0.337 N 
ATOM      9  C   UNL A   1      31.137  26.452  24.287  1.00  0.00     0.244 C 
ATOM     10  O   UNL A   1      31.270  25.836  25.332  1.00  0.00    -0.270 OA
ATOM     11  H   UNL A   1      30.640  28.298  25.045  1.00  0.00     0.164 HD
BRANCH   9  12
ATOM     12  C   UNL A   1      31.120  25.814  22.912  1.00  0.00     0.071 C 
ATOM     13  C   UNL A   1      32.077  25.129  22.185  1.00  0.00     0.013 C 
BRANCH  13  14
ATOM     14  C   UNL A   1      33.368  23.899  22.352  1.00  0.00    -0.007 C 
ATOM     15  C   UNL A   1      31.697  21.600  22.063  1.00  0.00     0.058 C 
ATOM     16  C   UNL A   1      32.005  22.758  23.024  1.00  0.00     0.200 C 
ATOM     17  O   UNL A   1      32.049  22.332  24.639  1.00  0.00    -0.485 OA
ATOM     18  C   UNL A   1      33.262  22.537  25.650  1.00  0.00     0.127 A 
ATOM     19  C   UNL A   1      34.829  24.004  23.325  1.00  0.00     0.019 C 
ATOM     20  C   UNL A   1      33.063  21.642  26.689  1.00  0.00     0.047 A 
ATOM     21  C   UNL A   1      34.720  23.362  25.229  1.00  0.00     0.017 A 
ATOM     22  C   UNL A   1      34.168  21.444  27.479  1.00  0.00     0.004 A 
ATOM     23  C   UNL A   1      35.593  23.262  26.298  1.00  0.00     0.012 A 
ATOM     24  C   UNL A   1      35.335  22.262  27.332  1.00  0.00     0.001 A 
ENDBRANCH  13  14
ENDBRANCH   9  12
ENDBRANCH   7   8
BRANCH   7  25
ATOM     25  C   UNL A   1      29.789  29.043  22.369  1.00  0.00    -0.016 A 
ATOM     26  C   UNL A   1      28.523  28.760  22.971  1.00  0.00     0.006 A 
ATOM     27  C   UNL A   1      29.839  30.261  21.651  1.00  0.00     0.006 A 
ATOM     28  C   UNL A   1      27.428  29.657  22.906  1.00  0.00     0.000 A 
ATOM     29  C   UNL A   1      28.743  31.152  21.580  1.00  0.00     0.000 A 
ATOM     30  C   UNL A   1      27.543  30.859  22.218  1.00  0.00     0.000 A 
ENDBRANCH   7  25
ENDBRANCH   4   7
ENDBRANCH   2   3
ENDBRANCH   1   2
BRANCH   1  31
ATOM     31  C   UNL A   1      34.793  32.207  27.736  1.00  0.00     0.023 C 
BRANCH  31  32
ATOM     32  C   UNL A   1      33.211  33.213  28.072  1.00  0.00     0.116 C 
BRANCH  32  33
ATOM     33  N   UNL A   1      33.195  34.751  28.407  1.00  0.00    -0.352 N 
ATOM     34  C   UNL A   1      33.248  35.441  29.613  1.00  0.00     0.251 C 
ATOM     35  H   UNL A   1      33.137  35.333  27.615  1.00  0.00     0.163 HD
ATOM     36  O   UNL A   1      32.766  36.549  29.802  1.00  0.00    -0.269 OA
BRANCH  34  37
ATOM     37  C   UNL A   1      34.056  34.784  30.620  1.00  0.00     0.039 A 
ATOM     38  C   UNL A   1      35.393  34.910  30.284  1.00  0.00     0.014 A 
ATOM     39  C   UNL A   1      33.578  33.912  31.601  1.00  0.00     0.014 A 
ATOM     40  C   UNL A   1      36.216  33.901  30.646  1.00  0.00     0.010 A 
ATOM     41  C   UNL A   1      34.494  33.035  32.165  1.00  0.00     0.010 A 
ATOM     42  C   UNL A   1      35.797  33.013  31.646  1.00  0.00    -0.014 A 
BRANCH  42  43
ATOM     43  C   UNL A   1      36.887  32.225  32.210  1.00  0.00     0.031 A 
ATOM     44  C   UNL A   1      37.619  31.233  31.388  1.00  0.00     0.074 A 
ATOM     45  C   UNL A   1      37.311  32.661  33.412  1.00  0.00     0.049 A 
ATOM     46  N   UNL A   1      38.715  30.596  31.693  1.00  0.00    -0.248 NA
ATOM     47  C   UNL A   1      37.065  30.903  30.066  1.00  0.00     0.031 C 
ATOM     48  C   UNL A   1      36.644  33.711  34.202  1.00  0.00     0.029 A 
ATOM     49  N   UNL A   1      38.437  32.382  34.119  1.00  0.00    -0.354 N 
ATOM     50  C   UNL A   1      38.971  29.764  30.618  1.00  0.00     0.074 A 
ATOM     51  C   UNL A   1      37.914  29.969  29.651  1.00  0.00     0.031 C 
ATOM     52  C   UNL A   1      37.435  34.068  35.214  1.00  0.00     0.029 A 
ATOM     53  C   UNL A   1      38.573  33.166  35.234  1.00  0.00     0.049 A 
ATOM     54  H   UNL A   1      39.087  31.689  33.857  1.00  0.00     0.167 HD
ATOM     55  C   UNL A   1      40.008  28.907  30.490  1.00  0.00     0.037 A 
ATOM     56  C   UNL A   1      39.496  33.122  36.203  1.00  0.00     0.037 A 
ATOM     57  C   UNL A   1      41.037  28.761  31.491  1.00  0.00     0.049 A 
ATOM     58  C   UNL A   1      40.582  32.109  36.060  1.00  0.00     0.074 A 
ATOM     59  C   UNL A   1      42.136  27.925  31.477  1.00  0.00     0.029 A 
ATOM     60  N   UNL A   1      41.085  29.468  32.689  1.00  0.00    -0.354 N 
ATOM     61  N   UNL A   1      40.818  31.299  35.056  1.00  0.00    -0.248 NA
ATOM     62  C   UNL A   1      41.514  31.985  37.179  1.00  0.00     0.031 C 
ATOM     63  C   UNL A   1      42.807  28.071  32.694  1.00  0.00     0.029 A 
ATOM     64  C   UNL A   1      42.174  29.054  33.440  1.00  0.00     0.049 A 
ATOM     65  H   UNL A   1      40.440  30.158  32.964  1.00  0.00     0.167 HD
ATOM     66  C   UNL A   1      41.929  30.561  35.417  1.00  0.00     0.074 A 
ATOM     67  C   UNL A   1      42.339  31.053  36.721  1.00  0.00     0.031 C 
ATOM     68  C   UNL A   1      42.547  29.563  34.740  1.00  0.00     0.037 A 
BRANCH  55  69
ATOM     69  C   UNL A   1      40.062  28.038  29.269  1.00  0.00     0.064 A 
ATOM     70  C   UNL A   1      40.794  28.395  28.129  1.00  0.00     0.173 A 
ATOM     71  C   UNL A   1      39.419  26.789  29.271  1.00  0.00     0.173 A 
ATOM     72  F   UNL A   1      41.410  29.585  28.066  1.00  0.00    -0.203 F 
ATOM     73  C   UNL A   1      40.878  27.537  27.034  1.00  0.00     0.198 A 
ATOM     74  C   UNL A   1      39.532  25.921  28.189  1.00  0.00     0.198 A 
ATOM     75  F   UNL A   1      38.700  26.399  30.334  1.00  0.00    -0.203 F 
ATOM     76  F   UNL A   1      41.556  27.914  25.942  1.00  0.00    -0.200 F 
ATOM     77  C   UNL A   1      40.260  26.296  27.071  1.00  0.00     0.200 A 
ATOM     78  F   UNL A   1      38.945  24.717  28.234  1.00  0.00    -0.200 F 
ATOM     79  F   UNL A   1      40.361  25.464  26.025  1.00  0.00    -0.200 F 
ENDBRANCH  55  69
BRANCH  56  80
ATOM     80  C   UNL A   1      39.357  34.024  37.370  1.00  0.00     0.064 A 
ATOM     81  C   UNL A   1      38.760  33.584  38.555  1.00  0.00     0.173 A 
ATOM     82  C   UNL A   1      39.917  35.314  37.355  1.00  0.00     0.173 A 
ATOM     83  F   UNL A   1      38.215  32.360  38.615  1.00  0.00    -0.203 F 
ATOM     84  C   UNL A   1      38.728  34.399  39.683  1.00  0.00     0.198 A 
ATOM     85  C   UNL A   1      39.921  36.110  38.496  1.00  0.00     0.198 A 
ATOM     86  F   UNL A   1      40.522  35.775  36.250  1.00  0.00    -0.203 F 
ATOM     87  F   UNL A   1      38.133  33.964  40.802  1.00  0.00    -0.200 F 
ATOM     88  C   UNL A   1      39.320  35.655  39.657  1.00  0.00     0.200 A 
ATOM     89  F   UNL A   1      40.528  37.305  38.474  1.00  0.00    -0.200 F 
ATOM     90  F   UNL A   1      39.315  36.423  40.755  1.00  0.00    -0.200 F 
ENDBRANCH  56  80
BRANCH  68  91
ATOM     91  C   UNL A   1      43.740  28.945  35.403  1.00  0.00     0.064 A 
ATOM     92  C   UNL A   1      45.037  29.420  35.164  1.00  0.00     0.173 A 
ATOM     93  C   UNL A   1      43.576  27.904  36.329  1.00  0.00     0.173 A 
ATOM     94  F   UNL A   1      45.245  30.399  34.270  1.00  0.00    -0.203 F 
ATOM     95  C   UNL A   1      46.131  28.859  35.813  1.00  0.00     0.198 A 
ATOM     96  C   UNL A   1      44.668  27.374  37.007  1.00  0.00     0.198 A 
ATOM     97  F   UNL A   1      42.353  27.420  36.595  1.00  0.00    -0.203 F 
ATOM     98  F   UNL A   1      47.368  29.292  35.532  1.00  0.00    -0.200 F 
ATOM     99  C   UNL A   1      45.945  27.847  36.743  1.00  0.00     0.200 A 
ATOM    100  F   UNL A   1      44.484  26.411  37.919  1.00  0.00    -0.200 F 
ATOM    101  F   UNL A   1      46.998  27.322  37.384  1.00  0.00    -0.200 F 
ENDBRANCH  68  91
ENDBRANCH  42  43
ENDBRANCH  34  37
ENDBRANCH  32  33
ENDBRANCH  31  32
ENDBRANCH   1  31
TORSDOF 15
ENDMDL
