MODEL 1
REMARK VINA RESULT:     -11.4      0.000      0.000
REMARK SMILES CCC(CC)(NC(=O)N(C)C1CC[NH2+]CC1)C(=O)NCCCCNC(=O)c1ccc(-c2c3nc(c(-c4c(F)c(F)c(F)c(F)c4F)c4ccc([nH]4)c(-c4c(F)c(F)c(F)c(F)c4F)c4nc(c(-c5c(F)c(F)c(F)c(F)c5F)c5ccc2[nH]5)C=C4)C=C3)cc1
REMARK SMILES IDX 21 1 20 2 19 3 17 4 18 5 3 7 2 8 1 9 4 10 5 11 6 12 7 13
REMARK SMILES IDX 8 15 9 16 10 17 11 18 12 19 16 20 13 21 15 22 14 23 22 26
REMARK SMILES IDX 23 27 24 28 25 29 26 31 27 32 28 33 89 34 29 35 88 36 30 37
REMARK SMILES IDX 31 38 32 39 82 40 33 41 87 42 81 43 83 44 34 45 86 46 80 47
REMARK SMILES IDX 79 48 35 50 67 51 47 52 66 53 48 54 51 55 65 56 84 57 49 58
REMARK SMILES IDX 50 59 64 61 85 62 52 63 36 64 37 65 45 66 38 67 39 68 43 69
REMARK SMILES IDX 46 70 40 71 41 72 44 73 42 74 68 75 69 76 77 77 70 78 71 79
REMARK SMILES IDX 75 80 78 81 72 82 73 83 76 84 74 85 53 86 54 87 62 88 55 89
REMARK SMILES IDX 56 90 60 91 63 92 57 93 58 94 61 95 59 96
REMARK H PARENT 19 6 6 14 14 24 14 25 24 30 83 49 51 60
REMARK Flexibility Score: inf
ROOT
ATOM      1  C   UNL A   1      31.673  30.585  26.640  1.00  0.00     0.023 C 
ENDROOT
BRANCH   1   2
ATOM      2  C   UNL A   1      31.651  30.081  25.200  1.00  0.00     0.116 C 
BRANCH   2   3
ATOM      3  N   UNL A   1      32.949  29.737  24.625  1.00  0.00    -0.354 N 
ATOM      4  C   UNL A   1      33.424  28.541  24.127  1.00  0.00     0.245 C 
ATOM      5  O   UNL A   1      34.414  28.608  23.394  1.00  0.00    -0.272 OA
ATOM      6  H   UNL A   1      33.592  30.482  24.587  1.00  0.00     0.163 HD
BRANCH   4   7
ATOM      7  C   UNL A   1      32.667  27.195  24.405  1.00  0.00     0.120 C 
BRANCH   7   8
ATOM      8  C   UNL A   1      31.136  27.062  24.115  1.00  0.00     0.035 C 
ATOM      9  C   UNL A   1      30.695  27.109  22.659  1.00  0.00     0.007 C 
ENDBRANCH   7   8
BRANCH   7  10
ATOM     10  C   UNL A   1      32.814  27.005  25.969  1.00  0.00     0.035 C 
ATOM     11  C   UNL A   1      31.553  26.712  26.772  1.00  0.00     0.007 C 
ENDBRANCH   7  10
BRANCH   7  12
ATOM     12  N   UNL A   1      33.391  26.177  23.585  1.00  0.00    -0.323 N 
ATOM     13  C   UNL A   1      33.658  24.842  23.632  1.00  0.00     0.318 C 
ATOM     14  H   UNL A   1      33.789  26.588  22.784  1.00  0.00     0.166 HD
ATOM     15  O   UNL A   1      34.416  24.474  22.729  1.00  0.00    -0.249 OA
BRANCH  13  16
ATOM     16  N   UNL A   1      33.096  23.953  24.527  1.00  0.00    -0.324 N 
ATOM     17  C   UNL A   1      31.702  23.530  24.479  1.00  0.00     0.149 C 
BRANCH  16  18
ATOM     18  C   UNL A   1      33.717  23.707  25.889  1.00  0.00     0.097 C 
ATOM     19  C   UNL A   1      35.253  23.636  26.042  1.00  0.00     0.086 C 
ATOM     20  C   UNL A   1      33.180  22.423  26.585  1.00  0.00     0.086 C 
ATOM     21  C   UNL A   1      35.857  22.319  25.575  1.00  0.00     0.262 C 
ATOM     22  C   UNL A   1      33.764  21.169  25.943  1.00  0.00     0.262 C 
ATOM     23  N   UNL A   1      35.210  21.134  26.138  1.00  0.00    -0.346 N 
ATOM     24  H   UNL A   1      35.408  21.093  27.138  1.00  0.00     0.346 HD
ATOM     25  H   UNL A   1      35.578  20.312  25.660  1.00  0.00     0.346 HD
ENDBRANCH  16  18
ENDBRANCH  13  16
ENDBRANCH   7  12
ENDBRANCH   4   7
ENDBRANCH   2   3
ENDBRANCH   1   2
BRANCH   1  26
ATOM     26  C   UNL A   1      31.492  32.090  26.819  1.00  0.00     0.023 C 
BRANCH  26  27
ATOM     27  C   UNL A   1      32.781  32.839  27.116  1.00  0.00     0.116 C 
BRANCH  27  28
ATOM     28  N   UNL A   1      32.528  34.196  27.563  1.00  0.00    -0.352 N 
ATOM     29  C   UNL A   1      33.013  34.929  28.617  1.00  0.00     0.251 C 
ATOM     30  H   UNL A   1      31.885  34.685  27.001  1.00  0.00     0.163 HD
ATOM     31  O   UNL A   1      32.453  35.998  28.872  1.00  0.00    -0.269 OA
BRANCH  29  32
ATOM     32  C   UNL A   1      34.162  34.507  29.465  1.00  0.00     0.039 A 
ATOM     33  C   UNL A   1      35.448  34.597  28.909  1.00  0.00     0.014 A 
ATOM     34  C   UNL A   1      34.022  33.900  30.713  1.00  0.00     0.014 A 
ATOM     35  C   UNL A   1      36.561  34.073  29.581  1.00  0.00     0.010 A 
ATOM     36  C   UNL A   1      35.142  33.462  31.428  1.00  0.00     0.010 A 
ATOM     37  C   UNL A   1      36.419  33.495  30.849  1.00  0.00    -0.014 A 
BRANCH  37  38
ATOM     38  C   UNL A   1      37.557  32.818  31.530  1.00  0.00     0.031 A 
ATOM     39  C   UNL A   1      38.258  31.662  30.856  1.00  0.00     0.074 A 
ATOM     40  C   UNL A   1      37.955  33.205  32.756  1.00  0.00     0.049 A 
ATOM     41  N   UNL A   1      39.198  30.874  31.315  1.00  0.00    -0.248 NA
ATOM     42  C   UNL A   1      37.820  31.331  29.490  1.00  0.00     0.031 C 
ATOM     43  C   UNL A   1      37.358  34.289  33.537  1.00  0.00     0.029 A 
ATOM     44  N   UNL A   1      38.954  32.721  33.566  1.00  0.00    -0.354 N 
ATOM     45  C   UNL A   1      39.436  29.940  30.314  1.00  0.00     0.074 A 
ATOM     46  C   UNL A   1      38.513  30.231  29.238  1.00  0.00     0.031 C 
ATOM     47  C   UNL A   1      38.014  34.400  34.704  1.00  0.00     0.029 A 
ATOM     48  C   UNL A   1      39.053  33.374  34.769  1.00  0.00     0.049 A 
ATOM     49  H   UNL A   1      39.544  31.977  33.307  1.00  0.00     0.167 HD
ATOM     50  C   UNL A   1      40.352  28.943  30.280  1.00  0.00     0.037 A 
ATOM     51  C   UNL A   1      39.880  33.166  35.811  1.00  0.00     0.037 A 
ATOM     52  C   UNL A   1      41.314  28.685  31.317  1.00  0.00     0.049 A 
ATOM     53  C   UNL A   1      40.909  32.071  35.739  1.00  0.00     0.074 A 
ATOM     54  C   UNL A   1      42.321  27.735  31.344  1.00  0.00     0.029 A 
ATOM     55  N   UNL A   1      41.399  29.392  32.507  1.00  0.00    -0.354 N 
ATOM     56  N   UNL A   1      41.141  31.213  34.775  1.00  0.00    -0.248 NA
ATOM     57  C   UNL A   1      41.797  31.917  36.902  1.00  0.00     0.031 C 
ATOM     58  C   UNL A   1      42.999  27.849  32.563  1.00  0.00     0.029 A 
ATOM     59  C   UNL A   1      42.437  28.892  33.278  1.00  0.00     0.049 A 
ATOM     60  H   UNL A   1      40.810  30.137  32.764  1.00  0.00     0.167 HD
ATOM     61  C   UNL A   1      42.207  30.436  35.203  1.00  0.00     0.074 A 
ATOM     62  C   UNL A   1      42.591  30.930  36.508  1.00  0.00     0.031 C 
ATOM     63  C   UNL A   1      42.813  29.401  34.571  1.00  0.00     0.037 A 
BRANCH  50  64
ATOM     64  C   UNL A   1      40.366  28.054  29.071  1.00  0.00     0.064 A 
ATOM     65  C   UNL A   1      41.147  28.355  27.946  1.00  0.00     0.173 A 
ATOM     66  C   UNL A   1      39.618  26.867  29.052  1.00  0.00     0.173 A 
ATOM     67  F   UNL A   1      41.870  29.484  27.909  1.00  0.00    -0.203 F 
ATOM     68  C   UNL A   1      41.160  27.515  26.836  1.00  0.00     0.198 A 
ATOM     69  C   UNL A   1      39.654  26.015  27.951  1.00  0.00     0.198 A 
ATOM     70  F   UNL A   1      38.859  26.529  30.105  1.00  0.00    -0.203 F 
ATOM     71  F   UNL A   1      41.878  27.846  25.754  1.00  0.00    -0.200 F 
ATOM     72  C   UNL A   1      40.419  26.343  26.841  1.00  0.00     0.200 A 
ATOM     73  F   UNL A   1      38.946  24.876  27.963  1.00  0.00    -0.200 F 
ATOM     74  F   UNL A   1      40.435  25.532  25.774  1.00  0.00    -0.200 F 
ENDBRANCH  50  64
BRANCH  51  75
ATOM     75  C   UNL A   1      39.782  34.031  37.014  1.00  0.00     0.064 A 
ATOM     76  C   UNL A   1      40.489  35.239  37.089  1.00  0.00     0.173 A 
ATOM     77  C   UNL A   1      38.984  33.670  38.108  1.00  0.00     0.173 A 
ATOM     78  F   UNL A   1      41.285  35.612  36.076  1.00  0.00    -0.203 F 
ATOM     79  C   UNL A   1      40.411  36.048  38.220  1.00  0.00     0.198 A 
ATOM     80  C   UNL A   1      38.888  34.491  39.229  1.00  0.00     0.198 A 
ATOM     81  F   UNL A   1      38.290  32.522  38.083  1.00  0.00    -0.203 F 
ATOM     82  F   UNL A   1      41.129  37.177  38.283  1.00  0.00    -0.200 F 
ATOM     83  C   UNL A   1      39.606  35.677  39.287  1.00  0.00     0.200 A 
ATOM     84  F   UNL A   1      38.103  34.133  40.254  1.00  0.00    -0.200 F 
ATOM     85  F   UNL A   1      39.530  36.456  40.374  1.00  0.00    -0.200 F 
ENDBRANCH  51  75
BRANCH  63  86
ATOM     86  C   UNL A   1      43.972  28.752  35.267  1.00  0.00     0.064 A 
ATOM     87  C   UNL A   1      43.788  27.682  36.153  1.00  0.00     0.173 A 
ATOM     88  C   UNL A   1      45.284  29.176  35.009  1.00  0.00     0.173 A 
ATOM     89  F   UNL A   1      42.549  27.250  36.441  1.00  0.00    -0.203 F 
ATOM     90  C   UNL A   1      44.874  27.071  36.773  1.00  0.00     0.198 A 
ATOM     91  C   UNL A   1      46.369  28.549  35.613  1.00  0.00     0.198 A 
ATOM     92  F   UNL A   1      45.512  30.192  34.164  1.00  0.00    -0.203 F 
ATOM     93  F   UNL A   1      44.673  26.075  37.646  1.00  0.00    -0.200 F 
ATOM     94  C   UNL A   1      46.164  27.501  36.498  1.00  0.00     0.200 A 
ATOM     95  F   UNL A   1      47.616  28.958  35.339  1.00  0.00    -0.200 F 
ATOM     96  F   UNL A   1      47.210  26.910  37.092  1.00  0.00    -0.200 F 
ENDBRANCH  63  86
ENDBRANCH  37  38
ENDBRANCH  29  32
ENDBRANCH  27  28
ENDBRANCH  26  27
ENDBRANCH   1  26
TORSDOF 16
ENDMDL
MODEL 2
REMARK VINA RESULT:     -11.3      0.500      2.013
REMARK SMILES CCC(CC)(NC(=O)N(C)C1CC[NH2+]CC1)C(=O)NCCCCNC(=O)c1ccc(-c2c3nc(c(-c4c(F)c(F)c(F)c(F)c4F)c4ccc([nH]4)c(-c4c(F)c(F)c(F)c(F)c4F)c4nc(c(-c5c(F)c(F)c(F)c(F)c5F)c5ccc2[nH]5)C=C4)C=C3)cc1
REMARK SMILES IDX 21 1 20 2 19 3 17 4 18 5 3 7 2 8 1 9 4 10 5 11 6 12 7 13
REMARK SMILES IDX 8 15 9 16 10 17 11 18 12 19 16 20 13 21 15 22 14 23 22 26
REMARK SMILES IDX 23 27 24 28 25 29 26 31 27 32 28 33 89 34 29 35 88 36 30 37
REMARK SMILES IDX 31 38 32 39 82 40 33 41 87 42 81 43 83 44 34 45 86 46 80 47
REMARK SMILES IDX 79 48 35 50 67 51 47 52 66 53 48 54 51 55 65 56 84 57 49 58
REMARK SMILES IDX 50 59 64 61 85 62 52 63 36 64 37 65 45 66 38 67 39 68 43 69
REMARK SMILES IDX 46 70 40 71 41 72 44 73 42 74 68 75 69 76 77 77 70 78 71 79
REMARK SMILES IDX 75 80 78 81 72 82 73 83 76 84 74 85 53 86 54 87 62 88 55 89
REMARK SMILES IDX 56 90 60 91 63 92 57 93 58 94 61 95 59 96
REMARK H PARENT 19 6 6 14 14 24 14 25 24 30 83 49 51 60
REMARK Flexibility Score: inf
ROOT
ATOM      1  C   UNL A   1      31.563  30.657  25.799  1.00  0.00     0.023 C 
ENDROOT
BRANCH   1   2
ATOM      2  C   UNL A   1      32.844  29.890  26.113  1.00  0.00     0.116 C 
BRANCH   2   3
ATOM      3  N   UNL A   1      33.706  29.592  24.971  1.00  0.00    -0.354 N 
ATOM      4  C   UNL A   1      33.629  28.595  24.022  1.00  0.00     0.245 C 
ATOM      5  O   UNL A   1      34.270  28.777  22.983  1.00  0.00    -0.272 OA
ATOM      6  H   UNL A   1      34.469  30.205  24.862  1.00  0.00     0.163 HD
BRANCH   4   7
ATOM      7  C   UNL A   1      32.687  27.358  24.227  1.00  0.00     0.120 C 
BRANCH   7   8
ATOM      8  C   UNL A   1      31.131  27.518  24.181  1.00  0.00     0.035 C 
ATOM      9  C   UNL A   1      30.464  27.451  22.814  1.00  0.00     0.007 C 
ENDBRANCH   7   8
BRANCH   7  10
ATOM     10  C   UNL A   1      33.013  26.886  25.703  1.00  0.00     0.035 C 
ATOM     11  C   UNL A   1      31.847  26.492  26.599  1.00  0.00     0.007 C 
ENDBRANCH   7  10
BRANCH   7  12
ATOM     12  N   UNL A   1      33.093  26.390  23.163  1.00  0.00    -0.323 N 
ATOM     13  C   UNL A   1      33.125  25.042  22.978  1.00  0.00     0.318 C 
ATOM     14  H   UNL A   1      33.434  26.863  22.369  1.00  0.00     0.166 HD
ATOM     15  O   UNL A   1      33.666  24.717  21.916  1.00  0.00    -0.249 OA
BRANCH  13  16
ATOM     16  N   UNL A   1      32.554  24.112  23.825  1.00  0.00    -0.324 N 
ATOM     17  C   UNL A   1      31.118  23.889  23.931  1.00  0.00     0.149 C 
BRANCH  16  18
ATOM     18  C   UNL A   1      33.300  23.588  25.038  1.00  0.00     0.097 C 
ATOM     19  C   UNL A   1      34.845  23.547  25.043  1.00  0.00     0.086 C 
ATOM     20  C   UNL A   1      32.855  22.158  25.461  1.00  0.00     0.086 C 
ATOM     21  C   UNL A   1      35.432  22.397  24.237  1.00  0.00     0.262 C 
ATOM     22  C   UNL A   1      33.405  21.109  24.500  1.00  0.00     0.262 C 
ATOM     23  N   UNL A   1      34.863  21.090  24.562  1.00  0.00    -0.346 N 
ATOM     24  H   UNL A   1      35.151  20.830  25.505  1.00  0.00     0.346 HD
ATOM     25  H   UNL A   1      35.203  20.414  23.878  1.00  0.00     0.346 HD
ENDBRANCH  16  18
ENDBRANCH  13  16
ENDBRANCH   7  12
ENDBRANCH   4   7
ENDBRANCH   2   3
ENDBRANCH   1   2
BRANCH   1  26
ATOM     26  C   UNL A   1      31.334  31.928  26.613  1.00  0.00     0.023 C 
BRANCH  26  27
ATOM     27  C   UNL A   1      32.602  32.517  27.210  1.00  0.00     0.116 C 
BRANCH  27  28
ATOM     28  N   UNL A   1      32.452  33.929  27.512  1.00  0.00    -0.352 N 
ATOM     29  C   UNL A   1      33.017  34.736  28.467  1.00  0.00     0.251 C 
ATOM     30  H   UNL A   1      31.824  34.398  26.917  1.00  0.00     0.163 HD
ATOM     31  O   UNL A   1      32.536  35.862  28.619  1.00  0.00    -0.269 OA
BRANCH  29  32
ATOM     32  C   UNL A   1      34.163  34.330  29.328  1.00  0.00     0.039 A 
ATOM     33  C   UNL A   1      35.457  34.512  28.816  1.00  0.00     0.014 A 
ATOM     34  C   UNL A   1      34.020  33.655  30.541  1.00  0.00     0.014 A 
ATOM     35  C   UNL A   1      36.576  34.011  29.495  1.00  0.00     0.010 A 
ATOM     36  C   UNL A   1      35.141  33.238  31.266  1.00  0.00     0.010 A 
ATOM     37  C   UNL A   1      36.429  33.364  30.728  1.00  0.00    -0.014 A 
BRANCH  37  38
ATOM     38  C   UNL A   1      37.582  32.711  31.410  1.00  0.00     0.031 A 
ATOM     39  C   UNL A   1      38.321  31.586  30.725  1.00  0.00     0.074 A 
ATOM     40  C   UNL A   1      37.958  33.094  32.644  1.00  0.00     0.049 A 
ATOM     41  N   UNL A   1      39.281  30.820  31.181  1.00  0.00    -0.248 NA
ATOM     42  C   UNL A   1      37.904  31.261  29.351  1.00  0.00     0.031 C 
ATOM     43  C   UNL A   1      37.324  34.149  33.434  1.00  0.00     0.029 A 
ATOM     44  N   UNL A   1      38.965  32.628  33.455  1.00  0.00    -0.354 N 
ATOM     45  C   UNL A   1      39.554  29.907  30.170  1.00  0.00     0.074 A 
ATOM     46  C   UNL A   1      38.632  30.186  29.091  1.00  0.00     0.031 C 
ATOM     47  C   UNL A   1      37.968  34.263  34.608  1.00  0.00     0.029 A 
ATOM     48  C   UNL A   1      39.035  33.267  34.667  1.00  0.00     0.049 A 
ATOM     49  H   UNL A   1      39.579  31.905  33.191  1.00  0.00     0.167 HD
ATOM     50  C   UNL A   1      40.499  28.938  30.130  1.00  0.00     0.037 A 
ATOM     51  C   UNL A   1      39.861  33.069  35.714  1.00  0.00     0.037 A 
ATOM     52  C   UNL A   1      41.461  28.694  31.171  1.00  0.00     0.049 A 
ATOM     53  C   UNL A   1      40.922  32.006  35.635  1.00  0.00     0.074 A 
ATOM     54  C   UNL A   1      42.495  27.774  31.193  1.00  0.00     0.029 A 
ATOM     55  N   UNL A   1      41.516  29.387  32.371  1.00  0.00    -0.354 N 
ATOM     56  N   UNL A   1      41.186  31.169  34.661  1.00  0.00    -0.248 NA
ATOM     57  C   UNL A   1      41.805  31.863  36.803  1.00  0.00     0.031 C 
ATOM     58  C   UNL A   1      43.160  27.891  32.420  1.00  0.00     0.029 A 
ATOM     59  C   UNL A   1      42.562  28.908  33.144  1.00  0.00     0.049 A 
ATOM     60  H   UNL A   1      40.903  30.111  32.633  1.00  0.00     0.167 HD
ATOM     61  C   UNL A   1      42.272  30.417  35.087  1.00  0.00     0.074 A 
ATOM     62  C   UNL A   1      42.631  30.905  36.402  1.00  0.00     0.031 C 
ATOM     63  C   UNL A   1      42.913  29.410  34.446  1.00  0.00     0.037 A 
BRANCH  50  64
ATOM     64  C   UNL A   1      40.549  28.066  28.909  1.00  0.00     0.064 A 
ATOM     65  C   UNL A   1      39.796  26.886  28.817  1.00  0.00     0.173 A 
ATOM     66  C   UNL A   1      41.329  28.436  27.803  1.00  0.00     0.173 A 
ATOM     67  F   UNL A   1      39.045  26.483  29.852  1.00  0.00    -0.203 F 
ATOM     68  C   UNL A   1      39.843  26.094  27.673  1.00  0.00     0.198 A 
ATOM     69  C   UNL A   1      41.352  27.655  26.650  1.00  0.00     0.198 A 
ATOM     70  F   UNL A   1      42.062  29.558  27.837  1.00  0.00    -0.203 F 
ATOM     71  F   UNL A   1      39.152  24.947  27.625  1.00  0.00    -0.200 F 
ATOM     72  C   UNL A   1      40.615  26.482  26.588  1.00  0.00     0.200 A 
ATOM     73  F   UNL A   1      42.090  28.038  25.598  1.00  0.00    -0.200 F 
ATOM     74  F   UNL A   1      40.656  25.721  25.486  1.00  0.00    -0.200 F 
ENDBRANCH  50  64
BRANCH  51  75
ATOM     75  C   UNL A   1      39.727  33.915  36.927  1.00  0.00     0.064 A 
ATOM     76  C   UNL A   1      38.949  33.492  38.014  1.00  0.00     0.173 A 
ATOM     77  C   UNL A   1      40.371  35.156  37.025  1.00  0.00     0.173 A 
ATOM     78  F   UNL A   1      38.295  32.323  37.953  1.00  0.00    -0.203 F 
ATOM     79  C   UNL A   1      38.808  34.287  39.149  1.00  0.00     0.198 A 
ATOM     80  C   UNL A   1      40.249  35.939  38.170  1.00  0.00     0.198 A 
ATOM     81  F   UNL A   1      41.125  35.603  36.010  1.00  0.00    -0.203 F 
ATOM     82  F   UNL A   1      38.026  33.879  40.156  1.00  0.00    -0.200 F 
ATOM     83  C   UNL A   1      39.463  35.507  39.229  1.00  0.00     0.200 A 
ATOM     84  F   UNL A   1      40.889  37.113  38.247  1.00  0.00    -0.200 F 
ATOM     85  F   UNL A   1      39.330  36.271  40.322  1.00  0.00    -0.200 F 
ENDBRANCH  51  75
BRANCH  63  86
ATOM     86  C   UNL A   1      44.085  28.785  35.143  1.00  0.00     0.064 A 
ATOM     87  C   UNL A   1      45.387  29.270  34.965  1.00  0.00     0.173 A 
ATOM     88  C   UNL A   1      43.894  27.718  36.033  1.00  0.00     0.173 A 
ATOM     89  F   UNL A   1      45.620  30.281  34.113  1.00  0.00    -0.203 F 
ATOM     90  C   UNL A   1      46.463  28.697  35.638  1.00  0.00     0.198 A 
ATOM     91  C   UNL A   1      44.968  27.161  36.721  1.00  0.00     0.198 A 
ATOM     92  F   UNL A   1      42.666  27.222  36.242  1.00  0.00    -0.203 F 
ATOM     93  F   UNL A   1      47.705  29.151  35.424  1.00  0.00    -0.200 F 
ATOM     94  C   UNL A   1      46.251  27.647  36.520  1.00  0.00     0.200 A 
ATOM     95  F   UNL A   1      44.762  26.153  37.581  1.00  0.00    -0.200 F 
ATOM     96  F   UNL A   1      47.286  27.098  37.171  1.00  0.00    -0.200 F 
ENDBRANCH  63  86
ENDBRANCH  37  38
ENDBRANCH  29  32
ENDBRANCH  27  28
ENDBRANCH  26  27
ENDBRANCH   1  26
TORSDOF 16
ENDMDL
MODEL 3
REMARK VINA RESULT:     -11.2      1.821      7.678
REMARK SMILES CCC(CC)(NC(=O)N(C)C1CC[NH2+]CC1)C(=O)NCCCCNC(=O)c1ccc(-c2c3nc(c(-c4c(F)c(F)c(F)c(F)c4F)c4ccc([nH]4)c(-c4c(F)c(F)c(F)c(F)c4F)c4nc(c(-c5c(F)c(F)c(F)c(F)c5F)c5ccc2[nH]5)C=C4)C=C3)cc1
REMARK SMILES IDX 21 1 20 2 19 3 17 4 18 5 3 7 2 8 1 9 4 10 5 11 6 12 7 13
REMARK SMILES IDX 8 15 9 16 10 17 11 18 12 19 16 20 13 21 15 22 14 23 22 26
REMARK SMILES IDX 23 27 24 28 25 29 26 31 27 32 28 33 89 34 29 35 88 36 30 37
REMARK SMILES IDX 31 38 32 39 82 40 33 41 87 42 81 43 83 44 34 45 86 46 80 47
REMARK SMILES IDX 79 48 35 50 67 51 47 52 66 53 48 54 51 55 65 56 84 57 49 58
REMARK SMILES IDX 50 59 64 61 85 62 52 63 36 64 37 65 45 66 38 67 39 68 43 69
REMARK SMILES IDX 46 70 40 71 41 72 44 73 42 74 68 75 69 76 77 77 70 78 71 79
REMARK SMILES IDX 75 80 78 81 72 82 73 83 76 84 74 85 53 86 54 87 62 88 55 89
REMARK SMILES IDX 56 90 60 91 63 92 57 93 58 94 61 95 59 96
REMARK H PARENT 19 6 6 14 14 24 14 25 24 30 83 49 51 60
REMARK Flexibility Score: inf
ROOT
ATOM      1  C   UNL A   1      30.915  29.660  24.677  1.00  0.00     0.023 C 
ENDROOT
BRANCH   1   2
ATOM      2  C   UNL A   1      31.021  28.975  23.318  1.00  0.00     0.116 C 
BRANCH   2   3
ATOM      3  N   UNL A   1      32.375  28.671  22.861  1.00  0.00    -0.354 N 
ATOM      4  C   UNL A   1      33.032  27.466  22.734  1.00  0.00     0.245 C 
ATOM      5  O   UNL A   1      34.029  27.459  22.007  1.00  0.00    -0.272 OA
ATOM      6  H   UNL A   1      32.907  29.458  22.600  1.00  0.00     0.163 HD
BRANCH   4   7
ATOM      7  C   UNL A   1      32.465  26.165  23.402  1.00  0.00     0.120 C 
BRANCH   7   8
ATOM      8  C   UNL A   1      30.953  25.787  23.264  1.00  0.00     0.035 C 
ATOM      9  C   UNL A   1      30.112  25.802  24.534  1.00  0.00     0.007 C 
ENDBRANCH   7   8
BRANCH   7  10
ATOM     10  C   UNL A   1      32.693  26.413  24.949  1.00  0.00     0.035 C 
ATOM     11  C   UNL A   1      34.028  27.000  25.386  1.00  0.00     0.007 C 
ENDBRANCH   7  10
BRANCH   7  12
ATOM     12  N   UNL A   1      33.281  25.054  22.825  1.00  0.00    -0.323 N 
ATOM     13  C   UNL A   1      33.782  23.852  23.223  1.00  0.00     0.318 C 
ATOM     14  H   UNL A   1      33.528  25.247  21.891  1.00  0.00     0.166 HD
ATOM     15  O   UNL A   1      34.510  23.331  22.371  1.00  0.00    -0.249 OA
BRANCH  13  16
ATOM     16  N   UNL A   1      33.466  23.215  24.407  1.00  0.00    -0.324 N 
ATOM     17  C   UNL A   1      32.127  22.749  24.743  1.00  0.00     0.149 C 
BRANCH  16  18
ATOM     18  C   UNL A   1      34.342  23.361  25.638  1.00  0.00     0.097 C 
ATOM     19  C   UNL A   1      35.756  23.971  25.519  1.00  0.00     0.086 C 
ATOM     20  C   UNL A   1      34.539  22.026  26.412  1.00  0.00     0.086 C 
ATOM     21  C   UNL A   1      36.792  23.013  24.947  1.00  0.00     0.262 C 
ATOM     22  C   UNL A   1      35.502  21.103  25.671  1.00  0.00     0.262 C 
ATOM     23  N   UNL A   1      36.828  21.710  25.609  1.00  0.00    -0.346 N 
ATOM     24  H   UNL A   1      37.181  21.831  26.558  1.00  0.00     0.346 HD
ATOM     25  H   UNL A   1      37.436  21.094  25.070  1.00  0.00     0.346 HD
ENDBRANCH  16  18
ENDBRANCH  13  16
ENDBRANCH   7  12
ENDBRANCH   4   7
ENDBRANCH   2   3
ENDBRANCH   1   2
BRANCH   1  26
ATOM     26  C   UNL A   1      32.240  30.032  25.338  1.00  0.00     0.023 C 
BRANCH  26  27
ATOM     27  C   UNL A   1      32.107  30.482  26.783  1.00  0.00     0.116 C 
BRANCH  27  28
ATOM     28  N   UNL A   1      32.343  31.907  26.930  1.00  0.00    -0.352 N 
ATOM     29  C   UNL A   1      33.351  32.621  27.528  1.00  0.00     0.251 C 
ATOM     30  H   UNL A   1      31.645  32.469  26.524  1.00  0.00     0.163 HD
ATOM     31  O   UNL A   1      33.176  33.833  27.683  1.00  0.00    -0.269 OA
BRANCH  29  32
ATOM     32  C   UNL A   1      34.629  32.020  28.000  1.00  0.00     0.039 A 
ATOM     33  C   UNL A   1      34.616  30.663  28.360  1.00  0.00     0.014 A 
ATOM     34  C   UNL A   1      35.790  32.757  28.238  1.00  0.00     0.014 A 
ATOM     35  C   UNL A   1      35.733  30.068  28.962  1.00  0.00     0.010 A 
ATOM     36  C   UNL A   1      36.938  32.141  28.750  1.00  0.00     0.010 A 
ATOM     37  C   UNL A   1      36.907  30.803  29.168  1.00  0.00    -0.014 A 
BRANCH  37  38
ATOM     38  C   UNL A   1      38.063  30.236  29.918  1.00  0.00     0.031 A 
ATOM     39  C   UNL A   1      38.290  30.629  31.358  1.00  0.00     0.074 A 
ATOM     40  C   UNL A   1      38.926  29.395  29.319  1.00  0.00     0.049 A 
ATOM     41  N   UNL A   1      39.286  30.332  32.156  1.00  0.00    -0.248 NA
ATOM     42  C   UNL A   1      37.274  31.498  31.975  1.00  0.00     0.031 C 
ATOM     43  C   UNL A   1      38.845  28.946  27.929  1.00  0.00     0.029 A 
ATOM     44  N   UNL A   1      40.051  28.775  29.805  1.00  0.00    -0.354 N 
ATOM     45  C   UNL A   1      39.034  31.002  33.347  1.00  0.00     0.074 A 
ATOM     46  C   UNL A   1      37.813  31.756  33.156  1.00  0.00     0.031 C 
ATOM     47  C   UNL A   1      39.865  28.108  27.680  1.00  0.00     0.029 A 
ATOM     48  C   UNL A   1      40.690  27.988  28.879  1.00  0.00     0.049 A 
ATOM     49  H   UNL A   1      40.369  28.883  30.730  1.00  0.00     0.167 HD
ATOM     50  C   UNL A   1      39.738  30.978  34.503  1.00  0.00     0.037 A 
ATOM     51  C   UNL A   1      41.819  27.259  28.981  1.00  0.00     0.037 A 
ATOM     52  C   UNL A   1      40.917  30.184  34.723  1.00  0.00     0.049 A 
ATOM     53  C   UNL A   1      42.569  27.225  30.284  1.00  0.00     0.074 A 
ATOM     54  C   UNL A   1      41.664  30.048  35.881  1.00  0.00     0.029 A 
ATOM     55  N   UNL A   1      41.513  29.377  33.766  1.00  0.00    -0.354 N 
ATOM     56  N   UNL A   1      42.303  27.842  31.410  1.00  0.00    -0.248 NA
ATOM     57  C   UNL A   1      43.777  26.388  30.332  1.00  0.00     0.031 C 
ATOM     58  C   UNL A   1      42.729  29.180  35.616  1.00  0.00     0.029 A 
ATOM     59  C   UNL A   1      42.623  28.747  34.306  1.00  0.00     0.049 A 
ATOM     60  H   UNL A   1      41.193  29.267  32.842  1.00  0.00     0.167 HD
ATOM     61  C   UNL A   1      43.293  27.454  32.302  1.00  0.00     0.074 A 
ATOM     62  C   UNL A   1      44.160  26.535  31.593  1.00  0.00     0.031 C 
ATOM     63  C   UNL A   1      43.470  27.828  33.592  1.00  0.00     0.037 A 
BRANCH  50  64
ATOM     64  C   UNL A   1      39.247  31.834  35.634  1.00  0.00     0.064 A 
ATOM     65  C   UNL A   1      38.361  31.337  36.601  1.00  0.00     0.173 A 
ATOM     66  C   UNL A   1      39.697  33.156  35.773  1.00  0.00     0.173 A 
ATOM     67  F   UNL A   1      37.892  30.084  36.506  1.00  0.00    -0.203 F 
ATOM     68  C   UNL A   1      37.923  32.140  37.651  1.00  0.00     0.198 A 
ATOM     69  C   UNL A   1      39.278  33.947  36.840  1.00  0.00     0.198 A 
ATOM     70  F   UNL A   1      40.550  33.677  34.879  1.00  0.00    -0.203 F 
ATOM     71  F   UNL A   1      37.041  31.659  38.538  1.00  0.00    -0.200 F 
ATOM     72  C   UNL A   1      38.386  33.441  37.774  1.00  0.00     0.200 A 
ATOM     73  F   UNL A   1      39.736  35.201  36.963  1.00  0.00    -0.200 F 
ATOM     74  F   UNL A   1      37.967  34.211  38.788  1.00  0.00    -0.200 F 
ENDBRANCH  50  64
BRANCH  51  75
ATOM     75  C   UNL A   1      42.301  26.482  27.811  1.00  0.00     0.064 A 
ATOM     76  C   UNL A   1      41.807  25.196  27.551  1.00  0.00     0.173 A 
ATOM     77  C   UNL A   1      43.261  27.005  26.934  1.00  0.00     0.173 A 
ATOM     78  F   UNL A   1      40.906  24.646  28.379  1.00  0.00    -0.203 F 
ATOM     79  C   UNL A   1      42.266  24.457  26.464  1.00  0.00     0.198 A 
ATOM     80  C   UNL A   1      43.701  26.274  25.834  1.00  0.00     0.198 A 
ATOM     81  F   UNL A   1      43.764  28.230  27.143  1.00  0.00    -0.203 F 
ATOM     82  F   UNL A   1      41.807  23.214  26.261  1.00  0.00    -0.200 F 
ATOM     83  C   UNL A   1      43.208  24.998  25.602  1.00  0.00     0.200 A 
ATOM     84  F   UNL A   1      44.606  26.803  24.999  1.00  0.00    -0.200 F 
ATOM     85  F   UNL A   1      43.647  24.287  24.555  1.00  0.00    -0.200 F 
ENDBRANCH  51  75
BRANCH  63  86
ATOM     86  C   UNL A   1      44.627  27.225  34.332  1.00  0.00     0.064 A 
ATOM     87  C   UNL A   1      44.511  25.997  34.998  1.00  0.00     0.173 A 
ATOM     88  C   UNL A   1      45.876  27.862  34.336  1.00  0.00     0.173 A 
ATOM     89  F   UNL A   1      43.331  25.358  35.033  1.00  0.00    -0.203 F 
ATOM     90  C   UNL A   1      45.600  25.437  35.660  1.00  0.00     0.198 A 
ATOM     91  C   UNL A   1      46.969  27.288  34.980  1.00  0.00     0.198 A 
ATOM     92  F   UNL A   1      46.039  29.036  33.708  1.00  0.00    -0.203 F 
ATOM     93  F   UNL A   1      45.457  24.281  36.322  1.00  0.00    -0.200 F 
ATOM     94  C   UNL A   1      46.829  26.080  35.645  1.00  0.00     0.200 A 
ATOM     95  F   UNL A   1      48.159  27.905  34.956  1.00  0.00    -0.200 F 
ATOM     96  F   UNL A   1      47.878  25.537  36.278  1.00  0.00    -0.200 F 
ENDBRANCH  63  86
ENDBRANCH  37  38
ENDBRANCH  29  32
ENDBRANCH  27  28
ENDBRANCH  26  27
ENDBRANCH   1  26
TORSDOF 16
ENDMDL
