MODEL 1
REMARK VINA RESULT:     -14.2      0.000      0.000
REMARK SMILES Cc1ccc(-c2c(C(=O)NCCCCNC(=O)c3ccc(-c4c5nc(c(-c6c(F)c(F)c(F)c(F)c6F)c6ccc([nH]6)c(-c6c(F)c(F)c(F)c(F)c6F)c6nc(c(-c7c(F)c(F)c(F)c(F)c7F)c7ccc4[nH]7)C=C6)C=C5)cc3)nnn2Cc2c(F)cccc2Cl)cc1
REMARK SMILES IDX 12 1 11 2 10 3 8 4 9 5 7 7 6 8 83 9 81 10 82 11 5 12 1 13
REMARK SMILES IDX 2 14 3 15 94 16 4 17 93 18 84 19 85 20 86 21 91 22 87 23
REMARK SMILES IDX 88 24 90 25 92 26 89 27 13 28 14 29 15 30 16 31 17 33 18 34
REMARK SMILES IDX 19 35 80 36 20 37 79 38 21 39 22 40 23 41 73 42 24 43 78 44
REMARK SMILES IDX 72 45 74 46 25 47 77 48 71 49 70 50 26 52 58 53 38 54 57 55
REMARK SMILES IDX 39 56 42 57 56 58 75 59 40 60 41 61 55 63 76 64 43 65 27 66
REMARK SMILES IDX 28 67 36 68 29 69 30 70 34 71 37 72 31 73 32 74 35 75 33 76
REMARK SMILES IDX 59 77 60 78 68 79 61 80 62 81 66 82 69 83 63 84 64 85 67 86
REMARK SMILES IDX 65 87 44 88 45 89 53 90 46 91 47 92 51 93 54 94 48 95 49 96
REMARK SMILES IDX 52 97 50 98
REMARK H PARENT 10 6 15 32 74 51 42 62
REMARK Flexibility Score: inf
ROOT
ATOM      1  C   UNL A   1      32.314  29.732  25.328  1.00  0.00     0.023 C 
ENDROOT
BRANCH   1   2
ATOM      2  C   UNL A   1      33.612  28.935  25.163  1.00  0.00     0.116 C 
BRANCH   2   3
ATOM      3  N   UNL A   1      33.995  28.794  23.785  1.00  0.00    -0.351 N 
ATOM      4  C   UNL A   1      33.784  27.839  22.825  1.00  0.00     0.274 C 
ATOM      5  O   UNL A   1      34.229  28.170  21.718  1.00  0.00    -0.267 OA
ATOM      6  H   UNL A   1      34.528  29.554  23.456  1.00  0.00     0.163 HD
BRANCH   4   7
ATOM      7  C   UNL A   1      33.095  26.550  22.988  1.00  0.00     0.178 A 
ATOM      8  C   UNL A   1      33.393  25.264  23.452  1.00  0.00     0.102 A 
ATOM      9  N   UNL A   1      32.180  24.598  23.345  1.00  0.00    -0.239 N 
ATOM     10  N   UNL A   1      31.779  26.533  22.536  1.00  0.00    -0.124 NA
ATOM     11  N   UNL A   1      31.259  25.340  22.722  1.00  0.00    -0.066 NA
BRANCH   8  12
ATOM     12  C   UNL A   1      34.574  24.574  23.952  1.00  0.00     0.002 A 
ATOM     13  C   UNL A   1      38.024  22.457  25.442  1.00  0.00     0.044 C 
ATOM     14  C   UNL A   1      36.797  23.158  24.941  1.00  0.00    -0.051 A 
ATOM     15  C   UNL A   1      36.129  24.081  25.752  1.00  0.00     0.004 A 
ATOM     16  C   UNL A   1      36.344  22.946  23.634  1.00  0.00     0.004 A 
ATOM     17  C   UNL A   1      35.015  24.766  25.268  1.00  0.00     0.011 A 
ATOM     18  C   UNL A   1      35.237  23.644  23.144  1.00  0.00     0.011 A 
ENDBRANCH   8  12
BRANCH   9  19
ATOM     19  C   UNL A   1      31.813  23.234  23.711  1.00  0.00     0.187 C 
BRANCH  19  20
ATOM     20  C   UNL A   1      32.304  22.746  25.052  1.00  0.00     0.028 A 
ATOM     21  C   UNL A   1      33.115  21.599  25.046  1.00  0.00     0.129 A 
ATOM     22  C   UNL A   1      31.977  23.285  26.304  1.00  0.00     0.049 A 
ATOM     23  F   UNL A   1      33.387  20.987  23.884  1.00  0.00    -0.207 F 
ATOM     24  C   UNL A   1      33.646  21.053  26.212  1.00  0.00     0.040 A 
ATOM     25  C   UNL A   1      32.537  22.761  27.481  1.00  0.00     0.021 A 
ATOM     26  Cl  UNL A   1      30.879  24.600  26.515  1.00  0.00    -0.084 Cl
ATOM     27  C   UNL A   1      33.375  21.650  27.435  1.00  0.00     0.005 A 
ENDBRANCH  19  20
ENDBRANCH   9  19
ENDBRANCH   4   7
ENDBRANCH   2   3
ENDBRANCH   1   2
BRANCH   1  28
ATOM     28  C   UNL A   1      32.331  30.703  26.514  1.00  0.00     0.023 C 
BRANCH  28  29
ATOM     29  C   UNL A   1      33.288  30.283  27.626  1.00  0.00     0.116 C 
BRANCH  29  30
ATOM     30  N   UNL A   1      34.075  31.353  28.219  1.00  0.00    -0.352 N 
ATOM     31  C   UNL A   1      35.321  31.311  28.833  1.00  0.00     0.251 C 
ATOM     32  H   UNL A   1      33.661  32.246  28.178  1.00  0.00     0.163 HD
ATOM     33  O   UNL A   1      35.754  32.313  29.375  1.00  0.00    -0.269 OA
BRANCH  31  34
ATOM     34  C   UNL A   1      36.194  30.107  28.704  1.00  0.00     0.039 A 
ATOM     35  C   UNL A   1      36.476  29.374  29.868  1.00  0.00     0.014 A 
ATOM     36  C   UNL A   1      36.886  29.814  27.536  1.00  0.00     0.014 A 
ATOM     37  C   UNL A   1      37.619  28.574  29.923  1.00  0.00     0.010 A 
ATOM     38  C   UNL A   1      38.080  29.128  27.618  1.00  0.00     0.010 A 
ATOM     39  C   UNL A   1      38.483  28.568  28.832  1.00  0.00    -0.014 A 
BRANCH  39  40
ATOM     40  C   UNL A   1      39.882  28.160  28.905  1.00  0.00     0.031 A 
ATOM     41  C   UNL A   1      40.324  26.828  28.449  1.00  0.00     0.074 A 
ATOM     42  C   UNL A   1      40.806  29.093  29.233  1.00  0.00     0.049 A 
ATOM     43  N   UNL A   1      41.421  26.266  28.833  1.00  0.00    -0.248 NA
ATOM     44  C   UNL A   1      39.547  26.005  27.530  1.00  0.00     0.031 C 
ATOM     45  C   UNL A   1      42.250  29.037  29.017  1.00  0.00     0.029 A 
ATOM     46  N   UNL A   1      40.617  30.252  30.002  1.00  0.00    -0.354 N 
ATOM     47  C   UNL A   1      41.632  25.174  28.025  1.00  0.00     0.074 A 
ATOM     48  C   UNL A   1      40.409  25.017  27.271  1.00  0.00     0.031 C 
ATOM     49  C   UNL A   1      42.849  29.917  29.836  1.00  0.00     0.029 A 
ATOM     50  C   UNL A   1      41.820  30.433  30.723  1.00  0.00     0.049 A 
ATOM     51  H   UNL A   1      39.814  30.820  30.033  1.00  0.00     0.167 HD
ATOM     52  C   UNL A   1      42.868  24.600  27.970  1.00  0.00     0.037 A 
ATOM     53  C   UNL A   1      41.858  30.359  32.087  1.00  0.00     0.037 A 
ATOM     54  C   UNL A   1      43.815  25.278  28.844  1.00  0.00     0.049 A 
ATOM     55  C   UNL A   1      42.834  29.338  32.615  1.00  0.00     0.074 A 
ATOM     56  C   UNL A   1      44.758  26.264  28.602  1.00  0.00     0.029 A 
ATOM     57  N   UNL A   1      43.660  25.211  30.225  1.00  0.00    -0.354 N 
ATOM     58  N   UNL A   1      43.232  28.304  31.931  1.00  0.00    -0.248 NA
ATOM     59  C   UNL A   1      43.375  29.362  33.971  1.00  0.00     0.031 C 
ATOM     60  C   UNL A   1      45.156  26.810  29.843  1.00  0.00     0.029 A 
ATOM     61  C   UNL A   1      44.460  26.153  30.842  1.00  0.00     0.049 A 
ATOM     62  H   UNL A   1      43.064  24.583  30.694  1.00  0.00     0.167 HD
ATOM     63  C   UNL A   1      44.007  27.507  32.732  1.00  0.00     0.074 A 
ATOM     64  C   UNL A   1      44.090  28.225  33.989  1.00  0.00     0.031 C 
ATOM     65  C   UNL A   1      44.478  26.305  32.288  1.00  0.00     0.037 A 
BRANCH  52  66
ATOM     66  C   UNL A   1      43.273  23.627  26.890  1.00  0.00     0.064 A 
ATOM     67  C   UNL A   1      42.907  22.265  26.956  1.00  0.00     0.173 A 
ATOM     68  C   UNL A   1      44.066  23.976  25.782  1.00  0.00     0.173 A 
ATOM     69  F   UNL A   1      42.076  21.805  27.900  1.00  0.00    -0.203 F 
ATOM     70  C   UNL A   1      43.393  21.314  26.057  1.00  0.00     0.198 A 
ATOM     71  C   UNL A   1      44.595  23.017  24.912  1.00  0.00     0.198 A 
ATOM     72  F   UNL A   1      44.324  25.260  25.497  1.00  0.00    -0.203 F 
ATOM     73  F   UNL A   1      43.020  20.032  26.179  1.00  0.00    -0.200 F 
ATOM     74  C   UNL A   1      44.268  21.683  25.057  1.00  0.00     0.200 A 
ATOM     75  F   UNL A   1      45.432  23.395  23.936  1.00  0.00    -0.200 F 
ATOM     76  F   UNL A   1      44.777  20.762  24.228  1.00  0.00    -0.200 F 
ENDBRANCH  52  66
BRANCH  53  77
ATOM     77  C   UNL A   1      40.546  30.645  32.734  1.00  0.00     0.064 A 
ATOM     78  C   UNL A   1      40.093  31.976  32.782  1.00  0.00     0.173 A 
ATOM     79  C   UNL A   1      39.605  29.633  32.961  1.00  0.00     0.173 A 
ATOM     80  F   UNL A   1      40.957  32.985  32.588  1.00  0.00    -0.203 F 
ATOM     81  C   UNL A   1      38.738  32.271  32.896  1.00  0.00     0.198 A 
ATOM     82  C   UNL A   1      38.252  29.937  33.110  1.00  0.00     0.198 A 
ATOM     83  F   UNL A   1      39.972  28.344  32.940  1.00  0.00    -0.203 F 
ATOM     84  F   UNL A   1      38.319  33.537  32.786  1.00  0.00    -0.200 F 
ATOM     85  C   UNL A   1      37.816  31.251  33.037  1.00  0.00     0.200 A 
ATOM     86  F   UNL A   1      37.355  28.947  33.226  1.00  0.00    -0.200 F 
ATOM     87  F   UNL A   1      36.505  31.529  33.055  1.00  0.00    -0.200 F 
ENDBRANCH  53  77
BRANCH  65  88
ATOM     88  C   UNL A   1      45.077  25.214  33.141  1.00  0.00     0.064 A 
ATOM     89  C   UNL A   1      46.451  24.931  33.200  1.00  0.00     0.173 A 
ATOM     90  C   UNL A   1      44.270  24.504  34.064  1.00  0.00     0.173 A 
ATOM     91  F   UNL A   1      47.339  25.619  32.471  1.00  0.00    -0.203 F 
ATOM     92  C   UNL A   1      46.972  23.963  34.065  1.00  0.00     0.198 A 
ATOM     93  C   UNL A   1      44.801  23.584  34.967  1.00  0.00     0.198 A 
ATOM     94  F   UNL A   1      42.946  24.703  34.138  1.00  0.00    -0.203 F 
ATOM     95  F   UNL A   1      48.286  23.701  34.051  1.00  0.00    -0.200 F 
ATOM     96  C   UNL A   1      46.150  23.300  34.956  1.00  0.00     0.200 A 
ATOM     97  F   UNL A   1      43.997  22.990  35.862  1.00  0.00    -0.200 F 
ATOM     98  F   UNL A   1      46.660  22.409  35.816  1.00  0.00    -0.200 F 
ENDBRANCH  65  88
ENDBRANCH  39  40
ENDBRANCH  31  34
ENDBRANCH  29  30
ENDBRANCH  28  29
ENDBRANCH   1  28
TORSDOF 14
ENDMDL
MODEL 2
REMARK VINA RESULT:     -14.0      3.655      9.599
REMARK SMILES Cc1ccc(-c2c(C(=O)NCCCCNC(=O)c3ccc(-c4c5nc(c(-c6c(F)c(F)c(F)c(F)c6F)c6ccc([nH]6)c(-c6c(F)c(F)c(F)c(F)c6F)c6nc(c(-c7c(F)c(F)c(F)c(F)c7F)c7ccc4[nH]7)C=C6)C=C5)cc3)nnn2Cc2c(F)cccc2Cl)cc1
REMARK SMILES IDX 12 1 11 2 10 3 8 4 9 5 7 7 6 8 83 9 81 10 82 11 5 12 1 13
REMARK SMILES IDX 2 14 3 15 94 16 4 17 93 18 84 19 85 20 86 21 91 22 87 23
REMARK SMILES IDX 88 24 90 25 92 26 89 27 13 28 14 29 15 30 16 31 17 33 18 34
REMARK SMILES IDX 19 35 80 36 20 37 79 38 21 39 22 40 23 41 73 42 24 43 78 44
REMARK SMILES IDX 72 45 74 46 25 47 77 48 71 49 70 50 26 52 58 53 38 54 57 55
REMARK SMILES IDX 39 56 42 57 56 58 75 59 40 60 41 61 55 63 76 64 43 65 27 66
REMARK SMILES IDX 28 67 36 68 29 69 30 70 34 71 37 72 31 73 32 74 35 75 33 76
REMARK SMILES IDX 59 77 60 78 68 79 61 80 62 81 66 82 69 83 63 84 64 85 67 86
REMARK SMILES IDX 65 87 44 88 45 89 53 90 46 91 47 92 51 93 54 94 48 95 49 96
REMARK SMILES IDX 52 97 50 98
REMARK H PARENT 10 6 15 32 74 51 42 62
REMARK Flexibility Score: inf
ROOT
ATOM      1  C   UNL A   1      36.356  23.583  25.817  1.00  0.00     0.023 C 
ENDROOT
BRANCH   1   2
ATOM      2  C   UNL A   1      35.555  22.288  25.983  1.00  0.00     0.116 C 
BRANCH   2   3
ATOM      3  N   UNL A   1      34.638  22.350  27.089  1.00  0.00    -0.351 N 
ATOM      4  C   UNL A   1      33.343  22.773  27.235  1.00  0.00     0.274 C 
ATOM      5  O   UNL A   1      32.899  22.560  28.372  1.00  0.00    -0.267 OA
ATOM      6  H   UNL A   1      35.027  22.015  27.928  1.00  0.00     0.163 HD
BRANCH   4   7
ATOM      7  C   UNL A   1      32.487  23.392  26.213  1.00  0.00     0.178 A 
ATOM      8  C   UNL A   1      32.159  24.680  25.774  1.00  0.00     0.102 A 
ATOM      9  N   UNL A   1      31.311  24.443  24.701  1.00  0.00    -0.239 N 
ATOM     10  N   UNL A   1      31.737  22.494  25.460  1.00  0.00    -0.124 NA
ATOM     11  N   UNL A   1      31.007  23.146  24.583  1.00  0.00    -0.066 NA
BRANCH   8  12
ATOM     12  C   UNL A   1      32.482  26.042  26.175  1.00  0.00     0.002 A 
ATOM     13  C   UNL A   1      33.393  30.107  27.295  1.00  0.00     0.044 C 
ATOM     14  C   UNL A   1      33.063  28.709  26.863  1.00  0.00    -0.051 A 
ATOM     15  C   UNL A   1      34.033  27.910  26.252  1.00  0.00     0.004 A 
ATOM     16  C   UNL A   1      31.799  28.167  27.124  1.00  0.00     0.004 A 
ATOM     17  C   UNL A   1      33.738  26.595  25.892  1.00  0.00     0.011 A 
ATOM     18  C   UNL A   1      31.509  26.845  26.779  1.00  0.00     0.011 A 
ENDBRANCH   8  12
BRANCH   9  19
ATOM     19  C   UNL A   1      30.660  25.374  23.785  1.00  0.00     0.187 C 
BRANCH  19  20
ATOM     20  C   UNL A   1      31.516  26.496  23.250  1.00  0.00     0.028 A 
ATOM     21  C   UNL A   1      31.049  27.803  23.463  1.00  0.00     0.129 A 
ATOM     22  C   UNL A   1      32.697  26.359  22.505  1.00  0.00     0.049 A 
ATOM     23  F   UNL A   1      29.879  27.992  24.092  1.00  0.00    -0.207 F 
ATOM     24  C   UNL A   1      31.749  28.927  23.034  1.00  0.00     0.040 A 
ATOM     25  C   UNL A   1      33.426  27.488  22.099  1.00  0.00     0.021 A 
ATOM     26  Cl  UNL A   1      33.342  24.833  22.020  1.00  0.00    -0.084 Cl
ATOM     27  C   UNL A   1      32.957  28.772  22.368  1.00  0.00     0.005 A 
ENDBRANCH  19  20
ENDBRANCH   9  19
ENDBRANCH   4   7
ENDBRANCH   2   3
ENDBRANCH   1   2
BRANCH   1  28
ATOM     28  C   UNL A   1      37.806  23.360  25.370  1.00  0.00     0.023 C 
BRANCH  28  29
ATOM     29  C   UNL A   1      38.508  22.240  26.132  1.00  0.00     0.116 C 
BRANCH  29  30
ATOM     30  N   UNL A   1      39.947  22.387  26.286  1.00  0.00    -0.352 N 
ATOM     31  C   UNL A   1      40.712  23.529  26.487  1.00  0.00     0.251 C 
ATOM     32  H   UNL A   1      40.458  21.546  26.240  1.00  0.00     0.163 HD
ATOM     33  O   UNL A   1      41.928  23.445  26.470  1.00  0.00    -0.269 OA
BRANCH  31  34
ATOM     34  C   UNL A   1      40.067  24.819  26.874  1.00  0.00     0.039 A 
ATOM     35  C   UNL A   1      40.402  25.966  26.136  1.00  0.00     0.014 A 
ATOM     36  C   UNL A   1      39.325  24.958  28.039  1.00  0.00     0.014 A 
ATOM     37  C   UNL A   1      40.242  27.229  26.708  1.00  0.00     0.010 A 
ATOM     38  C   UNL A   1      39.277  26.187  28.662  1.00  0.00     0.010 A 
ATOM     39  C   UNL A   1      39.802  27.315  28.027  1.00  0.00    -0.014 A 
BRANCH  39  40
ATOM     40  C   UNL A   1      40.006  28.482  28.878  1.00  0.00     0.031 A 
ATOM     41  C   UNL A   1      38.971  29.523  29.023  1.00  0.00     0.074 A 
ATOM     42  C   UNL A   1      41.095  28.507  29.681  1.00  0.00     0.049 A 
ATOM     43  N   UNL A   1      39.216  30.728  29.418  1.00  0.00    -0.248 NA
ATOM     44  C   UNL A   1      37.565  29.294  28.712  1.00  0.00     0.031 C 
ATOM     45  C   UNL A   1      41.323  29.349  30.853  1.00  0.00     0.029 A 
ATOM     46  N   UNL A   1      42.322  27.856  29.480  1.00  0.00    -0.354 N 
ATOM     47  C   UNL A   1      38.009  31.332  29.680  1.00  0.00     0.074 A 
ATOM     48  C   UNL A   1      37.010  30.422  29.167  1.00  0.00     0.031 C 
ATOM     49  C   UNL A   1      42.640  29.392  31.111  1.00  0.00     0.029 A 
ATOM     50  C   UNL A   1      43.307  28.724  30.006  1.00  0.00     0.049 A 
ATOM     51  H   UNL A   1      42.467  26.977  29.061  1.00  0.00     0.167 HD
ATOM     52  C   UNL A   1      37.969  32.470  30.430  1.00  0.00     0.037 A 
ATOM     53  C   UNL A   1      44.259  29.295  29.210  1.00  0.00     0.037 A 
ATOM     54  C   UNL A   1      39.302  32.888  30.844  1.00  0.00     0.049 A 
ATOM     55  C   UNL A   1      44.287  30.801  29.277  1.00  0.00     0.074 A 
ATOM     56  C   UNL A   1      40.016  32.681  32.013  1.00  0.00     0.029 A 
ATOM     57  N   UNL A   1      40.215  33.342  29.899  1.00  0.00    -0.354 N 
ATOM     58  N   UNL A   1      43.261  31.524  29.624  1.00  0.00    -0.248 NA
ATOM     59  C   UNL A   1      45.441  31.607  28.890  1.00  0.00     0.031 C 
ATOM     60  C   UNL A   1      41.372  32.990  31.763  1.00  0.00     0.029 A 
ATOM     61  C   UNL A   1      41.483  33.391  30.443  1.00  0.00     0.049 A 
ATOM     62  H   UNL A   1      39.989  33.592  28.973  1.00  0.00     0.167 HD
ATOM     63  C   UNL A   1      43.567  32.849  29.458  1.00  0.00     0.074 A 
ATOM     64  C   UNL A   1      44.951  32.851  29.024  1.00  0.00     0.031 C 
ATOM     65  C   UNL A   1      42.631  33.821  29.661  1.00  0.00     0.037 A 
BRANCH  52  66
ATOM     66  C   UNL A   1      36.696  33.009  31.034  1.00  0.00     0.064 A 
ATOM     67  C   UNL A   1      35.819  33.826  30.287  1.00  0.00     0.173 A 
ATOM     68  C   UNL A   1      36.311  32.789  32.369  1.00  0.00     0.173 A 
ATOM     69  F   UNL A   1      36.004  34.044  28.980  1.00  0.00    -0.203 F 
ATOM     70  C   UNL A   1      34.716  34.463  30.861  1.00  0.00     0.198 A 
ATOM     71  C   UNL A   1      35.237  33.467  32.957  1.00  0.00     0.198 A 
ATOM     72  F   UNL A   1      36.947  31.887  33.129  1.00  0.00    -0.203 F 
ATOM     73  F   UNL A   1      33.928  35.237  30.103  1.00  0.00    -0.200 F 
ATOM     74  C   UNL A   1      34.448  34.315  32.205  1.00  0.00     0.200 A 
ATOM     75  F   UNL A   1      34.980  33.300  34.262  1.00  0.00    -0.200 F 
ATOM     76  F   UNL A   1      33.423  34.968  32.767  1.00  0.00    -0.200 F 
ENDBRANCH  52  66
BRANCH  53  77
ATOM     77  C   UNL A   1      44.526  28.529  27.960  1.00  0.00     0.064 A 
ATOM     78  C   UNL A   1      45.323  27.371  28.035  1.00  0.00     0.173 A 
ATOM     79  C   UNL A   1      43.739  28.700  26.814  1.00  0.00     0.173 A 
ATOM     80  F   UNL A   1      46.109  27.166  29.104  1.00  0.00    -0.203 F 
ATOM     81  C   UNL A   1      45.216  26.362  27.082  1.00  0.00     0.198 A 
ATOM     82  C   UNL A   1      43.664  27.700  25.844  1.00  0.00     0.198 A 
ATOM     83  F   UNL A   1      42.966  29.785  26.674  1.00  0.00    -0.203 F 
ATOM     84  F   UNL A   1      45.870  25.208  27.256  1.00  0.00    -0.200 F 
ATOM     85  C   UNL A   1      44.371  26.517  25.999  1.00  0.00     0.200 A 
ATOM     86  F   UNL A   1      42.829  27.840  24.805  1.00  0.00    -0.200 F 
ATOM     87  F   UNL A   1      44.200  25.510  25.132  1.00  0.00    -0.200 F 
ENDBRANCH  53  77
BRANCH  65  88
ATOM     88  C   UNL A   1      42.740  35.265  29.236  1.00  0.00     0.064 A 
ATOM     89  C   UNL A   1      42.089  35.803  28.115  1.00  0.00     0.173 A 
ATOM     90  C   UNL A   1      43.405  36.205  30.061  1.00  0.00     0.173 A 
ATOM     91  F   UNL A   1      41.321  35.045  27.320  1.00  0.00    -0.203 F 
ATOM     92  C   UNL A   1      42.153  37.165  27.803  1.00  0.00     0.198 A 
ATOM     93  C   UNL A   1      43.416  37.570  29.780  1.00  0.00     0.198 A 
ATOM     94  F   UNL A   1      44.039  35.830  31.182  1.00  0.00    -0.203 F 
ATOM     95  F   UNL A   1      41.549  37.620  26.696  1.00  0.00    -0.200 F 
ATOM     96  C   UNL A   1      42.805  38.048  28.641  1.00  0.00     0.200 A 
ATOM     97  F   UNL A   1      44.006  38.420  30.634  1.00  0.00    -0.200 F 
ATOM     98  F   UNL A   1      42.824  39.359  28.364  1.00  0.00    -0.200 F 
ENDBRANCH  65  88
ENDBRANCH  39  40
ENDBRANCH  31  34
ENDBRANCH  29  30
ENDBRANCH  28  29
ENDBRANCH   1  28
TORSDOF 14
ENDMDL
MODEL 3
REMARK VINA RESULT:     -13.9      3.760      9.661
REMARK SMILES Cc1ccc(-c2c(C(=O)NCCCCNC(=O)c3ccc(-c4c5nc(c(-c6c(F)c(F)c(F)c(F)c6F)c6ccc([nH]6)c(-c6c(F)c(F)c(F)c(F)c6F)c6nc(c(-c7c(F)c(F)c(F)c(F)c7F)c7ccc4[nH]7)C=C6)C=C5)cc3)nnn2Cc2c(F)cccc2Cl)cc1
REMARK SMILES IDX 12 1 11 2 10 3 8 4 9 5 7 7 6 8 83 9 81 10 82 11 5 12 1 13
REMARK SMILES IDX 2 14 3 15 94 16 4 17 93 18 84 19 85 20 86 21 91 22 87 23
REMARK SMILES IDX 88 24 90 25 92 26 89 27 13 28 14 29 15 30 16 31 17 33 18 34
REMARK SMILES IDX 19 35 80 36 20 37 79 38 21 39 22 40 23 41 73 42 24 43 78 44
REMARK SMILES IDX 72 45 74 46 25 47 77 48 71 49 70 50 26 52 58 53 38 54 57 55
REMARK SMILES IDX 39 56 42 57 56 58 75 59 40 60 41 61 55 63 76 64 43 65 27 66
REMARK SMILES IDX 28 67 36 68 29 69 30 70 34 71 37 72 31 73 32 74 35 75 33 76
REMARK SMILES IDX 59 77 60 78 68 79 61 80 62 81 66 82 69 83 63 84 64 85 67 86
REMARK SMILES IDX 65 87 44 88 45 89 53 90 46 91 47 92 51 93 54 94 48 95 49 96
REMARK SMILES IDX 52 97 50 98
REMARK H PARENT 10 6 15 32 74 51 42 62
REMARK Flexibility Score: inf
ROOT
ATOM      1  C   UNL A   1      36.236  21.403  25.632  1.00  0.00     0.023 C 
ENDROOT
BRANCH   1   2
ATOM      2  C   UNL A   1      35.705  22.736  26.168  1.00  0.00     0.116 C 
BRANCH   2   3
ATOM      3  N   UNL A   1      34.698  22.556  27.178  1.00  0.00    -0.351 N 
ATOM      4  C   UNL A   1      33.352  22.804  27.244  1.00  0.00     0.274 C 
ATOM      5  O   UNL A   1      32.845  22.404  28.301  1.00  0.00    -0.267 OA
ATOM      6  H   UNL A   1      35.054  22.166  28.009  1.00  0.00     0.163 HD
BRANCH   4   7
ATOM      7  C   UNL A   1      32.513  23.442  26.218  1.00  0.00     0.178 A 
ATOM      8  C   UNL A   1      32.198  24.738  25.792  1.00  0.00     0.102 A 
ATOM      9  N   UNL A   1      31.364  24.520  24.704  1.00  0.00    -0.239 N 
ATOM     10  N   UNL A   1      31.768  22.558  25.444  1.00  0.00    -0.124 NA
ATOM     11  N   UNL A   1      31.054  23.227  24.566  1.00  0.00    -0.066 NA
BRANCH   8  12
ATOM     12  C   UNL A   1      32.525  26.092  26.214  1.00  0.00     0.002 A 
ATOM     13  C   UNL A   1      33.441  30.137  27.401  1.00  0.00     0.044 C 
ATOM     14  C   UNL A   1      33.106  28.747  26.947  1.00  0.00    -0.051 A 
ATOM     15  C   UNL A   1      34.057  27.976  26.272  1.00  0.00     0.004 A 
ATOM     16  C   UNL A   1      31.862  28.183  27.250  1.00  0.00     0.004 A 
ATOM     17  C   UNL A   1      33.760  26.668  25.891  1.00  0.00     0.011 A 
ATOM     18  C   UNL A   1      31.571  26.867  26.882  1.00  0.00     0.011 A 
ENDBRANCH   8  12
BRANCH   9  19
ATOM     19  C   UNL A   1      30.731  25.466  23.792  1.00  0.00     0.187 C 
BRANCH  19  20
ATOM     20  C   UNL A   1      31.603  26.586  23.276  1.00  0.00     0.028 A 
ATOM     21  C   UNL A   1      31.162  27.895  23.526  1.00  0.00     0.129 A 
ATOM     22  C   UNL A   1      32.774  26.445  22.517  1.00  0.00     0.049 A 
ATOM     23  F   UNL A   1      30.001  28.090  24.170  1.00  0.00    -0.207 F 
ATOM     24  C   UNL A   1      31.879  29.017  23.118  1.00  0.00     0.040 A 
ATOM     25  C   UNL A   1      33.520  27.570  22.133  1.00  0.00     0.021 A 
ATOM     26  Cl  UNL A   1      33.386  24.920  21.989  1.00  0.00    -0.084 Cl
ATOM     27  C   UNL A   1      33.078  28.855  22.437  1.00  0.00     0.005 A 
ENDBRANCH  19  20
ENDBRANCH   9  19
ENDBRANCH   4   7
ENDBRANCH   2   3
ENDBRANCH   1   2
BRANCH   1  28
ATOM     28  C   UNL A   1      37.762  21.357  25.490  1.00  0.00     0.023 C 
BRANCH  28  29
ATOM     29  C   UNL A   1      38.432  22.706  25.734  1.00  0.00     0.116 C 
BRANCH  29  30
ATOM     30  N   UNL A   1      39.776  22.652  26.288  1.00  0.00    -0.352 N 
ATOM     31  C   UNL A   1      40.571  23.667  26.804  1.00  0.00     0.251 C 
ATOM     32  H   UNL A   1      40.185  21.756  26.300  1.00  0.00     0.163 HD
ATOM     33  O   UNL A   1      41.726  23.426  27.110  1.00  0.00    -0.269 OA
BRANCH  31  34
ATOM     34  C   UNL A   1      39.987  25.003  27.127  1.00  0.00     0.039 A 
ATOM     35  C   UNL A   1      40.401  26.103  26.359  1.00  0.00     0.014 A 
ATOM     36  C   UNL A   1      39.225  25.222  28.267  1.00  0.00     0.014 A 
ATOM     37  C   UNL A   1      40.294  27.393  26.882  1.00  0.00     0.010 A 
ATOM     38  C   UNL A   1      39.227  26.475  28.845  1.00  0.00     0.010 A 
ATOM     39  C   UNL A   1      39.827  27.549  28.184  1.00  0.00    -0.014 A 
BRANCH  39  40
ATOM     40  C   UNL A   1      40.072  28.734  29.000  1.00  0.00     0.031 A 
ATOM     41  C   UNL A   1      39.045  29.781  29.170  1.00  0.00     0.074 A 
ATOM     42  C   UNL A   1      41.197  28.776  29.749  1.00  0.00     0.049 A 
ATOM     43  N   UNL A   1      39.310  30.994  29.526  1.00  0.00    -0.248 NA
ATOM     44  C   UNL A   1      37.626  29.547  28.931  1.00  0.00     0.031 C 
ATOM     45  C   UNL A   1      41.481  29.643  30.890  1.00  0.00     0.029 A 
ATOM     46  N   UNL A   1      42.413  28.118  29.505  1.00  0.00    -0.354 N 
ATOM     47  C   UNL A   1      38.117  31.605  29.832  1.00  0.00     0.074 A 
ATOM     48  C   UNL A   1      37.094  30.686  29.387  1.00  0.00     0.031 C 
ATOM     49  C   UNL A   1      42.809  29.689  31.084  1.00  0.00     0.029 A 
ATOM     50  C   UNL A   1      43.422  28.995  29.964  1.00  0.00     0.049 A 
ATOM     51  H   UNL A   1      42.537  27.230  29.099  1.00  0.00     0.167 HD
ATOM     52  C   UNL A   1      38.114  32.759  30.558  1.00  0.00     0.037 A 
ATOM     53  C   UNL A   1      44.337  29.547  29.112  1.00  0.00     0.037 A 
ATOM     54  C   UNL A   1      39.464  33.184  30.900  1.00  0.00     0.049 A 
ATOM     55  C   UNL A   1      44.368  31.054  29.144  1.00  0.00     0.074 A 
ATOM     56  C   UNL A   1      40.233  33.002  32.038  1.00  0.00     0.029 A 
ATOM     57  N   UNL A   1      40.332  33.615  29.902  1.00  0.00    -0.354 N 
ATOM     58  N   UNL A   1      43.360  31.786  29.523  1.00  0.00    -0.248 NA
ATOM     59  C   UNL A   1      45.503  31.850  28.685  1.00  0.00     0.031 C 
ATOM     60  C   UNL A   1      41.576  33.303  31.716  1.00  0.00     0.029 A 
ATOM     61  C   UNL A   1      41.625  33.675  30.385  1.00  0.00     0.049 A 
ATOM     62  H   UNL A   1      40.063  33.845  28.983  1.00  0.00     0.167 HD
ATOM     63  C   UNL A   1      43.659  33.107  29.313  1.00  0.00     0.074 A 
ATOM     64  C   UNL A   1      45.021  33.097  28.815  1.00  0.00     0.031 C 
ATOM     65  C   UNL A   1      42.734  34.085  29.539  1.00  0.00     0.037 A 
BRANCH  52  66
ATOM     66  C   UNL A   1      36.870  33.314  31.210  1.00  0.00     0.064 A 
ATOM     67  C   UNL A   1      36.631  33.148  32.591  1.00  0.00     0.173 A 
ATOM     68  C   UNL A   1      35.852  33.982  30.506  1.00  0.00     0.173 A 
ATOM     69  F   UNL A   1      37.551  32.617  33.406  1.00  0.00    -0.203 F 
ATOM     70  C   UNL A   1      35.424  33.514  33.192  1.00  0.00     0.198 A 
ATOM     71  C   UNL A   1      34.624  34.301  31.095  1.00  0.00     0.198 A 
ATOM     72  F   UNL A   1      36.034  34.371  29.236  1.00  0.00    -0.203 F 
ATOM     73  F   UNL A   1      35.250  33.319  34.506  1.00  0.00    -0.200 F 
ATOM     74  C   UNL A   1      34.406  34.055  32.436  1.00  0.00     0.200 A 
ATOM     75  F   UNL A   1      33.650  34.841  30.349  1.00  0.00    -0.200 F 
ATOM     76  F   UNL A   1      33.229  34.355  33.001  1.00  0.00    -0.200 F 
ENDBRANCH  52  66
BRANCH  53  77
ATOM     77  C   UNL A   1      44.543  28.753  27.868  1.00  0.00     0.064 A 
ATOM     78  C   UNL A   1      45.346  27.599  27.929  1.00  0.00     0.173 A 
ATOM     79  C   UNL A   1      43.700  28.897  26.759  1.00  0.00     0.173 A 
ATOM     80  F   UNL A   1      46.185  27.420  28.961  1.00  0.00    -0.203 F 
ATOM     81  C   UNL A   1      45.196  26.569  27.005  1.00  0.00     0.198 A 
ATOM     82  C   UNL A   1      43.579  27.875  25.816  1.00  0.00     0.198 A 
ATOM     83  F   UNL A   1      42.917  29.977  26.633  1.00  0.00    -0.203 F 
ATOM     84  F   UNL A   1      45.861  25.420  27.173  1.00  0.00    -0.200 F 
ATOM     85  C   UNL A   1      44.297  26.697  25.963  1.00  0.00     0.200 A 
ATOM     86  F   UNL A   1      42.694  27.990  24.817  1.00  0.00    -0.200 F 
ATOM     87  F   UNL A   1      44.087  25.670  25.128  1.00  0.00    -0.200 F 
ENDBRANCH  53  77
BRANCH  65  88
ATOM     88  C   UNL A   1      42.824  35.519  29.078  1.00  0.00     0.064 A 
ATOM     89  C   UNL A   1      42.134  36.029  27.967  1.00  0.00     0.173 A 
ATOM     90  C   UNL A   1      43.513  36.479  29.859  1.00  0.00     0.173 A 
ATOM     91  F   UNL A   1      41.344  35.251  27.216  1.00  0.00    -0.203 F 
ATOM     92  C   UNL A   1      42.183  37.384  27.622  1.00  0.00     0.198 A 
ATOM     93  C   UNL A   1      43.510  37.838  29.547  1.00  0.00     0.198 A 
ATOM     94  F   UNL A   1      44.185  36.132  30.967  1.00  0.00    -0.203 F 
ATOM     95  F   UNL A   1      41.541  37.812  26.526  1.00  0.00    -0.200 F 
ATOM     96  C   UNL A   1      42.860  38.288  28.418  1.00  0.00     0.200 A 
ATOM     97  F   UNL A   1      44.125  38.709  30.361  1.00  0.00    -0.200 F 
ATOM     98  F   UNL A   1      42.865  39.592  28.111  1.00  0.00    -0.200 F 
ENDBRANCH  65  88
ENDBRANCH  39  40
ENDBRANCH  31  34
ENDBRANCH  29  30
ENDBRANCH  28  29
ENDBRANCH   1  28
TORSDOF 14
ENDMDL
