MODEL 1
REMARK VINA RESULT:     -12.1      0.000      0.000
REMARK SMILES COc1ccc(O[C@H](F)C(=O)NCCCCNC(=O)c2ccc(-c3c4nc(c(-c5c(F)c(F)c(F)c(F)c5F)c5ccc([nH]5)c(-c5c(F)c(F)c(F)c(F)c5F)c5nc(c(-c6c(F)c(F)c(F)c(F)c6F)c6ccc3[nH]6)C=C5)C=C4)cc2)c(C(C)(C)C)c1
REMARK SMILES IDX 14 1 13 2 12 3 10 4 11 5 8 7 9 8 7 9 6 10 3 11 4 12 88 13
REMARK SMILES IDX 5 14 83 15 2 16 1 17 84 18 85 19 86 20 87 21 15 22 16 23
REMARK SMILES IDX 17 24 18 25 19 27 20 28 21 29 82 30 22 31 81 32 23 33 24 34
REMARK SMILES IDX 25 35 75 36 26 37 80 38 74 39 76 40 27 41 79 42 73 43 72 44
REMARK SMILES IDX 28 46 60 47 40 48 59 49 41 50 44 51 58 52 77 53 42 54 43 55
REMARK SMILES IDX 57 57 78 58 45 59 29 60 30 61 38 62 31 63 32 64 36 65 39 66
REMARK SMILES IDX 33 67 34 68 37 69 35 70 61 71 62 72 70 73 63 74 64 75 68 76
REMARK SMILES IDX 71 77 65 78 66 79 69 80 67 81 46 82 47 83 55 84 48 85 49 86
REMARK SMILES IDX 53 87 56 88 50 89 51 90 54 91 52 92
REMARK H PARENT 12 6 17 26 76 45 44 56
REMARK Flexibility Score: inf
ROOT
ATOM      1  C   UNL A   1      31.474  27.480  26.308  1.00  0.00     0.023 C 
ENDROOT
BRANCH   1   2
ATOM      2  C   UNL A   1      30.787  26.295  25.629  1.00  0.00     0.116 C 
BRANCH   2   3
ATOM      3  N   UNL A   1      30.265  25.314  26.562  1.00  0.00    -0.350 N 
ATOM      4  C   UNL A   1      30.358  23.946  26.483  1.00  0.00     0.294 C 
ATOM      5  O   UNL A   1      29.925  23.298  27.442  1.00  0.00    -0.267 OA
ATOM      6  H   UNL A   1      29.786  25.672  27.344  1.00  0.00     0.163 HD
BRANCH   4   7
ATOM      7  C   UNL A   1      31.032  23.244  25.266  1.00  0.00     0.440 C 
ATOM      8  F   UNL A   1      30.517  23.617  24.055  1.00  0.00    -0.191 F 
BRANCH   7   9
ATOM      9  O   UNL A   1      32.461  23.268  25.177  1.00  0.00    -0.451 OA
BRANCH   9  10
ATOM     10  C   UNL A   1      33.007  22.032  24.957  1.00  0.00     0.127 A 
ATOM     11  C   UNL A   1      34.028  19.443  24.725  1.00  0.00     0.119 A 
ATOM     12  C   UNL A   1      32.660  19.643  24.826  1.00  0.00     0.050 A 
ATOM     13  C   UNL A   1      34.874  20.553  24.625  1.00  0.00     0.054 A 
ATOM     14  C   UNL A   1      32.150  20.928  24.947  1.00  0.00     0.051 A 
ATOM     15  C   UNL A   1      34.377  21.880  24.653  1.00  0.00     0.003 A 
BRANCH  11  16
ATOM     16  O   UNL A   1      34.400  18.128  24.677  1.00  0.00    -0.497 OA
ATOM     17  C   UNL A   1      33.409  17.190  24.279  1.00  0.00     0.278 C 
ENDBRANCH  11  16
BRANCH  15  18
ATOM     18  C   UNL A   1      35.293  23.070  24.270  1.00  0.00    -0.009 C 
ATOM     19  C   UNL A   1      36.611  22.567  23.628  1.00  0.00     0.016 C 
ATOM     20  C   UNL A   1      34.586  24.026  23.296  1.00  0.00     0.016 C 
ATOM     21  C   UNL A   1      35.736  23.910  25.500  1.00  0.00     0.016 C 
ENDBRANCH  15  18
ENDBRANCH   9  10
ENDBRANCH   7   9
ENDBRANCH   4   7
ENDBRANCH   2   3
ENDBRANCH   1   2
BRANCH   1  22
ATOM     22  C   UNL A   1      31.718  28.722  25.446  1.00  0.00     0.023 C 
BRANCH  22  23
ATOM     23  C   UNL A   1      32.925  29.579  25.814  1.00  0.00     0.116 C 
BRANCH  23  24
ATOM     24  N   UNL A   1      32.577  30.917  26.264  1.00  0.00    -0.352 N 
ATOM     25  C   UNL A   1      33.220  31.740  27.161  1.00  0.00     0.251 C 
ATOM     26  H   UNL A   1      31.758  31.291  25.866  1.00  0.00     0.163 HD
ATOM     27  O   UNL A   1      32.719  32.806  27.492  1.00  0.00    -0.269 OA
BRANCH  25  28
ATOM     28  C   UNL A   1      34.504  31.316  27.762  1.00  0.00     0.039 A 
ATOM     29  C   UNL A   1      35.536  32.252  27.877  1.00  0.00     0.014 A 
ATOM     30  C   UNL A   1      34.691  30.008  28.213  1.00  0.00     0.014 A 
ATOM     31  C   UNL A   1      36.726  31.899  28.521  1.00  0.00     0.010 A 
ATOM     32  C   UNL A   1      35.855  29.674  28.907  1.00  0.00     0.010 A 
ATOM     33  C   UNL A   1      36.878  30.620  29.081  1.00  0.00    -0.014 A 
BRANCH  33  34
ATOM     34  C   UNL A   1      38.088  30.263  29.872  1.00  0.00     0.031 A 
ATOM     35  C   UNL A   1      39.104  29.305  29.316  1.00  0.00     0.074 A 
ATOM     36  C   UNL A   1      38.239  30.750  31.120  1.00  0.00     0.049 A 
ATOM     37  N   UNL A   1      40.171  28.805  29.888  1.00  0.00    -0.248 NA
ATOM     38  C   UNL A   1      38.883  28.834  27.940  1.00  0.00     0.031 C 
ATOM     39  C   UNL A   1      37.313  31.666  31.788  1.00  0.00     0.029 A 
ATOM     40  N   UNL A   1      39.223  30.533  32.054  1.00  0.00    -0.354 N 
ATOM     41  C   UNL A   1      40.744  27.959  28.947  1.00  0.00     0.074 A 
ATOM     42  C   UNL A   1      39.880  27.974  27.786  1.00  0.00     0.031 C 
ATOM     43  C   UNL A   1      37.781  31.946  33.016  1.00  0.00     0.029 A 
ATOM     44  C   UNL A   1      39.015  31.198  33.239  1.00  0.00     0.049 A 
ATOM     45  H   UNL A   1      40.003  29.956  31.891  1.00  0.00     0.167 HD
ATOM     46  C   UNL A   1      41.898  27.253  29.033  1.00  0.00     0.037 A 
ATOM     47  C   UNL A   1      39.733  31.197  34.380  1.00  0.00     0.037 A 
ATOM     48  C   UNL A   1      42.765  27.244  30.183  1.00  0.00     0.049 A 
ATOM     49  C   UNL A   1      40.988  30.368  34.461  1.00  0.00     0.074 A 
ATOM     50  C   UNL A   1      43.966  26.577  30.353  1.00  0.00     0.029 A 
ATOM     51  N   UNL A   1      42.524  27.937  31.359  1.00  0.00    -0.354 N 
ATOM     52  N   UNL A   1      41.543  29.611  33.548  1.00  0.00    -0.248 NA
ATOM     53  C   UNL A   1      41.718  30.399  35.737  1.00  0.00     0.031 C 
ATOM     54  C   UNL A   1      44.431  26.834  31.647  1.00  0.00     0.029 A 
ATOM     55  C   UNL A   1      43.546  27.702  32.265  1.00  0.00     0.049 A 
ATOM     56  H   UNL A   1      41.741  28.511  31.527  1.00  0.00     0.167 HD
ATOM     57  C   UNL A   1      42.704  29.110  34.121  1.00  0.00     0.074 A 
ATOM     58  C   UNL A   1      42.780  29.655  35.459  1.00  0.00     0.031 C 
ATOM     59  C   UNL A   1      43.625  28.272  33.585  1.00  0.00     0.037 A 
BRANCH  46  60
ATOM     60  C   UNL A   1      42.299  26.435  27.840  1.00  0.00     0.064 A 
ATOM     61  C   UNL A   1      43.208  26.925  26.890  1.00  0.00     0.173 A 
ATOM     62  C   UNL A   1      41.812  25.130  27.669  1.00  0.00     0.173 A 
ATOM     63  F   UNL A   1      43.696  28.170  27.003  1.00  0.00    -0.203 F 
ATOM     64  C   UNL A   1      43.595  26.151  25.800  1.00  0.00     0.198 A 
ATOM     65  C   UNL A   1      42.224  24.347  26.594  1.00  0.00     0.198 A 
ATOM     66  F   UNL A   1      40.948  24.609  28.553  1.00  0.00    -0.203 F 
ATOM     67  F   UNL A   1      44.430  26.657  24.883  1.00  0.00    -0.200 F 
ATOM     68  C   UNL A   1      43.108  24.860  25.657  1.00  0.00     0.200 A 
ATOM     69  F   UNL A   1      41.765  23.094  26.464  1.00  0.00    -0.200 F 
ATOM     70  F   UNL A   1      43.490  24.111  24.612  1.00  0.00    -0.200 F 
ENDBRANCH  46  60
BRANCH  47  71
ATOM     71  C   UNL A   1      39.299  32.018  35.541  1.00  0.00     0.064 A 
ATOM     72  C   UNL A   1      39.788  33.320  35.721  1.00  0.00     0.173 A 
ATOM     73  C   UNL A   1      38.422  31.512  36.511  1.00  0.00     0.173 A 
ATOM     74  F   UNL A   1      40.648  33.840  34.833  1.00  0.00    -0.203 F 
ATOM     75  C   UNL A   1      39.441  34.072  36.841  1.00  0.00     0.198 A 
ATOM     76  C   UNL A   1      38.051  32.277  37.615  1.00  0.00     0.198 A 
ATOM     77  F   UNL A   1      37.923  30.273  36.386  1.00  0.00    -0.203 F 
ATOM     78  F   UNL A   1      39.970  35.291  37.017  1.00  0.00    -0.200 F 
ATOM     79  C   UNL A   1      38.570  33.552  37.786  1.00  0.00     0.200 A 
ATOM     80  F   UNL A   1      37.200  31.775  38.521  1.00  0.00    -0.200 F 
ATOM     81  F   UNL A   1      38.241  34.273  38.865  1.00  0.00    -0.200 F 
ENDBRANCH  47  71
BRANCH  59  82
ATOM     82  C   UNL A   1      44.826  27.939  34.422  1.00  0.00     0.064 A 
ATOM     83  C   UNL A   1      44.854  26.817  35.262  1.00  0.00     0.173 A 
ATOM     84  C   UNL A   1      45.980  28.735  34.349  1.00  0.00     0.173 A 
ATOM     85  F   UNL A   1      43.771  26.033  35.379  1.00  0.00    -0.203 F 
ATOM     86  C   UNL A   1      45.985  26.517  36.018  1.00  0.00     0.198 A 
ATOM     87  C   UNL A   1      47.119  28.415  35.084  1.00  0.00     0.198 A 
ATOM     88  F   UNL A   1      46.007  29.816  33.556  1.00  0.00    -0.203 F 
ATOM     89  F   UNL A   1      45.972  25.467  36.851  1.00  0.00    -0.200 F 
ATOM     90  C   UNL A   1      47.118  27.312  35.923  1.00  0.00     0.200 A 
ATOM     91  F   UNL A   1      48.216  29.177  34.980  1.00  0.00    -0.200 F 
ATOM     92  F   UNL A   1      48.207  27.017  36.646  1.00  0.00    -0.200 F 
ENDBRANCH  59  82
ENDBRANCH  33  34
ENDBRANCH  25  28
ENDBRANCH  23  24
ENDBRANCH  22  23
ENDBRANCH   1  22
TORSDOF 15
ENDMDL
MODEL 2
REMARK VINA RESULT:     -12.0      4.801      9.767
REMARK SMILES COc1ccc(O[C@H](F)C(=O)NCCCCNC(=O)c2ccc(-c3c4nc(c(-c5c(F)c(F)c(F)c(F)c5F)c5ccc([nH]5)c(-c5c(F)c(F)c(F)c(F)c5F)c5nc(c(-c6c(F)c(F)c(F)c(F)c6F)c6ccc3[nH]6)C=C5)C=C4)cc2)c(C(C)(C)C)c1
REMARK SMILES IDX 14 1 13 2 12 3 10 4 11 5 8 7 9 8 7 9 6 10 3 11 4 12 88 13
REMARK SMILES IDX 5 14 83 15 2 16 1 17 84 18 85 19 86 20 87 21 15 22 16 23
REMARK SMILES IDX 17 24 18 25 19 27 20 28 21 29 82 30 22 31 81 32 23 33 24 34
REMARK SMILES IDX 25 35 75 36 26 37 80 38 74 39 76 40 27 41 79 42 73 43 72 44
REMARK SMILES IDX 28 46 60 47 40 48 59 49 41 50 44 51 58 52 77 53 42 54 43 55
REMARK SMILES IDX 57 57 78 58 45 59 29 60 30 61 38 62 31 63 32 64 36 65 39 66
REMARK SMILES IDX 33 67 34 68 37 69 35 70 61 71 62 72 70 73 63 74 64 75 68 76
REMARK SMILES IDX 71 77 65 78 66 79 69 80 67 81 46 82 47 83 55 84 48 85 49 86
REMARK SMILES IDX 53 87 56 88 50 89 51 90 54 91 52 92
REMARK H PARENT 12 6 17 26 76 45 44 56
REMARK Flexibility Score: inf
ROOT
ATOM      1  C   UNL A   1      37.105  21.234  24.563  1.00  0.00     0.023 C 
ENDROOT
BRANCH   1   2
ATOM      2  C   UNL A   1      35.602  21.215  24.839  1.00  0.00     0.116 C 
BRANCH   2   3
ATOM      3  N   UNL A   1      35.093  19.902  25.189  1.00  0.00    -0.350 N 
ATOM      4  C   UNL A   1      33.941  19.302  24.744  1.00  0.00     0.294 C 
ATOM      5  O   UNL A   1      33.746  18.132  25.096  1.00  0.00    -0.267 OA
ATOM      6  H   UNL A   1      35.639  19.380  25.821  1.00  0.00     0.163 HD
BRANCH   4   7
ATOM      7  C   UNL A   1      32.952  20.039  23.793  1.00  0.00     0.440 C 
ATOM      8  F   UNL A   1      32.111  19.203  23.111  1.00  0.00    -0.191 F 
BRANCH   7   9
ATOM      9  O   UNL A   1      32.180  21.121  24.327  1.00  0.00    -0.451 OA
BRANCH   9  10
ATOM     10  C   UNL A   1      32.520  22.337  23.797  1.00  0.00     0.127 A 
ATOM     11  C   UNL A   1      33.412  24.709  22.623  1.00  0.00     0.119 A 
ATOM     12  C   UNL A   1      33.134  23.605  21.831  1.00  0.00     0.050 A 
ATOM     13  C   UNL A   1      33.130  24.655  23.992  1.00  0.00     0.054 A 
ATOM     14  C   UNL A   1      32.696  22.423  22.413  1.00  0.00     0.051 A 
ATOM     15  C   UNL A   1      32.596  23.492  24.603  1.00  0.00     0.003 A 
BRANCH  11  16
ATOM     16  O   UNL A   1      33.897  25.785  21.933  1.00  0.00    -0.497 OA
ATOM     17  C   UNL A   1      33.233  27.027  22.123  1.00  0.00     0.278 C 
ENDBRANCH  11  16
BRANCH  15  18
ATOM     18  C   UNL A   1      32.043  23.549  26.051  1.00  0.00    -0.009 C 
ATOM     19  C   UNL A   1      33.010  22.849  27.039  1.00  0.00     0.016 C 
ATOM     20  C   UNL A   1      31.817  25.000  26.503  1.00  0.00     0.016 C 
ATOM     21  C   UNL A   1      30.690  22.801  26.208  1.00  0.00     0.016 C 
ENDBRANCH  15  18
ENDBRANCH   9  10
ENDBRANCH   7   9
ENDBRANCH   4   7
ENDBRANCH   2   3
ENDBRANCH   1   2
BRANCH   1  22
ATOM     22  C   UNL A   1      37.908  20.012  25.019  1.00  0.00     0.023 C 
BRANCH  22  23
ATOM     23  C   UNL A   1      39.135  20.286  25.882  1.00  0.00     0.116 C 
BRANCH  23  24
ATOM     24  N   UNL A   1      40.132  19.229  25.833  1.00  0.00    -0.352 N 
ATOM     25  C   UNL A   1      41.489  19.288  26.054  1.00  0.00     0.251 C 
ATOM     26  H   UNL A   1      39.783  18.337  25.609  1.00  0.00     0.163 HD
ATOM     27  O   UNL A   1      42.189  18.301  25.871  1.00  0.00    -0.269 OA
BRANCH  25  28
ATOM     28  C   UNL A   1      42.114  20.560  26.478  1.00  0.00     0.039 A 
ATOM     29  C   UNL A   1      42.645  21.409  25.502  1.00  0.00     0.014 A 
ATOM     30  C   UNL A   1      42.175  20.919  27.826  1.00  0.00     0.014 A 
ATOM     31  C   UNL A   1      43.159  22.656  25.870  1.00  0.00     0.010 A 
ATOM     32  C   UNL A   1      42.635  22.186  28.186  1.00  0.00     0.010 A 
ATOM     33  C   UNL A   1      43.119  23.074  27.211  1.00  0.00    -0.014 A 
BRANCH  33  34
ATOM     34  C   UNL A   1      43.553  24.441  27.607  1.00  0.00     0.031 A 
ATOM     35  C   UNL A   1      42.535  25.496  27.938  1.00  0.00     0.074 A 
ATOM     36  C   UNL A   1      44.865  24.753  27.605  1.00  0.00     0.049 A 
ATOM     37  N   UNL A   1      42.716  26.763  28.217  1.00  0.00    -0.248 NA
ATOM     38  C   UNL A   1      41.126  25.075  27.942  1.00  0.00     0.031 C 
ATOM     39  C   UNL A   1      45.953  23.830  27.277  1.00  0.00     0.029 A 
ATOM     40  N   UNL A   1      45.506  25.937  27.878  1.00  0.00    -0.354 N 
ATOM     41  C   UNL A   1      41.448  27.290  28.422  1.00  0.00     0.074 A 
ATOM     42  C   UNL A   1      40.503  26.220  28.187  1.00  0.00     0.031 C 
ATOM     43  C   UNL A   1      47.126  24.477  27.384  1.00  0.00     0.029 A 
ATOM     44  C   UNL A   1      46.872  25.868  27.746  1.00  0.00     0.049 A 
ATOM     45  H   UNL A   1      45.031  26.757  28.142  1.00  0.00     0.167 HD
ATOM     46  C   UNL A   1      41.103  28.547  28.797  1.00  0.00     0.037 A 
ATOM     47  C   UNL A   1      47.813  26.822  27.890  1.00  0.00     0.037 A 
ATOM     48  C   UNL A   1      42.041  29.612  29.041  1.00  0.00     0.049 A 
ATOM     49  C   UNL A   1      47.396  28.220  28.263  1.00  0.00     0.074 A 
ATOM     50  C   UNL A   1      41.785  30.911  29.444  1.00  0.00     0.029 A 
ATOM     51  N   UNL A   1      43.416  29.500  28.904  1.00  0.00    -0.354 N 
ATOM     52  N   UNL A   1      46.198  28.693  28.502  1.00  0.00    -0.248 NA
ATOM     53  C   UNL A   1      48.469  29.218  28.392  1.00  0.00     0.031 C 
ATOM     54  C   UNL A   1      43.003  31.596  29.515  1.00  0.00     0.029 A 
ATOM     55  C   UNL A   1      44.021  30.711  29.203  1.00  0.00     0.049 A 
ATOM     56  H   UNL A   1      43.892  28.682  28.634  1.00  0.00     0.167 HD
ATOM     57  C   UNL A   1      46.375  30.026  28.847  1.00  0.00     0.074 A 
ATOM     58  C   UNL A   1      47.797  30.287  28.796  1.00  0.00     0.031 C 
ATOM     59  C   UNL A   1      45.441  30.951  29.175  1.00  0.00     0.037 A 
BRANCH  46  60
ATOM     60  C   UNL A   1      39.641  28.838  28.977  1.00  0.00     0.064 A 
ATOM     61  C   UNL A   1      39.019  28.705  30.228  1.00  0.00     0.173 A 
ATOM     62  C   UNL A   1      38.864  29.304  27.905  1.00  0.00     0.173 A 
ATOM     63  F   UNL A   1      39.715  28.254  31.283  1.00  0.00    -0.203 F 
ATOM     64  C   UNL A   1      37.669  29.001  30.393  1.00  0.00     0.198 A 
ATOM     65  C   UNL A   1      37.522  29.628  28.080  1.00  0.00     0.198 A 
ATOM     66  F   UNL A   1      39.413  29.458  26.690  1.00  0.00    -0.203 F 
ATOM     67  F   UNL A   1      37.087  28.824  31.586  1.00  0.00    -0.200 F 
ATOM     68  C   UNL A   1      36.923  29.469  29.321  1.00  0.00     0.200 A 
ATOM     69  F   UNL A   1      36.807  30.094  27.048  1.00  0.00    -0.200 F 
ATOM     70  F   UNL A   1      35.626  29.764  29.484  1.00  0.00    -0.200 F 
ENDBRANCH  46  60
BRANCH  47  71
ATOM     71  C   UNL A   1      49.251  26.494  27.698  1.00  0.00     0.064 A 
ATOM     72  C   UNL A   1      50.099  26.316  28.801  1.00  0.00     0.173 A 
ATOM     73  C   UNL A   1      49.815  26.388  26.418  1.00  0.00     0.173 A 
ATOM     74  F   UNL A   1      49.611  26.431  30.044  1.00  0.00    -0.203 F 
ATOM     75  C   UNL A   1      51.461  26.076  28.630  1.00  0.00     0.198 A 
ATOM     76  C   UNL A   1      51.171  26.117  26.250  1.00  0.00     0.198 A 
ATOM     77  F   UNL A   1      49.047  26.547  25.330  1.00  0.00    -0.203 F 
ATOM     78  F   UNL A   1      52.258  25.969  29.703  1.00  0.00    -0.200 F 
ATOM     79  C   UNL A   1      51.996  25.973  27.356  1.00  0.00     0.200 A 
ATOM     80  F   UNL A   1      51.683  26.007  25.016  1.00  0.00    -0.200 F 
ATOM     81  F   UNL A   1      53.306  25.747  27.193  1.00  0.00    -0.200 F 
ENDBRANCH  47  71
BRANCH  59  82
ATOM     82  C   UNL A   1      45.927  32.317  29.566  1.00  0.00     0.064 A 
ATOM     83  C   UNL A   1      46.269  32.629  30.889  1.00  0.00     0.173 A 
ATOM     84  C   UNL A   1      46.090  33.314  28.591  1.00  0.00     0.173 A 
ATOM     85  F   UNL A   1      46.116  31.716  31.860  1.00  0.00    -0.203 F 
ATOM     86  C   UNL A   1      46.733  33.899  31.227  1.00  0.00     0.198 A 
ATOM     87  C   UNL A   1      46.582  34.572  28.928  1.00  0.00     0.198 A 
ATOM     88  F   UNL A   1      45.783  33.065  27.310  1.00  0.00    -0.203 F 
ATOM     89  F   UNL A   1      47.008  34.191  32.506  1.00  0.00    -0.200 F 
ATOM     90  C   UNL A   1      46.895  34.866  30.246  1.00  0.00     0.200 A 
ATOM     91  F   UNL A   1      46.751  35.500  27.977  1.00  0.00    -0.200 F 
ATOM     92  F   UNL A   1      47.349  36.084  30.573  1.00  0.00    -0.200 F 
ENDBRANCH  59  82
ENDBRANCH  33  34
ENDBRANCH  25  28
ENDBRANCH  23  24
ENDBRANCH  22  23
ENDBRANCH   1  22
TORSDOF 15
ENDMDL
MODEL 3
REMARK VINA RESULT:     -12.0      2.995      7.810
REMARK SMILES COc1ccc(O[C@H](F)C(=O)NCCCCNC(=O)c2ccc(-c3c4nc(c(-c5c(F)c(F)c(F)c(F)c5F)c5ccc([nH]5)c(-c5c(F)c(F)c(F)c(F)c5F)c5nc(c(-c6c(F)c(F)c(F)c(F)c6F)c6ccc3[nH]6)C=C5)C=C4)cc2)c(C(C)(C)C)c1
REMARK SMILES IDX 14 1 13 2 12 3 10 4 11 5 8 7 9 8 7 9 6 10 3 11 4 12 88 13
REMARK SMILES IDX 5 14 83 15 2 16 1 17 84 18 85 19 86 20 87 21 15 22 16 23
REMARK SMILES IDX 17 24 18 25 19 27 20 28 21 29 82 30 22 31 81 32 23 33 24 34
REMARK SMILES IDX 25 35 75 36 26 37 80 38 74 39 76 40 27 41 79 42 73 43 72 44
REMARK SMILES IDX 28 46 60 47 40 48 59 49 41 50 44 51 58 52 77 53 42 54 43 55
REMARK SMILES IDX 57 57 78 58 45 59 29 60 30 61 38 62 31 63 32 64 36 65 39 66
REMARK SMILES IDX 33 67 34 68 37 69 35 70 61 71 62 72 70 73 63 74 64 75 68 76
REMARK SMILES IDX 71 77 65 78 66 79 69 80 67 81 46 82 47 83 55 84 48 85 49 86
REMARK SMILES IDX 53 87 56 88 50 89 51 90 54 91 52 92
REMARK H PARENT 12 6 17 26 76 45 44 56
REMARK Flexibility Score: inf
ROOT
ATOM      1  C   UNL A   1      31.850  27.271  25.864  1.00  0.00     0.023 C 
ENDROOT
BRANCH   1   2
ATOM      2  C   UNL A   1      32.358  25.884  26.258  1.00  0.00     0.116 C 
BRANCH   2   3
ATOM      3  N   UNL A   1      31.353  25.060  26.904  1.00  0.00    -0.350 N 
ATOM      4  C   UNL A   1      30.876  23.841  26.493  1.00  0.00     0.294 C 
ATOM      5  O   UNL A   1      30.087  23.263  27.249  1.00  0.00    -0.267 OA
ATOM      6  H   UNL A   1      30.968  25.419  27.736  1.00  0.00     0.163 HD
BRANCH   4   7
ATOM      7  C   UNL A   1      31.350  23.186  25.161  1.00  0.00     0.440 C 
ATOM      8  F   UNL A   1      30.780  23.729  24.042  1.00  0.00    -0.191 F 
BRANCH   7   9
ATOM      9  O   UNL A   1      32.757  23.058  24.934  1.00  0.00    -0.451 OA
BRANCH   9  10
ATOM     10  C   UNL A   1      33.162  21.758  24.788  1.00  0.00     0.127 A 
ATOM     11  C   UNL A   1      33.841  19.051  24.677  1.00  0.00     0.119 A 
ATOM     12  C   UNL A   1      32.524  19.444  24.492  1.00  0.00     0.050 A 
ATOM     13  C   UNL A   1      34.834  20.028  24.802  1.00  0.00     0.054 A 
ATOM     14  C   UNL A   1      32.183  20.789  24.552  1.00  0.00     0.051 A 
ATOM     15  C   UNL A   1      34.531  21.414  24.776  1.00  0.00     0.003 A 
BRANCH  11  16
ATOM     16  O   UNL A   1      34.028  17.697  24.658  1.00  0.00    -0.497 OA
ATOM     17  C   UNL A   1      33.088  16.904  25.370  1.00  0.00     0.278 C 
ENDBRANCH  11  16
BRANCH  15  18
ATOM     18  C   UNL A   1      35.664  22.463  24.643  1.00  0.00    -0.009 C 
ATOM     19  C   UNL A   1      35.349  23.476  23.513  1.00  0.00     0.016 C 
ATOM     20  C   UNL A   1      35.877  23.223  25.963  1.00  0.00     0.016 C 
ATOM     21  C   UNL A   1      37.028  21.829  24.251  1.00  0.00     0.016 C 
ENDBRANCH  15  18
ENDBRANCH   9  10
ENDBRANCH   7   9
ENDBRANCH   4   7
ENDBRANCH   2   3
ENDBRANCH   1   2
BRANCH   1  22
ATOM     22  C   UNL A   1      32.887  28.398  25.816  1.00  0.00     0.023 C 
BRANCH  22  23
ATOM     23  C   UNL A   1      33.737  28.596  27.067  1.00  0.00     0.116 C 
BRANCH  23  24
ATOM     24  N   UNL A   1      33.686  29.948  27.599  1.00  0.00    -0.352 N 
ATOM     25  C   UNL A   1      34.645  30.662  28.282  1.00  0.00     0.251 C 
ATOM     26  H   UNL A   1      32.839  30.424  27.448  1.00  0.00     0.163 HD
ATOM     27  O   UNL A   1      34.384  31.766  28.742  1.00  0.00    -0.269 OA
BRANCH  25  28
ATOM     28  C   UNL A   1      35.987  30.078  28.497  1.00  0.00     0.039 A 
ATOM     29  C   UNL A   1      36.935  30.167  27.474  1.00  0.00     0.014 A 
ATOM     30  C   UNL A   1      36.314  29.449  29.700  1.00  0.00     0.014 A 
ATOM     31  C   UNL A   1      38.236  29.703  27.688  1.00  0.00     0.010 A 
ATOM     32  C   UNL A   1      37.626  29.038  29.934  1.00  0.00     0.010 A 
ATOM     33  C   UNL A   1      38.605  29.174  28.935  1.00  0.00    -0.014 A 
BRANCH  33  34
ATOM     34  C   UNL A   1      40.012  28.781  29.222  1.00  0.00     0.031 A 
ATOM     35  C   UNL A   1      40.926  29.715  29.965  1.00  0.00     0.074 A 
ATOM     36  C   UNL A   1      40.487  27.609  28.756  1.00  0.00     0.049 A 
ATOM     37  N   UNL A   1      42.203  29.589  30.229  1.00  0.00    -0.248 NA
ATOM     38  C   UNL A   1      40.330  30.964  30.462  1.00  0.00     0.031 C 
ATOM     39  C   UNL A   1      39.714  26.624  27.998  1.00  0.00     0.029 A 
ATOM     40  N   UNL A   1      41.740  27.052  28.841  1.00  0.00    -0.354 N 
ATOM     41  C   UNL A   1      42.562  30.741  30.917  1.00  0.00     0.074 A 
ATOM     42  C   UNL A   1      41.383  31.577  30.984  1.00  0.00     0.031 C 
ATOM     43  C   UNL A   1      40.503  25.577  27.703  1.00  0.00     0.029 A 
ATOM     44  C   UNL A   1      41.847  25.834  28.213  1.00  0.00     0.049 A 
ATOM     45  H   UNL A   1      42.491  27.484  29.308  1.00  0.00     0.167 HD
ATOM     46  C   UNL A   1      43.760  31.063  31.464  1.00  0.00     0.037 A 
ATOM     47  C   UNL A   1      42.911  25.022  28.055  1.00  0.00     0.037 A 
ATOM     48  C   UNL A   1      44.933  30.229  31.407  1.00  0.00     0.049 A 
ATOM     49  C   UNL A   1      44.241  25.426  28.635  1.00  0.00     0.074 A 
ATOM     50  C   UNL A   1      46.185  30.461  31.950  1.00  0.00     0.029 A 
ATOM     51  N   UNL A   1      44.998  29.000  30.768  1.00  0.00    -0.354 N 
ATOM     52  N   UNL A   1      44.555  26.495  29.324  1.00  0.00    -0.248 NA
ATOM     53  C   UNL A   1      45.365  24.503  28.418  1.00  0.00     0.031 C 
ATOM     54  C   UNL A   1      47.018  29.392  31.607  1.00  0.00     0.029 A 
ATOM     55  C   UNL A   1      46.272  28.468  30.892  1.00  0.00     0.049 A 
ATOM     56  H   UNL A   1      44.249  28.568  30.295  1.00  0.00     0.167 HD
ATOM     57  C   UNL A   1      45.896  26.355  29.656  1.00  0.00     0.074 A 
ATOM     58  C   UNL A   1      46.335  25.093  29.101  1.00  0.00     0.031 C 
ATOM     59  C   UNL A   1      46.691  27.198  30.358  1.00  0.00     0.037 A 
BRANCH  46  60
ATOM     60  C   UNL A   1      43.862  32.375  32.186  1.00  0.00     0.064 A 
ATOM     61  C   UNL A   1      44.223  33.552  31.514  1.00  0.00     0.173 A 
ATOM     62  C   UNL A   1      43.545  32.469  33.550  1.00  0.00     0.173 A 
ATOM     63  F   UNL A   1      44.544  33.515  30.211  1.00  0.00    -0.203 F 
ATOM     64  C   UNL A   1      44.291  34.770  32.186  1.00  0.00     0.198 A 
ATOM     65  C   UNL A   1      43.584  33.693  34.212  1.00  0.00     0.198 A 
ATOM     66  F   UNL A   1      43.184  31.375  34.238  1.00  0.00    -0.203 F 
ATOM     67  F   UNL A   1      44.681  35.873  31.532  1.00  0.00    -0.200 F 
ATOM     68  C   UNL A   1      43.964  34.841  33.531  1.00  0.00     0.200 A 
ATOM     69  F   UNL A   1      43.254  33.763  35.508  1.00  0.00    -0.200 F 
ATOM     70  F   UNL A   1      44.018  36.016  34.174  1.00  0.00    -0.200 F 
ENDBRANCH  46  60
BRANCH  47  71
ATOM     71  C   UNL A   1      42.770  23.732  27.329  1.00  0.00     0.064 A 
ATOM     72  C   UNL A   1      42.285  22.590  27.984  1.00  0.00     0.173 A 
ATOM     73  C   UNL A   1      43.149  23.601  25.985  1.00  0.00     0.173 A 
ATOM     74  F   UNL A   1      41.933  22.660  29.276  1.00  0.00    -0.203 F 
ATOM     75  C   UNL A   1      42.214  21.362  27.331  1.00  0.00     0.198 A 
ATOM     76  C   UNL A   1      43.047  22.378  25.325  1.00  0.00     0.198 A 
ATOM     77  F   UNL A   1      43.616  24.662  25.312  1.00  0.00    -0.203 F 
ATOM     78  F   UNL A   1      41.802  20.274  27.999  1.00  0.00    -0.200 F 
ATOM     79  C   UNL A   1      42.591  21.256  26.002  1.00  0.00     0.200 A 
ATOM     80  F   UNL A   1      43.402  22.283  24.036  1.00  0.00    -0.200 F 
ATOM     81  F   UNL A   1      42.528  20.073  25.377  1.00  0.00    -0.200 F 
ENDBRANCH  47  71
BRANCH  59  82
ATOM     82  C   UNL A   1      48.103  26.760  30.620  1.00  0.00     0.064 A 
ATOM     83  C   UNL A   1      48.434  25.952  31.716  1.00  0.00     0.173 A 
ATOM     84  C   UNL A   1      49.131  27.124  29.736  1.00  0.00     0.173 A 
ATOM     85  F   UNL A   1      47.491  25.590  32.599  1.00  0.00    -0.203 F 
ATOM     86  C   UNL A   1      49.749  25.544  31.933  1.00  0.00     0.198 A 
ATOM     87  C   UNL A   1      50.438  26.690  29.940  1.00  0.00     0.198 A 
ATOM     88  F   UNL A   1      48.866  27.892  28.669  1.00  0.00    -0.203 F 
ATOM     89  F   UNL A   1      50.052  24.812  33.014  1.00  0.00    -0.200 F 
ATOM     90  C   UNL A   1      50.747  25.907  31.041  1.00  0.00     0.200 A 
ATOM     91  F   UNL A   1      51.398  27.030  29.069  1.00  0.00    -0.200 F 
ATOM     92  F   UNL A   1      52.009  25.507  31.248  1.00  0.00    -0.200 F 
ENDBRANCH  59  82
ENDBRANCH  33  34
ENDBRANCH  25  28
ENDBRANCH  23  24
ENDBRANCH  22  23
ENDBRANCH   1  22
TORSDOF 15
ENDMDL
