MODEL 1
REMARK VINA RESULT:     -12.4      0.000      0.000
REMARK SMILES CCc1ccc(Oc2ncnc(N3CCC(C(=O)NCCCCNC(=O)c4ccc(-c5c6nc(c(-c7c(F)c(F)c(F)c(F)c7F)c7ccc([nH]7)c(-c7c(F)c(F)c(F)c(F)c7F)c7nc(c(-c8c(F)c(F)c(F)c(F)c8F)c8ccc5[nH]8)C=C7)C=C6)cc4)CC3)c2[N+](=O)[O-])cc1
REMARK SMILES IDX 20 1 19 2 17 3 18 4 16 6 13 7 14 8 91 9 15 10 90 11 12 12
REMARK SMILES IDX 8 13 9 14 92 15 10 16 11 17 7 18 6 19 3 20 4 21 97 22 5 23
REMARK SMILES IDX 96 24 2 25 1 26 93 27 94 28 95 29 21 30 22 31 23 32 24 33
REMARK SMILES IDX 25 34 26 36 27 37 28 38 89 39 29 40 88 41 30 42 31 43 32 44
REMARK SMILES IDX 82 45 33 46 87 47 81 48 83 49 34 50 86 51 80 52 79 53 35 55
REMARK SMILES IDX 67 56 47 57 66 58 48 59 51 60 65 61 84 62 49 63 50 64 64 66
REMARK SMILES IDX 85 67 52 68 36 69 37 70 45 71 38 72 39 73 43 74 46 75 40 76
REMARK SMILES IDX 41 77 44 78 42 79 68 80 69 81 77 82 70 83 71 84 75 85 78 86
REMARK SMILES IDX 72 87 73 88 76 89 74 90 53 91 54 92 62 93 55 94 56 95 60 96
REMARK SMILES IDX 63 97 57 98 58 99 61 100 59 101
REMARK H PARENT 19 5 24 35 83 54 51 65
REMARK Flexibility Score: inf
ROOT
ATOM      1  C   UNL A   1      35.987  20.438  24.995  1.00  0.00     0.116 C 
ENDROOT
BRANCH   1   2
ATOM      2  N   UNL A   1      35.818  19.009  24.779  1.00  0.00    -0.356 N 
ATOM      3  C   UNL A   1      34.690  18.271  24.571  1.00  0.00     0.223 C 
ATOM      4  O   UNL A   1      34.815  17.053  24.432  1.00  0.00    -0.275 OA
ATOM      5  H   UNL A   1      36.654  18.490  24.785  1.00  0.00     0.163 HD
BRANCH   3   6
ATOM      6  C   UNL A   1      33.318  18.924  24.483  1.00  0.00     0.082 C 
ATOM      7  N   UNL A   1      32.162  21.449  23.951  1.00  0.00    -0.351 N 
ATOM      8  C   UNL A   1      32.055  20.994  25.331  1.00  0.00     0.119 C 
ATOM      9  C   UNL A   1      31.954  20.436  22.930  1.00  0.00     0.119 C 
ATOM     10  C   UNL A   1      33.125  19.953  25.611  1.00  0.00     0.035 C 
ATOM     11  C   UNL A   1      33.065  19.405  23.041  1.00  0.00     0.035 C 
BRANCH   7  12
ATOM     12  C   UNL A   1      32.058  22.801  23.731  1.00  0.00     0.215 A 
ATOM     13  C   UNL A   1      32.819  25.033  23.470  1.00  0.00     0.305 A 
ATOM     14  N   UNL A   1      31.579  25.465  23.167  1.00  0.00    -0.195 NA
ATOM     15  C   UNL A   1      33.086  23.723  23.812  1.00  0.00     0.373 A 
ATOM     16  C   UNL A   1      30.630  24.527  23.148  1.00  0.00     0.228 A 
ATOM     17  N   UNL A   1      30.817  23.220  23.384  1.00  0.00    -0.212 NA
BRANCH  13  18
ATOM     18  O   UNL A   1      33.772  26.024  23.423  1.00  0.00    -0.434 OA
BRANCH  18  19
ATOM     19  C   UNL A   1      33.714  27.027  24.369  1.00  0.00     0.129 A 
ATOM     20  C   UNL A   1      33.343  29.193  26.132  1.00  0.00    -0.048 A 
ATOM     21  C   UNL A   1      33.326  29.384  24.741  1.00  0.00     0.007 A 
ATOM     22  C   UNL A   1      33.609  27.909  26.622  1.00  0.00     0.007 A 
ATOM     23  C   UNL A   1      33.509  28.310  23.867  1.00  0.00     0.047 A 
ATOM     24  C   UNL A   1      33.819  26.837  25.749  1.00  0.00     0.047 A 
BRANCH  20  25
ATOM     25  C   UNL A   1      33.040  30.380  27.018  1.00  0.00     0.032 C 
ATOM     26  C   UNL A   1      31.785  31.180  26.692  1.00  0.00     0.009 C 
ENDBRANCH  20  25
ENDBRANCH  18  19
ENDBRANCH  13  18
BRANCH  15  27
ATOM     27  N   UNL A   1      34.414  23.330  24.156  1.00  0.00     0.072 N 
ATOM     28  O   UNL A   1      35.165  22.978  23.235  1.00  0.00    -0.258 OA
ATOM     29  O   UNL A   1      34.708  23.338  25.359  1.00  0.00    -0.258 OA
ENDBRANCH  15  27
ENDBRANCH   7  12
ENDBRANCH   3   6
ENDBRANCH   1   2
BRANCH   1  30
ATOM     30  C   UNL A   1      37.455  20.853  24.912  1.00  0.00     0.023 C 
BRANCH  30  31
ATOM     31  C   UNL A   1      38.449  19.698  25.020  1.00  0.00     0.023 C 
BRANCH  31  32
ATOM     32  C   UNL A   1      39.510  19.861  26.102  1.00  0.00     0.116 C 
BRANCH  32  33
ATOM     33  N   UNL A   1      40.595  18.899  25.986  1.00  0.00    -0.352 N 
ATOM     34  C   UNL A   1      41.951  19.119  26.023  1.00  0.00     0.251 C 
ATOM     35  H   UNL A   1      40.321  17.962  25.863  1.00  0.00     0.163 HD
ATOM     36  O   UNL A   1      42.735  18.208  25.776  1.00  0.00    -0.269 OA
BRANCH  34  37
ATOM     37  C   UNL A   1      42.459  20.471  26.327  1.00  0.00     0.039 A 
ATOM     38  C   UNL A   1      42.819  21.310  25.269  1.00  0.00     0.014 A 
ATOM     39  C   UNL A   1      42.552  20.920  27.647  1.00  0.00     0.014 A 
ATOM     40  C   UNL A   1      43.206  22.624  25.533  1.00  0.00     0.010 A 
ATOM     41  C   UNL A   1      42.860  22.253  27.903  1.00  0.00     0.010 A 
ATOM     42  C   UNL A   1      43.192  23.117  26.849  1.00  0.00    -0.014 A 
BRANCH  42  43
ATOM     43  C   UNL A   1      43.521  24.535  27.142  1.00  0.00     0.031 A 
ATOM     44  C   UNL A   1      44.925  25.037  26.954  1.00  0.00     0.074 A 
ATOM     45  C   UNL A   1      42.571  25.351  27.640  1.00  0.00     0.049 A 
ATOM     46  N   UNL A   1      45.424  26.219  27.214  1.00  0.00    -0.248 NA
ATOM     47  C   UNL A   1      45.906  24.075  26.429  1.00  0.00     0.031 C 
ATOM     48  C   UNL A   1      41.187  24.967  27.916  1.00  0.00     0.029 A 
ATOM     49  N   UNL A   1      42.630  26.671  28.010  1.00  0.00    -0.354 N 
ATOM     50  C   UNL A   1      46.773  26.136  26.899  1.00  0.00     0.074 A 
ATOM     51  C   UNL A   1      47.029  24.774  26.484  1.00  0.00     0.031 C 
ATOM     52  C   UNL A   1      40.521  26.033  28.387  1.00  0.00     0.029 A 
ATOM     53  C   UNL A   1      41.439  27.164  28.483  1.00  0.00     0.049 A 
ATOM     54  H   UNL A   1      43.449  27.213  27.944  1.00  0.00     0.167 HD
ATOM     55  C   UNL A   1      47.709  27.115  26.927  1.00  0.00     0.037 A 
ATOM     56  C   UNL A   1      41.125  28.390  28.944  1.00  0.00     0.037 A 
ATOM     57  C   UNL A   1      47.446  28.475  27.317  1.00  0.00     0.049 A 
ATOM     58  C   UNL A   1      42.184  29.458  28.969  1.00  0.00     0.074 A 
ATOM     59  C   UNL A   1      48.312  29.554  27.324  1.00  0.00     0.029 A 
ATOM     60  N   UNL A   1      46.221  28.943  27.771  1.00  0.00    -0.354 N 
ATOM     61  N   UNL A   1      43.441  29.387  28.601  1.00  0.00    -0.248 NA
ATOM     62  C   UNL A   1      41.779  30.780  29.469  1.00  0.00     0.031 C 
ATOM     63  C   UNL A   1      47.623  30.664  27.826  1.00  0.00     0.029 A 
ATOM     64  C   UNL A   1      46.314  30.290  28.082  1.00  0.00     0.049 A 
ATOM     65  H   UNL A   1      45.406  28.397  27.860  1.00  0.00     0.167 HD
ATOM     66  C   UNL A   1      43.967  30.657  28.794  1.00  0.00     0.074 A 
ATOM     67  C   UNL A   1      42.889  31.483  29.298  1.00  0.00     0.031 C 
ATOM     68  C   UNL A   1      45.230  31.100  28.573  1.00  0.00     0.037 A 
BRANCH  55  69
ATOM     69  C   UNL A   1      49.108  26.749  26.518  1.00  0.00     0.064 A 
ATOM     70  C   UNL A   1      49.556  26.919  25.199  1.00  0.00     0.173 A 
ATOM     71  C   UNL A   1      50.020  26.255  27.462  1.00  0.00     0.173 A 
ATOM     72  F   UNL A   1      48.720  27.376  24.255  1.00  0.00    -0.203 F 
ATOM     73  C   UNL A   1      50.856  26.578  24.833  1.00  0.00     0.198 A 
ATOM     74  C   UNL A   1      51.329  25.946  27.099  1.00  0.00     0.198 A 
ATOM     75  F   UNL A   1      49.646  26.079  28.738  1.00  0.00    -0.203 F 
ATOM     76  F   UNL A   1      51.244  26.698  23.556  1.00  0.00    -0.200 F 
ATOM     77  C   UNL A   1      51.743  26.098  25.785  1.00  0.00     0.200 A 
ATOM     78  F   UNL A   1      52.189  25.495  28.024  1.00  0.00    -0.200 F 
ATOM     79  F   UNL A   1      52.995  25.778  25.433  1.00  0.00    -0.200 F 
ENDBRANCH  55  69
BRANCH  56  80
ATOM     80  C   UNL A   1      39.738  28.682  29.394  1.00  0.00     0.064 A 
ATOM     81  C   UNL A   1      39.355  28.462  30.725  1.00  0.00     0.173 A 
ATOM     82  C   UNL A   1      38.769  29.177  28.510  1.00  0.00     0.173 A 
ATOM     83  F   UNL A   1      40.240  27.970  31.604  1.00  0.00    -0.203 F 
ATOM     84  C   UNL A   1      38.050  28.704  31.148  1.00  0.00     0.198 A 
ATOM     85  C   UNL A   1      37.472  29.447  28.942  1.00  0.00     0.198 A 
ATOM     86  F   UNL A   1      39.086  29.410  27.229  1.00  0.00    -0.203 F 
ATOM     87  F   UNL A   1      37.698  28.438  32.414  1.00  0.00    -0.200 F 
ATOM     88  C   UNL A   1      37.111  29.201  30.258  1.00  0.00     0.200 A 
ATOM     89  F   UNL A   1      36.572  29.940  28.081  1.00  0.00    -0.200 F 
ATOM     90  F   UNL A   1      35.856  29.436  30.665  1.00  0.00    -0.200 F 
ENDBRANCH  56  80
BRANCH  68  91
ATOM     91  C   UNL A   1      45.505  32.551  28.838  1.00  0.00     0.064 A 
ATOM     92  C   UNL A   1      45.279  33.536  27.865  1.00  0.00     0.173 A 
ATOM     93  C   UNL A   1      45.966  32.966  30.098  1.00  0.00     0.173 A 
ATOM     94  F   UNL A   1      44.854  33.190  26.641  1.00  0.00    -0.203 F 
ATOM     95  C   UNL A   1      45.530  34.879  28.134  1.00  0.00     0.198 A 
ATOM     96  C   UNL A   1      46.186  34.312  30.374  1.00  0.00     0.198 A 
ATOM     97  F   UNL A   1      46.192  32.065  31.066  1.00  0.00    -0.203 F 
ATOM     98  F   UNL A   1      45.355  35.796  27.174  1.00  0.00    -0.200 F 
ATOM     99  C   UNL A   1      45.976  35.266  29.389  1.00  0.00     0.200 A 
ATOM    100  F   UNL A   1      46.603  34.686  31.590  1.00  0.00    -0.200 F 
ATOM    101  F   UNL A   1      46.210  36.560  29.648  1.00  0.00    -0.200 F 
ENDBRANCH  68  91
ENDBRANCH  42  43
ENDBRANCH  34  37
ENDBRANCH  32  33
ENDBRANCH  31  32
ENDBRANCH  30  31
ENDBRANCH   1  30
TORSDOF 16
ENDMDL
MODEL 2
REMARK VINA RESULT:     -12.3      3.141      4.946
REMARK SMILES CCc1ccc(Oc2ncnc(N3CCC(C(=O)NCCCCNC(=O)c4ccc(-c5c6nc(c(-c7c(F)c(F)c(F)c(F)c7F)c7ccc([nH]7)c(-c7c(F)c(F)c(F)c(F)c7F)c7nc(c(-c8c(F)c(F)c(F)c(F)c8F)c8ccc5[nH]8)C=C7)C=C6)cc4)CC3)c2[N+](=O)[O-])cc1
REMARK SMILES IDX 20 1 19 2 17 3 18 4 16 6 13 7 14 8 91 9 15 10 90 11 12 12
REMARK SMILES IDX 8 13 9 14 92 15 10 16 11 17 7 18 6 19 3 20 4 21 97 22 5 23
REMARK SMILES IDX 96 24 2 25 1 26 93 27 94 28 95 29 21 30 22 31 23 32 24 33
REMARK SMILES IDX 25 34 26 36 27 37 28 38 89 39 29 40 88 41 30 42 31 43 32 44
REMARK SMILES IDX 82 45 33 46 87 47 81 48 83 49 34 50 86 51 80 52 79 53 35 55
REMARK SMILES IDX 67 56 47 57 66 58 48 59 51 60 65 61 84 62 49 63 50 64 64 66
REMARK SMILES IDX 85 67 52 68 36 69 37 70 45 71 38 72 39 73 43 74 46 75 40 76
REMARK SMILES IDX 41 77 44 78 42 79 68 80 69 81 77 82 70 83 71 84 75 85 78 86
REMARK SMILES IDX 72 87 73 88 76 89 74 90 53 91 54 92 62 93 55 94 56 95 60 96
REMARK SMILES IDX 63 97 57 98 58 99 61 100 59 101
REMARK H PARENT 19 5 24 35 83 54 51 65
REMARK Flexibility Score: inf
ROOT
ATOM      1  C   UNL A   1      34.126  21.420  26.986  1.00  0.00     0.116 C 
ENDROOT
BRANCH   1   2
ATOM      2  N   UNL A   1      33.621  20.151  26.486  1.00  0.00    -0.356 N 
ATOM      3  C   UNL A   1      32.743  19.881  25.478  1.00  0.00     0.223 C 
ATOM      4  O   UNL A   1      32.459  18.701  25.260  1.00  0.00    -0.275 OA
ATOM      5  H   UNL A   1      33.969  19.357  26.952  1.00  0.00     0.163 HD
BRANCH   3   6
ATOM      6  C   UNL A   1      32.148  20.992  24.624  1.00  0.00     0.082 C 
ATOM      7  N   UNL A   1      32.357  23.789  24.273  1.00  0.00    -0.351 N 
ATOM      8  C   UNL A   1      31.107  23.328  24.862  1.00  0.00     0.119 C 
ATOM      9  C   UNL A   1      32.884  22.979  23.188  1.00  0.00     0.119 C 
ATOM     10  C   UNL A   1      31.309  21.956  25.482  1.00  0.00     0.035 C 
ATOM     11  C   UNL A   1      33.247  21.610  23.740  1.00  0.00     0.035 C 
BRANCH   7  12
ATOM     12  C   UNL A   1      32.709  25.097  24.504  1.00  0.00     0.215 A 
ATOM     13  C   UNL A   1      32.980  27.402  24.011  1.00  0.00     0.305 A 
ATOM     14  N   UNL A   1      33.407  27.662  25.262  1.00  0.00    -0.195 NA
ATOM     15  C   UNL A   1      32.676  26.126  23.580  1.00  0.00     0.373 A 
ATOM     16  C   UNL A   1      33.452  26.614  26.086  1.00  0.00     0.228 A 
ATOM     17  N   UNL A   1      33.095  25.359  25.775  1.00  0.00    -0.212 NA
BRANCH  13  18
ATOM     18  O   UNL A   1      32.898  28.520  23.214  1.00  0.00    -0.434 OA
BRANCH  18  19
ATOM     19  C   UNL A   1      31.670  29.135  23.082  1.00  0.00     0.129 A 
ATOM     20  C   UNL A   1      29.281  30.627  23.004  1.00  0.00    -0.048 A 
ATOM     21  C   UNL A   1      29.960  30.416  24.214  1.00  0.00     0.007 A 
ATOM     22  C   UNL A   1      29.789  30.027  21.845  1.00  0.00     0.007 A 
ATOM     23  C   UNL A   1      31.145  29.677  24.253  1.00  0.00     0.047 A 
ATOM     24  C   UNL A   1      30.960  29.264  21.886  1.00  0.00     0.047 A 
BRANCH  20  25
ATOM     25  C   UNL A   1      28.059  31.518  23.017  1.00  0.00     0.032 C 
ATOM     26  C   UNL A   1      28.076  32.722  22.083  1.00  0.00     0.009 C 
ENDBRANCH  20  25
ENDBRANCH  18  19
ENDBRANCH  13  18
BRANCH  15  27
ATOM     27  N   UNL A   1      32.260  25.905  22.234  1.00  0.00     0.072 N 
ATOM     28  O   UNL A   1      31.045  25.780  22.021  1.00  0.00    -0.258 OA
ATOM     29  O   UNL A   1      33.150  25.823  21.376  1.00  0.00    -0.258 OA
ENDBRANCH  15  27
ENDBRANCH   7  12
ENDBRANCH   3   6
ENDBRANCH   1   2
BRANCH   1  30
ATOM     30  C   UNL A   1      35.510  21.739  26.426  1.00  0.00     0.023 C 
BRANCH  30  31
ATOM     31  C   UNL A   1      35.614  23.089  25.718  1.00  0.00     0.023 C 
BRANCH  31  32
ATOM     32  C   UNL A   1      37.002  23.439  25.199  1.00  0.00     0.116 C 
BRANCH  32  33
ATOM     33  N   UNL A   1      38.025  22.494  25.620  1.00  0.00    -0.352 N 
ATOM     34  C   UNL A   1      39.185  22.730  26.317  1.00  0.00     0.251 C 
ATOM     35  H   UNL A   1      37.863  21.555  25.371  1.00  0.00     0.163 HD
ATOM     36  O   UNL A   1      40.007  21.833  26.477  1.00  0.00    -0.269 OA
BRANCH  34  37
ATOM     37  C   UNL A   1      39.454  24.084  26.842  1.00  0.00     0.039 A 
ATOM     38  C   UNL A   1      39.090  24.380  28.158  1.00  0.00     0.014 A 
ATOM     39  C   UNL A   1      40.086  25.045  26.051  1.00  0.00     0.014 A 
ATOM     40  C   UNL A   1      39.427  25.620  28.703  1.00  0.00     0.010 A 
ATOM     41  C   UNL A   1      40.491  26.249  26.618  1.00  0.00     0.010 A 
ATOM     42  C   UNL A   1      40.163  26.549  27.949  1.00  0.00    -0.014 A 
BRANCH  42  43
ATOM     43  C   UNL A   1      40.601  27.840  28.537  1.00  0.00     0.031 A 
ATOM     44  C   UNL A   1      42.037  28.041  28.930  1.00  0.00     0.074 A 
ATOM     45  C   UNL A   1      39.692  28.806  28.776  1.00  0.00     0.049 A 
ATOM     46  N   UNL A   1      42.601  29.068  29.513  1.00  0.00    -0.248 NA
ATOM     47  C   UNL A   1      42.959  26.928  28.656  1.00  0.00     0.031 C 
ATOM     48  C   UNL A   1      38.261  28.710  28.489  1.00  0.00     0.029 A 
ATOM     49  N   UNL A   1      39.838  30.055  29.326  1.00  0.00    -0.354 N 
ATOM     50  C   UNL A   1      43.933  28.719  29.688  1.00  0.00     0.074 A 
ATOM     51  C   UNL A   1      44.083  27.365  29.202  1.00  0.00     0.031 C 
ATOM     52  C   UNL A   1      37.665  29.861  28.840  1.00  0.00     0.029 A 
ATOM     53  C   UNL A   1      38.662  30.760  29.412  1.00  0.00     0.049 A 
ATOM     54  H   UNL A   1      40.703  30.412  29.631  1.00  0.00     0.167 HD
ATOM     55  C   UNL A   1      44.946  29.470  30.182  1.00  0.00     0.037 A 
ATOM     56  C   UNL A   1      38.418  31.991  29.900  1.00  0.00     0.037 A 
ATOM     57  C   UNL A   1      44.798  30.826  30.641  1.00  0.00     0.049 A 
ATOM     58  C   UNL A   1      39.560  32.802  30.449  1.00  0.00     0.074 A 
ATOM     59  C   UNL A   1      45.773  31.691  31.106  1.00  0.00     0.029 A 
ATOM     60  N   UNL A   1      43.594  31.514  30.695  1.00  0.00    -0.354 N 
ATOM     61  N   UNL A   1      40.829  32.489  30.542  1.00  0.00    -0.248 NA
ATOM     62  C   UNL A   1      39.235  34.144  30.954  1.00  0.00     0.031 C 
ATOM     63  C   UNL A   1      45.151  32.887  31.484  1.00  0.00     0.029 A 
ATOM     64  C   UNL A   1      43.798  32.786  31.205  1.00  0.00     0.049 A 
ATOM     65  H   UNL A   1      42.723  31.151  30.412  1.00  0.00     0.167 HD
ATOM     66  C   UNL A   1      41.459  33.600  31.085  1.00  0.00     0.074 A 
ATOM     67  C   UNL A   1      40.433  34.603  31.287  1.00  0.00     0.031 C 
ATOM     68  C   UNL A   1      42.768  33.776  31.390  1.00  0.00     0.037 A 
BRANCH  55  69
ATOM     69  C   UNL A   1      46.309  28.841  30.246  1.00  0.00     0.064 A 
ATOM     70  C   UNL A   1      46.745  28.148  31.386  1.00  0.00     0.173 A 
ATOM     71  C   UNL A   1      47.174  28.902  29.144  1.00  0.00     0.173 A 
ATOM     72  F   UNL A   1      45.961  28.071  32.471  1.00  0.00    -0.203 F 
ATOM     73  C   UNL A   1      48.010  27.567  31.432  1.00  0.00     0.198 A 
ATOM     74  C   UNL A   1      48.426  28.292  29.182  1.00  0.00     0.198 A 
ATOM     75  F   UNL A   1      46.805  29.547  28.027  1.00  0.00    -0.203 F 
ATOM     76  F   UNL A   1      48.425  26.957  32.550  1.00  0.00    -0.200 F 
ATOM     77  C   UNL A   1      48.846  27.633  30.327  1.00  0.00     0.200 A 
ATOM     78  F   UNL A   1      49.228  28.345  28.109  1.00  0.00    -0.200 F 
ATOM     79  F   UNL A   1      50.060  27.067  30.371  1.00  0.00    -0.200 F 
ENDBRANCH  55  69
BRANCH  56  80
ATOM     80  C   UNL A   1      37.038  32.543  29.868  1.00  0.00     0.064 A 
ATOM     81  C   UNL A   1      36.574  33.250  28.749  1.00  0.00     0.173 A 
ATOM     82  C   UNL A   1      36.160  32.386  30.949  1.00  0.00     0.173 A 
ATOM     83  F   UNL A   1      37.383  33.445  27.698  1.00  0.00    -0.203 F 
ATOM     84  C   UNL A   1      35.293  33.797  28.723  1.00  0.00     0.198 A 
ATOM     85  C   UNL A   1      34.869  32.908  30.910  1.00  0.00     0.198 A 
ATOM     86  F   UNL A   1      36.553  31.714  32.041  1.00  0.00    -0.203 F 
ATOM     87  F   UNL A   1      34.893  34.509  27.660  1.00  0.00    -0.200 F 
ATOM     88  C   UNL A   1      34.439  33.621  29.801  1.00  0.00     0.200 A 
ATOM     89  F   UNL A   1      34.042  32.724  31.948  1.00  0.00    -0.200 F 
ATOM     90  F   UNL A   1      33.206  34.145  29.775  1.00  0.00    -0.200 F 
ENDBRANCH  56  80
BRANCH  68  91
ATOM     91  C   UNL A   1      43.174  35.113  31.937  1.00  0.00     0.064 A 
ATOM     92  C   UNL A   1      43.115  35.399  33.309  1.00  0.00     0.173 A 
ATOM     93  C   UNL A   1      43.665  36.110  31.078  1.00  0.00     0.173 A 
ATOM     94  F   UNL A   1      42.640  34.486  34.168  1.00  0.00    -0.203 F 
ATOM     95  C   UNL A   1      43.507  36.643  33.798  1.00  0.00     0.198 A 
ATOM     96  C   UNL A   1      44.085  37.340  31.574  1.00  0.00     0.198 A 
ATOM     97  F   UNL A   1      43.747  35.885  29.758  1.00  0.00    -0.203 F 
ATOM     98  F   UNL A   1      43.395  36.911  35.105  1.00  0.00    -0.200 F 
ATOM     99  C   UNL A   1      43.998  37.608  32.932  1.00  0.00     0.200 A 
ATOM    100  F   UNL A   1      44.572  38.267  30.739  1.00  0.00    -0.200 F 
ATOM    101  F   UNL A   1      44.381  38.802  33.406  1.00  0.00    -0.200 F 
ENDBRANCH  68  91
ENDBRANCH  42  43
ENDBRANCH  34  37
ENDBRANCH  32  33
ENDBRANCH  31  32
ENDBRANCH  30  31
ENDBRANCH   1  30
TORSDOF 16
ENDMDL
MODEL 3
REMARK VINA RESULT:     -12.3      4.745      9.389
REMARK SMILES CCc1ccc(Oc2ncnc(N3CCC(C(=O)NCCCCNC(=O)c4ccc(-c5c6nc(c(-c7c(F)c(F)c(F)c(F)c7F)c7ccc([nH]7)c(-c7c(F)c(F)c(F)c(F)c7F)c7nc(c(-c8c(F)c(F)c(F)c(F)c8F)c8ccc5[nH]8)C=C7)C=C6)cc4)CC3)c2[N+](=O)[O-])cc1
REMARK SMILES IDX 20 1 19 2 17 3 18 4 16 6 13 7 14 8 91 9 15 10 90 11 12 12
REMARK SMILES IDX 8 13 9 14 92 15 10 16 11 17 7 18 6 19 3 20 4 21 97 22 5 23
REMARK SMILES IDX 96 24 2 25 1 26 93 27 94 28 95 29 21 30 22 31 23 32 24 33
REMARK SMILES IDX 25 34 26 36 27 37 28 38 89 39 29 40 88 41 30 42 31 43 32 44
REMARK SMILES IDX 82 45 33 46 87 47 81 48 83 49 34 50 86 51 80 52 79 53 35 55
REMARK SMILES IDX 67 56 47 57 66 58 48 59 51 60 65 61 84 62 49 63 50 64 64 66
REMARK SMILES IDX 85 67 52 68 36 69 37 70 45 71 38 72 39 73 43 74 46 75 40 76
REMARK SMILES IDX 41 77 44 78 42 79 68 80 69 81 77 82 70 83 71 84 75 85 78 86
REMARK SMILES IDX 72 87 73 88 76 89 74 90 53 91 54 92 62 93 55 94 56 95 60 96
REMARK SMILES IDX 63 97 57 98 58 99 61 100 59 101
REMARK H PARENT 19 5 24 35 83 54 51 65
REMARK Flexibility Score: inf
ROOT
ATOM      1  C   UNL A   1      44.019  25.159  26.539  1.00  0.00     0.116 C 
ENDROOT
BRANCH   1   2
ATOM      2  N   UNL A   1      43.537  25.959  25.423  1.00  0.00    -0.356 N 
ATOM      3  C   UNL A   1      43.338  27.305  25.317  1.00  0.00     0.223 C 
ATOM      4  O   UNL A   1      42.898  27.741  24.251  1.00  0.00    -0.275 OA
ATOM      5  H   UNL A   1      43.319  25.446  24.612  1.00  0.00     0.163 HD
BRANCH   3   6
ATOM      6  C   UNL A   1      43.673  28.250  26.462  1.00  0.00     0.082 C 
ATOM      7  N   UNL A   1      44.117  31.004  26.925  1.00  0.00    -0.351 N 
ATOM      8  C   UNL A   1      45.296  30.155  27.043  1.00  0.00     0.119 C 
ATOM      9  C   UNL A   1      42.888  30.464  27.480  1.00  0.00     0.119 C 
ATOM     10  C   UNL A   1      45.074  28.862  26.278  1.00  0.00     0.035 C 
ATOM     11  C   UNL A   1      42.503  29.226  26.687  1.00  0.00     0.035 C 
BRANCH   7  12
ATOM     12  C   UNL A   1      44.333  32.337  26.674  1.00  0.00     0.215 A 
ATOM     13  C   UNL A   1      44.659  34.629  27.194  1.00  0.00     0.305 A 
ATOM     14  N   UNL A   1      44.870  34.936  25.899  1.00  0.00    -0.195 NA
ATOM     15  C   UNL A   1      44.333  33.354  27.612  1.00  0.00     0.373 A 
ATOM     16  C   UNL A   1      44.815  33.912  25.046  1.00  0.00     0.228 A 
ATOM     17  N   UNL A   1      44.588  32.631  25.376  1.00  0.00    -0.212 NA
BRANCH  13  18
ATOM     18  O   UNL A   1      44.781  35.706  28.041  1.00  0.00    -0.434 OA
BRANCH  18  19
ATOM     19  C   UNL A   1      43.874  36.738  27.914  1.00  0.00     0.129 A 
ATOM     20  C   UNL A   1      42.281  39.046  27.641  1.00  0.00    -0.048 A 
ATOM     21  C   UNL A   1      43.364  39.018  28.534  1.00  0.00     0.007 A 
ATOM     22  C   UNL A   1      41.975  37.877  26.933  1.00  0.00     0.007 A 
ATOM     23  C   UNL A   1      44.154  37.875  28.669  1.00  0.00     0.047 A 
ATOM     24  C   UNL A   1      42.749  36.722  27.086  1.00  0.00     0.047 A 
BRANCH  20  25
ATOM     25  C   UNL A   1      41.528  40.346  27.473  1.00  0.00     0.032 C 
ATOM     26  C   UNL A   1      41.379  40.875  26.051  1.00  0.00     0.009 C 
ENDBRANCH  20  25
ENDBRANCH  18  19
ENDBRANCH  13  18
BRANCH  15  27
ATOM     27  N   UNL A   1      44.088  33.094  28.993  1.00  0.00     0.072 N 
ATOM     28  O   UNL A   1      45.030  32.661  29.671  1.00  0.00    -0.258 OA
ATOM     29  O   UNL A   1      42.937  33.290  29.406  1.00  0.00    -0.258 OA
ENDBRANCH  15  27
ENDBRANCH   7  12
ENDBRANCH   3   6
ENDBRANCH   1   2
BRANCH   1  30
ATOM     30  C   UNL A   1      43.958  23.664  26.232  1.00  0.00     0.023 C 
BRANCH  30  31
ATOM     31  C   UNL A   1      42.628  23.189  25.650  1.00  0.00     0.023 C 
BRANCH  31  32
ATOM     32  C   UNL A   1      41.693  22.516  26.648  1.00  0.00     0.116 C 
BRANCH  32  33
ATOM     33  N   UNL A   1      40.330  22.386  26.155  1.00  0.00    -0.352 N 
ATOM     34  C   UNL A   1      39.257  23.221  26.352  1.00  0.00     0.251 C 
ATOM     35  H   UNL A   1      40.152  21.589  25.605  1.00  0.00     0.163 HD
ATOM     36  O   UNL A   1      38.137  22.894  25.973  1.00  0.00    -0.269 OA
BRANCH  34  37
ATOM     37  C   UNL A   1      39.456  24.503  27.058  1.00  0.00     0.039 A 
ATOM     38  C   UNL A   1      39.079  24.598  28.400  1.00  0.00     0.014 A 
ATOM     39  C   UNL A   1      40.037  25.595  26.409  1.00  0.00     0.014 A 
ATOM     40  C   UNL A   1      39.351  25.769  29.110  1.00  0.00     0.010 A 
ATOM     41  C   UNL A   1      40.378  26.729  27.137  1.00  0.00     0.010 A 
ATOM     42  C   UNL A   1      40.037  26.828  28.494  1.00  0.00    -0.014 A 
BRANCH  42  43
ATOM     43  C   UNL A   1      40.408  28.049  29.254  1.00  0.00     0.031 A 
ATOM     44  C   UNL A   1      41.760  28.152  29.901  1.00  0.00     0.074 A 
ATOM     45  C   UNL A   1      39.502  29.033  29.417  1.00  0.00     0.049 A 
ATOM     46  N   UNL A   1      42.247  29.104  30.656  1.00  0.00    -0.248 NA
ATOM     47  C   UNL A   1      42.680  27.023  29.694  1.00  0.00     0.031 C 
ATOM     48  C   UNL A   1      38.139  29.026  28.884  1.00  0.00     0.029 A 
ATOM     49  N   UNL A   1      39.590  30.228  30.087  1.00  0.00    -0.354 N 
ATOM     50  C   UNL A   1      43.517  28.682  31.023  1.00  0.00     0.074 A 
ATOM     51  C   UNL A   1      43.706  27.364  30.458  1.00  0.00     0.031 C 
ATOM     52  C   UNL A   1      37.529  30.172  29.225  1.00  0.00     0.029 A 
ATOM     53  C   UNL A   1      38.440  30.977  30.031  1.00  0.00     0.049 A 
ATOM     54  H   UNL A   1      40.401  30.521  30.563  1.00  0.00     0.167 HD
ATOM     55  C   UNL A   1      44.453  29.346  31.744  1.00  0.00     0.037 A 
ATOM     56  C   UNL A   1      38.155  32.176  30.573  1.00  0.00     0.037 A 
ATOM     57  C   UNL A   1      44.271  30.667  32.284  1.00  0.00     0.049 A 
ATOM     58  C   UNL A   1      39.210  32.890  31.374  1.00  0.00     0.074 A 
ATOM     59  C   UNL A   1      45.178  31.448  32.979  1.00  0.00     0.029 A 
ATOM     60  N   UNL A   1      43.099  31.403  32.191  1.00  0.00    -0.354 N 
ATOM     61  N   UNL A   1      40.434  32.512  31.655  1.00  0.00    -0.248 NA
ATOM     62  C   UNL A   1      38.846  34.202  31.928  1.00  0.00     0.031 C 
ATOM     63  C   UNL A   1      44.539  32.637  33.345  1.00  0.00     0.029 A 
ATOM     64  C   UNL A   1      43.251  32.621  32.834  1.00  0.00     0.049 A 
ATOM     65  H   UNL A   1      42.278  31.103  31.735  1.00  0.00     0.167 HD
ATOM     66  C   UNL A   1      40.995  33.548  32.388  1.00  0.00     0.074 A 
ATOM     67  C   UNL A   1      39.982  34.578  32.497  1.00  0.00     0.031 C 
ATOM     68  C   UNL A   1      42.237  33.639  32.924  1.00  0.00     0.037 A 
BRANCH  55  69
ATOM     69  C   UNL A   1      45.763  28.651  31.985  1.00  0.00     0.064 A 
ATOM     70  C   UNL A   1      45.964  27.829  33.104  1.00  0.00     0.173 A 
ATOM     71  C   UNL A   1      46.818  28.783  31.069  1.00  0.00     0.173 A 
ATOM     72  F   UNL A   1      44.992  27.680  34.016  1.00  0.00    -0.203 F 
ATOM     73  C   UNL A   1      47.184  27.189  33.314  1.00  0.00     0.198 A 
ATOM     74  C   UNL A   1      48.025  28.115  31.266  1.00  0.00     0.198 A 
ATOM     75  F   UNL A   1      46.678  29.551  29.979  1.00  0.00    -0.203 F 
ATOM     76  F   UNL A   1      47.370  26.453  34.418  1.00  0.00    -0.200 F 
ATOM     77  C   UNL A   1      48.210  27.327  32.392  1.00  0.00     0.200 A 
ATOM     78  F   UNL A   1      49.011  28.238  30.366  1.00  0.00    -0.200 F 
ATOM     79  F   UNL A   1      49.379  26.705  32.592  1.00  0.00    -0.200 F 
ENDBRANCH  55  69
BRANCH  56  80
ATOM     80  C   UNL A   1      36.819  32.792  30.354  1.00  0.00     0.064 A 
ATOM     81  C   UNL A   1      36.508  33.416  29.138  1.00  0.00     0.173 A 
ATOM     82  C   UNL A   1      35.833  32.778  31.351  1.00  0.00     0.173 A 
ATOM     83  F   UNL A   1      37.425  33.474  28.161  1.00  0.00    -0.203 F 
ATOM     84  C   UNL A   1      35.270  34.022  28.936  1.00  0.00     0.198 A 
ATOM     85  C   UNL A   1      34.585  33.358  31.136  1.00  0.00     0.198 A 
ATOM     86  F   UNL A   1      36.078  32.189  32.530  1.00  0.00    -0.203 F 
ATOM     87  F   UNL A   1      35.017  34.654  27.781  1.00  0.00    -0.200 F 
ATOM     88  C   UNL A   1      34.307  33.988  29.933  1.00  0.00     0.200 A 
ATOM     89  F   UNL A   1      33.653  33.311  32.098  1.00  0.00    -0.200 F 
ATOM     90  F   UNL A   1      33.116  34.569  29.738  1.00  0.00    -0.200 F 
ENDBRANCH  56  80
BRANCH  68  91
ATOM     91  C   UNL A   1      42.584  34.910  33.643  1.00  0.00     0.064 A 
ATOM     92  C   UNL A   1      43.101  36.024  32.966  1.00  0.00     0.173 A 
ATOM     93  C   UNL A   1      42.360  35.027  35.024  1.00  0.00     0.173 A 
ATOM     94  F   UNL A   1      43.349  35.959  31.649  1.00  0.00    -0.203 F 
ATOM     95  C   UNL A   1      43.407  37.199  33.649  1.00  0.00     0.198 A 
ATOM     96  C   UNL A   1      42.636  36.212  35.698  1.00  0.00     0.198 A 
ATOM     97  F   UNL A   1      41.860  33.992  35.718  1.00  0.00    -0.203 F 
ATOM     98  F   UNL A   1      43.947  38.232  32.991  1.00  0.00    -0.200 F 
ATOM     99  C   UNL A   1      43.167  37.294  35.012  1.00  0.00     0.200 A 
ATOM    100  F   UNL A   1      42.390  36.307  37.012  1.00  0.00    -0.200 F 
ATOM    101  F   UNL A   1      43.455  38.427  35.666  1.00  0.00    -0.200 F 
ENDBRANCH  68  91
ENDBRANCH  42  43
ENDBRANCH  34  37
ENDBRANCH  32  33
ENDBRANCH  31  32
ENDBRANCH  30  31
ENDBRANCH   1  30
TORSDOF 16
ENDMDL
