MODEL 1
REMARK VINA RESULT:     -12.5      0.000      0.000
REMARK SMILES C[C@@H](C(=O)NCCCCNC(=O)c1ccc(-c2c3nc(c(-c4c(F)c(F)c(F)c(F)c4F)c4ccc([nH]4)c(-c4c(F)c(F)c(F)c(F)c4F)c4nc(c(-c5c(F)c(F)c(F)c(F)c5F)c5ccc2[nH]5)C=C4)C=C3)cc1)[C@H](C)[S@@](=O)c1ccc(F)c(F)c1
REMARK SMILES IDX 7 1 6 2 5 3 3 4 4 5 2 7 1 8 76 9 77 10 78 11 79 12 80 13
REMARK SMILES IDX 81 14 87 15 82 16 85 17 83 18 86 19 84 20 8 21 9 22 10 23
REMARK SMILES IDX 11 24 12 26 13 27 14 28 75 29 15 30 74 31 16 32 17 33 18 34
REMARK SMILES IDX 68 35 19 36 73 37 67 38 69 39 20 40 72 41 66 42 65 43 21 45
REMARK SMILES IDX 53 46 33 47 52 48 34 49 37 50 51 51 70 52 35 53 36 54 50 56
REMARK SMILES IDX 71 57 38 58 22 59 23 60 31 61 24 62 25 63 29 64 32 65 26 66
REMARK SMILES IDX 27 67 30 68 28 69 54 70 55 71 63 72 56 73 57 74 61 75 64 76
REMARK SMILES IDX 58 77 59 78 62 79 60 80 39 81 40 82 48 83 41 84 42 85 46 86
REMARK SMILES IDX 49 87 43 88 44 89 47 90 45 91
REMARK H PARENT 5 6 10 25 69 44 37 55
REMARK Flexibility Score: inf
ROOT
ATOM      1  C   UNL A   1      31.610  30.641  26.328  1.00  0.00     0.023 C 
ENDROOT
BRANCH   1   2
ATOM      2  C   UNL A   1      33.043  30.130  26.483  1.00  0.00     0.116 C 
BRANCH   2   3
ATOM      3  N   UNL A   1      33.591  29.681  25.217  1.00  0.00    -0.356 N 
ATOM      4  C   UNL A   1      33.683  28.428  24.686  1.00  0.00     0.224 C 
ATOM      5  O   UNL A   1      34.199  28.336  23.573  1.00  0.00    -0.275 OA
ATOM      6  H   UNL A   1      33.956  30.397  24.647  1.00  0.00     0.163 HD
BRANCH   4   7
ATOM      7  C   UNL A   1      33.139  27.230  25.461  1.00  0.00     0.091 C 
ATOM      8  C   UNL A   1      33.981  25.983  25.148  1.00  0.00     0.019 C 
BRANCH   7   9
ATOM      9  C   UNL A   1      31.645  26.913  25.200  1.00  0.00     0.093 C 
ATOM     10  C   UNL A   1      30.915  26.029  26.205  1.00  0.00     0.023 C 
BRANCH   9  11
ATOM     11  S   UNL A   1      31.238  26.493  23.462  1.00  0.00     0.057 S 
ATOM     12  O   UNL A   1      30.434  25.226  23.491  1.00  0.00    -0.254 OA
BRANCH  11  13
ATOM     13  C   UNL A   1      30.080  27.762  22.921  1.00  0.00     0.042 A 
ATOM     14  C   UNL A   1      30.509  28.960  22.333  1.00  0.00     0.021 A 
ATOM     15  C   UNL A   1      28.732  27.632  23.283  1.00  0.00     0.060 A 
ATOM     16  C   UNL A   1      29.600  29.982  22.042  1.00  0.00     0.043 A 
ATOM     17  C   UNL A   1      27.840  28.673  23.032  1.00  0.00     0.160 A 
ATOM     18  C   UNL A   1      28.267  29.834  22.401  1.00  0.00     0.158 A 
ATOM     19  F   UNL A   1      26.568  28.558  23.436  1.00  0.00    -0.204 F 
ATOM     20  F   UNL A   1      27.408  30.836  22.168  1.00  0.00    -0.204 F 
ENDBRANCH  11  13
ENDBRANCH   9  11
ENDBRANCH   7   9
ENDBRANCH   4   7
ENDBRANCH   2   3
ENDBRANCH   1   2
BRANCH   1  21
ATOM     21  C   UNL A   1      31.415  32.123  26.656  1.00  0.00     0.023 C 
BRANCH  21  22
ATOM     22  C   UNL A   1      32.626  32.816  27.266  1.00  0.00     0.116 C 
BRANCH  22  23
ATOM     23  N   UNL A   1      32.367  34.206  27.604  1.00  0.00    -0.352 N 
ATOM     24  C   UNL A   1      32.968  34.991  28.557  1.00  0.00     0.251 C 
ATOM     25  H   UNL A   1      31.663  34.646  27.076  1.00  0.00     0.163 HD
ATOM     26  O   UNL A   1      32.522  36.106  28.810  1.00  0.00    -0.269 OA
BRANCH  24  27
ATOM     27  C   UNL A   1      34.138  34.478  29.299  1.00  0.00     0.039 A 
ATOM     28  C   UNL A   1      33.931  33.841  30.525  1.00  0.00     0.014 A 
ATOM     29  C   UNL A   1      35.429  34.612  28.783  1.00  0.00     0.014 A 
ATOM     30  C   UNL A   1      35.016  33.282  31.204  1.00  0.00     0.010 A 
ATOM     31  C   UNL A   1      36.496  33.986  29.421  1.00  0.00     0.010 A 
ATOM     32  C   UNL A   1      36.301  33.319  30.639  1.00  0.00    -0.014 A 
BRANCH  32  33
ATOM     33  C   UNL A   1      37.454  32.667  31.311  1.00  0.00     0.031 A 
ATOM     34  C   UNL A   1      38.169  31.526  30.644  1.00  0.00     0.074 A 
ATOM     35  C   UNL A   1      37.814  33.060  32.548  1.00  0.00     0.049 A 
ATOM     36  N   UNL A   1      39.155  30.789  31.094  1.00  0.00    -0.248 NA
ATOM     37  C   UNL A   1      37.697  31.143  29.304  1.00  0.00     0.031 C 
ATOM     38  C   UNL A   1      37.168  34.122  33.319  1.00  0.00     0.029 A 
ATOM     39  N   UNL A   1      38.807  32.603  33.379  1.00  0.00    -0.354 N 
ATOM     40  C   UNL A   1      39.407  29.852  30.100  1.00  0.00     0.074 A 
ATOM     41  C   UNL A   1      38.436  30.073  29.052  1.00  0.00     0.031 C 
ATOM     42  C   UNL A   1      37.796  34.253  34.499  1.00  0.00     0.029 A 
ATOM     43  C   UNL A   1      38.861  33.259  34.584  1.00  0.00     0.049 A 
ATOM     44  H   UNL A   1      39.422  31.874  33.134  1.00  0.00     0.167 HD
ATOM     45  C   UNL A   1      40.378  28.908  30.056  1.00  0.00     0.037 A 
ATOM     46  C   UNL A   1      39.674  33.074  35.642  1.00  0.00     0.037 A 
ATOM     47  C   UNL A   1      41.354  28.703  31.095  1.00  0.00     0.049 A 
ATOM     48  C   UNL A   1      40.735  32.008  35.575  1.00  0.00     0.074 A 
ATOM     49  C   UNL A   1      42.415  27.815  31.120  1.00  0.00     0.029 A 
ATOM     50  N   UNL A   1      41.383  29.393  32.298  1.00  0.00    -0.354 N 
ATOM     51  N   UNL A   1      41.014  31.176  34.601  1.00  0.00    -0.248 NA
ATOM     52  C   UNL A   1      41.599  31.860  36.754  1.00  0.00     0.031 C 
ATOM     53  C   UNL A   1      43.053  27.930  32.359  1.00  0.00     0.029 A 
ATOM     54  C   UNL A   1      42.428  28.931  33.084  1.00  0.00     0.049 A 
ATOM     55  H   UNL A   1      40.755  30.107  32.556  1.00  0.00     0.167 HD
ATOM     56  C   UNL A   1      42.099  30.428  35.035  1.00  0.00     0.074 A 
ATOM     57  C   UNL A   1      42.438  30.915  36.356  1.00  0.00     0.031 C 
ATOM     58  C   UNL A   1      42.757  29.429  34.396  1.00  0.00     0.037 A 
BRANCH  45  59
ATOM     59  C   UNL A   1      40.427  28.022  28.844  1.00  0.00     0.064 A 
ATOM     60  C   UNL A   1      41.176  28.367  27.707  1.00  0.00     0.173 A 
ATOM     61  C   UNL A   1      39.736  26.800  28.825  1.00  0.00     0.173 A 
ATOM     62  F   UNL A   1      41.847  29.528  27.668  1.00  0.00    -0.203 F 
ATOM     63  C   UNL A   1      41.198  27.543  26.585  1.00  0.00     0.198 A 
ATOM     64  C   UNL A   1      39.789  25.963  27.715  1.00  0.00     0.198 A 
ATOM     65  F   UNL A   1      39.010  26.417  29.886  1.00  0.00    -0.203 F 
ATOM     66  F   UNL A   1      41.871  27.924  25.491  1.00  0.00    -0.200 F 
ATOM     67  C   UNL A   1      40.511  26.340  26.592  1.00  0.00     0.200 A 
ATOM     68  F   UNL A   1      39.137  24.792  27.727  1.00  0.00    -0.200 F 
ATOM     69  F   UNL A   1      40.537  25.545  25.512  1.00  0.00    -0.200 F 
ENDBRANCH  45  59
BRANCH  46  70
ATOM     70  C   UNL A   1      39.535  33.938  36.843  1.00  0.00     0.064 A 
ATOM     71  C   UNL A   1      38.785  33.516  37.949  1.00  0.00     0.173 A 
ATOM     72  C   UNL A   1      40.150  35.197  36.914  1.00  0.00     0.173 A 
ATOM     73  F   UNL A   1      38.162  32.328  37.922  1.00  0.00    -0.203 F 
ATOM     74  C   UNL A   1      38.638  34.328  39.072  1.00  0.00     0.198 A 
ATOM     75  C   UNL A   1      40.027  35.995  38.049  1.00  0.00     0.198 A 
ATOM     76  F   UNL A   1      40.884  35.644  35.884  1.00  0.00    -0.203 F 
ATOM     77  F   UNL A   1      37.879  33.918  40.098  1.00  0.00    -0.200 F 
ATOM     78  C   UNL A   1      39.265  35.563  39.124  1.00  0.00     0.200 A 
ATOM     79  F   UNL A   1      40.647  37.181  38.101  1.00  0.00    -0.200 F 
ATOM     80  F   UNL A   1      39.129  36.340  40.207  1.00  0.00    -0.200 F 
ENDBRANCH  46  70
BRANCH  58  81
ATOM     81  C   UNL A   1      43.932  28.816  35.102  1.00  0.00     0.064 A 
ATOM     82  C   UNL A   1      45.231  29.323  34.953  1.00  0.00     0.173 A 
ATOM     83  C   UNL A   1      43.748  27.729  35.970  1.00  0.00     0.173 A 
ATOM     84  F   UNL A   1      45.463  30.350  34.123  1.00  0.00    -0.203 F 
ATOM     85  C   UNL A   1      46.305  28.748  35.627  1.00  0.00     0.198 A 
ATOM     86  C   UNL A   1      44.819  27.178  36.668  1.00  0.00     0.198 A 
ATOM     87  F   UNL A   1      42.525  27.209  36.154  1.00  0.00    -0.203 F 
ATOM     88  F   UNL A   1      47.545  29.218  35.431  1.00  0.00    -0.200 F 
ATOM     89  C   UNL A   1      46.097  27.683  36.490  1.00  0.00     0.200 A 
ATOM     90  F   UNL A   1      44.612  26.159  37.513  1.00  0.00    -0.200 F 
ATOM     91  F   UNL A   1      47.132  27.137  37.146  1.00  0.00    -0.200 F 
ENDBRANCH  58  81
ENDBRANCH  32  33
ENDBRANCH  24  27
ENDBRANCH  22  23
ENDBRANCH  21  22
ENDBRANCH   1  21
TORSDOF 14
ENDMDL
MODEL 2
REMARK VINA RESULT:     -12.4      0.556      7.501
REMARK SMILES C[C@@H](C(=O)NCCCCNC(=O)c1ccc(-c2c3nc(c(-c4c(F)c(F)c(F)c(F)c4F)c4ccc([nH]4)c(-c4c(F)c(F)c(F)c(F)c4F)c4nc(c(-c5c(F)c(F)c(F)c(F)c5F)c5ccc2[nH]5)C=C4)C=C3)cc1)[C@H](C)[S@@](=O)c1ccc(F)c(F)c1
REMARK SMILES IDX 7 1 6 2 5 3 3 4 4 5 2 7 1 8 76 9 77 10 78 11 79 12 80 13
REMARK SMILES IDX 81 14 87 15 82 16 85 17 83 18 86 19 84 20 8 21 9 22 10 23
REMARK SMILES IDX 11 24 12 26 13 27 14 28 75 29 15 30 74 31 16 32 17 33 18 34
REMARK SMILES IDX 68 35 19 36 73 37 67 38 69 39 20 40 72 41 66 42 65 43 21 45
REMARK SMILES IDX 53 46 33 47 52 48 34 49 37 50 51 51 70 52 35 53 36 54 50 56
REMARK SMILES IDX 71 57 38 58 22 59 23 60 31 61 24 62 25 63 29 64 32 65 26 66
REMARK SMILES IDX 27 67 30 68 28 69 54 70 55 71 63 72 56 73 57 74 61 75 64 76
REMARK SMILES IDX 58 77 59 78 62 79 60 80 39 81 40 82 48 83 41 84 42 85 46 86
REMARK SMILES IDX 49 87 43 88 44 89 47 90 45 91
REMARK H PARENT 5 6 10 25 69 44 37 55
REMARK Flexibility Score: inf
ROOT
ATOM      1  C   UNL A   1      31.465  30.850  26.075  1.00  0.00     0.023 C 
ENDROOT
BRANCH   1   2
ATOM      2  C   UNL A   1      32.811  30.195  26.394  1.00  0.00     0.116 C 
BRANCH   2   3
ATOM      3  N   UNL A   1      33.457  29.690  25.197  1.00  0.00    -0.356 N 
ATOM      4  C   UNL A   1      33.606  28.412  24.743  1.00  0.00     0.224 C 
ATOM      5  O   UNL A   1      34.204  28.271  23.678  1.00  0.00    -0.275 OA
ATOM      6  H   UNL A   1      33.852  30.381  24.618  1.00  0.00     0.163 HD
BRANCH   4   7
ATOM      7  C   UNL A   1      33.024  27.248  25.540  1.00  0.00     0.091 C 
ATOM      8  C   UNL A   1      33.895  25.996  25.344  1.00  0.00     0.019 C 
BRANCH   7   9
ATOM      9  C   UNL A   1      31.553  26.900  25.201  1.00  0.00     0.093 C 
ATOM     10  C   UNL A   1      30.821  25.918  26.109  1.00  0.00     0.023 C 
BRANCH   9  11
ATOM     11  S   UNL A   1      31.222  26.600  23.422  1.00  0.00     0.057 S 
ATOM     12  O   UNL A   1      30.474  25.302  23.326  1.00  0.00    -0.254 OA
BRANCH  11  13
ATOM     13  C   UNL A   1      30.028  27.859  22.938  1.00  0.00     0.042 A 
ATOM     14  C   UNL A   1      30.421  29.080  22.374  1.00  0.00     0.021 A 
ATOM     15  C   UNL A   1      28.691  27.691  23.321  1.00  0.00     0.060 A 
ATOM     16  C   UNL A   1      29.487  30.091  22.127  1.00  0.00     0.043 A 
ATOM     17  C   UNL A   1      27.773  28.720  23.115  1.00  0.00     0.160 A 
ATOM     18  C   UNL A   1      28.165  29.906  22.507  1.00  0.00     0.158 A 
ATOM     19  F   UNL A   1      26.512  28.568  23.540  1.00  0.00    -0.204 F 
ATOM     20  F   UNL A   1      27.281  30.895  22.317  1.00  0.00    -0.204 F 
ENDBRANCH  11  13
ENDBRANCH   9  11
ENDBRANCH   7   9
ENDBRANCH   4   7
ENDBRANCH   2   3
ENDBRANCH   1   2
BRANCH   1  21
ATOM     21  C   UNL A   1      31.344  32.314  26.500  1.00  0.00     0.023 C 
BRANCH  21  22
ATOM     22  C   UNL A   1      32.572  32.892  27.190  1.00  0.00     0.116 C 
BRANCH  22  23
ATOM     23  N   UNL A   1      32.378  34.265  27.627  1.00  0.00    -0.352 N 
ATOM     24  C   UNL A   1      33.021  34.955  28.624  1.00  0.00     0.251 C 
ATOM     25  H   UNL A   1      31.688  34.771  27.140  1.00  0.00     0.163 HD
ATOM     26  O   UNL A   1      32.627  36.068  28.960  1.00  0.00    -0.269 OA
BRANCH  24  27
ATOM     27  C   UNL A   1      34.174  34.342  29.315  1.00  0.00     0.039 A 
ATOM     28  C   UNL A   1      33.942  33.559  30.449  1.00  0.00     0.014 A 
ATOM     29  C   UNL A   1      35.475  34.526  28.839  1.00  0.00     0.014 A 
ATOM     30  C   UNL A   1      35.011  32.908  31.069  1.00  0.00     0.010 A 
ATOM     31  C   UNL A   1      36.527  33.814  29.410  1.00  0.00     0.010 A 
ATOM     32  C   UNL A   1      36.306  33.002  30.533  1.00  0.00    -0.014 A 
BRANCH  32  33
ATOM     33  C   UNL A   1      37.442  32.260  31.135  1.00  0.00     0.031 A 
ATOM     34  C   UNL A   1      37.939  32.622  32.506  1.00  0.00     0.074 A 
ATOM     35  C   UNL A   1      38.068  31.304  30.420  1.00  0.00     0.049 A 
ATOM     36  N   UNL A   1      38.954  32.135  33.176  1.00  0.00    -0.248 NA
ATOM     37  C   UNL A   1      37.216  33.693  33.209  1.00  0.00     0.031 C 
ATOM     38  C   UNL A   1      37.710  30.894  29.062  1.00  0.00     0.029 A 
ATOM     39  N   UNL A   1      39.143  30.510  30.735  1.00  0.00    -0.354 N 
ATOM     40  C   UNL A   1      38.997  32.849  34.366  1.00  0.00     0.074 A 
ATOM     41  C   UNL A   1      37.946  33.841  34.303  1.00  0.00     0.031 C 
ATOM     42  C   UNL A   1      38.534  29.909  28.669  1.00  0.00     0.029 A 
ATOM     43  C   UNL A   1      39.501  29.646  29.730  1.00  0.00     0.049 A 
ATOM     44  H   UNL A   1      39.612  30.556  31.599  1.00  0.00     0.167 HD
ATOM     45  C   UNL A   1      39.823  32.676  35.426  1.00  0.00     0.037 A 
ATOM     46  C   UNL A   1      40.502  28.747  29.669  1.00  0.00     0.037 A 
ATOM     47  C   UNL A   1      40.856  31.675  35.491  1.00  0.00     0.049 A 
ATOM     48  C   UNL A   1      41.416  28.583  30.853  1.00  0.00     0.074 A 
ATOM     49  C   UNL A   1      41.706  31.379  36.542  1.00  0.00     0.029 A 
ATOM     50  N   UNL A   1      41.184  30.811  34.456  1.00  0.00    -0.354 N 
ATOM     51  N   UNL A   1      41.402  29.213  32.003  1.00  0.00    -0.248 NA
ATOM     52  C   UNL A   1      42.483  27.581  30.733  1.00  0.00     0.031 C 
ATOM     53  C   UNL A   1      42.583  30.372  36.125  1.00  0.00     0.029 A 
ATOM     54  C   UNL A   1      42.243  29.999  34.835  1.00  0.00     0.049 A 
ATOM     55  H   UNL A   1      40.731  30.778  33.582  1.00  0.00     0.167 HD
ATOM     56  C   UNL A   1      42.434  28.664  32.752  1.00  0.00     0.074 A 
ATOM     57  C   UNL A   1      43.045  27.640  31.931  1.00  0.00     0.031 C 
ATOM     58  C   UNL A   1      42.837  28.980  34.008  1.00  0.00     0.037 A 
BRANCH  45  59
ATOM     59  C   UNL A   1      39.643  33.596  36.601  1.00  0.00     0.064 A 
ATOM     60  C   UNL A   1      40.294  34.838  36.672  1.00  0.00     0.173 A 
ATOM     61  C   UNL A   1      38.791  33.242  37.659  1.00  0.00     0.173 A 
ATOM     62  F   UNL A   1      41.127  35.220  35.693  1.00  0.00    -0.203 F 
ATOM     63  C   UNL A   1      40.129  35.672  37.775  1.00  0.00     0.198 A 
ATOM     64  C   UNL A   1      38.603  34.094  38.743  1.00  0.00     0.198 A 
ATOM     65  F   UNL A   1      38.139  32.070  37.640  1.00  0.00    -0.203 F 
ATOM     66  F   UNL A   1      40.809  36.825  37.847  1.00  0.00    -0.200 F 
ATOM     67  C   UNL A   1      39.280  35.303  38.806  1.00  0.00     0.200 A 
ATOM     68  F   UNL A   1      37.770  33.743  39.733  1.00  0.00    -0.200 F 
ATOM     69  F   UNL A   1      39.119  36.109  39.865  1.00  0.00    -0.200 F 
ENDBRANCH  45  59
BRANCH  46  70
ATOM     70  C   UNL A   1      40.673  27.910  28.452  1.00  0.00     0.064 A 
ATOM     71  C   UNL A   1      41.480  28.342  27.391  1.00  0.00     0.173 A 
ATOM     72  C   UNL A   1      40.040  26.664  28.326  1.00  0.00     0.173 A 
ATOM     73  F   UNL A   1      42.091  29.534  27.456  1.00  0.00    -0.203 F 
ATOM     74  C   UNL A   1      41.633  27.569  26.241  1.00  0.00     0.198 A 
ATOM     75  C   UNL A   1      40.216  25.880  27.188  1.00  0.00     0.198 A 
ATOM     76  F   UNL A   1      39.262  26.203  29.316  1.00  0.00    -0.203 F 
ATOM     77  F   UNL A   1      42.375  28.026  25.223  1.00  0.00    -0.200 F 
ATOM     78  C   UNL A   1      41.007  26.336  26.144  1.00  0.00     0.200 A 
ATOM     79  F   UNL A   1      39.622  24.682  27.105  1.00  0.00    -0.200 F 
ATOM     80  F   UNL A   1      41.159  25.590  25.041  1.00  0.00    -0.200 F 
ENDBRANCH  46  70
BRANCH  58  81
ATOM     81  C   UNL A   1      43.974  28.186  34.586  1.00  0.00     0.064 A 
ATOM     82  C   UNL A   1      43.763  26.972  35.256  1.00  0.00     0.173 A 
ATOM     83  C   UNL A   1      45.297  28.629  34.433  1.00  0.00     0.173 A 
ATOM     84  F   UNL A   1      42.517  26.513  35.443  1.00  0.00    -0.203 F 
ATOM     85  C   UNL A   1      44.831  26.245  35.773  1.00  0.00     0.198 A 
ATOM     86  C   UNL A   1      46.365  27.883  34.922  1.00  0.00     0.198 A 
ATOM     87  F   UNL A   1      45.555  29.780  33.795  1.00  0.00    -0.203 F 
ATOM     88  F   UNL A   1      44.602  25.112  36.452  1.00  0.00    -0.200 F 
ATOM     89  C   UNL A   1      46.131  26.695  35.598  1.00  0.00     0.200 A 
ATOM     90  F   UNL A   1      47.621  28.313  34.738  1.00  0.00    -0.200 F 
ATOM     91  F   UNL A   1      47.159  25.989  36.088  1.00  0.00    -0.200 F 
ENDBRANCH  58  81
ENDBRANCH  32  33
ENDBRANCH  24  27
ENDBRANCH  22  23
ENDBRANCH  21  22
ENDBRANCH   1  21
TORSDOF 14
ENDMDL
MODEL 3
REMARK VINA RESULT:     -12.3      0.228      1.626
REMARK SMILES C[C@@H](C(=O)NCCCCNC(=O)c1ccc(-c2c3nc(c(-c4c(F)c(F)c(F)c(F)c4F)c4ccc([nH]4)c(-c4c(F)c(F)c(F)c(F)c4F)c4nc(c(-c5c(F)c(F)c(F)c(F)c5F)c5ccc2[nH]5)C=C4)C=C3)cc1)[C@H](C)[S@@](=O)c1ccc(F)c(F)c1
REMARK SMILES IDX 7 1 6 2 5 3 3 4 4 5 2 7 1 8 76 9 77 10 78 11 79 12 80 13
REMARK SMILES IDX 81 14 87 15 82 16 85 17 83 18 86 19 84 20 8 21 9 22 10 23
REMARK SMILES IDX 11 24 12 26 13 27 14 28 75 29 15 30 74 31 16 32 17 33 18 34
REMARK SMILES IDX 68 35 19 36 73 37 67 38 69 39 20 40 72 41 66 42 65 43 21 45
REMARK SMILES IDX 53 46 33 47 52 48 34 49 37 50 51 51 70 52 35 53 36 54 50 56
REMARK SMILES IDX 71 57 38 58 22 59 23 60 31 61 24 62 25 63 29 64 32 65 26 66
REMARK SMILES IDX 27 67 30 68 28 69 54 70 55 71 63 72 56 73 57 74 61 75 64 76
REMARK SMILES IDX 58 77 59 78 62 79 60 80 39 81 40 82 48 83 41 84 42 85 46 86
REMARK SMILES IDX 49 87 43 88 44 89 47 90 45 91
REMARK H PARENT 5 6 10 25 69 44 37 55
REMARK Flexibility Score: inf
ROOT
ATOM      1  C   UNL A   1      31.651  30.516  26.212  1.00  0.00     0.023 C 
ENDROOT
BRANCH   1   2
ATOM      2  C   UNL A   1      33.104  30.044  26.282  1.00  0.00     0.116 C 
BRANCH   2   3
ATOM      3  N   UNL A   1      33.618  29.697  24.970  1.00  0.00    -0.356 N 
ATOM      4  C   UNL A   1      33.752  28.483  24.363  1.00  0.00     0.224 C 
ATOM      5  O   UNL A   1      34.221  28.482  23.226  1.00  0.00    -0.275 OA
ATOM      6  H   UNL A   1      33.919  30.463  24.429  1.00  0.00     0.163 HD
BRANCH   4   7
ATOM      7  C   UNL A   1      33.306  27.215  25.088  1.00  0.00     0.091 C 
ATOM      8  C   UNL A   1      33.946  25.985  24.425  1.00  0.00     0.019 C 
BRANCH   7   9
ATOM      9  C   UNL A   1      31.772  27.014  25.159  1.00  0.00     0.093 C 
ATOM     10  C   UNL A   1      31.201  26.279  26.367  1.00  0.00     0.023 C 
BRANCH   9  11
ATOM     11  S   UNL A   1      30.988  26.498  23.583  1.00  0.00     0.057 S 
ATOM     12  O   UNL A   1      30.095  25.333  23.895  1.00  0.00    -0.254 OA
BRANCH  11  13
ATOM     13  C   UNL A   1      29.865  27.838  23.147  1.00  0.00     0.042 A 
ATOM     14  C   UNL A   1      30.326  29.125  22.836  1.00  0.00     0.021 A 
ATOM     15  C   UNL A   1      28.489  27.636  23.320  1.00  0.00     0.060 A 
ATOM     16  C   UNL A   1      29.429  30.177  22.628  1.00  0.00     0.043 A 
ATOM     17  C   UNL A   1      27.603  28.700  23.155  1.00  0.00     0.160 A 
ATOM     18  C   UNL A   1      28.069  29.959  22.796  1.00  0.00     0.158 A 
ATOM     19  F   UNL A   1      26.297  28.506  23.382  1.00  0.00    -0.204 F 
ATOM     20  F   UNL A   1      27.215  30.981  22.647  1.00  0.00    -0.204 F 
ENDBRANCH  11  13
ENDBRANCH   9  11
ENDBRANCH   7   9
ENDBRANCH   4   7
ENDBRANCH   2   3
ENDBRANCH   1   2
BRANCH   1  21
ATOM     21  C   UNL A   1      31.429  31.979  26.600  1.00  0.00     0.023 C 
BRANCH  21  22
ATOM     22  C   UNL A   1      32.611  32.654  27.282  1.00  0.00     0.116 C 
BRANCH  22  23
ATOM     23  N   UNL A   1      32.357  34.051  27.595  1.00  0.00    -0.352 N 
ATOM     24  C   UNL A   1      32.963  34.852  28.531  1.00  0.00     0.251 C 
ATOM     25  H   UNL A   1      31.651  34.483  27.062  1.00  0.00     0.163 HD
ATOM     26  O   UNL A   1      32.520  35.972  28.766  1.00  0.00    -0.269 OA
BRANCH  24  27
ATOM     27  C   UNL A   1      34.135  34.350  29.278  1.00  0.00     0.039 A 
ATOM     28  C   UNL A   1      33.924  33.627  30.455  1.00  0.00     0.014 A 
ATOM     29  C   UNL A   1      35.433  34.579  28.814  1.00  0.00     0.014 A 
ATOM     30  C   UNL A   1      35.015  33.078  31.133  1.00  0.00     0.010 A 
ATOM     31  C   UNL A   1      36.511  33.967  29.446  1.00  0.00     0.010 A 
ATOM     32  C   UNL A   1      36.313  33.214  30.614  1.00  0.00    -0.014 A 
BRANCH  32  33
ATOM     33  C   UNL A   1      37.477  32.577  31.281  1.00  0.00     0.031 A 
ATOM     34  C   UNL A   1      38.207  31.447  30.610  1.00  0.00     0.074 A 
ATOM     35  C   UNL A   1      37.835  32.973  32.518  1.00  0.00     0.049 A 
ATOM     36  N   UNL A   1      39.204  30.724  31.056  1.00  0.00    -0.248 NA
ATOM     37  C   UNL A   1      37.737  31.061  29.271  1.00  0.00     0.031 C 
ATOM     38  C   UNL A   1      37.177  34.025  33.293  1.00  0.00     0.029 A 
ATOM     39  N   UNL A   1      38.838  32.529  33.345  1.00  0.00    -0.354 N 
ATOM     40  C   UNL A   1      39.467  29.792  30.060  1.00  0.00     0.074 A 
ATOM     41  C   UNL A   1      38.490  30.002  29.015  1.00  0.00     0.031 C 
ATOM     42  C   UNL A   1      37.806  34.163  34.470  1.00  0.00     0.029 A 
ATOM     43  C   UNL A   1      38.886  33.183  34.551  1.00  0.00     0.049 A 
ATOM     44  H   UNL A   1      39.461  31.809  33.096  1.00  0.00     0.167 HD
ATOM     45  C   UNL A   1      40.451  28.862  30.011  1.00  0.00     0.037 A 
ATOM     46  C   UNL A   1      39.704  33.008  35.606  1.00  0.00     0.037 A 
ATOM     47  C   UNL A   1      41.433  28.669  31.047  1.00  0.00     0.049 A 
ATOM     48  C   UNL A   1      40.780  31.958  35.534  1.00  0.00     0.074 A 
ATOM     49  C   UNL A   1      42.506  27.796  31.067  1.00  0.00     0.029 A 
ATOM     50  N   UNL A   1      41.455  29.358  32.251  1.00  0.00    -0.354 N 
ATOM     51  N   UNL A   1      41.067  31.132  34.558  1.00  0.00    -0.248 NA
ATOM     52  C   UNL A   1      41.649  31.819  36.711  1.00  0.00     0.031 C 
ATOM     53  C   UNL A   1      43.146  27.918  32.304  1.00  0.00     0.029 A 
ATOM     54  C   UNL A   1      42.509  28.909  33.033  1.00  0.00     0.049 A 
ATOM     55  H   UNL A   1      40.818  30.062  32.512  1.00  0.00     0.167 HD
ATOM     56  C   UNL A   1      42.165  30.398  34.988  1.00  0.00     0.074 A 
ATOM     57  C   UNL A   1      42.500  30.887  36.308  1.00  0.00     0.031 C 
ATOM     58  C   UNL A   1      42.834  29.409  34.345  1.00  0.00     0.037 A 
BRANCH  45  59
ATOM     59  C   UNL A   1      40.509  27.979  28.797  1.00  0.00     0.064 A 
ATOM     60  C   UNL A   1      39.851  26.739  28.754  1.00  0.00     0.173 A 
ATOM     61  C   UNL A   1      41.212  28.386  27.653  1.00  0.00     0.173 A 
ATOM     62  F   UNL A   1      39.173  26.298  29.824  1.00  0.00    -0.203 F 
ATOM     63  C   UNL A   1      39.927  25.925  27.627  1.00  0.00     0.198 A 
ATOM     64  C   UNL A   1      41.257  27.584  26.516  1.00  0.00     0.198 A 
ATOM     65  F   UNL A   1      41.854  29.563  27.635  1.00  0.00    -0.203 F 
ATOM     66  F   UNL A   1      39.341  24.720  27.634  1.00  0.00    -0.200 F 
ATOM     67  C   UNL A   1      40.625  26.350  26.508  1.00  0.00     0.200 A 
ATOM     68  F   UNL A   1      41.919  28.002  25.427  1.00  0.00    -0.200 F 
ATOM     69  F   UNL A   1      40.694  25.566  25.422  1.00  0.00    -0.200 F 
ENDBRANCH  45  59
BRANCH  46  70
ATOM     70  C   UNL A   1      39.557  33.868  36.809  1.00  0.00     0.064 A 
ATOM     71  C   UNL A   1      38.805  33.438  37.912  1.00  0.00     0.173 A 
ATOM     72  C   UNL A   1      40.164  35.130  36.885  1.00  0.00     0.173 A 
ATOM     73  F   UNL A   1      38.190  32.247  37.879  1.00  0.00    -0.203 F 
ATOM     74  C   UNL A   1      38.650  34.246  39.037  1.00  0.00     0.198 A 
ATOM     75  C   UNL A   1      40.032  35.925  38.022  1.00  0.00     0.198 A 
ATOM     76  F   UNL A   1      40.898  35.585  35.859  1.00  0.00    -0.203 F 
ATOM     77  F   UNL A   1      37.891  33.829  40.059  1.00  0.00    -0.200 F 
ATOM     78  C   UNL A   1      39.270  35.485  39.094  1.00  0.00     0.200 A 
ATOM     79  F   UNL A   1      40.645  37.115  38.080  1.00  0.00    -0.200 F 
ATOM     80  F   UNL A   1      39.126  36.259  40.178  1.00  0.00    -0.200 F 
ENDBRANCH  46  70
BRANCH  58  81
ATOM     81  C   UNL A   1      44.020  28.812  35.046  1.00  0.00     0.064 A 
ATOM     82  C   UNL A   1      43.902  27.683  35.869  1.00  0.00     0.173 A 
ATOM     83  C   UNL A   1      45.301  29.356  34.860  1.00  0.00     0.173 A 
ATOM     84  F   UNL A   1      42.699  27.134  36.092  1.00  0.00    -0.203 F 
ATOM     85  C   UNL A   1      45.016  27.136  36.499  1.00  0.00     0.198 A 
ATOM     86  C   UNL A   1      46.418  28.787  35.465  1.00  0.00     0.198 A 
ATOM     87  F   UNL A   1      45.471  30.432  34.077  1.00  0.00    -0.203 F 
ATOM     88  F   UNL A   1      44.872  26.086  37.320  1.00  0.00    -0.200 F 
ATOM     89  C   UNL A   1      46.274  27.682  36.290  1.00  0.00     0.200 A 
ATOM     90  F   UNL A   1      47.633  29.308  35.248  1.00  0.00    -0.200 F 
ATOM     91  F   UNL A   1      47.347  27.149  36.890  1.00  0.00    -0.200 F 
ENDBRANCH  58  81
ENDBRANCH  32  33
ENDBRANCH  24  27
ENDBRANCH  22  23
ENDBRANCH  21  22
ENDBRANCH   1  21
TORSDOF 14
ENDMDL
