MODEL 1
REMARK VINA RESULT:     -12.6      0.000      0.000
REMARK SMILES Cc1ccc(Cl)cc1NC(=O)N[C@@](C)(C(=O)NCCCCNC(=O)c1ccc(-c2c3nc(c(-c4c(F)c(F)c(F)c(F)c4F)c4ccc([nH]4)c(-c4c(F)c(F)c(F)c(F)c4F)c4nc(c(-c5c(F)c(F)c(F)c(F)c5F)c5ccc2[nH]5)C=C4)C=C3)cc1)C(F)(F)F
REMARK SMILES IDX 19 1 18 2 17 3 15 4 16 5 13 7 14 8 12 9 9 10 10 11 11 13
REMARK SMILES IDX 8 15 1 16 2 17 3 18 4 19 7 20 5 21 6 22 88 23 89 24 90 25
REMARK SMILES IDX 91 26 20 27 21 28 22 29 23 30 24 32 25 33 26 34 87 35 27 36
REMARK SMILES IDX 86 37 28 38 29 39 30 40 80 41 31 42 85 43 79 44 81 45 32 46
REMARK SMILES IDX 84 47 78 48 77 49 33 51 65 52 45 53 64 54 46 55 49 56 63 57
REMARK SMILES IDX 82 58 47 59 48 60 62 62 83 63 50 64 34 65 35 66 43 67 36 68
REMARK SMILES IDX 37 69 41 70 44 71 38 72 39 73 42 74 40 75 66 76 67 77 75 78
REMARK SMILES IDX 68 79 69 80 73 81 76 82 70 83 71 84 74 85 72 86 51 87 52 88
REMARK SMILES IDX 60 89 53 90 54 91 58 92 61 93 55 94 56 95 59 96 57 97
REMARK H PARENT 17 6 9 12 12 14 22 31 81 50 49 61
REMARK Flexibility Score: inf
ROOT
ATOM      1  C   UNL A   1      31.627  30.556  26.500  1.00  0.00     0.023 C 
ENDROOT
BRANCH   1   2
ATOM      2  C   UNL A   1      32.249  29.997  25.216  1.00  0.00     0.116 C 
BRANCH   2   3
ATOM      3  N   UNL A   1      33.526  29.377  25.499  1.00  0.00    -0.354 N 
ATOM      4  C   UNL A   1      33.657  28.135  26.053  1.00  0.00     0.255 C 
ATOM      5  O   UNL A   1      34.026  28.125  27.228  1.00  0.00    -0.272 OA
ATOM      6  H   UNL A   1      34.344  29.879  25.281  1.00  0.00     0.163 HD
BRANCH   4   7
ATOM      7  C   UNL A   1      33.323  26.861  25.211  1.00  0.00     0.213 C 
ATOM      8  C   UNL A   1      34.339  25.772  25.605  1.00  0.00     0.056 C 
BRANCH   7   9
ATOM      9  N   UNL A   1      33.448  27.131  23.741  1.00  0.00    -0.316 N 
ATOM     10  N   UNL A   1      33.142  25.150  22.386  1.00  0.00    -0.308 N 
ATOM     11  C   UNL A   1      33.416  26.452  22.586  1.00  0.00     0.320 C 
ATOM     12  H   UNL A   1      32.941  24.968  21.440  1.00  0.00     0.171 HD
ATOM     13  O   UNL A   1      33.546  27.148  21.570  1.00  0.00    -0.248 OA
ATOM     14  H   UNL A   1      33.598  28.090  23.577  1.00  0.00     0.166 HD
BRANCH  10  15
ATOM     15  C   UNL A   1      33.065  23.983  23.161  1.00  0.00     0.047 A 
ATOM     16  C   UNL A   1      30.497  24.127  23.241  1.00  0.00     0.046 C 
ATOM     17  C   UNL A   1      31.820  23.558  23.671  1.00  0.00    -0.027 A 
ATOM     18  C   UNL A   1      31.795  22.543  24.651  1.00  0.00     0.007 A 
ATOM     19  C   UNL A   1      32.968  21.924  25.074  1.00  0.00     0.021 A 
ATOM     20  C   UNL A   1      34.193  23.215  23.438  1.00  0.00     0.047 A 
ATOM     21  C   UNL A   1      34.157  22.228  24.426  1.00  0.00     0.043 A 
ATOM     22  Cl  UNL A   1      35.610  21.426  24.888  1.00  0.00    -0.084 Cl
ENDBRANCH  10  15
ENDBRANCH   7   9
BRANCH   7  23
ATOM     23  C   UNL A   1      31.877  26.615  25.727  1.00  0.00     0.420 C 
ATOM     24  F   UNL A   1      31.674  25.332  26.113  1.00  0.00    -0.168 F 
ATOM     25  F   UNL A   1      31.535  27.365  26.783  1.00  0.00    -0.168 F 
ATOM     26  F   UNL A   1      30.958  26.917  24.773  1.00  0.00    -0.168 F 
ENDBRANCH   7  23
ENDBRANCH   4   7
ENDBRANCH   2   3
ENDBRANCH   1   2
BRANCH   1  27
ATOM     27  C   UNL A   1      31.542  32.088  26.570  1.00  0.00     0.023 C 
BRANCH  27  28
ATOM     28  C   UNL A   1      32.671  32.783  27.322  1.00  0.00     0.116 C 
BRANCH  28  29
ATOM     29  N   UNL A   1      32.369  34.165  27.641  1.00  0.00    -0.352 N 
ATOM     30  C   UNL A   1      32.953  34.980  28.581  1.00  0.00     0.251 C 
ATOM     31  H   UNL A   1      31.647  34.575  27.113  1.00  0.00     0.163 HD
ATOM     32  O   UNL A   1      32.498  36.086  28.813  1.00  0.00    -0.269 OA
BRANCH  30  33
ATOM     33  C   UNL A   1      34.122  34.479  29.334  1.00  0.00     0.039 A 
ATOM     34  C   UNL A   1      33.906  33.864  30.567  1.00  0.00     0.014 A 
ATOM     35  C   UNL A   1      35.411  34.582  28.803  1.00  0.00     0.014 A 
ATOM     36  C   UNL A   1      34.983  33.294  31.246  1.00  0.00     0.010 A 
ATOM     37  C   UNL A   1      36.468  33.946  29.443  1.00  0.00     0.010 A 
ATOM     38  C   UNL A   1      36.266  33.300  30.672  1.00  0.00    -0.014 A 
BRANCH  38  39
ATOM     39  C   UNL A   1      37.407  32.637  31.352  1.00  0.00     0.031 A 
ATOM     40  C   UNL A   1      38.105  31.481  30.697  1.00  0.00     0.074 A 
ATOM     41  C   UNL A   1      37.774  33.042  32.583  1.00  0.00     0.049 A 
ATOM     42  N   UNL A   1      39.087  30.742  31.147  1.00  0.00    -0.248 NA
ATOM     43  C   UNL A   1      37.616  31.081  29.367  1.00  0.00     0.031 C 
ATOM     44  C   UNL A   1      37.136  34.118  33.344  1.00  0.00     0.029 A 
ATOM     45  N   UNL A   1      38.767  32.591  33.416  1.00  0.00    -0.354 N 
ATOM     46  C   UNL A   1      39.320  29.786  30.167  1.00  0.00     0.074 A 
ATOM     47  C   UNL A   1      38.340  29.999  29.126  1.00  0.00     0.031 C 
ATOM     48  C   UNL A   1      37.769  34.260  34.519  1.00  0.00     0.029 A 
ATOM     49  C   UNL A   1      38.829  33.261  34.613  1.00  0.00     0.049 A 
ATOM     50  H   UNL A   1      39.377  31.857  33.178  1.00  0.00     0.167 HD
ATOM     51  C   UNL A   1      40.282  28.834  30.130  1.00  0.00     0.037 A 
ATOM     52  C   UNL A   1      39.643  33.084  35.670  1.00  0.00     0.037 A 
ATOM     53  C   UNL A   1      41.267  28.643  31.161  1.00  0.00     0.049 A 
ATOM     54  C   UNL A   1      40.701  32.015  35.606  1.00  0.00     0.074 A 
ATOM     55  C   UNL A   1      42.326  27.752  31.189  1.00  0.00     0.029 A 
ATOM     56  N   UNL A   1      41.309  29.351  32.354  1.00  0.00    -0.354 N 
ATOM     57  N   UNL A   1      40.966  31.169  34.640  1.00  0.00    -0.248 NA
ATOM     58  C   UNL A   1      41.579  31.881  36.777  1.00  0.00     0.031 C 
ATOM     59  C   UNL A   1      42.971  27.880  32.423  1.00  0.00     0.029 A 
ATOM     60  C   UNL A   1      42.357  28.896  33.138  1.00  0.00     0.049 A 
ATOM     61  H   UNL A   1      40.686  30.071  32.606  1.00  0.00     0.167 HD
ATOM     62  C   UNL A   1      42.055  30.423  35.071  1.00  0.00     0.074 A 
ATOM     63  C   UNL A   1      42.411  30.929  36.381  1.00  0.00     0.031 C 
ATOM     64  C   UNL A   1      42.701  29.412  34.440  1.00  0.00     0.037 A 
BRANCH  51  65
ATOM     65  C   UNL A   1      40.310  27.923  28.935  1.00  0.00     0.064 A 
ATOM     66  C   UNL A   1      41.036  28.243  27.776  1.00  0.00     0.173 A 
ATOM     67  C   UNL A   1      39.620  26.701  28.957  1.00  0.00     0.173 A 
ATOM     68  F   UNL A   1      41.705  29.403  27.697  1.00  0.00    -0.203 F 
ATOM     69  C   UNL A   1      41.039  27.392  26.674  1.00  0.00     0.198 A 
ATOM     70  C   UNL A   1      39.654  25.836  27.865  1.00  0.00     0.198 A 
ATOM     71  F   UNL A   1      38.915  26.341  30.040  1.00  0.00    -0.203 F 
ATOM     72  F   UNL A   1      41.689  27.749  25.557  1.00  0.00    -0.200 F 
ATOM     73  C   UNL A   1      40.355  26.187  26.721  1.00  0.00     0.200 A 
ATOM     74  F   UNL A   1      39.004  24.666  27.919  1.00  0.00    -0.200 F 
ATOM     75  F   UNL A   1      40.362  25.368  25.661  1.00  0.00    -0.200 F 
ENDBRANCH  51  65
BRANCH  52  76
ATOM     76  C   UNL A   1      39.503  33.953  36.869  1.00  0.00     0.064 A 
ATOM     77  C   UNL A   1      38.754  33.537  37.978  1.00  0.00     0.173 A 
ATOM     78  C   UNL A   1      40.118  35.211  36.933  1.00  0.00     0.173 A 
ATOM     79  F   UNL A   1      38.131  32.350  37.958  1.00  0.00    -0.203 F 
ATOM     80  C   UNL A   1      38.609  34.355  39.097  1.00  0.00     0.198 A 
ATOM     81  C   UNL A   1      39.999  36.015  38.064  1.00  0.00     0.198 A 
ATOM     82  F   UNL A   1      40.852  35.653  35.902  1.00  0.00    -0.203 F 
ATOM     83  F   UNL A   1      37.849  33.952  40.125  1.00  0.00    -0.200 F 
ATOM     84  C   UNL A   1      39.237  35.590  39.143  1.00  0.00     0.200 A 
ATOM     85  F   UNL A   1      40.621  37.201  38.110  1.00  0.00    -0.200 F 
ATOM     86  F   UNL A   1      39.103  36.374  40.221  1.00  0.00    -0.200 F 
ENDBRANCH  52  76
BRANCH  64  87
ATOM     87  C   UNL A   1      43.883  28.806  35.141  1.00  0.00     0.064 A 
ATOM     88  C   UNL A   1      45.182  29.301  34.961  1.00  0.00     0.173 A 
ATOM     89  C   UNL A   1      43.704  27.743  36.041  1.00  0.00     0.173 A 
ATOM     90  F   UNL A   1      45.410  30.307  34.102  1.00  0.00    -0.203 F 
ATOM     91  C   UNL A   1      46.263  28.736  35.633  1.00  0.00     0.198 A 
ATOM     92  C   UNL A   1      44.781  27.204  36.737  1.00  0.00     0.198 A 
ATOM     93  F   UNL A   1      42.480  27.237  36.257  1.00  0.00    -0.203 F 
ATOM     94  F   UNL A   1      47.503  29.191  35.406  1.00  0.00    -0.200 F 
ATOM     95  C   UNL A   1      46.061  27.694  36.527  1.00  0.00     0.200 A 
ATOM     96  F   UNL A   1      44.581  26.209  37.613  1.00  0.00    -0.200 F 
ATOM     97  F   UNL A   1      47.101  27.159  37.180  1.00  0.00    -0.200 F 
ENDBRANCH  64  87
ENDBRANCH  38  39
ENDBRANCH  30  33
ENDBRANCH  28  29
ENDBRANCH  27  28
ENDBRANCH   1  27
TORSDOF 14
ENDMDL
MODEL 2
REMARK VINA RESULT:     -12.5      0.081      1.577
REMARK SMILES Cc1ccc(Cl)cc1NC(=O)N[C@@](C)(C(=O)NCCCCNC(=O)c1ccc(-c2c3nc(c(-c4c(F)c(F)c(F)c(F)c4F)c4ccc([nH]4)c(-c4c(F)c(F)c(F)c(F)c4F)c4nc(c(-c5c(F)c(F)c(F)c(F)c5F)c5ccc2[nH]5)C=C4)C=C3)cc1)C(F)(F)F
REMARK SMILES IDX 19 1 18 2 17 3 15 4 16 5 13 7 14 8 12 9 9 10 10 11 11 13
REMARK SMILES IDX 8 15 1 16 2 17 3 18 4 19 7 20 5 21 6 22 88 23 89 24 90 25
REMARK SMILES IDX 91 26 20 27 21 28 22 29 23 30 24 32 25 33 26 34 87 35 27 36
REMARK SMILES IDX 86 37 28 38 29 39 30 40 80 41 31 42 85 43 79 44 81 45 32 46
REMARK SMILES IDX 84 47 78 48 77 49 33 51 65 52 45 53 64 54 46 55 49 56 63 57
REMARK SMILES IDX 82 58 47 59 48 60 62 62 83 63 50 64 34 65 35 66 43 67 36 68
REMARK SMILES IDX 37 69 41 70 44 71 38 72 39 73 42 74 40 75 66 76 67 77 75 78
REMARK SMILES IDX 68 79 69 80 73 81 76 82 70 83 71 84 74 85 72 86 51 87 52 88
REMARK SMILES IDX 60 89 53 90 54 91 58 92 61 93 55 94 56 95 59 96 57 97
REMARK H PARENT 17 6 9 12 12 14 22 31 81 50 49 61
REMARK Flexibility Score: inf
ROOT
ATOM      1  C   UNL A   1      31.619  30.594  26.498  1.00  0.00     0.023 C 
ENDROOT
BRANCH   1   2
ATOM      2  C   UNL A   1      32.232  30.009  25.220  1.00  0.00     0.116 C 
BRANCH   2   3
ATOM      3  N   UNL A   1      33.509  29.392  25.508  1.00  0.00    -0.354 N 
ATOM      4  C   UNL A   1      33.642  28.149  26.061  1.00  0.00     0.255 C 
ATOM      5  O   UNL A   1      34.007  28.140  27.237  1.00  0.00    -0.272 OA
ATOM      6  H   UNL A   1      34.327  29.896  25.293  1.00  0.00     0.163 HD
BRANCH   4   7
ATOM      7  C   UNL A   1      33.315  26.875  25.216  1.00  0.00     0.213 C 
ATOM      8  C   UNL A   1      34.325  25.785  25.622  1.00  0.00     0.056 C 
BRANCH   7   9
ATOM      9  N   UNL A   1      33.455  27.144  23.747  1.00  0.00    -0.316 N 
ATOM     10  N   UNL A   1      33.153  25.164  22.390  1.00  0.00    -0.308 N 
ATOM     11  C   UNL A   1      33.431  26.465  22.593  1.00  0.00     0.320 C 
ATOM     12  H   UNL A   1      32.960  24.982  21.443  1.00  0.00     0.171 HD
ATOM     13  O   UNL A   1      33.575  27.159  21.577  1.00  0.00    -0.248 OA
ATOM     14  H   UNL A   1      33.612  28.102  23.584  1.00  0.00     0.166 HD
BRANCH  10  15
ATOM     15  C   UNL A   1      33.062  23.998  23.165  1.00  0.00     0.047 A 
ATOM     16  C   UNL A   1      30.494  24.150  23.213  1.00  0.00     0.046 C 
ATOM     17  C   UNL A   1      31.810  23.577  23.660  1.00  0.00    -0.027 A 
ATOM     18  C   UNL A   1      31.769  22.563  24.641  1.00  0.00     0.007 A 
ATOM     19  C   UNL A   1      32.935  21.941  25.078  1.00  0.00     0.021 A 
ATOM     20  C   UNL A   1      34.184  23.226  23.457  1.00  0.00     0.047 A 
ATOM     21  C   UNL A   1      34.133  22.240  24.446  1.00  0.00     0.043 A 
ATOM     22  Cl  UNL A   1      35.577  21.434  24.926  1.00  0.00    -0.084 Cl
ENDBRANCH  10  15
ENDBRANCH   7   9
BRANCH   7  23
ATOM     23  C   UNL A   1      31.863  26.632  25.718  1.00  0.00     0.420 C 
ATOM     24  F   UNL A   1      31.655  25.351  26.105  1.00  0.00    -0.168 F 
ATOM     25  F   UNL A   1      31.512  27.385  26.768  1.00  0.00    -0.168 F 
ATOM     26  F   UNL A   1      30.955  26.934  24.753  1.00  0.00    -0.168 F 
ENDBRANCH   7  23
ENDBRANCH   4   7
ENDBRANCH   2   3
ENDBRANCH   1   2
BRANCH   1  27
ATOM     27  C   UNL A   1      31.559  32.128  26.547  1.00  0.00     0.023 C 
BRANCH  27  28
ATOM     28  C   UNL A   1      32.674  32.812  27.330  1.00  0.00     0.116 C 
BRANCH  28  29
ATOM     29  N   UNL A   1      32.371  34.193  27.651  1.00  0.00    -0.352 N 
ATOM     30  C   UNL A   1      32.956  35.008  28.591  1.00  0.00     0.251 C 
ATOM     31  H   UNL A   1      31.647  34.603  27.125  1.00  0.00     0.163 HD
ATOM     32  O   UNL A   1      32.502  36.114  28.825  1.00  0.00    -0.269 OA
BRANCH  30  33
ATOM     33  C   UNL A   1      34.128  34.507  29.340  1.00  0.00     0.039 A 
ATOM     34  C   UNL A   1      33.917  33.908  30.582  1.00  0.00     0.014 A 
ATOM     35  C   UNL A   1      35.413  34.595  28.798  1.00  0.00     0.014 A 
ATOM     36  C   UNL A   1      34.995  33.338  31.259  1.00  0.00     0.010 A 
ATOM     37  C   UNL A   1      36.471  33.958  29.437  1.00  0.00     0.010 A 
ATOM     38  C   UNL A   1      36.274  33.328  30.676  1.00  0.00    -0.014 A 
BRANCH  38  39
ATOM     39  C   UNL A   1      37.415  32.665  31.354  1.00  0.00     0.031 A 
ATOM     40  C   UNL A   1      38.122  31.518  30.691  1.00  0.00     0.074 A 
ATOM     41  C   UNL A   1      37.775  33.060  32.591  1.00  0.00     0.049 A 
ATOM     42  N   UNL A   1      39.106  30.780  31.140  1.00  0.00    -0.248 NA
ATOM     43  C   UNL A   1      37.640  31.128  29.356  1.00  0.00     0.031 C 
ATOM     44  C   UNL A   1      37.128  34.126  33.359  1.00  0.00     0.029 A 
ATOM     45  N   UNL A   1      38.766  32.607  33.423  1.00  0.00    -0.354 N 
ATOM     46  C   UNL A   1      39.347  29.835  30.152  1.00  0.00     0.074 A 
ATOM     47  C   UNL A   1      38.370  30.051  29.109  1.00  0.00     0.031 C 
ATOM     48  C   UNL A   1      37.755  34.261  34.537  1.00  0.00     0.029 A 
ATOM     49  C   UNL A   1      38.820  33.266  34.627  1.00  0.00     0.049 A 
ATOM     50  H   UNL A   1      39.382  31.878  33.181  1.00  0.00     0.167 HD
ATOM     51  C   UNL A   1      40.315  28.887  30.110  1.00  0.00     0.037 A 
ATOM     52  C   UNL A   1      39.631  33.083  35.686  1.00  0.00     0.037 A 
ATOM     53  C   UNL A   1      41.296  28.691  31.144  1.00  0.00     0.049 A 
ATOM     54  C   UNL A   1      40.694  32.021  35.617  1.00  0.00     0.074 A 
ATOM     55  C   UNL A   1      42.359  27.806  31.168  1.00  0.00     0.029 A 
ATOM     56  N   UNL A   1      41.330  29.389  32.343  1.00  0.00    -0.354 N 
ATOM     57  N   UNL A   1      40.967  31.185  34.644  1.00  0.00    -0.248 NA
ATOM     58  C   UNL A   1      41.568  31.881  36.789  1.00  0.00     0.031 C 
ATOM     59  C   UNL A   1      42.999  27.926  32.406  1.00  0.00     0.029 A 
ATOM     60  C   UNL A   1      42.377  28.932  33.128  1.00  0.00     0.049 A 
ATOM     61  H   UNL A   1      40.702  30.104  32.599  1.00  0.00     0.167 HD
ATOM     62  C   UNL A   1      42.058  30.440  35.072  1.00  0.00     0.074 A 
ATOM     63  C   UNL A   1      42.407  30.936  36.389  1.00  0.00     0.031 C 
ATOM     64  C   UNL A   1      42.712  29.438  34.436  1.00  0.00     0.037 A 
BRANCH  51  65
ATOM     65  C   UNL A   1      40.352  27.987  28.907  1.00  0.00     0.064 A 
ATOM     66  C   UNL A   1      39.657  26.768  28.873  1.00  0.00     0.173 A 
ATOM     67  C   UNL A   1      41.077  28.358  27.764  1.00  0.00     0.173 A 
ATOM     68  F   UNL A   1      38.958  26.358  29.943  1.00  0.00    -0.203 F 
ATOM     69  C   UNL A   1      39.714  25.940  27.755  1.00  0.00     0.198 A 
ATOM     70  C   UNL A   1      41.103  27.544  26.634  1.00  0.00     0.198 A 
ATOM     71  F   UNL A   1      41.756  29.515  27.739  1.00  0.00    -0.203 F 
ATOM     72  F   UNL A   1      39.091  24.753  27.770  1.00  0.00    -0.200 F 
ATOM     73  C   UNL A   1      40.431  26.331  26.635  1.00  0.00     0.200 A 
ATOM     74  F   UNL A   1      41.785  27.931  25.547  1.00  0.00    -0.200 F 
ATOM     75  F   UNL A   1      40.482  25.535  25.557  1.00  0.00    -0.200 F 
ENDBRANCH  51  65
BRANCH  52  76
ATOM     76  C   UNL A   1      39.481  33.941  36.892  1.00  0.00     0.064 A 
ATOM     77  C   UNL A   1      38.734  33.510  37.996  1.00  0.00     0.173 A 
ATOM     78  C   UNL A   1      40.086  35.204  36.968  1.00  0.00     0.173 A 
ATOM     79  F   UNL A   1      38.120  32.317  37.965  1.00  0.00    -0.203 F 
ATOM     80  C   UNL A   1      38.580  34.316  39.122  1.00  0.00     0.198 A 
ATOM     81  C   UNL A   1      39.958  35.997  38.106  1.00  0.00     0.198 A 
ATOM     82  F   UNL A   1      40.818  35.661  35.942  1.00  0.00    -0.203 F 
ATOM     83  F   UNL A   1      37.821  33.898  40.144  1.00  0.00    -0.200 F 
ATOM     84  C   UNL A   1      39.197  35.556  39.179  1.00  0.00     0.200 A 
ATOM     85  F   UNL A   1      40.570  37.187  38.163  1.00  0.00    -0.200 F 
ATOM     86  F   UNL A   1      39.055  36.330  40.264  1.00  0.00    -0.200 F 
ENDBRANCH  52  76
BRANCH  64  87
ATOM     87  C   UNL A   1      43.894  28.832  35.136  1.00  0.00     0.064 A 
ATOM     88  C   UNL A   1      43.757  27.743  36.009  1.00  0.00     0.173 A 
ATOM     89  C   UNL A   1      45.188  29.320  34.893  1.00  0.00     0.173 A 
ATOM     90  F   UNL A   1      42.541  27.246  36.285  1.00  0.00    -0.203 F 
ATOM     91  C   UNL A   1      44.868  27.183  36.635  1.00  0.00     0.198 A 
ATOM     92  C   UNL A   1      46.299  28.737  35.495  1.00  0.00     0.198 A 
ATOM     93  F   UNL A   1      45.376  30.354  34.060  1.00  0.00    -0.203 F 
ATOM     94  F   UNL A   1      44.708  26.178  37.506  1.00  0.00    -0.200 F 
ATOM     95  C   UNL A   1      46.138  27.675  36.372  1.00  0.00     0.200 A 
ATOM     96  F   UNL A   1      47.527  29.201  35.225  1.00  0.00    -0.200 F 
ATOM     97  F   UNL A   1      47.206  27.129  36.969  1.00  0.00    -0.200 F 
ENDBRANCH  64  87
ENDBRANCH  38  39
ENDBRANCH  30  33
ENDBRANCH  28  29
ENDBRANCH  27  28
ENDBRANCH   1  27
TORSDOF 14
ENDMDL
MODEL 3
REMARK VINA RESULT:     -12.5      5.747     10.962
REMARK SMILES Cc1ccc(Cl)cc1NC(=O)N[C@@](C)(C(=O)NCCCCNC(=O)c1ccc(-c2c3nc(c(-c4c(F)c(F)c(F)c(F)c4F)c4ccc([nH]4)c(-c4c(F)c(F)c(F)c(F)c4F)c4nc(c(-c5c(F)c(F)c(F)c(F)c5F)c5ccc2[nH]5)C=C4)C=C3)cc1)C(F)(F)F
REMARK SMILES IDX 19 1 18 2 17 3 15 4 16 5 13 7 14 8 12 9 9 10 10 11 11 13
REMARK SMILES IDX 8 15 1 16 2 17 3 18 4 19 7 20 5 21 6 22 88 23 89 24 90 25
REMARK SMILES IDX 91 26 20 27 21 28 22 29 23 30 24 32 25 33 26 34 87 35 27 36
REMARK SMILES IDX 86 37 28 38 29 39 30 40 80 41 31 42 85 43 79 44 81 45 32 46
REMARK SMILES IDX 84 47 78 48 77 49 33 51 65 52 45 53 64 54 46 55 49 56 63 57
REMARK SMILES IDX 82 58 47 59 48 60 62 62 83 63 50 64 34 65 35 66 43 67 36 68
REMARK SMILES IDX 37 69 41 70 44 71 38 72 39 73 42 74 40 75 66 76 67 77 75 78
REMARK SMILES IDX 68 79 69 80 73 81 76 82 70 83 71 84 74 85 72 86 51 87 52 88
REMARK SMILES IDX 60 89 53 90 54 91 58 92 61 93 55 94 56 95 59 96 57 97
REMARK H PARENT 17 6 9 12 12 14 22 31 81 50 49 61
REMARK Flexibility Score: inf
ROOT
ATOM      1  C   UNL A   1      36.988  20.968  24.670  1.00  0.00     0.023 C 
ENDROOT
BRANCH   1   2
ATOM      2  C   UNL A   1      35.898  21.215  25.719  1.00  0.00     0.116 C 
BRANCH   2   3
ATOM      3  N   UNL A   1      36.096  22.495  26.365  1.00  0.00    -0.354 N 
ATOM      4  C   UNL A   1      35.845  23.694  25.759  1.00  0.00     0.255 C 
ATOM      5  O   UNL A   1      36.847  24.334  25.438  1.00  0.00    -0.272 OA
ATOM      6  H   UNL A   1      36.431  22.501  27.290  1.00  0.00     0.163 HD
BRANCH   4   7
ATOM      7  C   UNL A   1      34.373  24.151  25.501  1.00  0.00     0.213 C 
ATOM      8  C   UNL A   1      34.315  25.671  25.743  1.00  0.00     0.056 C 
BRANCH   7   9
ATOM      9  N   UNL A   1      33.420  23.474  26.441  1.00  0.00    -0.316 N 
ATOM     10  N   UNL A   1      31.160  24.320  26.269  1.00  0.00    -0.308 N 
ATOM     11  C   UNL A   1      32.129  23.550  26.794  1.00  0.00     0.320 C 
ATOM     12  H   UNL A   1      30.267  24.005  26.536  1.00  0.00     0.171 HD
ATOM     13  O   UNL A   1      31.772  22.718  27.640  1.00  0.00    -0.248 OA
ATOM     14  H   UNL A   1      33.878  22.764  26.947  1.00  0.00     0.166 HD
BRANCH  10  15
ATOM     15  C   UNL A   1      31.078  25.451  25.442  1.00  0.00     0.047 A 
ATOM     16  C   UNL A   1      30.520  23.995  23.394  1.00  0.00     0.046 C 
ATOM     17  C   UNL A   1      30.892  25.294  24.052  1.00  0.00    -0.027 A 
ATOM     18  C   UNL A   1      31.070  26.412  23.209  1.00  0.00     0.007 A 
ATOM     19  C   UNL A   1      31.368  27.667  23.735  1.00  0.00     0.021 A 
ATOM     20  C   UNL A   1      31.166  26.741  25.958  1.00  0.00     0.047 A 
ATOM     21  C   UNL A   1      31.363  27.836  25.112  1.00  0.00     0.043 A 
ATOM     22  Cl  UNL A   1      31.663  29.393  25.782  1.00  0.00    -0.084 Cl
ENDBRANCH  10  15
ENDBRANCH   7   9
BRANCH   7  23
ATOM     23  C   UNL A   1      34.258  23.728  24.009  1.00  0.00     0.420 C 
ATOM     24  F   UNL A   1      33.763  24.715  23.225  1.00  0.00    -0.168 F 
ATOM     25  F   UNL A   1      35.421  23.374  23.447  1.00  0.00    -0.168 F 
ATOM     26  F   UNL A   1      33.458  22.638  23.869  1.00  0.00    -0.168 F 
ENDBRANCH   7  23
ENDBRANCH   4   7
ENDBRANCH   2   3
ENDBRANCH   1   2
BRANCH   1  27
ATOM     27  C   UNL A   1      37.962  19.827  24.999  1.00  0.00     0.023 C 
BRANCH  27  28
ATOM     28  C   UNL A   1      39.230  20.229  25.744  1.00  0.00     0.116 C 
BRANCH  28  29
ATOM     29  N   UNL A   1      40.181  19.141  25.865  1.00  0.00    -0.352 N 
ATOM     30  C   UNL A   1      41.532  19.201  26.112  1.00  0.00     0.251 C 
ATOM     31  H   UNL A   1      39.809  18.237  25.754  1.00  0.00     0.163 HD
ATOM     32  O   UNL A   1      42.219  18.196  26.060  1.00  0.00    -0.269 OA
BRANCH  30  33
ATOM     33  C   UNL A   1      42.146  20.512  26.407  1.00  0.00     0.039 A 
ATOM     34  C   UNL A   1      42.556  21.311  25.340  1.00  0.00     0.014 A 
ATOM     35  C   UNL A   1      42.276  20.960  27.725  1.00  0.00     0.014 A 
ATOM     36  C   UNL A   1      43.045  22.593  25.592  1.00  0.00     0.010 A 
ATOM     37  C   UNL A   1      42.690  22.265  27.968  1.00  0.00     0.010 A 
ATOM     38  C   UNL A   1      43.082  23.093  26.905  1.00  0.00    -0.014 A 
BRANCH  38  39
ATOM     39  C   UNL A   1      43.535  24.479  27.179  1.00  0.00     0.031 A 
ATOM     40  C   UNL A   1      42.567  25.495  27.712  1.00  0.00     0.074 A 
ATOM     41  C   UNL A   1      44.803  24.833  26.895  1.00  0.00     0.049 A 
ATOM     42  N   UNL A   1      42.756  26.765  27.970  1.00  0.00    -0.248 NA
ATOM     43  C   UNL A   1      41.192  25.032  27.960  1.00  0.00     0.031 C 
ATOM     44  C   UNL A   1      45.820  23.948  26.323  1.00  0.00     0.029 A 
ATOM     45  N   UNL A   1      45.451  26.034  27.038  1.00  0.00    -0.354 N 
ATOM     46  C   UNL A   1      41.527  27.250  28.395  1.00  0.00     0.074 A 
ATOM     47  C   UNL A   1      40.584  26.158  28.302  1.00  0.00     0.031 C 
ATOM     48  C   UNL A   1      46.969  24.628  26.188  1.00  0.00     0.029 A 
ATOM     49  C   UNL A   1      46.761  26.006  26.624  1.00  0.00     0.049 A 
ATOM     50  H   UNL A   1      45.020  26.839  27.403  1.00  0.00     0.167 HD
ATOM     51  C   UNL A   1      41.219  28.490  28.845  1.00  0.00     0.037 A 
ATOM     52  C   UNL A   1      47.686  26.983  26.592  1.00  0.00     0.037 A 
ATOM     53  C   UNL A   1      42.168  29.566  28.953  1.00  0.00     0.049 A 
ATOM     54  C   UNL A   1      47.319  28.353  27.094  1.00  0.00     0.074 A 
ATOM     55  C   UNL A   1      41.975  30.839  29.460  1.00  0.00     0.029 A 
ATOM     56  N   UNL A   1      43.492  29.497  28.539  1.00  0.00    -0.354 N 
ATOM     57  N   UNL A   1      46.174  28.781  27.570  1.00  0.00    -0.248 NA
ATOM     58  C   UNL A   1      48.373  29.376  27.060  1.00  0.00     0.031 C 
ATOM     59  C   UNL A   1      43.164  31.558  29.297  1.00  0.00     0.029 A 
ATOM     60  C   UNL A   1      44.118  30.715  28.751  1.00  0.00     0.049 A 
ATOM     61  H   UNL A   1      43.921  28.699  28.152  1.00  0.00     0.167 HD
ATOM     62  C   UNL A   1      46.376  30.110  27.919  1.00  0.00     0.074 A 
ATOM     63  C   UNL A   1      47.760  30.413  27.613  1.00  0.00     0.031 C 
ATOM     64  C   UNL A   1      45.497  30.999  28.444  1.00  0.00     0.037 A 
BRANCH  51  65
ATOM     65  C   UNL A   1      39.795  28.748  29.249  1.00  0.00     0.064 A 
ATOM     66  C   UNL A   1      38.843  29.232  28.337  1.00  0.00     0.173 A 
ATOM     67  C   UNL A   1      39.369  28.488  30.560  1.00  0.00     0.173 A 
ATOM     68  F   UNL A   1      39.198  29.509  27.073  1.00  0.00    -0.203 F 
ATOM     69  C   UNL A   1      37.530  29.479  28.732  1.00  0.00     0.198 A 
ATOM     70  C   UNL A   1      38.047  28.702  30.943  1.00  0.00     0.198 A 
ATOM     71  F   UNL A   1      40.235  28.019  31.473  1.00  0.00    -0.203 F 
ATOM     72  F   UNL A   1      36.656  29.998  27.859  1.00  0.00    -0.200 F 
ATOM     73  C   UNL A   1      37.132  29.207  30.032  1.00  0.00     0.200 A 
ATOM     74  F   UNL A   1      37.661  28.425  32.196  1.00  0.00    -0.200 F 
ATOM     75  F   UNL A   1      35.868  29.441  30.410  1.00  0.00    -0.200 F 
ENDBRANCH  51  65
BRANCH  52  76
ATOM     76  C   UNL A   1      49.055  26.693  26.088  1.00  0.00     0.064 A 
ATOM     77  C   UNL A   1      49.423  27.017  24.775  1.00  0.00     0.173 A 
ATOM     78  C   UNL A   1      50.022  26.094  26.907  1.00  0.00     0.173 A 
ATOM     79  F   UNL A   1      48.528  27.574  23.946  1.00  0.00    -0.203 F 
ATOM     80  C   UNL A   1      50.700  26.733  24.294  1.00  0.00     0.198 A 
ATOM     81  C   UNL A   1      51.308  25.839  26.436  1.00  0.00     0.198 A 
ATOM     82  F   UNL A   1      49.723  25.771  28.174  1.00  0.00    -0.203 F 
ATOM     83  F   UNL A   1      51.011  27.011  23.020  1.00  0.00    -0.200 F 
ATOM     84  C   UNL A   1      51.644  26.151  25.126  1.00  0.00     0.200 A 
ATOM     85  F   UNL A   1      52.221  25.291  27.249  1.00  0.00    -0.200 F 
ATOM     86  F   UNL A   1      52.874  25.884  24.667  1.00  0.00    -0.200 F 
ENDBRANCH  52  76
BRANCH  64  87
ATOM     87  C   UNL A   1      46.012  32.375  28.756  1.00  0.00     0.064 A 
ATOM     88  C   UNL A   1      45.935  33.422  27.825  1.00  0.00     0.173 A 
ATOM     89  C   UNL A   1      46.549  32.660  30.022  1.00  0.00     0.173 A 
ATOM     90  F   UNL A   1      45.443  33.200  26.597  1.00  0.00    -0.203 F 
ATOM     91  C   UNL A   1      46.402  34.695  28.141  1.00  0.00     0.198 A 
ATOM     92  C   UNL A   1      46.983  33.942  30.344  1.00  0.00     0.198 A 
ATOM     93  F   UNL A   1      46.638  31.697  30.951  1.00  0.00    -0.203 F 
ATOM     94  F   UNL A   1      46.367  35.667  27.219  1.00  0.00    -0.200 F 
ATOM     95  C   UNL A   1      46.918  34.957  29.402  1.00  0.00     0.200 A 
ATOM     96  F   UNL A   1      47.465  34.196  31.569  1.00  0.00    -0.200 F 
ATOM     97  F   UNL A   1      47.359  36.185  29.706  1.00  0.00    -0.200 F 
ENDBRANCH  64  87
ENDBRANCH  38  39
ENDBRANCH  30  33
ENDBRANCH  28  29
ENDBRANCH  27  28
ENDBRANCH   1  27
TORSDOF 14
ENDMDL
