MODEL 1
REMARK VINA RESULT:     -11.4      0.000      0.000
REMARK SMILES CCn1cnc(S(=O)(=O)N[C@H](CC(C)C)C(=O)NCCCCNC(=O)c2ccc(-c3c4nc(c(-c5c(F)c(F)c(F)c(F)c5F)c5ccc([nH]5)c(-c5c(F)c(F)c(F)c(F)c5F)c5nc(c(-c6c(F)c(F)c(F)c(F)c6F)c6ccc3[nH]6)C=C5)C=C4)cc2)c1
REMARK SMILES IDX 19 1 18 2 16 3 17 4 11 6 10 7 7 9 8 10 9 11 6 12 3 13 4 14
REMARK SMILES IDX 89 15 5 16 2 17 1 18 12 19 13 20 14 21 15 22 20 23 21 24
REMARK SMILES IDX 22 25 23 26 24 27 25 29 26 30 27 31 88 32 28 33 87 34 29 35
REMARK SMILES IDX 30 36 31 37 81 38 32 39 86 40 80 41 82 42 33 43 85 44 79 45
REMARK SMILES IDX 78 46 34 48 66 49 46 50 65 51 47 52 50 53 64 54 83 55 48 56
REMARK SMILES IDX 49 57 63 59 84 60 51 61 35 62 36 63 44 64 37 65 38 66 42 67
REMARK SMILES IDX 45 68 39 69 40 70 43 71 41 72 67 73 68 74 76 75 69 76 70 77
REMARK SMILES IDX 74 78 77 79 71 80 72 81 75 82 73 83 52 84 53 85 61 86 54 87
REMARK SMILES IDX 55 88 59 89 62 90 56 91 57 92 60 93 58 94
REMARK H PARENT 18 5 10 8 23 28 82 47 50 58
REMARK Flexibility Score: inf
ROOT
ATOM      1  C   UNL A   1      38.103  22.090  25.988  1.00  0.00     0.116 C 
ENDROOT
BRANCH   1   2
ATOM      2  N   UNL A   1      37.723  22.277  24.592  1.00  0.00    -0.355 N 
ATOM      3  C   UNL A   1      36.615  22.809  23.991  1.00  0.00     0.238 C 
ATOM      4  O   UNL A   1      36.683  22.966  22.765  1.00  0.00    -0.273 OA
ATOM      5  H   UNL A   1      38.399  21.954  23.954  1.00  0.00     0.163 HD
BRANCH   3   6
ATOM      6  C   UNL A   1      35.302  23.161  24.735  1.00  0.00     0.159 C 
BRANCH   6   7
ATOM      7  N   UNL A   1      34.176  22.518  23.997  1.00  0.00    -0.197 NA
ATOM      8  H   UNL A   1      33.831  23.232  23.355  1.00  0.00     0.142 HD
BRANCH   7   9
ATOM      9  S   UNL A   1      32.800  21.852  24.705  1.00  0.00     0.260 S 
ATOM     10  O   UNL A   1      31.631  22.377  24.048  1.00  0.00    -0.205 OA
ATOM     11  O   UNL A   1      33.028  22.044  26.125  1.00  0.00    -0.205 OA
BRANCH   9  12
ATOM     12  C   UNL A   1      32.720  20.103  24.516  1.00  0.00     0.188 A 
ATOM     13  N   UNL A   1      32.685  17.926  24.854  1.00  0.00    -0.336 N 
ATOM     14  C   UNL A   1      32.422  18.187  23.545  1.00  0.00     0.201 A 
ATOM     15  C   UNL A   1      32.905  19.127  25.473  1.00  0.00     0.129 A 
ATOM     16  N   UNL A   1      32.428  19.482  23.305  1.00  0.00    -0.224 NA
BRANCH  13  17
ATOM     17  C   UNL A   1      32.692  16.639  25.520  1.00  0.00     0.120 C 
ATOM     18  C   UNL A   1      33.963  15.849  25.271  1.00  0.00     0.027 C 
ENDBRANCH  13  17
ENDBRANCH   9  12
ENDBRANCH   7   9
ENDBRANCH   6   7
BRANCH   6  19
ATOM     19  C   UNL A   1      35.123  24.660  24.948  1.00  0.00     0.033 C 
BRANCH  19  20
ATOM     20  C   UNL A   1      33.740  25.331  24.868  1.00  0.00    -0.015 C 
ATOM     21  C   UNL A   1      33.544  26.389  25.957  1.00  0.00     0.007 C 
ATOM     22  C   UNL A   1      33.653  26.043  23.502  1.00  0.00     0.007 C 
ENDBRANCH  19  20
ENDBRANCH   6  19
ENDBRANCH   3   6
ENDBRANCH   1   2
BRANCH   1  23
ATOM     23  C   UNL A   1      39.616  22.019  26.199  1.00  0.00     0.023 C 
BRANCH  23  24
ATOM     24  C   UNL A   1      40.241  20.617  26.184  1.00  0.00     0.023 C 
BRANCH  24  25
ATOM     25  C   UNL A   1      41.551  20.498  26.964  1.00  0.00     0.116 C 
BRANCH  25  26
ATOM     26  N   UNL A   1      42.615  19.835  26.201  1.00  0.00    -0.352 N 
ATOM     27  C   UNL A   1      43.542  20.382  25.316  1.00  0.00     0.251 C 
ATOM     28  H   UNL A   1      42.684  18.862  26.334  1.00  0.00     0.163 HD
ATOM     29  O   UNL A   1      44.136  19.716  24.498  1.00  0.00    -0.269 OA
BRANCH  27  30
ATOM     30  C   UNL A   1      43.810  21.817  25.471  1.00  0.00     0.039 A 
ATOM     31  C   UNL A   1      43.059  22.815  24.843  1.00  0.00     0.014 A 
ATOM     32  C   UNL A   1      44.718  22.103  26.475  1.00  0.00     0.014 A 
ATOM     33  C   UNL A   1      43.114  24.110  25.363  1.00  0.00     0.010 A 
ATOM     34  C   UNL A   1      44.584  23.300  27.112  1.00  0.00     0.010 A 
ATOM     35  C   UNL A   1      43.839  24.333  26.541  1.00  0.00    -0.014 A 
BRANCH  35  36
ATOM     36  C   UNL A   1      43.766  25.578  27.302  1.00  0.00     0.031 A 
ATOM     37  C   UNL A   1      44.707  26.675  26.926  1.00  0.00     0.074 A 
ATOM     38  C   UNL A   1      42.672  25.874  28.039  1.00  0.00     0.049 A 
ATOM     39  N   UNL A   1      45.566  27.280  27.681  1.00  0.00    -0.248 NA
ATOM     40  C   UNL A   1      44.716  27.145  25.533  1.00  0.00     0.031 C 
ATOM     41  C   UNL A   1      41.455  25.070  28.242  1.00  0.00     0.029 A 
ATOM     42  N   UNL A   1      42.351  27.053  28.630  1.00  0.00    -0.354 N 
ATOM     43  C   UNL A   1      46.121  28.309  26.915  1.00  0.00     0.074 A 
ATOM     44  C   UNL A   1      45.661  28.089  25.568  1.00  0.00     0.031 C 
ATOM     45  C   UNL A   1      40.451  25.868  28.656  1.00  0.00     0.029 A 
ATOM     46  C   UNL A   1      41.015  27.163  28.976  1.00  0.00     0.049 A 
ATOM     47  H   UNL A   1      43.008  27.766  28.798  1.00  0.00     0.167 HD
ATOM     48  C   UNL A   1      46.759  29.367  27.498  1.00  0.00     0.037 A 
ATOM     49  C   UNL A   1      40.400  28.242  29.503  1.00  0.00     0.037 A 
ATOM     50  C   UNL A   1      47.038  29.099  28.888  1.00  0.00     0.049 A 
ATOM     51  C   UNL A   1      41.455  29.089  30.108  1.00  0.00     0.074 A 
ATOM     52  C   UNL A   1      47.767  28.145  29.571  1.00  0.00     0.029 A 
ATOM     53  N   UNL A   1      46.228  29.685  29.830  1.00  0.00    -0.354 N 
ATOM     54  N   UNL A   1      42.182  28.723  31.129  1.00  0.00    -0.248 NA
ATOM     55  C   UNL A   1      42.006  30.172  29.308  1.00  0.00     0.031 C 
ATOM     56  C   UNL A   1      46.994  27.864  30.739  1.00  0.00     0.029 A 
ATOM     57  C   UNL A   1      45.877  28.702  30.718  1.00  0.00     0.049 A 
ATOM     58  H   UNL A   1      45.953  30.629  29.861  1.00  0.00     0.167 HD
ATOM     59  C   UNL A   1      43.448  29.223  30.863  1.00  0.00     0.074 A 
ATOM     60  C   UNL A   1      43.248  30.203  29.798  1.00  0.00     0.031 C 
ATOM     61  C   UNL A   1      44.570  28.596  31.326  1.00  0.00     0.037 A 
BRANCH  48  62
ATOM     62  C   UNL A   1      46.859  30.775  26.947  1.00  0.00     0.064 A 
ATOM     63  C   UNL A   1      48.115  31.424  26.945  1.00  0.00     0.173 A 
ATOM     64  C   UNL A   1      45.752  31.612  26.705  1.00  0.00     0.173 A 
ATOM     65  F   UNL A   1      49.244  30.732  27.160  1.00  0.00    -0.203 F 
ATOM     66  C   UNL A   1      48.238  32.811  26.821  1.00  0.00     0.198 A 
ATOM     67  C   UNL A   1      45.884  32.992  26.524  1.00  0.00     0.198 A 
ATOM     68  F   UNL A   1      44.495  31.160  26.744  1.00  0.00    -0.203 F 
ATOM     69  F   UNL A   1      49.438  33.389  26.970  1.00  0.00    -0.200 F 
ATOM     70  C   UNL A   1      47.120  33.596  26.620  1.00  0.00     0.200 A 
ATOM     71  F   UNL A   1      44.787  33.739  26.338  1.00  0.00    -0.200 F 
ATOM     72  F   UNL A   1      47.224  34.930  26.569  1.00  0.00    -0.200 F 
ENDBRANCH  48  62
BRANCH  49  73
ATOM     73  C   UNL A   1      38.993  28.646  29.334  1.00  0.00     0.064 A 
ATOM     74  C   UNL A   1      38.138  28.788  30.433  1.00  0.00     0.173 A 
ATOM     75  C   UNL A   1      38.517  29.120  28.094  1.00  0.00     0.173 A 
ATOM     76  F   UNL A   1      38.538  28.394  31.650  1.00  0.00    -0.203 F 
ATOM     77  C   UNL A   1      36.881  29.385  30.304  1.00  0.00     0.198 A 
ATOM     78  C   UNL A   1      37.260  29.710  27.965  1.00  0.00     0.198 A 
ATOM     79  F   UNL A   1      39.300  29.095  27.004  1.00  0.00    -0.203 F 
ATOM     80  F   UNL A   1      36.107  29.551  31.386  1.00  0.00    -0.200 F 
ATOM     81  C   UNL A   1      36.447  29.853  29.073  1.00  0.00     0.200 A 
ATOM     82  F   UNL A   1      36.867  30.187  26.774  1.00  0.00    -0.200 F 
ATOM     83  F   UNL A   1      35.264  30.473  28.962  1.00  0.00    -0.200 F 
ENDBRANCH  49  73
BRANCH  61  84
ATOM     84  C   UNL A   1      44.408  27.515  32.358  1.00  0.00     0.064 A 
ATOM     85  C   UNL A   1      44.316  26.148  32.050  1.00  0.00     0.173 A 
ATOM     86  C   UNL A   1      44.545  27.858  33.709  1.00  0.00     0.173 A 
ATOM     87  F   UNL A   1      44.286  25.728  30.783  1.00  0.00    -0.203 F 
ATOM     88  C   UNL A   1      44.331  25.173  33.045  1.00  0.00     0.198 A 
ATOM     89  C   UNL A   1      44.592  26.881  34.702  1.00  0.00     0.198 A 
ATOM     90  F   UNL A   1      44.698  29.144  34.064  1.00  0.00    -0.203 F 
ATOM     91  F   UNL A   1      44.249  23.876  32.716  1.00  0.00    -0.200 F 
ATOM     92  C   UNL A   1      44.480  25.541  34.371  1.00  0.00     0.200 A 
ATOM     93  F   UNL A   1      44.787  27.239  35.979  1.00  0.00    -0.200 F 
ATOM     94  F   UNL A   1      44.547  24.602  35.325  1.00  0.00    -0.200 F 
ENDBRANCH  61  84
ENDBRANCH  35  36
ENDBRANCH  27  30
ENDBRANCH  25  26
ENDBRANCH  24  25
ENDBRANCH  23  24
ENDBRANCH   1  23
TORSDOF 17
ENDMDL
MODEL 2
REMARK VINA RESULT:     -11.1      2.041      6.648
REMARK SMILES CCn1cnc(S(=O)(=O)N[C@H](CC(C)C)C(=O)NCCCCNC(=O)c2ccc(-c3c4nc(c(-c5c(F)c(F)c(F)c(F)c5F)c5ccc([nH]5)c(-c5c(F)c(F)c(F)c(F)c5F)c5nc(c(-c6c(F)c(F)c(F)c(F)c6F)c6ccc3[nH]6)C=C5)C=C4)cc2)c1
REMARK SMILES IDX 19 1 18 2 16 3 17 4 11 6 10 7 7 9 8 10 9 11 6 12 3 13 4 14
REMARK SMILES IDX 89 15 5 16 2 17 1 18 12 19 13 20 14 21 15 22 20 23 21 24
REMARK SMILES IDX 22 25 23 26 24 27 25 29 26 30 27 31 88 32 28 33 87 34 29 35
REMARK SMILES IDX 30 36 31 37 81 38 32 39 86 40 80 41 82 42 33 43 85 44 79 45
REMARK SMILES IDX 78 46 34 48 66 49 46 50 65 51 47 52 50 53 64 54 83 55 48 56
REMARK SMILES IDX 49 57 63 59 84 60 51 61 35 62 36 63 44 64 37 65 38 66 42 67
REMARK SMILES IDX 45 68 39 69 40 70 43 71 41 72 67 73 68 74 76 75 69 76 70 77
REMARK SMILES IDX 74 78 77 79 71 80 72 81 75 82 73 83 52 84 53 85 61 86 54 87
REMARK SMILES IDX 55 88 59 89 62 90 56 91 57 92 60 93 58 94
REMARK H PARENT 18 5 10 8 23 28 82 47 50 58
REMARK Flexibility Score: inf
ROOT
ATOM      1  C   UNL A   1      36.595  22.356  25.789  1.00  0.00     0.116 C 
ENDROOT
BRANCH   1   2
ATOM      2  N   UNL A   1      35.648  22.374  26.899  1.00  0.00    -0.355 N 
ATOM      3  C   UNL A   1      34.350  22.793  27.009  1.00  0.00     0.238 C 
ATOM      4  O   UNL A   1      33.776  22.512  28.070  1.00  0.00    -0.273 OA
ATOM      5  H   UNL A   1      36.017  22.013  27.737  1.00  0.00     0.163 HD
BRANCH   3   6
ATOM      6  C   UNL A   1      33.605  23.621  25.933  1.00  0.00     0.159 C 
BRANCH   6   7
ATOM      7  N   UNL A   1      33.492  22.776  24.709  1.00  0.00    -0.197 NA
ATOM      8  H   UNL A   1      33.459  23.433  23.929  1.00  0.00     0.142 HD
BRANCH   7   9
ATOM      9  S   UNL A   1      32.266  21.660  24.404  1.00  0.00     0.260 S 
ATOM     10  O   UNL A   1      31.877  21.755  23.020  1.00  0.00    -0.205 OA
ATOM     11  O   UNL A   1      31.322  21.898  25.480  1.00  0.00    -0.205 OA
BRANCH   9  12
ATOM     12  C   UNL A   1      32.788  19.997  24.651  1.00  0.00     0.188 A 
ATOM     13  N   UNL A   1      33.908  18.100  24.675  1.00  0.00    -0.336 N 
ATOM     14  C   UNL A   1      32.775  17.968  25.416  1.00  0.00     0.201 A 
ATOM     15  C   UNL A   1      33.914  19.368  24.162  1.00  0.00     0.129 A 
ATOM     16  N   UNL A   1      32.080  19.086  25.430  1.00  0.00    -0.224 NA
BRANCH  13  17
ATOM     17  C   UNL A   1      34.963  17.124  24.481  1.00  0.00     0.120 C 
ATOM     18  C   UNL A   1      34.761  15.864  25.301  1.00  0.00     0.027 C 
ENDBRANCH  13  17
ENDBRANCH   9  12
ENDBRANCH   7   9
ENDBRANCH   6   7
BRANCH   6  19
ATOM     19  C   UNL A   1      34.242  24.984  25.685  1.00  0.00     0.033 C 
BRANCH  19  20
ATOM     20  C   UNL A   1      33.405  26.206  25.265  1.00  0.00    -0.015 C 
ATOM     21  C   UNL A   1      33.827  27.479  26.005  1.00  0.00     0.007 C 
ATOM     22  C   UNL A   1      33.650  26.435  23.760  1.00  0.00     0.007 C 
ENDBRANCH  19  20
ENDBRANCH   6  19
ENDBRANCH   3   6
ENDBRANCH   1   2
BRANCH   1  23
ATOM     23  C   UNL A   1      36.715  20.988  25.117  1.00  0.00     0.023 C 
BRANCH  23  24
ATOM     24  C   UNL A   1      38.128  20.553  24.706  1.00  0.00     0.023 C 
BRANCH  24  25
ATOM     25  C   UNL A   1      39.169  20.640  25.823  1.00  0.00     0.116 C 
BRANCH  25  26
ATOM     26  N   UNL A   1      40.044  19.463  25.886  1.00  0.00    -0.352 N 
ATOM     27  C   UNL A   1      41.434  19.397  25.948  1.00  0.00     0.251 C 
ATOM     28  H   UNL A   1      39.581  18.594  25.885  1.00  0.00     0.163 HD
ATOM     29  O   UNL A   1      42.055  18.399  25.655  1.00  0.00    -0.269 OA
BRANCH  27  30
ATOM     30  C   UNL A   1      42.114  20.597  26.455  1.00  0.00     0.039 A 
ATOM     31  C   UNL A   1      42.524  21.654  25.637  1.00  0.00     0.014 A 
ATOM     32  C   UNL A   1      42.100  20.696  27.835  1.00  0.00     0.014 A 
ATOM     33  C   UNL A   1      42.769  22.893  26.233  1.00  0.00     0.010 A 
ATOM     34  C   UNL A   1      42.111  21.951  28.366  1.00  0.00     0.010 A 
ATOM     35  C   UNL A   1      42.502  23.049  27.599  1.00  0.00    -0.014 A 
BRANCH  35  36
ATOM     36  C   UNL A   1      42.487  24.347  28.268  1.00  0.00     0.031 A 
ATOM     37  C   UNL A   1      41.255  25.181  28.133  1.00  0.00     0.074 A 
ATOM     38  C   UNL A   1      43.362  24.624  29.261  1.00  0.00     0.049 A 
ATOM     39  N   UNL A   1      41.157  26.388  27.678  1.00  0.00    -0.248 NA
ATOM     40  C   UNL A   1      39.966  24.597  28.528  1.00  0.00     0.031 C 
ATOM     41  C   UNL A   1      44.435  23.773  29.803  1.00  0.00     0.029 A 
ATOM     42  N   UNL A   1      43.357  25.677  30.116  1.00  0.00    -0.354 N 
ATOM     43  C   UNL A   1      39.830  26.783  27.865  1.00  0.00     0.074 A 
ATOM     44  C   UNL A   1      39.118  25.595  28.263  1.00  0.00     0.031 C 
ATOM     45  C   UNL A   1      44.778  24.208  31.032  1.00  0.00     0.029 A 
ATOM     46  C   UNL A   1      44.133  25.487  31.246  1.00  0.00     0.049 A 
ATOM     47  H   UNL A   1      42.849  26.502  29.949  1.00  0.00     0.167 HD
ATOM     48  C   UNL A   1      39.470  28.101  27.861  1.00  0.00     0.037 A 
ATOM     49  C   UNL A   1      44.255  26.325  32.297  1.00  0.00     0.037 A 
ATOM     50  C   UNL A   1      40.534  28.923  27.340  1.00  0.00     0.049 A 
ATOM     51  C   UNL A   1      43.840  27.669  31.829  1.00  0.00     0.074 A 
ATOM     52  C   UNL A   1      41.214  28.995  26.140  1.00  0.00     0.029 A 
ATOM     53  N   UNL A   1      41.298  29.630  28.236  1.00  0.00    -0.354 N 
ATOM     54  N   UNL A   1      44.483  28.351  30.920  1.00  0.00    -0.248 NA
ATOM     55  C   UNL A   1      42.462  28.076  32.053  1.00  0.00     0.031 C 
ATOM     56  C   UNL A   1      42.565  29.281  26.504  1.00  0.00     0.029 A 
ATOM     57  C   UNL A   1      42.608  29.420  27.893  1.00  0.00     0.049 A 
ATOM     58  H   UNL A   1      40.968  30.181  28.981  1.00  0.00     0.167 HD
ATOM     59  C   UNL A   1      43.493  28.976  30.176  1.00  0.00     0.074 A 
ATOM     60  C   UNL A   1      42.286  28.868  30.992  1.00  0.00     0.031 C 
ATOM     61  C   UNL A   1      43.677  29.266  28.854  1.00  0.00     0.037 A 
BRANCH  48  62
ATOM     62  C   UNL A   1      38.309  28.721  28.612  1.00  0.00     0.064 A 
ATOM     63  C   UNL A   1      37.530  29.713  27.973  1.00  0.00     0.173 A 
ATOM     64  C   UNL A   1      38.116  28.612  30.003  1.00  0.00     0.173 A 
ATOM     65  F   UNL A   1      37.623  29.910  26.649  1.00  0.00    -0.203 F 
ATOM     66  C   UNL A   1      36.709  30.592  28.686  1.00  0.00     0.198 A 
ATOM     67  C   UNL A   1      37.250  29.455  30.706  1.00  0.00     0.198 A 
ATOM     68  F   UNL A   1      38.829  27.770  30.758  1.00  0.00    -0.203 F 
ATOM     69  F   UNL A   1      36.104  31.603  28.049  1.00  0.00    -0.200 F 
ATOM     70  C   UNL A   1      36.578  30.468  30.055  1.00  0.00     0.200 A 
ATOM     71  F   UNL A   1      37.141  29.325  32.035  1.00  0.00    -0.200 F 
ATOM     72  F   UNL A   1      35.847  31.348  30.752  1.00  0.00    -0.200 F 
ENDBRANCH  48  62
BRANCH  49  73
ATOM     73  C   UNL A   1      44.526  25.973  33.702  1.00  0.00     0.064 A 
ATOM     74  C   UNL A   1      43.491  25.654  34.587  1.00  0.00     0.173 A 
ATOM     75  C   UNL A   1      45.842  25.724  34.147  1.00  0.00     0.173 A 
ATOM     76  F   UNL A   1      42.214  25.828  34.218  1.00  0.00    -0.203 F 
ATOM     77  C   UNL A   1      43.753  25.103  35.845  1.00  0.00     0.198 A 
ATOM     78  C   UNL A   1      46.103  25.180  35.404  1.00  0.00     0.198 A 
ATOM     79  F   UNL A   1      46.891  25.928  33.334  1.00  0.00    -0.203 F 
ATOM     80  F   UNL A   1      42.736  24.762  36.648  1.00  0.00    -0.200 F 
ATOM     81  C   UNL A   1      45.057  24.858  36.248  1.00  0.00     0.200 A 
ATOM     82  F   UNL A   1      47.367  24.920  35.768  1.00  0.00    -0.200 F 
ATOM     83  F   UNL A   1      45.303  24.280  37.432  1.00  0.00    -0.200 F 
ENDBRANCH  49  73
BRANCH  61  84
ATOM     84  C   UNL A   1      45.064  29.153  28.285  1.00  0.00     0.064 A 
ATOM     85  C   UNL A   1      46.055  30.137  28.441  1.00  0.00     0.173 A 
ATOM     86  C   UNL A   1      45.460  27.929  27.733  1.00  0.00     0.173 A 
ATOM     87  F   UNL A   1      45.786  31.294  29.051  1.00  0.00    -0.203 F 
ATOM     88  C   UNL A   1      47.370  29.917  28.038  1.00  0.00     0.198 A 
ATOM     89  C   UNL A   1      46.783  27.698  27.360  1.00  0.00     0.198 A 
ATOM     90  F   UNL A   1      44.574  26.927  27.614  1.00  0.00    -0.203 F 
ATOM     91  F   UNL A   1      48.294  30.875  28.208  1.00  0.00    -0.200 F 
ATOM     92  C   UNL A   1      47.736  28.693  27.507  1.00  0.00     0.200 A 
ATOM     93  F   UNL A   1      47.142  26.494  26.894  1.00  0.00    -0.200 F 
ATOM     94  F   UNL A   1      49.011  28.462  27.167  1.00  0.00    -0.200 F 
ENDBRANCH  61  84
ENDBRANCH  35  36
ENDBRANCH  27  30
ENDBRANCH  25  26
ENDBRANCH  24  25
ENDBRANCH  23  24
ENDBRANCH   1  23
TORSDOF 17
ENDMDL
MODEL 3
REMARK VINA RESULT:     -11.1      3.261      8.347
REMARK SMILES CCn1cnc(S(=O)(=O)N[C@H](CC(C)C)C(=O)NCCCCNC(=O)c2ccc(-c3c4nc(c(-c5c(F)c(F)c(F)c(F)c5F)c5ccc([nH]5)c(-c5c(F)c(F)c(F)c(F)c5F)c5nc(c(-c6c(F)c(F)c(F)c(F)c6F)c6ccc3[nH]6)C=C5)C=C4)cc2)c1
REMARK SMILES IDX 19 1 18 2 16 3 17 4 11 6 10 7 7 9 8 10 9 11 6 12 3 13 4 14
REMARK SMILES IDX 89 15 5 16 2 17 1 18 12 19 13 20 14 21 15 22 20 23 21 24
REMARK SMILES IDX 22 25 23 26 24 27 25 29 26 30 27 31 88 32 28 33 87 34 29 35
REMARK SMILES IDX 30 36 31 37 81 38 32 39 86 40 80 41 82 42 33 43 85 44 79 45
REMARK SMILES IDX 78 46 34 48 66 49 46 50 65 51 47 52 50 53 64 54 83 55 48 56
REMARK SMILES IDX 49 57 63 59 84 60 51 61 35 62 36 63 44 64 37 65 38 66 42 67
REMARK SMILES IDX 45 68 39 69 40 70 43 71 41 72 67 73 68 74 76 75 69 76 70 77
REMARK SMILES IDX 74 78 77 79 71 80 72 81 75 82 73 83 52 84 53 85 61 86 54 87
REMARK SMILES IDX 55 88 59 89 62 90 56 91 57 92 60 93 58 94
REMARK H PARENT 18 5 10 8 23 28 82 47 50 58
REMARK Flexibility Score: inf
ROOT
ATOM      1  C   UNL A   1      33.115  29.277  24.798  1.00  0.00     0.116 C 
ENDROOT
BRANCH   1   2
ATOM      2  N   UNL A   1      33.830  28.942  23.572  1.00  0.00    -0.355 N 
ATOM      3  C   UNL A   1      33.560  28.086  22.539  1.00  0.00     0.238 C 
ATOM      4  O   UNL A   1      34.311  28.163  21.557  1.00  0.00    -0.273 OA
ATOM      5  H   UNL A   1      34.680  29.428  23.467  1.00  0.00     0.163 HD
BRANCH   3   6
ATOM      6  C   UNL A   1      32.433  27.023  22.557  1.00  0.00     0.159 C 
BRANCH   6   7
ATOM      7  N   UNL A   1      32.897  25.856  21.752  1.00  0.00    -0.197 NA
ATOM      8  H   UNL A   1      32.245  25.790  20.971  1.00  0.00     0.142 HD
BRANCH   7   9
ATOM      9  S   UNL A   1      33.067  24.281  22.326  1.00  0.00     0.260 S 
ATOM     10  O   UNL A   1      33.515  23.433  21.251  1.00  0.00    -0.205 OA
ATOM     11  O   UNL A   1      31.813  24.040  23.015  1.00  0.00    -0.205 OA
BRANCH   9  12
ATOM     12  C   UNL A   1      34.284  24.148  23.592  1.00  0.00     0.188 A 
ATOM     13  N   UNL A   1      36.045  23.614  24.802  1.00  0.00    -0.336 N 
ATOM     14  C   UNL A   1      35.349  24.602  25.425  1.00  0.00     0.201 A 
ATOM     15  C   UNL A   1      35.367  23.297  23.656  1.00  0.00     0.129 A 
ATOM     16  N   UNL A   1      34.290  24.954  24.727  1.00  0.00    -0.224 NA
BRANCH  13  17
ATOM     17  C   UNL A   1      37.301  23.014  25.212  1.00  0.00     0.120 C 
ATOM     18  C   UNL A   1      38.067  23.867  26.206  1.00  0.00     0.027 C 
ENDBRANCH  13  17
ENDBRANCH   9  12
ENDBRANCH   7   9
ENDBRANCH   6   7
BRANCH   6  19
ATOM     19  C   UNL A   1      31.084  27.579  22.115  1.00  0.00     0.033 C 
BRANCH  19  20
ATOM     20  C   UNL A   1      29.893  27.685  23.085  1.00  0.00    -0.015 C 
ATOM     21  C   UNL A   1      30.115  26.876  24.366  1.00  0.00     0.007 C 
ATOM     22  C   UNL A   1      29.757  29.169  23.485  1.00  0.00     0.007 C 
ENDBRANCH  19  20
ENDBRANCH   6  19
ENDBRANCH   3   6
ENDBRANCH   1   2
BRANCH   1  23
ATOM     23  C   UNL A   1      33.254  28.215  25.890  1.00  0.00     0.023 C 
BRANCH  23  24
ATOM     24  C   UNL A   1      33.843  28.687  27.227  1.00  0.00     0.023 C 
BRANCH  24  25
ATOM     25  C   UNL A   1      35.178  29.423  27.107  1.00  0.00     0.116 C 
BRANCH  25  26
ATOM     26  N   UNL A   1      35.065  30.864  27.360  1.00  0.00    -0.352 N 
ATOM     27  C   UNL A   1      35.493  31.606  28.458  1.00  0.00     0.251 C 
ATOM     28  H   UNL A   1      34.622  31.382  26.649  1.00  0.00     0.163 HD
ATOM     29  O   UNL A   1      35.054  32.705  28.716  1.00  0.00    -0.269 OA
BRANCH  27  30
ATOM     30  C   UNL A   1      36.564  31.005  29.263  1.00  0.00     0.039 A 
ATOM     31  C   UNL A   1      36.505  29.708  29.781  1.00  0.00     0.014 A 
ATOM     32  C   UNL A   1      37.734  31.744  29.265  1.00  0.00     0.014 A 
ATOM     33  C   UNL A   1      37.700  29.091  30.159  1.00  0.00     0.010 A 
ATOM     34  C   UNL A   1      38.902  31.059  29.410  1.00  0.00     0.010 A 
ATOM     35  C   UNL A   1      38.908  29.757  29.914  1.00  0.00    -0.014 A 
BRANCH  35  36
ATOM     36  C   UNL A   1      40.214  29.115  30.039  1.00  0.00     0.031 A 
ATOM     37  C   UNL A   1      40.747  28.890  31.416  1.00  0.00     0.074 A 
ATOM     38  C   UNL A   1      40.743  28.418  29.008  1.00  0.00     0.049 A 
ATOM     39  N   UNL A   1      41.869  29.300  31.912  1.00  0.00    -0.248 NA
ATOM     40  C   UNL A   1      39.922  28.138  32.372  1.00  0.00     0.031 C 
ATOM     41  C   UNL A   1      40.187  28.207  27.660  1.00  0.00     0.029 A 
ATOM     42  N   UNL A   1      41.826  27.600  29.014  1.00  0.00    -0.354 N 
ATOM     43  C   UNL A   1      41.975  28.738  33.187  1.00  0.00     0.074 A 
ATOM     44  C   UNL A   1      40.691  28.149  33.465  1.00  0.00     0.031 C 
ATOM     45  C   UNL A   1      40.770  27.130  27.096  1.00  0.00     0.029 A 
ATOM     46  C   UNL A   1      41.888  26.742  27.930  1.00  0.00     0.049 A 
ATOM     47  H   UNL A   1      42.506  27.615  29.724  1.00  0.00     0.167 HD
ATOM     48  C   UNL A   1      43.179  28.642  33.826  1.00  0.00     0.037 A 
ATOM     49  C   UNL A   1      42.803  25.773  27.714  1.00  0.00     0.037 A 
ATOM     50  C   UNL A   1      44.177  29.450  33.169  1.00  0.00     0.049 A 
ATOM     51  C   UNL A   1      43.988  26.105  28.540  1.00  0.00     0.074 A 
ATOM     52  C   UNL A   1      44.313  30.796  32.888  1.00  0.00     0.029 A 
ATOM     53  N   UNL A   1      45.093  28.815  32.368  1.00  0.00    -0.354 N 
ATOM     54  N   UNL A   1      44.730  27.162  28.353  1.00  0.00    -0.248 NA
ATOM     55  C   UNL A   1      44.097  25.493  29.855  1.00  0.00     0.031 C 
ATOM     56  C   UNL A   1      44.912  30.838  31.593  1.00  0.00     0.029 A 
ATOM     57  C   UNL A   1      45.152  29.521  31.195  1.00  0.00     0.049 A 
ATOM     58  H   UNL A   1      45.609  28.007  32.593  1.00  0.00     0.167 HD
ATOM     59  C   UNL A   1      45.070  27.590  29.627  1.00  0.00     0.074 A 
ATOM     60  C   UNL A   1      44.757  26.460  30.499  1.00  0.00     0.031 C 
ATOM     61  C   UNL A   1      45.302  28.910  29.894  1.00  0.00     0.037 A 
BRANCH  48  62
ATOM     62  C   UNL A   1      43.580  27.589  34.839  1.00  0.00     0.064 A 
ATOM     63  C   UNL A   1      43.945  27.995  36.143  1.00  0.00     0.173 A 
ATOM     64  C   UNL A   1      43.909  26.258  34.512  1.00  0.00     0.173 A 
ATOM     65  F   UNL A   1      43.681  29.239  36.572  1.00  0.00    -0.203 F 
ATOM     66  C   UNL A   1      44.675  27.171  37.005  1.00  0.00     0.198 A 
ATOM     67  C   UNL A   1      44.588  25.418  35.398  1.00  0.00     0.198 A 
ATOM     68  F   UNL A   1      43.692  25.749  33.296  1.00  0.00    -0.203 F 
ATOM     69  F   UNL A   1      45.118  27.656  38.172  1.00  0.00    -0.200 F 
ATOM     70  C   UNL A   1      45.005  25.885  36.627  1.00  0.00     0.200 A 
ATOM     71  F   UNL A   1      44.908  24.175  35.012  1.00  0.00    -0.200 F 
ATOM     72  F   UNL A   1      45.762  25.115  37.419  1.00  0.00    -0.200 F 
ENDBRANCH  48  62
BRANCH  49  73
ATOM     73  C   UNL A   1      42.615  24.506  26.986  1.00  0.00     0.064 A 
ATOM     74  C   UNL A   1      43.171  24.304  25.717  1.00  0.00     0.173 A 
ATOM     75  C   UNL A   1      42.065  23.376  27.626  1.00  0.00     0.173 A 
ATOM     76  F   UNL A   1      43.746  25.324  25.066  1.00  0.00    -0.203 F 
ATOM     77  C   UNL A   1      43.190  23.038  25.125  1.00  0.00     0.198 A 
ATOM     78  C   UNL A   1      42.079  22.114  27.031  1.00  0.00     0.198 A 
ATOM     79  F   UNL A   1      41.580  23.462  28.874  1.00  0.00    -0.203 F 
ATOM     80  F   UNL A   1      43.776  22.869  23.931  1.00  0.00    -0.200 F 
ATOM     81  C   UNL A   1      42.652  21.943  25.786  1.00  0.00     0.200 A 
ATOM     82  F   UNL A   1      41.583  21.059  27.695  1.00  0.00    -0.200 F 
ATOM     83  F   UNL A   1      42.720  20.721  25.239  1.00  0.00    -0.200 F 
ENDBRANCH  49  73
BRANCH  61  84
ATOM     84  C   UNL A   1      45.457  29.855  28.735  1.00  0.00     0.064 A 
ATOM     85  C   UNL A   1      44.403  30.614  28.200  1.00  0.00     0.173 A 
ATOM     86  C   UNL A   1      46.749  30.144  28.280  1.00  0.00     0.173 A 
ATOM     87  F   UNL A   1      43.155  30.473  28.652  1.00  0.00    -0.203 F 
ATOM     88  C   UNL A   1      44.627  31.594  27.235  1.00  0.00     0.198 A 
ATOM     89  C   UNL A   1      46.976  31.147  27.339  1.00  0.00     0.198 A 
ATOM     90  F   UNL A   1      47.805  29.496  28.796  1.00  0.00    -0.203 F 
ATOM     91  F   UNL A   1      43.599  32.306  26.750  1.00  0.00    -0.200 F 
ATOM     92  C   UNL A   1      45.916  31.867  26.813  1.00  0.00     0.200 A 
ATOM     93  F   UNL A   1      48.231  31.442  26.971  1.00  0.00    -0.200 F 
ATOM     94  F   UNL A   1      46.139  32.845  25.924  1.00  0.00    -0.200 F 
ENDBRANCH  61  84
ENDBRANCH  35  36
ENDBRANCH  27  30
ENDBRANCH  25  26
ENDBRANCH  24  25
ENDBRANCH  23  24
ENDBRANCH   1  23
TORSDOF 17
ENDMDL
