MODEL 1
REMARK VINA RESULT:     -13.0      0.000      0.000
REMARK SMILES CC[C@@H]1CCC[C@@](C[C@@H]2CSc3ccccc32)(C(=O)NCCCCNC(=O)c2ccc(-c3c4nc(c(-c5c(F)c(F)c(F)c(F)c5F)c5ccc([nH]5)c(-c5c(F)c(F)c(F)c(F)c5F)c5nc(c(-c6c(F)c(F)c(F)c(F)c6F)c6ccc3[nH]6)C=C5)C=C4)cc2)C1
REMARK SMILES IDX 22 1 21 2 20 3 18 4 19 5 7 7 3 8 4 9 91 10 5 11 6 12 2 13
REMARK SMILES IDX 1 14 8 15 9 16 10 17 17 18 11 19 12 20 16 21 13 22 15 23
REMARK SMILES IDX 14 24 23 25 24 26 25 27 26 28 27 30 28 31 29 32 90 33 30 34
REMARK SMILES IDX 89 35 31 36 32 37 33 38 83 39 34 40 88 41 82 42 84 43 35 44
REMARK SMILES IDX 87 45 81 46 80 47 36 49 68 50 48 51 67 52 49 53 52 54 66 55
REMARK SMILES IDX 85 56 50 57 51 58 65 60 86 61 53 62 37 63 38 64 46 65 39 66
REMARK SMILES IDX 40 67 44 68 47 69 41 70 42 71 45 72 43 73 69 74 70 75 78 76
REMARK SMILES IDX 71 77 72 78 76 79 79 80 73 81 74 82 77 83 75 84 54 85 55 86
REMARK SMILES IDX 63 87 56 88 57 89 61 90 64 91 58 92 59 93 62 94 60 95
REMARK H PARENT 20 6 25 29 84 48 52 59
REMARK Flexibility Score: inf
ROOT
ATOM      1  C   UNL A   1      32.058  27.831  27.327  1.00  0.00     0.023 C 
ENDROOT
BRANCH   1   2
ATOM      2  C   UNL A   1      31.910  26.596  26.455  1.00  0.00     0.116 C 
BRANCH   2   3
ATOM      3  N   UNL A   1      33.145  25.984  26.057  1.00  0.00    -0.356 N 
ATOM      4  C   UNL A   1      33.358  24.764  25.498  1.00  0.00     0.226 C 
ATOM      5  O   UNL A   1      34.456  24.627  24.947  1.00  0.00    -0.274 OA
ATOM      6  H   UNL A   1      33.953  26.526  26.211  1.00  0.00     0.163 HD
BRANCH   4   7
ATOM      7  C   UNL A   1      32.290  23.621  25.496  1.00  0.00     0.050 C 
ATOM      8  C   UNL A   1      34.161  21.751  25.654  1.00  0.00    -0.010 C 
ATOM      9  C   UNL A   1      33.726  21.445  27.089  1.00  0.00     0.003 C 
ATOM     10  C   UNL A   1      33.000  22.367  24.838  1.00  0.00     0.020 C 
ATOM     11  C   UNL A   1      33.067  22.649  27.746  1.00  0.00     0.001 C 
ATOM     12  C   UNL A   1      31.889  23.145  26.909  1.00  0.00     0.017 C 
BRANCH   8  13
ATOM     13  C   UNL A   1      34.689  20.498  24.926  1.00  0.00     0.000 C 
ATOM     14  C   UNL A   1      33.610  19.477  24.593  1.00  0.00     0.004 C 
ENDBRANCH   8  13
BRANCH   7  15
ATOM     15  C   UNL A   1      31.116  24.003  24.494  1.00  0.00     0.026 C 
BRANCH  15  16
ATOM     16  C   UNL A   1      31.224  24.785  23.148  1.00  0.00     0.032 C 
ATOM     17  C   UNL A   1      32.526  24.579  22.345  1.00  0.00     0.083 C 
ATOM     18  C   UNL A   1      30.894  26.249  23.142  1.00  0.00    -0.030 A 
ATOM     19  S   UNL A   1      33.304  26.202  22.046  1.00  0.00    -0.125 SA
ATOM     20  C   UNL A   1      31.911  27.084  22.676  1.00  0.00     0.011 A 
ATOM     21  C   UNL A   1      29.678  26.796  23.550  1.00  0.00     0.005 A 
ATOM     22  C   UNL A   1      31.782  28.465  22.718  1.00  0.00     0.015 A 
ATOM     23  C   UNL A   1      29.534  28.185  23.581  1.00  0.00     0.000 A 
ATOM     24  C   UNL A   1      30.589  29.016  23.188  1.00  0.00     0.001 A 
ENDBRANCH  15  16
ENDBRANCH   7  15
ENDBRANCH   4   7
ENDBRANCH   2   3
ENDBRANCH   1   2
BRANCH   1  25
ATOM     25  C   UNL A   1      31.521  29.115  26.705  1.00  0.00     0.023 C 
BRANCH  25  26
ATOM     26  C   UNL A   1      32.567  30.144  26.284  1.00  0.00     0.116 C 
BRANCH  26  27
ATOM     27  N   UNL A   1      32.378  31.480  26.841  1.00  0.00    -0.352 N 
ATOM     28  C   UNL A   1      33.304  32.267  27.496  1.00  0.00     0.251 C 
ATOM     29  H   UNL A   1      31.479  31.868  26.735  1.00  0.00     0.163 HD
ATOM     30  O   UNL A   1      33.015  33.371  27.935  1.00  0.00    -0.269 OA
BRANCH  28  31
ATOM     31  C   UNL A   1      34.651  31.704  27.724  1.00  0.00     0.039 A 
ATOM     32  C   UNL A   1      34.800  30.335  27.957  1.00  0.00     0.014 A 
ATOM     33  C   UNL A   1      35.720  32.584  27.897  1.00  0.00     0.014 A 
ATOM     34  C   UNL A   1      35.955  29.884  28.584  1.00  0.00     0.010 A 
ATOM     35  C   UNL A   1      36.910  32.109  28.451  1.00  0.00     0.010 A 
ATOM     36  C   UNL A   1      37.002  30.775  28.878  1.00  0.00    -0.014 A 
BRANCH  36  37
ATOM     37  C   UNL A   1      38.132  30.328  29.734  1.00  0.00     0.031 A 
ATOM     38  C   UNL A   1      39.211  29.443  29.161  1.00  0.00     0.074 A 
ATOM     39  C   UNL A   1      38.237  30.776  30.997  1.00  0.00     0.049 A 
ATOM     40  N   UNL A   1      40.232  28.885  29.764  1.00  0.00    -0.248 NA
ATOM     41  C   UNL A   1      39.134  29.142  27.722  1.00  0.00     0.031 C 
ATOM     42  C   UNL A   1      37.292  31.680  31.652  1.00  0.00     0.029 A 
ATOM     43  N   UNL A   1      39.200  30.550  31.947  1.00  0.00    -0.354 N 
ATOM     44  C   UNL A   1      40.888  28.139  28.794  1.00  0.00     0.074 A 
ATOM     45  C   UNL A   1      40.152  28.309  27.559  1.00  0.00     0.031 C 
ATOM     46  C   UNL A   1      37.750  31.976  32.878  1.00  0.00     0.029 A 
ATOM     47  C   UNL A   1      38.980  31.226  33.120  1.00  0.00     0.049 A 
ATOM     48  H   UNL A   1      39.975  29.961  31.801  1.00  0.00     0.167 HD
ATOM     49  C   UNL A   1      42.006  27.384  28.920  1.00  0.00     0.037 A 
ATOM     50  C   UNL A   1      39.676  31.226  34.271  1.00  0.00     0.037 A 
ATOM     51  C   UNL A   1      42.766  27.253  30.134  1.00  0.00     0.049 A 
ATOM     52  C   UNL A   1      40.897  30.361  34.393  1.00  0.00     0.074 A 
ATOM     53  C   UNL A   1      43.908  26.502  30.364  1.00  0.00     0.029 A 
ATOM     54  N   UNL A   1      42.474  27.908  31.320  1.00  0.00    -0.354 N 
ATOM     55  N   UNL A   1      41.459  29.593  33.493  1.00  0.00    -0.248 NA
ATOM     56  C   UNL A   1      41.563  30.342  35.702  1.00  0.00     0.031 C 
ATOM     57  C   UNL A   1      44.294  26.688  31.696  1.00  0.00     0.029 A 
ATOM     58  C   UNL A   1      43.411  27.576  32.286  1.00  0.00     0.049 A 
ATOM     59  H   UNL A   1      41.713  28.517  31.456  1.00  0.00     0.167 HD
ATOM     60  C   UNL A   1      42.539  28.995  34.124  1.00  0.00     0.074 A 
ATOM     61  C   UNL A   1      42.572  29.511  35.477  1.00  0.00     0.031 C 
ATOM     62  C   UNL A   1      43.416  28.089  33.631  1.00  0.00     0.037 A 
BRANCH  49  63
ATOM     63  C   UNL A   1      42.471  26.619  27.717  1.00  0.00     0.064 A 
ATOM     64  C   UNL A   1      43.403  27.156  26.818  1.00  0.00     0.173 A 
ATOM     65  C   UNL A   1      42.023  25.308  27.495  1.00  0.00     0.173 A 
ATOM     66  F   UNL A   1      43.849  28.412  26.979  1.00  0.00    -0.203 F 
ATOM     67  C   UNL A   1      43.863  26.412  25.735  1.00  0.00     0.198 A 
ATOM     68  C   UNL A   1      42.499  24.559  26.423  1.00  0.00     0.198 A 
ATOM     69  F   UNL A   1      41.133  24.748  28.329  1.00  0.00    -0.203 F 
ATOM     70  F   UNL A   1      44.733  26.953  24.872  1.00  0.00    -0.200 F 
ATOM     71  C   UNL A   1      43.417  25.111  25.542  1.00  0.00     0.200 A 
ATOM     72  F   UNL A   1      42.074  23.300  26.243  1.00  0.00    -0.200 F 
ATOM     73  F   UNL A   1      43.869  24.394  24.505  1.00  0.00    -0.200 F 
ENDBRANCH  49  63
BRANCH  50  74
ATOM     74  C   UNL A   1      39.214  32.064  35.403  1.00  0.00     0.064 A 
ATOM     75  C   UNL A   1      38.414  31.522  36.416  1.00  0.00     0.173 A 
ATOM     76  C   UNL A   1      39.589  33.411  35.509  1.00  0.00     0.173 A 
ATOM     77  F   UNL A   1      38.013  30.244  36.342  1.00  0.00    -0.203 F 
ATOM     78  C   UNL A   1      38.008  32.298  37.499  1.00  0.00     0.198 A 
ATOM     79  C   UNL A   1      39.201  34.179  36.604  1.00  0.00     0.198 A 
ATOM     80  F   UNL A   1      40.355  33.972  34.562  1.00  0.00    -0.203 F 
ATOM     81  F   UNL A   1      37.223  31.763  38.445  1.00  0.00    -0.200 F 
ATOM     82  C   UNL A   1      38.408  33.622  37.596  1.00  0.00     0.200 A 
ATOM     83  F   UNL A   1      39.602  35.454  36.701  1.00  0.00    -0.200 F 
ATOM     84  F   UNL A   1      38.028  34.364  38.646  1.00  0.00    -0.200 F 
ENDBRANCH  50  74
BRANCH  62  85
ATOM     85  C   UNL A   1      44.479  27.594  34.563  1.00  0.00     0.064 A 
ATOM     86  C   UNL A   1      45.685  28.291  34.722  1.00  0.00     0.173 A 
ATOM     87  C   UNL A   1      44.279  26.434  35.325  1.00  0.00     0.173 A 
ATOM     88  F   UNL A   1      45.925  29.397  34.001  1.00  0.00    -0.203 F 
ATOM     89  C   UNL A   1      46.664  27.832  35.599  1.00  0.00     0.198 A 
ATOM     90  C   UNL A   1      45.252  25.990  36.216  1.00  0.00     0.198 A 
ATOM     91  F   UNL A   1      43.139  25.738  35.210  1.00  0.00    -0.203 F 
ATOM     92  F   UNL A   1      47.825  28.492  35.709  1.00  0.00    -0.200 F 
ATOM     93  C   UNL A   1      46.445  26.686  36.348  1.00  0.00     0.200 A 
ATOM     94  F   UNL A   1      45.038  24.886  36.944  1.00  0.00    -0.200 F 
ATOM     95  F   UNL A   1      47.388  26.246  37.192  1.00  0.00    -0.200 F 
ENDBRANCH  62  85
ENDBRANCH  36  37
ENDBRANCH  28  31
ENDBRANCH  26  27
ENDBRANCH  25  26
ENDBRANCH   1  25
TORSDOF 14
ENDMDL
MODEL 2
REMARK VINA RESULT:     -13.0      4.206      9.412
REMARK SMILES CC[C@@H]1CCC[C@@](C[C@@H]2CSc3ccccc32)(C(=O)NCCCCNC(=O)c2ccc(-c3c4nc(c(-c5c(F)c(F)c(F)c(F)c5F)c5ccc([nH]5)c(-c5c(F)c(F)c(F)c(F)c5F)c5nc(c(-c6c(F)c(F)c(F)c(F)c6F)c6ccc3[nH]6)C=C5)C=C4)cc2)C1
REMARK SMILES IDX 22 1 21 2 20 3 18 4 19 5 7 7 3 8 4 9 91 10 5 11 6 12 2 13
REMARK SMILES IDX 1 14 8 15 9 16 10 17 17 18 11 19 12 20 16 21 13 22 15 23
REMARK SMILES IDX 14 24 23 25 24 26 25 27 26 28 27 30 28 31 29 32 90 33 30 34
REMARK SMILES IDX 89 35 31 36 32 37 33 38 83 39 34 40 88 41 82 42 84 43 35 44
REMARK SMILES IDX 87 45 81 46 80 47 36 49 68 50 48 51 67 52 49 53 52 54 66 55
REMARK SMILES IDX 85 56 50 57 51 58 65 60 86 61 53 62 37 63 38 64 46 65 39 66
REMARK SMILES IDX 40 67 44 68 47 69 41 70 42 71 45 72 43 73 69 74 70 75 78 76
REMARK SMILES IDX 71 77 72 78 76 79 79 80 73 81 74 82 77 83 75 84 54 85 55 86
REMARK SMILES IDX 63 87 56 88 57 89 61 90 64 91 58 92 59 93 62 94 60 95
REMARK H PARENT 20 6 25 29 84 48 52 59
REMARK Flexibility Score: inf
ROOT
ATOM      1  C   UNL A   1      36.470  22.841  23.360  1.00  0.00     0.023 C 
ENDROOT
BRANCH   1   2
ATOM      2  C   UNL A   1      35.192  23.634  23.147  1.00  0.00     0.116 C 
BRANCH   2   3
ATOM      3  N   UNL A   1      33.991  22.849  23.123  1.00  0.00    -0.356 N 
ATOM      4  C   UNL A   1      32.753  23.161  23.593  1.00  0.00     0.226 C 
ATOM      5  O   UNL A   1      31.835  22.464  23.146  1.00  0.00    -0.274 OA
ATOM      6  H   UNL A   1      34.074  21.961  22.708  1.00  0.00     0.163 HD
BRANCH   4   7
ATOM      7  C   UNL A   1      32.481  24.339  24.585  1.00  0.00     0.050 C 
ATOM      8  C   UNL A   1      31.167  22.751  26.250  1.00  0.00    -0.010 C 
ATOM      9  C   UNL A   1      32.318  22.861  27.254  1.00  0.00     0.003 C 
ATOM     10  C   UNL A   1      31.122  23.984  25.317  1.00  0.00     0.020 C 
ATOM     11  C   UNL A   1      33.638  23.175  26.563  1.00  0.00     0.001 C 
ATOM     12  C   UNL A   1      33.520  24.444  25.721  1.00  0.00     0.017 C 
BRANCH   8  13
ATOM     13  C   UNL A   1      29.802  22.587  26.947  1.00  0.00     0.000 C 
ATOM     14  C   UNL A   1      29.041  23.893  27.128  1.00  0.00     0.004 C 
ENDBRANCH   8  13
BRANCH   7  15
ATOM     15  C   UNL A   1      32.169  25.660  23.756  1.00  0.00     0.026 C 
BRANCH  15  16
ATOM     16  C   UNL A   1      31.066  26.727  24.036  1.00  0.00     0.032 C 
ATOM     17  C   UNL A   1      30.500  27.459  22.800  1.00  0.00     0.083 C 
ATOM     18  C   UNL A   1      31.307  27.742  25.114  1.00  0.00    -0.030 A 
ATOM     19  S   UNL A   1      30.705  29.257  23.027  1.00  0.00    -0.125 SA
ATOM     20  C   UNL A   1      31.232  29.074  24.702  1.00  0.00     0.011 A 
ATOM     21  C   UNL A   1      31.583  27.443  26.448  1.00  0.00     0.005 A 
ATOM     22  C   UNL A   1      31.540  30.112  25.569  1.00  0.00     0.015 A 
ATOM     23  C   UNL A   1      31.880  28.482  27.331  1.00  0.00     0.000 A 
ATOM     24  C   UNL A   1      31.880  29.810  26.888  1.00  0.00     0.001 A 
ENDBRANCH  15  16
ENDBRANCH   7  15
ENDBRANCH   4   7
ENDBRANCH   2   3
ENDBRANCH   1   2
BRANCH   1  25
ATOM     25  C   UNL A   1      36.347  21.697  24.360  1.00  0.00     0.023 C 
BRANCH  25  26
ATOM     26  C   UNL A   1      37.240  21.787  25.595  1.00  0.00     0.116 C 
BRANCH  26  27
ATOM     27  N   UNL A   1      38.413  20.920  25.573  1.00  0.00    -0.352 N 
ATOM     28  C   UNL A   1      39.646  21.142  26.157  1.00  0.00     0.251 C 
ATOM     29  H   UNL A   1      38.315  20.072  25.083  1.00  0.00     0.163 HD
ATOM     30  O   UNL A   1      40.562  20.339  26.051  1.00  0.00    -0.269 OA
BRANCH  28  31
ATOM     31  C   UNL A   1      39.856  22.424  26.859  1.00  0.00     0.039 A 
ATOM     32  C   UNL A   1      39.210  23.577  26.406  1.00  0.00     0.014 A 
ATOM     33  C   UNL A   1      40.850  22.494  27.836  1.00  0.00     0.014 A 
ATOM     34  C   UNL A   1      39.722  24.818  26.766  1.00  0.00     0.010 A 
ATOM     35  C   UNL A   1      41.304  23.744  28.258  1.00  0.00     0.010 A 
ATOM     36  C   UNL A   1      40.803  24.912  27.660  1.00  0.00    -0.014 A 
BRANCH  36  37
ATOM     37  C   UNL A   1      41.474  26.220  27.870  1.00  0.00     0.031 A 
ATOM     38  C   UNL A   1      40.804  27.291  28.695  1.00  0.00     0.074 A 
ATOM     39  C   UNL A   1      42.715  26.425  27.392  1.00  0.00     0.049 A 
ATOM     40  N   UNL A   1      41.190  28.522  28.927  1.00  0.00    -0.248 NA
ATOM     41  C   UNL A   1      39.531  26.936  29.343  1.00  0.00     0.031 C 
ATOM     42  C   UNL A   1      43.495  25.451  26.629  1.00  0.00     0.029 A 
ATOM     43  N   UNL A   1      43.545  27.510  27.501  1.00  0.00    -0.354 N 
ATOM     44  C   UNL A   1      40.194  29.095  29.706  1.00  0.00     0.074 A 
ATOM     45  C   UNL A   1      39.180  28.082  29.909  1.00  0.00     0.031 C 
ATOM     46  C   UNL A   1      44.711  25.962  26.385  1.00  0.00     0.029 A 
ATOM     47  C   UNL A   1      44.769  27.323  26.910  1.00  0.00     0.049 A 
ATOM     48  H   UNL A   1      43.289  28.342  27.960  1.00  0.00     0.167 HD
ATOM     49  C   UNL A   1      40.132  30.350  30.211  1.00  0.00     0.037 A 
ATOM     50  C   UNL A   1      45.814  28.161  26.784  1.00  0.00     0.037 A 
ATOM     51  C   UNL A   1      41.161  31.343  30.051  1.00  0.00     0.049 A 
ATOM     52  C   UNL A   1      45.710  29.556  27.329  1.00  0.00     0.074 A 
ATOM     53  C   UNL A   1      41.186  32.647  30.517  1.00  0.00     0.029 A 
ATOM     54  N   UNL A   1      42.362  31.132  29.391  1.00  0.00    -0.354 N 
ATOM     55  N   UNL A   1      44.726  30.112  27.992  1.00  0.00    -0.248 NA
ATOM     56  C   UNL A   1      46.852  30.446  27.085  1.00  0.00     0.031 C 
ATOM     57  C   UNL A   1      42.394  33.232  30.121  1.00  0.00     0.029 A 
ATOM     58  C   UNL A   1      43.133  32.283  29.435  1.00  0.00     0.049 A 
ATOM     59  H   UNL A   1      42.627  30.291  28.956  1.00  0.00     0.167 HD
ATOM     60  C   UNL A   1      45.125  31.417  28.238  1.00  0.00     0.074 A 
ATOM     61  C   UNL A   1      46.454  31.563  27.680  1.00  0.00     0.031 C 
ATOM     62  C   UNL A   1      44.446  32.411  28.859  1.00  0.00     0.037 A 
BRANCH  49  63
ATOM     63  C   UNL A   1      38.899  30.737  30.972  1.00  0.00     0.064 A 
ATOM     64  C   UNL A   1      38.823  30.605  32.365  1.00  0.00     0.173 A 
ATOM     65  C   UNL A   1      37.803  31.303  30.303  1.00  0.00     0.173 A 
ATOM     66  F   UNL A   1      39.839  30.055  33.048  1.00  0.00    -0.203 F 
ATOM     67  C   UNL A   1      37.689  31.018  33.061  1.00  0.00     0.198 A 
ATOM     68  C   UNL A   1      36.679  31.733  31.003  1.00  0.00     0.198 A 
ATOM     69  F   UNL A   1      37.829  31.454  28.970  1.00  0.00    -0.203 F 
ATOM     70  F   UNL A   1      37.625  30.858  34.390  1.00  0.00    -0.200 F 
ATOM     71  C   UNL A   1      36.622  31.589  32.381  1.00  0.00     0.200 A 
ATOM     72  F   UNL A   1      35.653  32.291  30.346  1.00  0.00    -0.200 F 
ATOM     73  F   UNL A   1      35.537  31.994  33.055  1.00  0.00    -0.200 F 
ENDBRANCH  49  63
BRANCH  50  74
ATOM     74  C   UNL A   1      47.040  27.698  26.090  1.00  0.00     0.064 A 
ATOM     75  C   UNL A   1      48.123  27.187  26.816  1.00  0.00     0.173 A 
ATOM     76  C   UNL A   1      47.138  27.728  24.692  1.00  0.00     0.173 A 
ATOM     77  F   UNL A   1      48.080  27.161  28.156  1.00  0.00    -0.203 F 
ATOM     78  C   UNL A   1      49.261  26.718  26.165  1.00  0.00     0.198 A 
ATOM     79  C   UNL A   1      48.267  27.237  24.042  1.00  0.00     0.198 A 
ATOM     80  F   UNL A   1      46.124  28.208  23.957  1.00  0.00    -0.203 F 
ATOM     81  F   UNL A   1      50.295  26.254  26.881  1.00  0.00    -0.200 F 
ATOM     82  C   UNL A   1      49.329  26.736  24.780  1.00  0.00     0.200 A 
ATOM     83  F   UNL A   1      48.323  27.244  22.703  1.00  0.00    -0.200 F 
ATOM     84  F   UNL A   1      50.420  26.271  24.154  1.00  0.00    -0.200 F 
ENDBRANCH  50  74
BRANCH  62  85
ATOM     85  C   UNL A   1      45.126  33.741  28.959  1.00  0.00     0.064 A 
ATOM     86  C   UNL A   1      44.933  34.729  27.982  1.00  0.00     0.173 A 
ATOM     87  C   UNL A   1      45.952  34.043  30.051  1.00  0.00     0.173 A 
ATOM     88  F   UNL A   1      44.164  34.477  26.912  1.00  0.00    -0.203 F 
ATOM     89  C   UNL A   1      45.559  35.967  28.086  1.00  0.00     0.198 A 
ATOM     90  C   UNL A   1      46.560  35.290  30.162  1.00  0.00     0.198 A 
ATOM     91  F   UNL A   1      46.161  33.131  31.012  1.00  0.00    -0.203 F 
ATOM     92  F   UNL A   1      45.391  36.884  27.124  1.00  0.00    -0.200 F 
ATOM     93  C   UNL A   1      46.367  36.248  29.178  1.00  0.00     0.200 A 
ATOM     94  F   UNL A   1      47.336  35.564  31.220  1.00  0.00    -0.200 F 
ATOM     95  F   UNL A   1      46.969  37.442  29.277  1.00  0.00    -0.200 F 
ENDBRANCH  62  85
ENDBRANCH  36  37
ENDBRANCH  28  31
ENDBRANCH  26  27
ENDBRANCH  25  26
ENDBRANCH   1  25
TORSDOF 14
ENDMDL
MODEL 3
REMARK VINA RESULT:     -12.9      4.741      8.192
REMARK SMILES CC[C@@H]1CCC[C@@](C[C@@H]2CSc3ccccc32)(C(=O)NCCCCNC(=O)c2ccc(-c3c4nc(c(-c5c(F)c(F)c(F)c(F)c5F)c5ccc([nH]5)c(-c5c(F)c(F)c(F)c(F)c5F)c5nc(c(-c6c(F)c(F)c(F)c(F)c6F)c6ccc3[nH]6)C=C5)C=C4)cc2)C1
REMARK SMILES IDX 22 1 21 2 20 3 18 4 19 5 7 7 3 8 4 9 91 10 5 11 6 12 2 13
REMARK SMILES IDX 1 14 8 15 9 16 10 17 17 18 11 19 12 20 16 21 13 22 15 23
REMARK SMILES IDX 14 24 23 25 24 26 25 27 26 28 27 30 28 31 29 32 90 33 30 34
REMARK SMILES IDX 89 35 31 36 32 37 33 38 83 39 34 40 88 41 82 42 84 43 35 44
REMARK SMILES IDX 87 45 81 46 80 47 36 49 68 50 48 51 67 52 49 53 52 54 66 55
REMARK SMILES IDX 85 56 50 57 51 58 65 60 86 61 53 62 37 63 38 64 46 65 39 66
REMARK SMILES IDX 40 67 44 68 47 69 41 70 42 71 45 72 43 73 69 74 70 75 78 76
REMARK SMILES IDX 71 77 72 78 76 79 79 80 73 81 74 82 77 83 75 84 54 85 55 86
REMARK SMILES IDX 63 87 56 88 57 89 61 90 64 91 58 92 59 93 62 94 60 95
REMARK H PARENT 20 6 25 29 84 48 52 59
REMARK Flexibility Score: inf
ROOT
ATOM      1  C   UNL A   1      39.155  23.265  26.430  1.00  0.00     0.023 C 
ENDROOT
BRANCH   1   2
ATOM      2  C   UNL A   1      37.900  23.977  25.954  1.00  0.00     0.116 C 
BRANCH   2   3
ATOM      3  N   UNL A   1      37.391  23.526  24.691  1.00  0.00    -0.356 N 
ATOM      4  C   UNL A   1      36.116  23.557  24.219  1.00  0.00     0.226 C 
ATOM      5  O   UNL A   1      36.010  23.427  22.994  1.00  0.00    -0.274 OA
ATOM      6  H   UNL A   1      38.059  23.140  24.080  1.00  0.00     0.163 HD
BRANCH   4   7
ATOM      7  C   UNL A   1      34.866  23.788  25.131  1.00  0.00     0.050 C 
ATOM      8  C   UNL A   1      33.665  21.625  24.185  1.00  0.00    -0.010 C 
ATOM      9  C   UNL A   1      33.869  20.928  25.532  1.00  0.00     0.003 C 
ATOM     10  C   UNL A   1      33.638  23.163  24.350  1.00  0.00     0.020 C 
ATOM     11  C   UNL A   1      35.063  21.499  26.284  1.00  0.00     0.001 C 
ATOM     12  C   UNL A   1      34.919  23.009  26.463  1.00  0.00     0.017 C 
BRANCH   8  13
ATOM     13  C   UNL A   1      32.371  21.165  23.483  1.00  0.00     0.000 C 
ATOM     14  C   UNL A   1      32.268  19.657  23.303  1.00  0.00     0.004 C 
ENDBRANCH   8  13
BRANCH   7  15
ATOM     15  C   UNL A   1      34.555  25.346  25.209  1.00  0.00     0.026 C 
BRANCH  15  16
ATOM     16  C   UNL A   1      33.318  26.103  24.636  1.00  0.00     0.032 C 
ATOM     17  C   UNL A   1      33.454  26.631  23.191  1.00  0.00     0.083 C 
ATOM     18  C   UNL A   1      32.685  27.178  25.471  1.00  0.00    -0.030 A 
ATOM     19  S   UNL A   1      33.140  28.428  23.181  1.00  0.00    -0.125 SA
ATOM     20  C   UNL A   1      32.612  28.434  24.865  1.00  0.00     0.011 A 
ATOM     21  C   UNL A   1      32.181  26.997  26.758  1.00  0.00     0.005 A 
ATOM     22  C   UNL A   1      32.151  29.541  25.563  1.00  0.00     0.015 A 
ATOM     23  C   UNL A   1      31.700  28.103  27.461  1.00  0.00     0.000 A 
ATOM     24  C   UNL A   1      31.706  29.373  26.874  1.00  0.00     0.001 A 
ENDBRANCH  15  16
ENDBRANCH   7  15
ENDBRANCH   4   7
ENDBRANCH   2   3
ENDBRANCH   1   2
BRANCH   1  25
ATOM     25  C   UNL A   1      39.371  21.885  25.820  1.00  0.00     0.023 C 
BRANCH  25  26
ATOM     26  C   UNL A   1      39.675  20.758  26.802  1.00  0.00     0.116 C 
BRANCH  26  27
ATOM     27  N   UNL A   1      40.376  19.612  26.231  1.00  0.00    -0.352 N 
ATOM     28  C   UNL A   1      41.736  19.447  26.058  1.00  0.00     0.251 C 
ATOM     29  H   UNL A   1      39.809  18.865  25.932  1.00  0.00     0.163 HD
ATOM     30  O   UNL A   1      42.202  18.439  25.546  1.00  0.00    -0.269 OA
BRANCH  28  31
ATOM     31  C   UNL A   1      42.622  20.564  26.443  1.00  0.00     0.039 A 
ATOM     32  C   UNL A   1      42.652  21.000  27.769  1.00  0.00     0.014 A 
ATOM     33  C   UNL A   1      43.260  21.287  25.434  1.00  0.00     0.014 A 
ATOM     34  C   UNL A   1      43.124  22.278  28.045  1.00  0.00     0.010 A 
ATOM     35  C   UNL A   1      43.807  22.536  25.733  1.00  0.00     0.010 A 
ATOM     36  C   UNL A   1      43.664  23.075  27.021  1.00  0.00    -0.014 A 
BRANCH  36  37
ATOM     37  C   UNL A   1      43.966  24.506  27.282  1.00  0.00     0.031 A 
ATOM     38  C   UNL A   1      45.328  25.065  26.955  1.00  0.00     0.074 A 
ATOM     39  C   UNL A   1      43.001  25.325  27.738  1.00  0.00     0.049 A 
ATOM     40  N   UNL A   1      45.810  26.262  27.180  1.00  0.00    -0.248 NA
ATOM     41  C   UNL A   1      46.278  24.159  26.285  1.00  0.00     0.031 C 
ATOM     42  C   UNL A   1      41.628  24.924  28.040  1.00  0.00     0.029 A 
ATOM     43  N   UNL A   1      43.024  26.671  28.001  1.00  0.00    -0.354 N 
ATOM     44  C   UNL A   1      47.122  26.240  26.724  1.00  0.00     0.074 A 
ATOM     45  C   UNL A   1      47.368  24.910  26.209  1.00  0.00     0.031 C 
ATOM     46  C   UNL A   1      40.924  26.009  28.396  1.00  0.00     0.029 A 
ATOM     47  C   UNL A   1      41.814  27.167  28.416  1.00  0.00     0.049 A 
ATOM     48  H   UNL A   1      43.830  27.227  27.902  1.00  0.00     0.167 HD
ATOM     49  C   UNL A   1      48.036  27.239  26.731  1.00  0.00     0.037 A 
ATOM     50  C   UNL A   1      41.464  28.409  28.794  1.00  0.00     0.037 A 
ATOM     51  C   UNL A   1      47.778  28.576  27.198  1.00  0.00     0.049 A 
ATOM     52  C   UNL A   1      42.503  29.493  28.817  1.00  0.00     0.074 A 
ATOM     53  C   UNL A   1      48.644  29.655  27.254  1.00  0.00     0.029 A 
ATOM     54  N   UNL A   1      46.553  29.021  27.669  1.00  0.00    -0.354 N 
ATOM     55  N   UNL A   1      43.763  29.437  28.462  1.00  0.00    -0.248 NA
ATOM     56  C   UNL A   1      42.076  30.805  29.318  1.00  0.00     0.031 C 
ATOM     57  C   UNL A   1      47.948  30.749  27.778  1.00  0.00     0.029 A 
ATOM     58  C   UNL A   1      46.641  30.359  28.020  1.00  0.00     0.049 A 
ATOM     59  H   UNL A   1      45.742  28.470  27.743  1.00  0.00     0.167 HD
ATOM     60  C   UNL A   1      44.282  30.700  28.702  1.00  0.00     0.074 A 
ATOM     61  C   UNL A   1      43.192  31.512  29.206  1.00  0.00     0.031 C 
ATOM     62  C   UNL A   1      45.550  31.144  28.534  1.00  0.00     0.037 A 
BRANCH  49  63
ATOM     63  C   UNL A   1      49.416  26.925  26.234  1.00  0.00     0.064 A 
ATOM     64  C   UNL A   1      50.397  26.385  27.077  1.00  0.00     0.173 A 
ATOM     65  C   UNL A   1      49.740  27.113  24.881  1.00  0.00     0.173 A 
ATOM     66  F   UNL A   1      50.139  26.202  28.381  1.00  0.00    -0.203 F 
ATOM     67  C   UNL A   1      51.656  26.051  26.585  1.00  0.00     0.198 A 
ATOM     68  C   UNL A   1      50.994  26.760  24.389  1.00  0.00     0.198 A 
ATOM     69  F   UNL A   1      48.835  27.624  24.034  1.00  0.00    -0.203 F 
ATOM     70  F   UNL A   1      52.589  25.560  27.413  1.00  0.00    -0.200 F 
ATOM     71  C   UNL A   1      51.952  26.231  25.241  1.00  0.00     0.200 A 
ATOM     72  F   UNL A   1      51.274  26.928  23.089  1.00  0.00    -0.200 F 
ATOM     73  F   UNL A   1      53.161  25.900  24.770  1.00  0.00    -0.200 F 
ENDBRANCH  49  63
BRANCH  50  74
ATOM     74  C   UNL A   1      40.064  28.681  29.200  1.00  0.00     0.064 A 
ATOM     75  C   UNL A   1      39.127  29.150  28.271  1.00  0.00     0.173 A 
ATOM     76  C   UNL A   1      39.630  28.445  30.512  1.00  0.00     0.173 A 
ATOM     77  F   UNL A   1      39.505  29.410  27.011  1.00  0.00    -0.203 F 
ATOM     78  C   UNL A   1      37.803  29.372  28.641  1.00  0.00     0.198 A 
ATOM     79  C   UNL A   1      38.301  28.645  30.874  1.00  0.00     0.198 A 
ATOM     80  F   UNL A   1      40.493  27.995  31.435  1.00  0.00    -0.203 F 
ATOM     81  F   UNL A   1      36.929  29.843  27.741  1.00  0.00    -0.200 F 
ATOM     82  C   UNL A   1      37.389  29.111  29.939  1.00  0.00     0.200 A 
ATOM     83  F   UNL A   1      37.903  28.379  32.126  1.00  0.00    -0.200 F 
ATOM     84  F   UNL A   1      36.111  29.311  30.290  1.00  0.00    -0.200 F 
ENDBRANCH  50  74
BRANCH  62  85
ATOM     85  C   UNL A   1      45.827  32.568  28.905  1.00  0.00     0.064 A 
ATOM     86  C   UNL A   1      46.295  32.905  30.184  1.00  0.00     0.173 A 
ATOM     87  C   UNL A   1      45.654  33.598  27.970  1.00  0.00     0.173 A 
ATOM     88  F   UNL A   1      46.459  31.953  31.114  1.00  0.00    -0.203 F 
ATOM     89  C   UNL A   1      46.561  34.230  30.519  1.00  0.00     0.198 A 
ATOM     90  C   UNL A   1      45.941  34.919  28.303  1.00  0.00     0.198 A 
ATOM     91  F   UNL A   1      45.213  33.322  26.734  1.00  0.00    -0.203 F 
ATOM     92  F   UNL A   1      46.972  34.536  31.757  1.00  0.00    -0.200 F 
ATOM     93  C   UNL A   1      46.389  35.234  29.578  1.00  0.00     0.200 A 
ATOM     94  F   UNL A   1      45.780  35.888  27.392  1.00  0.00    -0.200 F 
ATOM     95  F   UNL A   1      46.647  36.508  29.902  1.00  0.00    -0.200 F 
ENDBRANCH  62  85
ENDBRANCH  36  37
ENDBRANCH  28  31
ENDBRANCH  26  27
ENDBRANCH  25  26
ENDBRANCH   1  25
TORSDOF 14
ENDMDL
