MODEL 1
REMARK VINA RESULT:     -12.1      0.000      0.000
REMARK SMILES CCC[C@H](Cn1c(C)cc(=O)cc1C)C(=O)NCCCCNC(=O)c1ccc(-c2c3nc(c(-c4c(F)c(F)c(F)c(F)c4F)c4ccc([nH]4)c(-c4c(F)c(F)c(F)c(F)c4F)c4nc(c(-c5c(F)c(F)c(F)c(F)c5F)c5ccc2[nH]5)C=C4)C=C3)cc1
REMARK SMILES IDX 19 1 18 2 17 3 15 4 16 5 4 7 3 8 2 9 1 10 5 11 6 12 7 13
REMARK SMILES IDX 13 14 8 15 9 16 12 17 14 18 10 19 11 20 20 21 21 22 22 23
REMARK SMILES IDX 23 24 24 26 25 27 26 28 87 29 27 30 86 31 28 32 29 33 30 34
REMARK SMILES IDX 80 35 31 36 85 37 79 38 81 39 32 40 84 41 78 42 77 43 33 45
REMARK SMILES IDX 65 46 45 47 64 48 46 49 49 50 63 51 82 52 47 53 48 54 62 56
REMARK SMILES IDX 83 57 50 58 34 59 35 60 43 61 36 62 37 63 41 64 44 65 38 66
REMARK SMILES IDX 39 67 42 68 40 69 66 70 67 71 75 72 68 73 69 74 73 75 76 76
REMARK SMILES IDX 70 77 71 78 74 79 72 80 51 81 52 82 60 83 53 84 54 85 58 86
REMARK SMILES IDX 61 87 55 88 56 89 59 90 57 91
REMARK H PARENT 17 6 22 25 81 44 49 55
REMARK Flexibility Score: inf
ROOT
ATOM      1  C   UNL A   1      32.008  30.463  26.567  1.00  0.00     0.023 C 
ENDROOT
BRANCH   1   2
ATOM      2  C   UNL A   1      31.463  29.884  25.267  1.00  0.00     0.116 C 
BRANCH   2   3
ATOM      3  N   UNL A   1      32.511  29.694  24.291  1.00  0.00    -0.356 N 
ATOM      4  C   UNL A   1      32.599  28.772  23.295  1.00  0.00     0.224 C 
ATOM      5  O   UNL A   1      33.618  28.776  22.600  1.00  0.00    -0.275 OA
ATOM      6  H   UNL A   1      33.268  30.320  24.356  1.00  0.00     0.163 HD
BRANCH   4   7
ATOM      7  C   UNL A   1      31.481  27.766  23.025  1.00  0.00     0.098 C 
BRANCH   7   8
ATOM      8  C   UNL A   1      30.213  28.449  22.464  1.00  0.00     0.015 C 
BRANCH   8   9
ATOM      9  C   UNL A   1      28.905  28.129  23.207  1.00  0.00    -0.003 C 
ATOM     10  C   UNL A   1      27.770  29.083  22.869  1.00  0.00     0.004 C 
ENDBRANCH   8   9
ENDBRANCH   7   8
BRANCH   7  11
ATOM     11  C   UNL A   1      31.362  26.759  24.213  1.00  0.00     0.135 C 
BRANCH  11  12
ATOM     12  N   UNL A   1      32.282  25.584  24.173  1.00  0.00    -0.348 N 
ATOM     13  C   UNL A   1      31.964  24.410  23.445  1.00  0.00     0.018 A 
ATOM     14  C   UNL A   1      33.545  25.628  24.808  1.00  0.00     0.018 A 
ATOM     15  C   UNL A   1      30.528  23.982  23.266  1.00  0.00     0.064 C 
ATOM     16  C   UNL A   1      32.927  23.598  22.969  1.00  0.00     0.073 A 
ATOM     17  C   UNL A   1      34.565  24.854  24.395  1.00  0.00     0.073 A 
ATOM     18  C   UNL A   1      33.771  26.549  25.983  1.00  0.00     0.064 C 
ATOM     19  C   UNL A   1      34.334  23.891  23.302  1.00  0.00     0.182 A 
ATOM     20  O   UNL A   1      35.259  23.308  22.751  1.00  0.00    -0.290 OA
ENDBRANCH  11  12
ENDBRANCH   7  11
ENDBRANCH   4   7
ENDBRANCH   2   3
ENDBRANCH   1   2
BRANCH   1  21
ATOM     21  C   UNL A   1      31.691  31.935  26.775  1.00  0.00     0.023 C 
BRANCH  21  22
ATOM     22  C   UNL A   1      32.829  32.726  27.409  1.00  0.00     0.116 C 
BRANCH  22  23
ATOM     23  N   UNL A   1      32.491  34.123  27.667  1.00  0.00    -0.352 N 
ATOM     24  C   UNL A   1      32.978  34.999  28.611  1.00  0.00     0.251 C 
ATOM     25  H   UNL A   1      31.803  34.499  27.071  1.00  0.00     0.163 HD
ATOM     26  O   UNL A   1      32.454  36.086  28.784  1.00  0.00    -0.269 OA
BRANCH  24  27
ATOM     27  C   UNL A   1      34.125  34.585  29.445  1.00  0.00     0.039 A 
ATOM     28  C   UNL A   1      33.898  34.123  30.742  1.00  0.00     0.014 A 
ATOM     29  C   UNL A   1      35.413  34.594  28.912  1.00  0.00     0.014 A 
ATOM     30  C   UNL A   1      34.956  33.567  31.464  1.00  0.00     0.010 A 
ATOM     31  C   UNL A   1      36.428  33.921  29.573  1.00  0.00     0.010 A 
ATOM     32  C   UNL A   1      36.214  33.409  30.861  1.00  0.00    -0.014 A 
BRANCH  32  33
ATOM     33  C   UNL A   1      37.340  32.744  31.562  1.00  0.00     0.031 A 
ATOM     34  C   UNL A   1      38.052  31.599  30.895  1.00  0.00     0.074 A 
ATOM     35  C   UNL A   1      37.666  33.110  32.816  1.00  0.00     0.049 A 
ATOM     36  N   UNL A   1      38.979  30.809  31.373  1.00  0.00    -0.248 NA
ATOM     37  C   UNL A   1      37.632  31.263  29.524  1.00  0.00     0.031 C 
ATOM     38  C   UNL A   1      37.004  34.158  33.595  1.00  0.00     0.029 A 
ATOM     39  N   UNL A   1      38.640  32.638  33.660  1.00  0.00    -0.354 N 
ATOM     40  C   UNL A   1      39.223  29.873  30.377  1.00  0.00     0.074 A 
ATOM     41  C   UNL A   1      38.297  30.141  29.301  1.00  0.00     0.031 C 
ATOM     42  C   UNL A   1      37.625  34.285  34.780  1.00  0.00     0.029 A 
ATOM     43  C   UNL A   1      38.701  33.303  34.860  1.00  0.00     0.049 A 
ATOM     44  H   UNL A   1      39.240  31.893  33.426  1.00  0.00     0.167 HD
ATOM     45  C   UNL A   1      40.166  28.906  30.340  1.00  0.00     0.037 A 
ATOM     46  C   UNL A   1      39.537  33.139  35.903  1.00  0.00     0.037 A 
ATOM     47  C   UNL A   1      41.137  28.696  31.376  1.00  0.00     0.049 A 
ATOM     48  C   UNL A   1      40.595  32.073  35.830  1.00  0.00     0.074 A 
ATOM     49  C   UNL A   1      42.199  27.810  31.396  1.00  0.00     0.029 A 
ATOM     50  N   UNL A   1      41.173  29.398  32.572  1.00  0.00    -0.354 N 
ATOM     51  N   UNL A   1      40.858  31.236  34.855  1.00  0.00    -0.248 NA
ATOM     52  C   UNL A   1      41.468  31.921  37.004  1.00  0.00     0.031 C 
ATOM     53  C   UNL A   1      42.863  27.958  32.616  1.00  0.00     0.029 A 
ATOM     54  C   UNL A   1      42.230  28.953  33.345  1.00  0.00     0.049 A 
ATOM     55  H   UNL A   1      40.540  30.106  32.831  1.00  0.00     0.167 HD
ATOM     56  C   UNL A   1      41.930  30.469  35.289  1.00  0.00     0.074 A 
ATOM     57  C   UNL A   1      42.282  30.951  36.609  1.00  0.00     0.031 C 
ATOM     58  C   UNL A   1      42.561  29.453  34.655  1.00  0.00     0.037 A 
BRANCH  45  59
ATOM     59  C   UNL A   1      40.220  28.036  29.120  1.00  0.00     0.064 A 
ATOM     60  C   UNL A   1      40.961  28.412  27.989  1.00  0.00     0.173 A 
ATOM     61  C   UNL A   1      39.549  26.806  29.088  1.00  0.00     0.173 A 
ATOM     62  F   UNL A   1      41.607  29.588  27.965  1.00  0.00    -0.203 F 
ATOM     63  C   UNL A   1      41.000  27.603  26.857  1.00  0.00     0.198 A 
ATOM     64  C   UNL A   1      39.616  25.984  27.965  1.00  0.00     0.198 A 
ATOM     65  F   UNL A   1      38.831  26.399  30.145  1.00  0.00    -0.203 F 
ATOM     66  F   UNL A   1      41.670  28.008  25.770  1.00  0.00    -0.200 F 
ATOM     67  C   UNL A   1      40.335  26.387  26.849  1.00  0.00     0.200 A 
ATOM     68  F   UNL A   1      38.980  24.805  27.961  1.00  0.00    -0.200 F 
ATOM     69  F   UNL A   1      40.379  25.606  25.760  1.00  0.00    -0.200 F 
ENDBRANCH  45  59
BRANCH  46  70
ATOM     70  C   UNL A   1      39.440  34.042  37.080  1.00  0.00     0.064 A 
ATOM     71  C   UNL A   1      38.724  33.649  38.218  1.00  0.00     0.173 A 
ATOM     72  C   UNL A   1      40.067  35.295  37.102  1.00  0.00     0.173 A 
ATOM     73  F   UNL A   1      38.093  32.465  38.236  1.00  0.00    -0.203 F 
ATOM     74  C   UNL A   1      38.630  34.479  39.333  1.00  0.00     0.198 A 
ATOM     75  C   UNL A   1      39.990  36.117  38.225  1.00  0.00     0.198 A 
ATOM     76  F   UNL A   1      40.769  35.715  36.039  1.00  0.00    -0.203 F 
ATOM     77  F   UNL A   1      37.914  34.092  40.397  1.00  0.00    -0.200 F 
ATOM     78  C   UNL A   1      39.269  35.710  39.338  1.00  0.00     0.200 A 
ATOM     79  F   UNL A   1      40.618  37.300  38.231  1.00  0.00    -0.200 F 
ATOM     80  F   UNL A   1      39.184  36.506  40.412  1.00  0.00    -0.200 F 
ENDBRANCH  46  70
BRANCH  58  81
ATOM     81  C   UNL A   1      43.692  28.782  35.371  1.00  0.00     0.064 A 
ATOM     82  C   UNL A   1      45.012  29.220  35.205  1.00  0.00     0.173 A 
ATOM     83  C   UNL A   1      43.441  27.768  36.306  1.00  0.00     0.173 A 
ATOM     84  F   UNL A   1      45.297  30.179  34.312  1.00  0.00    -0.203 F 
ATOM     85  C   UNL A   1      46.045  28.668  35.956  1.00  0.00     0.198 A 
ATOM     86  C   UNL A   1      44.474  27.233  37.071  1.00  0.00     0.198 A 
ATOM     87  F   UNL A   1      42.191  27.322  36.504  1.00  0.00    -0.203 F 
ATOM     88  F   UNL A   1      47.303  29.091  35.773  1.00  0.00    -0.200 F 
ATOM     89  C   UNL A   1      45.774  27.684  36.895  1.00  0.00     0.200 A 
ATOM     90  F   UNL A   1      44.209  26.294  37.989  1.00  0.00    -0.200 F 
ATOM     91  F   UNL A   1      46.766  27.172  37.635  1.00  0.00    -0.200 F 
ENDBRANCH  58  81
ENDBRANCH  32  33
ENDBRANCH  24  27
ENDBRANCH  22  23
ENDBRANCH  21  22
ENDBRANCH   1  21
TORSDOF 15
ENDMDL
MODEL 2
REMARK VINA RESULT:     -12.1      1.380      7.775
REMARK SMILES CCC[C@H](Cn1c(C)cc(=O)cc1C)C(=O)NCCCCNC(=O)c1ccc(-c2c3nc(c(-c4c(F)c(F)c(F)c(F)c4F)c4ccc([nH]4)c(-c4c(F)c(F)c(F)c(F)c4F)c4nc(c(-c5c(F)c(F)c(F)c(F)c5F)c5ccc2[nH]5)C=C4)C=C3)cc1
REMARK SMILES IDX 19 1 18 2 17 3 15 4 16 5 4 7 3 8 2 9 1 10 5 11 6 12 7 13
REMARK SMILES IDX 13 14 8 15 9 16 12 17 14 18 10 19 11 20 20 21 21 22 22 23
REMARK SMILES IDX 23 24 24 26 25 27 26 28 87 29 27 30 86 31 28 32 29 33 30 34
REMARK SMILES IDX 80 35 31 36 85 37 79 38 81 39 32 40 84 41 78 42 77 43 33 45
REMARK SMILES IDX 65 46 45 47 64 48 46 49 49 50 63 51 82 52 47 53 48 54 62 56
REMARK SMILES IDX 83 57 50 58 34 59 35 60 43 61 36 62 37 63 41 64 44 65 38 66
REMARK SMILES IDX 39 67 42 68 40 69 66 70 67 71 75 72 68 73 69 74 73 75 76 76
REMARK SMILES IDX 70 77 71 78 74 79 72 80 51 81 52 82 60 83 53 84 54 85 58 86
REMARK SMILES IDX 61 87 55 88 56 89 59 90 57 91
REMARK H PARENT 17 6 22 25 81 44 49 55
REMARK Flexibility Score: inf
ROOT
ATOM      1  C   UNL A   1      31.632  30.552  26.439  1.00  0.00     0.023 C 
ENDROOT
BRANCH   1   2
ATOM      2  C   UNL A   1      31.228  29.969  25.090  1.00  0.00     0.116 C 
BRANCH   2   3
ATOM      3  N   UNL A   1      32.379  29.714  24.255  1.00  0.00    -0.356 N 
ATOM      4  C   UNL A   1      33.243  28.664  24.283  1.00  0.00     0.224 C 
ATOM      5  O   UNL A   1      34.187  28.680  23.489  1.00  0.00    -0.275 OA
ATOM      6  H   UNL A   1      32.564  30.397  23.571  1.00  0.00     0.163 HD
BRANCH   4   7
ATOM      7  C   UNL A   1      33.061  27.494  25.248  1.00  0.00     0.098 C 
BRANCH   7   8
ATOM      8  C   UNL A   1      33.717  27.771  26.620  1.00  0.00     0.015 C 
BRANCH   8   9
ATOM      9  C   UNL A   1      34.816  28.846  26.622  1.00  0.00    -0.003 C 
ATOM     10  C   UNL A   1      34.857  29.665  27.904  1.00  0.00     0.004 C 
ENDBRANCH   8   9
ENDBRANCH   7   8
BRANCH   7  11
ATOM     11  C   UNL A   1      33.329  26.142  24.515  1.00  0.00     0.135 C 
BRANCH  11  12
ATOM     12  N   UNL A   1      32.623  24.946  25.062  1.00  0.00    -0.348 N 
ATOM     13  C   UNL A   1      33.221  24.104  26.033  1.00  0.00     0.018 A 
ATOM     14  C   UNL A   1      31.294  24.648  24.679  1.00  0.00     0.018 A 
ATOM     15  C   UNL A   1      34.718  23.914  26.068  1.00  0.00     0.064 C 
ATOM     16  C   UNL A   1      32.475  23.382  26.890  1.00  0.00     0.073 A 
ATOM     17  C   UNL A   1      30.477  23.936  25.477  1.00  0.00     0.073 A 
ATOM     18  C   UNL A   1      30.766  25.121  23.347  1.00  0.00     0.064 C 
ATOM     19  C   UNL A   1      31.007  23.400  26.745  1.00  0.00     0.182 A 
ATOM     20  O   UNL A   1      30.271  22.921  27.599  1.00  0.00    -0.290 OA
ENDBRANCH  11  12
ENDBRANCH   7  11
ENDBRANCH   4   7
ENDBRANCH   2   3
ENDBRANCH   1   2
BRANCH   1  21
ATOM     21  C   UNL A   1      31.545  32.067  26.515  1.00  0.00     0.023 C 
BRANCH  21  22
ATOM     22  C   UNL A   1      32.682  32.710  27.300  1.00  0.00     0.116 C 
BRANCH  22  23
ATOM     23  N   UNL A   1      32.435  34.109  27.635  1.00  0.00    -0.352 N 
ATOM     24  C   UNL A   1      33.015  34.912  28.593  1.00  0.00     0.251 C 
ATOM     25  H   UNL A   1      31.743  34.550  27.091  1.00  0.00     0.163 HD
ATOM     26  O   UNL A   1      32.562  36.018  28.839  1.00  0.00    -0.269 OA
BRANCH  24  27
ATOM     27  C   UNL A   1      34.174  34.398  29.350  1.00  0.00     0.039 A 
ATOM     28  C   UNL A   1      33.959  33.655  30.511  1.00  0.00     0.014 A 
ATOM     29  C   UNL A   1      35.466  34.600  28.868  1.00  0.00     0.014 A 
ATOM     30  C   UNL A   1      35.040  33.022  31.126  1.00  0.00     0.010 A 
ATOM     31  C   UNL A   1      36.513  33.862  29.396  1.00  0.00     0.010 A 
ATOM     32  C   UNL A   1      36.315  33.073  30.539  1.00  0.00    -0.014 A 
BRANCH  32  33
ATOM     33  C   UNL A   1      37.471  32.341  31.111  1.00  0.00     0.031 A 
ATOM     34  C   UNL A   1      37.962  32.696  32.488  1.00  0.00     0.074 A 
ATOM     35  C   UNL A   1      38.124  31.424  30.371  1.00  0.00     0.049 A 
ATOM     36  N   UNL A   1      39.019  32.264  33.127  1.00  0.00    -0.248 NA
ATOM     37  C   UNL A   1      37.191  33.709  33.228  1.00  0.00     0.031 C 
ATOM     38  C   UNL A   1      37.788  31.044  28.998  1.00  0.00     0.029 A 
ATOM     39  N   UNL A   1      39.213  30.644  30.672  1.00  0.00    -0.354 N 
ATOM     40  C   UNL A   1      39.051  32.975  34.320  1.00  0.00     0.074 A 
ATOM     41  C   UNL A   1      37.958  33.919  34.286  1.00  0.00     0.031 C 
ATOM     42  C   UNL A   1      38.617  30.067  28.595  1.00  0.00     0.029 A 
ATOM     43  C   UNL A   1      39.568  29.780  29.665  1.00  0.00     0.049 A 
ATOM     44  H   UNL A   1      39.693  30.698  31.530  1.00  0.00     0.167 HD
ATOM     45  C   UNL A   1      39.886  32.822  35.371  1.00  0.00     0.037 A 
ATOM     46  C   UNL A   1      40.547  28.857  29.617  1.00  0.00     0.037 A 
ATOM     47  C   UNL A   1      40.919  31.827  35.434  1.00  0.00     0.049 A 
ATOM     48  C   UNL A   1      41.450  28.688  30.808  1.00  0.00     0.074 A 
ATOM     49  C   UNL A   1      41.757  31.520  36.491  1.00  0.00     0.029 A 
ATOM     50  N   UNL A   1      41.240  30.963  34.398  1.00  0.00    -0.354 N 
ATOM     51  N   UNL A   1      41.429  29.321  31.956  1.00  0.00    -0.248 NA
ATOM     52  C   UNL A   1      42.516  27.682  30.696  1.00  0.00     0.031 C 
ATOM     53  C   UNL A   1      42.604  30.486  36.085  1.00  0.00     0.029 A 
ATOM     54  C   UNL A   1      42.276  30.132  34.785  1.00  0.00     0.049 A 
ATOM     55  H   UNL A   1      40.796  30.944  33.519  1.00  0.00     0.167 HD
ATOM     56  C   UNL A   1      42.466  28.786  32.706  1.00  0.00     0.074 A 
ATOM     57  C   UNL A   1      43.086  27.761  31.892  1.00  0.00     0.031 C 
ATOM     58  C   UNL A   1      42.873  29.118  33.955  1.00  0.00     0.037 A 
BRANCH  45  59
ATOM     59  C   UNL A   1      39.684  33.722  36.554  1.00  0.00     0.064 A 
ATOM     60  C   UNL A   1      40.295  34.984  36.622  1.00  0.00     0.173 A 
ATOM     61  C   UNL A   1      38.854  33.333  37.614  1.00  0.00     0.173 A 
ATOM     62  F   UNL A   1      41.110  35.394  35.639  1.00  0.00    -0.203 F 
ATOM     63  C   UNL A   1      40.108  35.810  37.726  1.00  0.00     0.198 A 
ATOM     64  C   UNL A   1      38.646  34.176  38.704  1.00  0.00     0.198 A 
ATOM     65  F   UNL A   1      38.245  32.139  37.595  1.00  0.00    -0.203 F 
ATOM     66  F   UNL A   1      40.744  36.988  37.794  1.00  0.00    -0.200 F 
ATOM     67  C   UNL A   1      39.279  35.409  38.762  1.00  0.00     0.200 A 
ATOM     68  F   UNL A   1      37.837  33.792  39.701  1.00  0.00    -0.200 F 
ATOM     69  F   UNL A   1      39.095  36.209  39.822  1.00  0.00    -0.200 F 
ENDBRANCH  45  59
BRANCH  46  70
ATOM     70  C   UNL A   1      40.688  27.988  28.420  1.00  0.00     0.064 A 
ATOM     71  C   UNL A   1      41.463  28.403  27.329  1.00  0.00     0.173 A 
ATOM     72  C   UNL A   1      40.075  26.729  28.346  1.00  0.00     0.173 A 
ATOM     73  F   UNL A   1      42.055  29.607  27.348  1.00  0.00    -0.203 F 
ATOM     74  C   UNL A   1      41.613  27.596  26.203  1.00  0.00     0.198 A 
ATOM     75  C   UNL A   1      40.241  25.914  27.227  1.00  0.00     0.198 A 
ATOM     76  F   UNL A   1      39.327  26.285  29.366  1.00  0.00    -0.203 F 
ATOM     77  F   UNL A   1      42.335  28.030  25.161  1.00  0.00    -0.200 F 
ATOM     78  C   UNL A   1      41.007  26.350  26.156  1.00  0.00     0.200 A 
ATOM     79  F   UNL A   1      39.665  24.706  27.190  1.00  0.00    -0.200 F 
ATOM     80  F   UNL A   1      41.156  25.572  25.075  1.00  0.00    -0.200 F 
ENDBRANCH  46  70
BRANCH  58  81
ATOM     81  C   UNL A   1      44.045  28.379  34.523  1.00  0.00     0.064 A 
ATOM     82  C   UNL A   1      43.875  27.155  35.182  1.00  0.00     0.173 A 
ATOM     83  C   UNL A   1      45.351  28.844  34.313  1.00  0.00     0.173 A 
ATOM     84  F   UNL A   1      42.642  26.678  35.415  1.00  0.00    -0.203 F 
ATOM     85  C   UNL A   1      44.975  26.418  35.611  1.00  0.00     0.198 A 
ATOM     86  C   UNL A   1      46.449  28.094  34.724  1.00  0.00     0.198 A 
ATOM     87  F   UNL A   1      45.562  30.008  33.680  1.00  0.00    -0.203 F 
ATOM     88  F   UNL A   1      44.791  25.256  36.252  1.00  0.00    -0.200 F 
ATOM     89  C   UNL A   1      46.259  26.882  35.371  1.00  0.00     0.200 A 
ATOM     90  F   UNL A   1      47.690  28.536  34.478  1.00  0.00    -0.200 F 
ATOM     91  F   UNL A   1      47.318  26.159  35.762  1.00  0.00    -0.200 F 
ENDBRANCH  58  81
ENDBRANCH  32  33
ENDBRANCH  24  27
ENDBRANCH  22  23
ENDBRANCH  21  22
ENDBRANCH   1  21
TORSDOF 15
ENDMDL
MODEL 3
REMARK VINA RESULT:     -12.1      5.929     11.472
REMARK SMILES CCC[C@H](Cn1c(C)cc(=O)cc1C)C(=O)NCCCCNC(=O)c1ccc(-c2c3nc(c(-c4c(F)c(F)c(F)c(F)c4F)c4ccc([nH]4)c(-c4c(F)c(F)c(F)c(F)c4F)c4nc(c(-c5c(F)c(F)c(F)c(F)c5F)c5ccc2[nH]5)C=C4)C=C3)cc1
REMARK SMILES IDX 19 1 18 2 17 3 15 4 16 5 4 7 3 8 2 9 1 10 5 11 6 12 7 13
REMARK SMILES IDX 13 14 8 15 9 16 12 17 14 18 10 19 11 20 20 21 21 22 22 23
REMARK SMILES IDX 23 24 24 26 25 27 26 28 87 29 27 30 86 31 28 32 29 33 30 34
REMARK SMILES IDX 80 35 31 36 85 37 79 38 81 39 32 40 84 41 78 42 77 43 33 45
REMARK SMILES IDX 65 46 45 47 64 48 46 49 49 50 63 51 82 52 47 53 48 54 62 56
REMARK SMILES IDX 83 57 50 58 34 59 35 60 43 61 36 62 37 63 41 64 44 65 38 66
REMARK SMILES IDX 39 67 42 68 40 69 66 70 67 71 75 72 68 73 69 74 73 75 76 76
REMARK SMILES IDX 70 77 71 78 74 79 72 80 51 81 52 82 60 83 53 84 54 85 58 86
REMARK SMILES IDX 61 87 55 88 56 89 59 90 57 91
REMARK H PARENT 17 6 22 25 81 44 49 55
REMARK Flexibility Score: inf
ROOT
ATOM      1  C   UNL A   1      36.975  19.676  25.115  1.00  0.00     0.023 C 
ENDROOT
BRANCH   1   2
ATOM      2  C   UNL A   1      35.754  20.563  24.898  1.00  0.00     0.116 C 
BRANCH   2   3
ATOM      3  N   UNL A   1      34.990  20.721  26.114  1.00  0.00    -0.356 N 
ATOM      4  C   UNL A   1      34.473  21.854  26.661  1.00  0.00     0.224 C 
ATOM      5  O   UNL A   1      33.883  21.750  27.739  1.00  0.00    -0.275 OA
ATOM      6  H   UNL A   1      34.821  19.892  26.617  1.00  0.00     0.163 HD
BRANCH   4   7
ATOM      7  C   UNL A   1      34.599  23.213  25.973  1.00  0.00     0.098 C 
BRANCH   7   8
ATOM      8  C   UNL A   1      35.879  23.962  26.410  1.00  0.00     0.015 C 
BRANCH   8   9
ATOM      9  C   UNL A   1      37.099  23.777  25.492  1.00  0.00    -0.003 C 
ATOM     10  C   UNL A   1      38.428  23.964  26.209  1.00  0.00     0.004 C 
ENDBRANCH   8   9
ENDBRANCH   7   8
BRANCH   7  11
ATOM     11  C   UNL A   1      33.224  23.951  25.978  1.00  0.00     0.135 C 
BRANCH  11  12
ATOM     12  N   UNL A   1      32.936  24.812  24.793  1.00  0.00    -0.348 N 
ATOM     13  C   UNL A   1      33.446  26.130  24.685  1.00  0.00     0.018 A 
ATOM     14  C   UNL A   1      32.195  24.314  23.696  1.00  0.00     0.018 A 
ATOM     15  C   UNL A   1      33.683  26.966  25.919  1.00  0.00     0.064 C 
ATOM     16  C   UNL A   1      33.650  26.707  23.486  1.00  0.00     0.073 A 
ATOM     17  C   UNL A   1      32.340  24.829  22.460  1.00  0.00     0.073 A 
ATOM     18  C   UNL A   1      31.210  23.189  23.895  1.00  0.00     0.064 C 
ATOM     19  C   UNL A   1      33.240  25.982  22.269  1.00  0.00     0.182 A 
ATOM     20  O   UNL A   1      33.566  26.365  21.152  1.00  0.00    -0.290 OA
ENDBRANCH  11  12
ENDBRANCH   7  11
ENDBRANCH   4   7
ENDBRANCH   2   3
ENDBRANCH   1   2
BRANCH   1  21
ATOM     21  C   UNL A   1      38.295  20.330  24.741  1.00  0.00     0.023 C 
BRANCH  21  22
ATOM     22  C   UNL A   1      39.281  20.429  25.899  1.00  0.00     0.116 C 
BRANCH  22  23
ATOM     23  N   UNL A   1      40.203  19.299  25.972  1.00  0.00    -0.352 N 
ATOM     24  C   UNL A   1      41.573  19.273  26.114  1.00  0.00     0.251 C 
ATOM     25  H   UNL A   1      39.778  18.413  25.909  1.00  0.00     0.163 HD
ATOM     26  O   UNL A   1      42.194  18.231  25.988  1.00  0.00    -0.269 OA
BRANCH  24  27
ATOM     27  C   UNL A   1      42.287  20.538  26.380  1.00  0.00     0.039 A 
ATOM     28  C   UNL A   1      42.831  21.256  25.314  1.00  0.00     0.014 A 
ATOM     29  C   UNL A   1      42.356  21.039  27.679  1.00  0.00     0.014 A 
ATOM     30  C   UNL A   1      43.347  22.532  25.543  1.00  0.00     0.010 A 
ATOM     31  C   UNL A   1      42.741  22.354  27.882  1.00  0.00     0.010 A 
ATOM     32  C   UNL A   1      43.252  23.113  26.818  1.00  0.00    -0.014 A 
BRANCH  32  33
ATOM     33  C   UNL A   1      43.708  24.499  27.084  1.00  0.00     0.031 A 
ATOM     34  C   UNL A   1      42.735  25.505  27.636  1.00  0.00     0.074 A 
ATOM     35  C   UNL A   1      44.961  24.873  26.756  1.00  0.00     0.049 A 
ATOM     36  N   UNL A   1      42.893  26.788  27.832  1.00  0.00    -0.248 NA
ATOM     37  C   UNL A   1      41.387  25.012  27.966  1.00  0.00     0.031 C 
ATOM     38  C   UNL A   1      45.974  24.009  26.149  1.00  0.00     0.029 A 
ATOM     39  N   UNL A   1      45.594  26.084  26.887  1.00  0.00    -0.354 N 
ATOM     40  C   UNL A   1      41.661  27.253  28.274  1.00  0.00     0.074 A 
ATOM     41  C   UNL A   1      40.746  26.136  28.244  1.00  0.00     0.031 C 
ATOM     42  C   UNL A   1      47.117  24.701  26.009  1.00  0.00     0.029 A 
ATOM     43  C   UNL A   1      46.906  26.066  26.480  1.00  0.00     0.049 A 
ATOM     44  H   UNL A   1      45.151  26.888  27.240  1.00  0.00     0.167 HD
ATOM     45  C   UNL A   1      41.333  28.489  28.712  1.00  0.00     0.037 A 
ATOM     46  C   UNL A   1      47.833  27.043  26.492  1.00  0.00     0.037 A 
ATOM     47  C   UNL A   1      42.267  29.574  28.817  1.00  0.00     0.049 A 
ATOM     48  C   UNL A   1      47.452  28.404  27.007  1.00  0.00     0.074 A 
ATOM     49  C   UNL A   1      42.063  30.838  29.341  1.00  0.00     0.029 A 
ATOM     50  N   UNL A   1      43.589  29.514  28.405  1.00  0.00    -0.354 N 
ATOM     51  N   UNL A   1      46.301  28.814  27.483  1.00  0.00    -0.248 NA
ATOM     52  C   UNL A   1      48.494  29.441  26.979  1.00  0.00     0.031 C 
ATOM     53  C   UNL A   1      43.258  31.552  29.222  1.00  0.00     0.029 A 
ATOM     54  C   UNL A   1      44.211  30.725  28.648  1.00  0.00     0.049 A 
ATOM     55  H   UNL A   1      44.020  28.727  28.001  1.00  0.00     0.167 HD
ATOM     56  C   UNL A   1      46.481  30.147  27.822  1.00  0.00     0.074 A 
ATOM     57  C   UNL A   1      47.858  30.475  27.515  1.00  0.00     0.031 C 
ATOM     58  C   UNL A   1      45.585  31.024  28.335  1.00  0.00     0.037 A 
BRANCH  45  59
ATOM     59  C   UNL A   1      39.917  28.715  29.153  1.00  0.00     0.064 A 
ATOM     60  C   UNL A   1      38.946  29.201  28.264  1.00  0.00     0.173 A 
ATOM     61  C   UNL A   1      39.521  28.419  30.465  1.00  0.00     0.173 A 
ATOM     62  F   UNL A   1      39.280  29.513  27.003  1.00  0.00    -0.203 F 
ATOM     63  C   UNL A   1      37.636  29.415  28.683  1.00  0.00     0.198 A 
ATOM     64  C   UNL A   1      38.202  28.606  30.871  1.00  0.00     0.198 A 
ATOM     65  F   UNL A   1      40.411  27.949  31.351  1.00  0.00    -0.203 F 
ATOM     66  F   UNL A   1      36.739  29.930  27.831  1.00  0.00    -0.200 F 
ATOM     67  C   UNL A   1      37.264  29.111  29.983  1.00  0.00     0.200 A 
ATOM     68  F   UNL A   1      37.840  28.303  32.126  1.00  0.00    -0.200 F 
ATOM     69  F   UNL A   1      36.000  29.312  30.383  1.00  0.00    -0.200 F 
ENDBRANCH  45  59
BRANCH  46  70
ATOM     70  C   UNL A   1      49.222  26.753  26.053  1.00  0.00     0.064 A 
ATOM     71  C   UNL A   1      50.148  26.198  26.947  1.00  0.00     0.173 A 
ATOM     72  C   UNL A   1      49.649  27.002  24.742  1.00  0.00     0.173 A 
ATOM     73  F   UNL A   1      49.790  25.959  28.217  1.00  0.00    -0.203 F 
ATOM     74  C   UNL A   1      51.452  25.912  26.549  1.00  0.00     0.198 A 
ATOM     75  C   UNL A   1      50.948  26.697  24.338  1.00  0.00     0.198 A 
ATOM     76  F   UNL A   1      48.799  27.528  23.847  1.00  0.00    -0.203 F 
ATOM     77  F   UNL A   1      52.326  25.410  27.432  1.00  0.00    -0.200 F 
ATOM     78  C   UNL A   1      51.849  26.156  25.243  1.00  0.00     0.200 A 
ATOM     79  F   UNL A   1      51.324  26.922  23.072  1.00  0.00    -0.200 F 
ATOM     80  F   UNL A   1      53.102  25.875  24.858  1.00  0.00    -0.200 F 
ENDBRANCH  46  70
BRANCH  58  81
ATOM     81  C   UNL A   1      46.051  32.423  28.594  1.00  0.00     0.064 A 
ATOM     82  C   UNL A   1      46.668  32.765  29.804  1.00  0.00     0.173 A 
ATOM     83  C   UNL A   1      45.977  33.396  27.588  1.00  0.00     0.173 A 
ATOM     84  F   UNL A   1      46.749  31.868  30.798  1.00  0.00    -0.203 F 
ATOM     85  C   UNL A   1      47.199  34.037  29.998  1.00  0.00     0.198 A 
ATOM     86  C   UNL A   1      46.529  34.660  27.777  1.00  0.00     0.198 A 
ATOM     87  F   UNL A   1      45.402  33.110  26.410  1.00  0.00    -0.203 F 
ATOM     88  F   UNL A   1      47.773  34.350  31.168  1.00  0.00    -0.200 F 
ATOM     89  C   UNL A   1      47.140  34.978  28.981  1.00  0.00     0.200 A 
ATOM     90  F   UNL A   1      46.485  35.564  26.789  1.00  0.00    -0.200 F 
ATOM     91  F   UNL A   1      47.674  36.194  29.160  1.00  0.00    -0.200 F 
ENDBRANCH  58  81
ENDBRANCH  32  33
ENDBRANCH  24  27
ENDBRANCH  22  23
ENDBRANCH  21  22
ENDBRANCH   1  21
TORSDOF 15
ENDMDL
