MODEL 1
REMARK VINA RESULT:     -12.2      0.000      0.000
REMARK SMILES O=C(Cc1ccc(NC(=O)Cc2ccc(Br)cc2)cc1)NCCCCNC(=O)c1ccc(-c2c3nc(c(-c4c(F)c(F)c(F)c(F)c4F)c4ccc([nH]4)c(-c4c(F)c(F)c(F)c(F)c4F)c4nc(c(-c5c(F)c(F)c(F)c(F)c5F)c5ccc2[nH]5)C=C4)C=C3)cc1
REMARK SMILES IDX 22 1 21 2 1 3 2 4 3 6 4 7 5 8 20 9 6 10 19 11 7 12 8 13 9 14
REMARK SMILES IDX 10 16 11 17 12 18 13 19 18 20 14 21 17 22 15 23 16 24 23 25
REMARK SMILES IDX 24 26 25 27 26 28 27 29 28 31 29 32 30 33 91 34 31 35 90 36
REMARK SMILES IDX 32 37 33 38 34 39 84 40 35 41 89 42 83 43 85 44 36 45 88 46
REMARK SMILES IDX 82 47 81 48 37 50 69 51 49 52 68 53 50 54 53 55 67 56 86 57
REMARK SMILES IDX 51 58 52 59 66 61 87 62 54 63 38 64 39 65 47 66 40 67 41 68
REMARK SMILES IDX 45 69 48 70 42 71 43 72 46 73 44 74 70 75 71 76 79 77 72 78
REMARK SMILES IDX 73 79 77 80 80 81 74 82 75 83 78 84 76 85 55 86 56 87 64 88
REMARK SMILES IDX 57 89 58 90 62 91 65 92 59 93 60 94 63 95 61 96
REMARK H PARENT 21 5 8 15 26 30 85 49 53 60
REMARK Flexibility Score: inf
ROOT
ATOM      1  C   UNL A   1      35.339  33.191  28.009  1.00  0.00     0.116 C 
ENDROOT
BRANCH   1   2
ATOM      2  N   UNL A   1      35.310  31.747  28.073  1.00  0.00    -0.356 N 
ATOM      3  O   UNL A   1      33.144  31.485  27.348  1.00  0.00    -0.275 OA
ATOM      4  C   UNL A   1      34.227  31.000  27.659  1.00  0.00     0.224 C 
ATOM      5  H   UNL A   1      36.098  31.276  28.427  1.00  0.00     0.163 HD
BRANCH   4   6
ATOM      6  C   UNL A   1      34.493  29.504  27.627  1.00  0.00     0.135 C 
BRANCH   6   7
ATOM      7  C   UNL A   1      33.573  28.696  26.729  1.00  0.00    -0.039 A 
ATOM      8  C   UNL A   1      32.526  27.912  27.231  1.00  0.00     0.006 A 
ATOM      9  C   UNL A   1      33.822  28.664  25.350  1.00  0.00     0.006 A 
ATOM     10  C   UNL A   1      31.791  27.075  26.393  1.00  0.00     0.026 A 
ATOM     11  C   UNL A   1      33.108  27.795  24.517  1.00  0.00     0.026 A 
ATOM     12  C   UNL A   1      32.159  26.927  25.062  1.00  0.00     0.041 A 
BRANCH  12  13
ATOM     13  N   UNL A   1      31.713  25.870  24.259  1.00  0.00    -0.326 N 
ATOM     14  C   UNL A   1      30.449  25.542  23.840  1.00  0.00     0.228 C 
ATOM     15  H   UNL A   1      32.422  25.264  23.943  1.00  0.00     0.169 HD
ATOM     16  O   UNL A   1      30.338  24.526  23.141  1.00  0.00    -0.274 OA
BRANCH  14  17
ATOM     17  C   UNL A   1      29.202  26.324  24.239  1.00  0.00     0.135 C 
BRANCH  17  18
ATOM     18  C   UNL A   1      28.962  27.631  23.503  1.00  0.00    -0.039 A 
ATOM     19  C   UNL A   1      29.956  28.257  22.738  1.00  0.00     0.005 A 
ATOM     20  C   UNL A   1      27.682  28.206  23.501  1.00  0.00     0.005 A 
ATOM     21  C   UNL A   1      29.697  29.414  22.001  1.00  0.00     0.016 A 
ATOM     22  C   UNL A   1      27.415  29.367  22.764  1.00  0.00     0.016 A 
ATOM     23  C   UNL A   1      28.424  29.966  22.017  1.00  0.00     0.017 A 
ATOM     24  Br  UNL A   1      28.071  31.528  21.016  1.00  0.00    -0.051 Br
ENDBRANCH  17  18
ENDBRANCH  14  17
ENDBRANCH  12  13
ENDBRANCH   6   7
ENDBRANCH   4   6
ENDBRANCH   1   2
BRANCH   1  25
ATOM     25  C   UNL A   1      34.687  33.825  29.232  1.00  0.00     0.023 C 
BRANCH  25  26
ATOM     26  C   UNL A   1      33.435  34.658  28.936  1.00  0.00     0.023 C 
BRANCH  26  27
ATOM     27  C   UNL A   1      33.438  36.071  29.511  1.00  0.00     0.116 C 
BRANCH  27  28
ATOM     28  N   UNL A   1      32.500  36.227  30.612  1.00  0.00    -0.352 N 
ATOM     29  C   UNL A   1      32.550  35.717  31.885  1.00  0.00     0.251 C 
ATOM     30  H   UNL A   1      31.711  36.781  30.414  1.00  0.00     0.163 HD
ATOM     31  O   UNL A   1      31.568  35.814  32.621  1.00  0.00    -0.269 OA
BRANCH  29  32
ATOM     32  C   UNL A   1      33.764  35.027  32.375  1.00  0.00     0.039 A 
ATOM     33  C   UNL A   1      33.650  33.716  32.847  1.00  0.00     0.014 A 
ATOM     34  C   UNL A   1      35.007  35.667  32.391  1.00  0.00     0.014 A 
ATOM     35  C   UNL A   1      34.789  33.025  33.267  1.00  0.00     0.010 A 
ATOM     36  C   UNL A   1      36.152  34.953  32.741  1.00  0.00     0.010 A 
ATOM     37  C   UNL A   1      36.056  33.624  33.182  1.00  0.00    -0.014 A 
BRANCH  37  38
ATOM     38  C   UNL A   1      37.289  32.871  33.536  1.00  0.00     0.031 A 
ATOM     39  C   UNL A   1      38.017  33.160  34.819  1.00  0.00     0.074 A 
ATOM     40  C   UNL A   1      37.791  31.968  32.669  1.00  0.00     0.049 A 
ATOM     41  N   UNL A   1      39.141  32.658  35.266  1.00  0.00    -0.248 NA
ATOM     42  C   UNL A   1      37.414  34.165  35.709  1.00  0.00     0.031 C 
ATOM     43  C   UNL A   1      37.204  31.625  31.373  1.00  0.00     0.029 A 
ATOM     44  N   UNL A   1      38.914  31.182  32.742  1.00  0.00    -0.354 N 
ATOM     45  C   UNL A   1      39.386  33.293  36.476  1.00  0.00     0.074 A 
ATOM     46  C   UNL A   1      38.323  34.254  36.670  1.00  0.00     0.031 C 
ATOM     47  C   UNL A   1      37.958  30.684  30.785  1.00  0.00     0.029 A 
ATOM     48  C   UNL A   1      39.103  30.386  31.638  1.00  0.00     0.049 A 
ATOM     49  H   UNL A   1      39.526  31.188  33.513  1.00  0.00     0.167 HD
ATOM     50  C   UNL A   1      40.394  33.078  37.357  1.00  0.00     0.037 A 
ATOM     51  C   UNL A   1      40.093  29.522  31.342  1.00  0.00     0.037 A 
ATOM     52  C   UNL A   1      41.441  32.106  37.173  1.00  0.00     0.049 A 
ATOM     53  C   UNL A   1      41.211  29.317  32.330  1.00  0.00     0.074 A 
ATOM     54  C   UNL A   1      42.470  31.773  38.036  1.00  0.00     0.029 A 
ATOM     55  N   UNL A   1      41.593  31.313  36.044  1.00  0.00    -0.354 N 
ATOM     56  N   UNL A   1      41.394  29.874  33.502  1.00  0.00    -0.248 NA
ATOM     57  C   UNL A   1      42.259  28.358  31.953  1.00  0.00     0.031 C 
ATOM     58  C   UNL A   1      43.278  30.820  37.406  1.00  0.00     0.029 A 
ATOM     59  C   UNL A   1      42.717  30.513  36.178  1.00  0.00     0.049 A 
ATOM     60  H   UNL A   1      40.993  31.318  35.264  1.00  0.00     0.167 HD
ATOM     61  C   UNL A   1      42.555  29.311  34.016  1.00  0.00     0.074 A 
ATOM     62  C   UNL A   1      43.027  28.358  33.033  1.00  0.00     0.031 C 
ATOM     63  C   UNL A   1      43.174  29.561  35.196  1.00  0.00     0.037 A 
BRANCH  50  64
ATOM     64  C   UNL A   1      40.417  33.914  38.606  1.00  0.00     0.064 A 
ATOM     65  C   UNL A   1      41.132  35.119  38.673  1.00  0.00     0.173 A 
ATOM     66  C   UNL A   1      39.680  33.527  39.736  1.00  0.00     0.173 A 
ATOM     67  F   UNL A   1      41.860  35.533  37.624  1.00  0.00    -0.203 F 
ATOM     68  C   UNL A   1      41.133  35.889  39.833  1.00  0.00     0.198 A 
ATOM     69  C   UNL A   1      39.657  34.315  40.883  1.00  0.00     0.198 A 
ATOM     70  F   UNL A   1      38.972  32.387  39.724  1.00  0.00    -0.203 F 
ATOM     71  F   UNL A   1      41.865  37.011  39.891  1.00  0.00    -0.200 F 
ATOM     72  C   UNL A   1      40.390  35.491  40.934  1.00  0.00     0.200 A 
ATOM     73  F   UNL A   1      38.926  33.937  41.940  1.00  0.00    -0.200 F 
ATOM     74  F   UNL A   1      40.385  36.238  42.047  1.00  0.00    -0.200 F 
ENDBRANCH  50  64
BRANCH  51  75
ATOM     75  C   UNL A   1      40.064  28.767  30.062  1.00  0.00     0.064 A 
ATOM     76  C   UNL A   1      39.453  27.507  29.983  1.00  0.00     0.173 A 
ATOM     77  C   UNL A   1      40.652  29.281  28.897  1.00  0.00     0.173 A 
ATOM     78  F   UNL A   1      38.895  26.964  31.074  1.00  0.00    -0.203 F 
ATOM     79  C   UNL A   1      39.452  26.781  28.793  1.00  0.00     0.198 A 
ATOM     80  C   UNL A   1      40.623  28.567  27.701  1.00  0.00     0.198 A 
ATOM     81  F   UNL A   1      41.246  30.483  28.917  1.00  0.00    -0.203 F 
ATOM     82  F   UNL A   1      38.905  25.558  28.759  1.00  0.00    -0.200 F 
ATOM     83  C   UNL A   1      40.032  27.313  27.652  1.00  0.00     0.200 A 
ATOM     84  F   UNL A   1      41.172  29.092  26.597  1.00  0.00    -0.200 F 
ATOM     85  F   UNL A   1      40.029  26.615  26.508  1.00  0.00    -0.200 F 
ENDBRANCH  51  75
BRANCH  63  86
ATOM     86  C   UNL A   1      44.406  28.764  35.512  1.00  0.00     0.064 A 
ATOM     87  C   UNL A   1      45.685  29.197  35.130  1.00  0.00     0.173 A 
ATOM     88  C   UNL A   1      44.311  27.569  36.242  1.00  0.00     0.173 A 
ATOM     89  F   UNL A   1      45.832  30.325  34.418  1.00  0.00    -0.203 F 
ATOM     90  C   UNL A   1      46.818  28.449  35.443  1.00  0.00     0.198 A 
ATOM     91  C   UNL A   1      45.447  26.841  36.582  1.00  0.00     0.198 A 
ATOM     92  F   UNL A   1      43.113  27.113  36.638  1.00  0.00    -0.203 F 
ATOM     93  F   UNL A   1      48.024  28.856  35.024  1.00  0.00    -0.200 F 
ATOM     94  C   UNL A   1      46.699  27.278  36.176  1.00  0.00     0.200 A 
ATOM     95  F   UNL A   1      45.331  25.718  37.304  1.00  0.00    -0.200 F 
ATOM     96  F   UNL A   1      47.791  26.564  36.483  1.00  0.00    -0.200 F 
ENDBRANCH  63  86
ENDBRANCH  37  38
ENDBRANCH  29  32
ENDBRANCH  27  28
ENDBRANCH  26  27
ENDBRANCH  25  26
ENDBRANCH   1  25
TORSDOF 15
ENDMDL
MODEL 2
REMARK VINA RESULT:     -12.2      0.123      1.933
REMARK SMILES O=C(Cc1ccc(NC(=O)Cc2ccc(Br)cc2)cc1)NCCCCNC(=O)c1ccc(-c2c3nc(c(-c4c(F)c(F)c(F)c(F)c4F)c4ccc([nH]4)c(-c4c(F)c(F)c(F)c(F)c4F)c4nc(c(-c5c(F)c(F)c(F)c(F)c5F)c5ccc2[nH]5)C=C4)C=C3)cc1
REMARK SMILES IDX 22 1 21 2 1 3 2 4 3 6 4 7 5 8 20 9 6 10 19 11 7 12 8 13 9 14
REMARK SMILES IDX 10 16 11 17 12 18 13 19 18 20 14 21 17 22 15 23 16 24 23 25
REMARK SMILES IDX 24 26 25 27 26 28 27 29 28 31 29 32 30 33 91 34 31 35 90 36
REMARK SMILES IDX 32 37 33 38 34 39 84 40 35 41 89 42 83 43 85 44 36 45 88 46
REMARK SMILES IDX 82 47 81 48 37 50 69 51 49 52 68 53 50 54 53 55 67 56 86 57
REMARK SMILES IDX 51 58 52 59 66 61 87 62 54 63 38 64 39 65 47 66 40 67 41 68
REMARK SMILES IDX 45 69 48 70 42 71 43 72 46 73 44 74 70 75 71 76 79 77 72 78
REMARK SMILES IDX 73 79 77 80 80 81 74 82 75 83 78 84 76 85 55 86 56 87 64 88
REMARK SMILES IDX 57 89 58 90 62 91 65 92 59 93 60 94 63 95 61 96
REMARK H PARENT 21 5 8 15 26 30 85 49 53 60
REMARK Flexibility Score: inf
ROOT
ATOM      1  C   UNL A   1      35.420  33.183  27.994  1.00  0.00     0.116 C 
ENDROOT
BRANCH   1   2
ATOM      2  N   UNL A   1      35.414  31.738  28.031  1.00  0.00    -0.356 N 
ATOM      3  O   UNL A   1      33.226  31.458  27.385  1.00  0.00    -0.275 OA
ATOM      4  C   UNL A   1      34.327  30.983  27.644  1.00  0.00     0.224 C 
ATOM      5  H   UNL A   1      36.222  31.272  28.345  1.00  0.00     0.163 HD
BRANCH   4   6
ATOM      6  C   UNL A   1      34.613  29.493  27.573  1.00  0.00     0.135 C 
BRANCH   6   7
ATOM      7  C   UNL A   1      33.686  28.692  26.675  1.00  0.00    -0.039 A 
ATOM      8  C   UNL A   1      32.667  27.873  27.180  1.00  0.00     0.006 A 
ATOM      9  C   UNL A   1      33.900  28.704  25.289  1.00  0.00     0.006 A 
ATOM     10  C   UNL A   1      31.928  27.045  26.337  1.00  0.00     0.026 A 
ATOM     11  C   UNL A   1      33.182  27.845  24.450  1.00  0.00     0.026 A 
ATOM     12  C   UNL A   1      32.264  26.943  24.992  1.00  0.00     0.041 A 
BRANCH  12  13
ATOM     13  N   UNL A   1      31.819  25.901  24.170  1.00  0.00    -0.326 N 
ATOM     14  C   UNL A   1      30.557  25.587  23.735  1.00  0.00     0.228 C 
ATOM     15  H   UNL A   1      32.527  25.295  23.852  1.00  0.00     0.169 HD
ATOM     16  O   UNL A   1      30.446  24.582  23.021  1.00  0.00    -0.274 OA
BRANCH  14  17
ATOM     17  C   UNL A   1      29.311  26.371  24.135  1.00  0.00     0.135 C 
BRANCH  17  18
ATOM     18  C   UNL A   1      29.078  27.683  23.406  1.00  0.00    -0.039 A 
ATOM     19  C   UNL A   1      30.079  28.313  22.653  1.00  0.00     0.005 A 
ATOM     20  C   UNL A   1      27.798  28.258  23.395  1.00  0.00     0.005 A 
ATOM     21  C   UNL A   1      29.826  29.476  21.921  1.00  0.00     0.016 A 
ATOM     22  C   UNL A   1      27.538  29.424  22.663  1.00  0.00     0.016 A 
ATOM     23  C   UNL A   1      28.554  30.027  21.930  1.00  0.00     0.017 A 
ATOM     24  Br  UNL A   1      28.209  31.595  20.935  1.00  0.00    -0.051 Br
ENDBRANCH  17  18
ENDBRANCH  14  17
ENDBRANCH  12  13
ENDBRANCH   6   7
ENDBRANCH   4   6
ENDBRANCH   1   2
BRANCH   1  25
ATOM     25  C   UNL A   1      34.799  33.784  29.250  1.00  0.00     0.023 C 
BRANCH  25  26
ATOM     26  C   UNL A   1      33.478  34.527  29.024  1.00  0.00     0.023 C 
BRANCH  26  27
ATOM     27  C   UNL A   1      33.447  35.972  29.513  1.00  0.00     0.116 C 
BRANCH  27  28
ATOM     28  N   UNL A   1      32.528  36.166  30.623  1.00  0.00    -0.352 N 
ATOM     29  C   UNL A   1      32.597  35.693  31.909  1.00  0.00     0.251 C 
ATOM     30  H   UNL A   1      31.739  36.719  30.422  1.00  0.00     0.163 HD
ATOM     31  O   UNL A   1      31.627  35.818  32.659  1.00  0.00    -0.269 OA
BRANCH  29  32
ATOM     32  C   UNL A   1      33.814  35.010  32.400  1.00  0.00     0.039 A 
ATOM     33  C   UNL A   1      33.708  33.694  32.862  1.00  0.00     0.014 A 
ATOM     34  C   UNL A   1      35.051  35.660  32.426  1.00  0.00     0.014 A 
ATOM     35  C   UNL A   1      34.852  33.010  33.283  1.00  0.00     0.010 A 
ATOM     36  C   UNL A   1      36.201  34.954  32.777  1.00  0.00     0.010 A 
ATOM     37  C   UNL A   1      36.114  33.621  33.207  1.00  0.00    -0.014 A 
BRANCH  37  38
ATOM     38  C   UNL A   1      37.352  32.875  33.562  1.00  0.00     0.031 A 
ATOM     39  C   UNL A   1      38.078  33.170  34.845  1.00  0.00     0.074 A 
ATOM     40  C   UNL A   1      37.859  31.976  32.695  1.00  0.00     0.049 A 
ATOM     41  N   UNL A   1      39.206  32.675  35.292  1.00  0.00    -0.248 NA
ATOM     42  C   UNL A   1      37.469  34.171  35.734  1.00  0.00     0.031 C 
ATOM     43  C   UNL A   1      37.275  31.628  31.399  1.00  0.00     0.029 A 
ATOM     44  N   UNL A   1      38.988  31.197  32.769  1.00  0.00    -0.354 N 
ATOM     45  C   UNL A   1      39.446  33.312  36.502  1.00  0.00     0.074 A 
ATOM     46  C   UNL A   1      38.377  34.267  36.695  1.00  0.00     0.031 C 
ATOM     47  C   UNL A   1      38.034  30.691  30.811  1.00  0.00     0.029 A 
ATOM     48  C   UNL A   1      39.182  30.402  31.665  1.00  0.00     0.049 A 
ATOM     49  H   UNL A   1      39.600  31.207  33.539  1.00  0.00     0.167 HD
ATOM     50  C   UNL A   1      40.456  33.105  37.383  1.00  0.00     0.037 A 
ATOM     51  C   UNL A   1      40.177  29.543  31.370  1.00  0.00     0.037 A 
ATOM     52  C   UNL A   1      41.509  32.139  37.198  1.00  0.00     0.049 A 
ATOM     53  C   UNL A   1      41.296  29.346  32.357  1.00  0.00     0.074 A 
ATOM     54  C   UNL A   1      42.541  31.813  38.061  1.00  0.00     0.029 A 
ATOM     55  N   UNL A   1      41.666  31.347  36.071  1.00  0.00    -0.354 N 
ATOM     56  N   UNL A   1      41.476  29.905  33.528  1.00  0.00    -0.248 NA
ATOM     57  C   UNL A   1      42.350  28.393  31.980  1.00  0.00     0.031 C 
ATOM     58  C   UNL A   1      43.354  30.864  37.432  1.00  0.00     0.029 A 
ATOM     59  C   UNL A   1      42.795  30.553  36.204  1.00  0.00     0.049 A 
ATOM     60  H   UNL A   1      41.065  31.347  35.290  1.00  0.00     0.167 HD
ATOM     61  C   UNL A   1      42.640  29.349  34.043  1.00  0.00     0.074 A 
ATOM     62  C   UNL A   1      43.118  28.399  33.061  1.00  0.00     0.031 C 
ATOM     63  C   UNL A   1      43.258  29.604  35.222  1.00  0.00     0.037 A 
BRANCH  50  64
ATOM     64  C   UNL A   1      40.474  33.941  38.630  1.00  0.00     0.064 A 
ATOM     65  C   UNL A   1      39.803  33.541  39.796  1.00  0.00     0.173 A 
ATOM     66  C   UNL A   1      41.208  35.136  38.676  1.00  0.00     0.173 A 
ATOM     67  F   UNL A   1      39.079  32.411  39.806  1.00  0.00    -0.203 F 
ATOM     68  C   UNL A   1      39.840  34.322  40.949  1.00  0.00     0.198 A 
ATOM     69  C   UNL A   1      41.271  35.897  39.840  1.00  0.00     0.198 A 
ATOM     70  F   UNL A   1      41.876  35.562  37.592  1.00  0.00    -0.203 F 
ATOM     71  F   UNL A   1      39.149  33.945  42.034  1.00  0.00    -0.200 F 
ATOM     72  C   UNL A   1      40.580  35.494  40.973  1.00  0.00     0.200 A 
ATOM     73  F   UNL A   1      41.999  37.022  39.866  1.00  0.00    -0.200 F 
ATOM     74  F   UNL A   1      40.622  36.239  42.086  1.00  0.00    -0.200 F 
ENDBRANCH  50  64
BRANCH  51  75
ATOM     75  C   UNL A   1      40.153  28.788  30.089  1.00  0.00     0.064 A 
ATOM     76  C   UNL A   1      40.747  29.314  28.933  1.00  0.00     0.173 A 
ATOM     77  C   UNL A   1      39.530  27.536  29.990  1.00  0.00     0.173 A 
ATOM     78  F   UNL A   1      41.337  30.518  28.971  1.00  0.00    -0.203 F 
ATOM     79  C   UNL A   1      40.698  28.626  27.722  1.00  0.00     0.198 A 
ATOM     80  C   UNL A   1      39.509  26.835  28.786  1.00  0.00     0.198 A 
ATOM     81  F   UNL A   1      38.951  26.986  31.068  1.00  0.00    -0.203 F 
ATOM     82  F   UNL A   1      41.230  29.175  26.621  1.00  0.00    -0.200 F 
ATOM     83  C   UNL A   1      40.084  27.386  27.650  1.00  0.00     0.200 A 
ATOM     84  F   UNL A   1      38.928  25.630  28.725  1.00  0.00    -0.200 F 
ATOM     85  F   UNL A   1      40.040  26.723  26.486  1.00  0.00    -0.200 F 
ENDBRANCH  51  75
BRANCH  63  86
ATOM     86  C   UNL A   1      44.495  28.815  35.539  1.00  0.00     0.064 A 
ATOM     87  C   UNL A   1      44.437  27.587  36.215  1.00  0.00     0.173 A 
ATOM     88  C   UNL A   1      45.755  29.275  35.125  1.00  0.00     0.173 A 
ATOM     89  F   UNL A   1      43.259  27.109  36.646  1.00  0.00    -0.203 F 
ATOM     90  C   UNL A   1      45.595  26.864  36.489  1.00  0.00     0.198 A 
ATOM     91  C   UNL A   1      46.908  28.534  35.371  1.00  0.00     0.198 A 
ATOM     92  F   UNL A   1      45.868  30.440  34.468  1.00  0.00    -0.203 F 
ATOM     93  F   UNL A   1      45.520  25.718  37.181  1.00  0.00    -0.200 F 
ATOM     94  C   UNL A   1      46.827  27.333  36.059  1.00  0.00     0.200 A 
ATOM     95  F   UNL A   1      48.095  28.982  34.941  1.00  0.00    -0.200 F 
ATOM     96  F   UNL A   1      47.940  26.632  36.317  1.00  0.00    -0.200 F 
ENDBRANCH  63  86
ENDBRANCH  37  38
ENDBRANCH  29  32
ENDBRANCH  27  28
ENDBRANCH  26  27
ENDBRANCH  25  26
ENDBRANCH   1  25
TORSDOF 15
ENDMDL
MODEL 3
REMARK VINA RESULT:     -12.1      7.005     12.381
REMARK SMILES O=C(Cc1ccc(NC(=O)Cc2ccc(Br)cc2)cc1)NCCCCNC(=O)c1ccc(-c2c3nc(c(-c4c(F)c(F)c(F)c(F)c4F)c4ccc([nH]4)c(-c4c(F)c(F)c(F)c(F)c4F)c4nc(c(-c5c(F)c(F)c(F)c(F)c5F)c5ccc2[nH]5)C=C4)C=C3)cc1
REMARK SMILES IDX 22 1 21 2 1 3 2 4 3 6 4 7 5 8 20 9 6 10 19 11 7 12 8 13 9 14
REMARK SMILES IDX 10 16 11 17 12 18 13 19 18 20 14 21 17 22 15 23 16 24 23 25
REMARK SMILES IDX 24 26 25 27 26 28 27 29 28 31 29 32 30 33 91 34 31 35 90 36
REMARK SMILES IDX 32 37 33 38 34 39 84 40 35 41 89 42 83 43 85 44 36 45 88 46
REMARK SMILES IDX 82 47 81 48 37 50 69 51 49 52 68 53 50 54 53 55 67 56 86 57
REMARK SMILES IDX 51 58 52 59 66 61 87 62 54 63 38 64 39 65 47 66 40 67 41 68
REMARK SMILES IDX 45 69 48 70 42 71 43 72 46 73 44 74 70 75 71 76 79 77 72 78
REMARK SMILES IDX 73 79 77 80 80 81 74 82 75 83 78 84 76 85 55 86 56 87 64 88
REMARK SMILES IDX 57 89 58 90 62 91 65 92 59 93 60 94 63 95 61 96
REMARK H PARENT 21 5 8 15 26 30 85 49 53 60
REMARK Flexibility Score: inf
ROOT
ATOM      1  C   UNL A   1      40.258  22.123  26.368  1.00  0.00     0.116 C 
ENDROOT
BRANCH   1   2
ATOM      2  N   UNL A   1      38.983  21.859  25.741  1.00  0.00    -0.356 N 
ATOM      3  O   UNL A   1      38.063  23.934  26.107  1.00  0.00    -0.275 OA
ATOM      4  C   UNL A   1      38.007  22.822  25.592  1.00  0.00     0.224 C 
ATOM      5  H   UNL A   1      38.803  20.952  25.404  1.00  0.00     0.163 HD
BRANCH   4   6
ATOM      6  C   UNL A   1      36.838  22.378  24.729  1.00  0.00     0.135 C 
BRANCH   6   7
ATOM      7  C   UNL A   1      35.520  22.191  25.460  1.00  0.00    -0.039 A 
ATOM      8  C   UNL A   1      34.472  21.419  24.942  1.00  0.00     0.006 A 
ATOM      9  C   UNL A   1      35.305  22.878  26.664  1.00  0.00     0.006 A 
ATOM     10  C   UNL A   1      33.229  21.382  25.571  1.00  0.00     0.026 A 
ATOM     11  C   UNL A   1      34.045  22.870  27.273  1.00  0.00     0.026 A 
ATOM     12  C   UNL A   1      32.980  22.200  26.667  1.00  0.00     0.041 A 
BRANCH  12  13
ATOM     13  N   UNL A   1      31.689  22.485  27.130  1.00  0.00    -0.326 N 
ATOM     14  C   UNL A   1      30.769  23.402  26.693  1.00  0.00     0.228 C 
ATOM     15  H   UNL A   1      31.395  21.938  27.894  1.00  0.00     0.169 HD
ATOM     16  O   UNL A   1      29.696  23.455  27.309  1.00  0.00    -0.274 OA
BRANCH  14  17
ATOM     17  C   UNL A   1      31.031  24.374  25.547  1.00  0.00     0.135 C 
BRANCH  17  18
ATOM     18  C   UNL A   1      31.780  25.648  25.899  1.00  0.00    -0.039 A 
ATOM     19  C   UNL A   1      31.208  26.664  26.677  1.00  0.00     0.005 A 
ATOM     20  C   UNL A   1      33.123  25.795  25.521  1.00  0.00     0.005 A 
ATOM     21  C   UNL A   1      31.936  27.792  27.063  1.00  0.00     0.016 A 
ATOM     22  C   UNL A   1      33.859  26.924  25.904  1.00  0.00     0.016 A 
ATOM     23  C   UNL A   1      33.262  27.917  26.673  1.00  0.00     0.017 A 
ATOM     24  Br  UNL A   1      34.250  29.439  27.199  1.00  0.00    -0.051 Br
ENDBRANCH  17  18
ENDBRANCH  14  17
ENDBRANCH  12  13
ENDBRANCH   6   7
ENDBRANCH   4   6
ENDBRANCH   1   2
BRANCH   1  25
ATOM     25  C   UNL A   1      40.815  20.885  27.062  1.00  0.00     0.023 C 
BRANCH  25  26
ATOM     26  C   UNL A   1      41.297  19.779  26.117  1.00  0.00     0.023 C 
BRANCH  26  27
ATOM     27  C   UNL A   1      42.608  19.107  26.511  1.00  0.00     0.116 C 
BRANCH  27  28
ATOM     28  N   UNL A   1      43.408  18.725  25.358  1.00  0.00    -0.352 N 
ATOM     29  C   UNL A   1      44.221  19.493  24.563  1.00  0.00     0.251 C 
ATOM     30  H   UNL A   1      43.359  17.773  25.112  1.00  0.00     0.163 HD
ATOM     31  O   UNL A   1      44.678  19.021  23.521  1.00  0.00    -0.269 OA
BRANCH  29  32
ATOM     32  C   UNL A   1      44.533  20.891  24.929  1.00  0.00     0.039 A 
ATOM     33  C   UNL A   1      44.150  21.917  24.059  1.00  0.00     0.014 A 
ATOM     34  C   UNL A   1      45.215  21.199  26.110  1.00  0.00     0.014 A 
ATOM     35  C   UNL A   1      44.389  23.250  24.406  1.00  0.00     0.010 A 
ATOM     36  C   UNL A   1      45.386  22.529  26.489  1.00  0.00     0.010 A 
ATOM     37  C   UNL A   1      44.973  23.570  25.642  1.00  0.00    -0.014 A 
BRANCH  37  38
ATOM     38  C   UNL A   1      45.148  24.984  26.068  1.00  0.00     0.031 A 
ATOM     39  C   UNL A   1      46.498  25.643  25.991  1.00  0.00     0.074 A 
ATOM     40  C   UNL A   1      44.101  25.658  26.585  1.00  0.00     0.049 A 
ATOM     41  N   UNL A   1      46.858  26.841  26.380  1.00  0.00    -0.248 NA
ATOM     42  C   UNL A   1      47.593  24.841  25.425  1.00  0.00     0.031 C 
ATOM     43  C   UNL A   1      42.750  25.122  26.752  1.00  0.00     0.029 A 
ATOM     44  N   UNL A   1      44.012  26.938  27.076  1.00  0.00    -0.354 N 
ATOM     45  C   UNL A   1      48.219  26.930  26.118  1.00  0.00     0.074 A 
ATOM     46  C   UNL A   1      48.631  25.648  25.588  1.00  0.00     0.031 C 
ATOM     47  C   UNL A   1      41.963  26.070  27.284  1.00  0.00     0.029 A 
ATOM     48  C   UNL A   1      42.760  27.266  27.536  1.00  0.00     0.049 A 
ATOM     49  H   UNL A   1      44.773  27.561  27.096  1.00  0.00     0.167 HD
ATOM     50  C   UNL A   1      49.047  27.990  26.285  1.00  0.00     0.037 A 
ATOM     51  C   UNL A   1      42.306  28.399  28.107  1.00  0.00     0.037 A 
ATOM     52  C   UNL A   1      48.631  29.272  26.794  1.00  0.00     0.049 A 
ATOM     53  C   UNL A   1      43.251  29.556  28.298  1.00  0.00     0.074 A 
ATOM     54  C   UNL A   1      49.381  30.426  26.943  1.00  0.00     0.029 A 
ATOM     55  N   UNL A   1      47.352  29.568  27.243  1.00  0.00    -0.354 N 
ATOM     56  N   UNL A   1      44.520  29.650  27.984  1.00  0.00    -0.248 NA
ATOM     57  C   UNL A   1      42.697  30.766  28.921  1.00  0.00     0.031 C 
ATOM     58  C   UNL A   1      48.571  31.402  27.533  1.00  0.00     0.029 A 
ATOM     59  C   UNL A   1      47.300  30.877  27.695  1.00  0.00     0.049 A 
ATOM     60  H   UNL A   1      46.592  28.941  27.240  1.00  0.00     0.167 HD
ATOM     61  C   UNL A   1      44.907  30.936  28.338  1.00  0.00     0.074 A 
ATOM     62  C   UNL A   1      43.734  31.590  28.880  1.00  0.00     0.031 C 
ATOM     63  C   UNL A   1      46.124  31.521  28.225  1.00  0.00     0.037 A 
BRANCH  50  64
ATOM     64  C   UNL A   1      50.492  27.812  25.915  1.00  0.00     0.064 A 
ATOM     65  C   UNL A   1      51.469  27.518  26.878  1.00  0.00     0.173 A 
ATOM     66  C   UNL A   1      50.899  27.892  24.574  1.00  0.00     0.173 A 
ATOM     67  F   UNL A   1      51.136  27.438  28.176  1.00  0.00    -0.203 F 
ATOM     68  C   UNL A   1      52.802  27.342  26.517  1.00  0.00     0.198 A 
ATOM     69  C   UNL A   1      52.227  27.683  24.213  1.00  0.00     0.198 A 
ATOM     70  F   UNL A   1      50.005  28.163  23.611  1.00  0.00    -0.203 F 
ATOM     71  F   UNL A   1      53.726  27.113  27.462  1.00  0.00    -0.200 F 
ATOM     72  C   UNL A   1      53.179  27.417  25.185  1.00  0.00     0.200 A 
ATOM     73  F   UNL A   1      52.586  27.741  22.923  1.00  0.00    -0.200 F 
ATOM     74  F   UNL A   1      54.462  27.239  24.838  1.00  0.00    -0.200 F 
ENDBRANCH  50  64
BRANCH  51  75
ATOM     75  C   UNL A   1      40.883  28.505  28.521  1.00  0.00     0.064 A 
ATOM     76  C   UNL A   1      39.913  29.008  27.641  1.00  0.00     0.173 A 
ATOM     77  C   UNL A   1      40.463  28.119  29.802  1.00  0.00     0.173 A 
ATOM     78  F   UNL A   1      40.267  29.410  26.412  1.00  0.00    -0.203 F 
ATOM     79  C   UNL A   1      38.583  29.141  28.036  1.00  0.00     0.198 A 
ATOM     80  C   UNL A   1      39.127  28.224  30.185  1.00  0.00     0.198 A 
ATOM     81  F   UNL A   1      41.350  27.628  30.680  1.00  0.00    -0.203 F 
ATOM     82  F   UNL A   1      37.687  29.672  27.192  1.00  0.00    -0.200 F 
ATOM     83  C   UNL A   1      38.190  28.745  29.305  1.00  0.00     0.200 A 
ATOM     84  F   UNL A   1      38.750  27.825  31.407  1.00  0.00    -0.200 F 
ATOM     85  F   UNL A   1      36.910  28.871  29.683  1.00  0.00    -0.200 F 
ENDBRANCH  51  75
BRANCH  63  86
ATOM     86  C   UNL A   1      46.244  32.955  28.656  1.00  0.00     0.064 A 
ATOM     87  C   UNL A   1      46.614  33.306  29.963  1.00  0.00     0.173 A 
ATOM     88  C   UNL A   1      46.024  33.992  27.736  1.00  0.00     0.173 A 
ATOM     89  F   UNL A   1      46.821  32.354  30.885  1.00  0.00    -0.203 F 
ATOM     90  C   UNL A   1      46.731  34.642  30.340  1.00  0.00     0.198 A 
ATOM     91  C   UNL A   1      46.175  35.326  28.107  1.00  0.00     0.198 A 
ATOM     92  F   UNL A   1      45.675  33.713  26.471  1.00  0.00    -0.203 F 
ATOM     93  F   UNL A   1      47.035  34.954  31.607  1.00  0.00    -0.200 F 
ATOM     94  C   UNL A   1      46.520  35.649  29.410  1.00  0.00     0.200 A 
ATOM     95  F   UNL A   1      45.986  36.296  27.203  1.00  0.00    -0.200 F 
ATOM     96  F   UNL A   1      46.641  36.934  29.773  1.00  0.00    -0.200 F 
ENDBRANCH  63  86
ENDBRANCH  37  38
ENDBRANCH  29  32
ENDBRANCH  27  28
ENDBRANCH  26  27
ENDBRANCH  25  26
ENDBRANCH   1  25
TORSDOF 15
ENDMDL
