MODEL 1
REMARK VINA RESULT:      -9.9      0.000      0.000
REMARK SMILES CC(C)(C)SSC[C@H]([NH3+])C(=O)NCCCCNC(=O)c1ccc(-c2c3nc(c(-c4c(F)c(F)c(F)c(F)c4F)c4ccc([nH]4)c(-c4c(F)c(F)c(F)c(F)c4F)c4nc(c(-c5c(F)c(F)c(F)c(F)c5F)c5ccc2[nH]5)C=C4)C=C3)cc1
REMARK SMILES IDX 13 1 12 2 10 3 11 4 8 6 7 7 6 8 5 9 2 10 1 11 3 12 4 13 9 14
REMARK SMILES IDX 14 18 15 19 16 20 17 21 18 22 19 24 20 25 21 26 82 27 22 28
REMARK SMILES IDX 81 29 23 30 24 31 25 32 75 33 26 34 80 35 74 36 76 37 27 38
REMARK SMILES IDX 79 39 73 40 72 41 28 43 60 44 40 45 59 46 41 47 44 48 58 49
REMARK SMILES IDX 77 50 42 51 43 52 57 54 78 55 45 56 29 57 30 58 38 59 31 60
REMARK SMILES IDX 32 61 36 62 39 63 33 64 34 65 37 66 35 67 61 68 62 69 70 70
REMARK SMILES IDX 63 71 64 72 68 73 71 74 65 75 66 76 69 77 67 78 46 79 47 80
REMARK SMILES IDX 55 81 48 82 49 83 53 84 56 85 50 86 51 87 54 88 52 89
REMARK H PARENT 12 5 9 15 9 16 9 17 17 23 76 42 44 53
REMARK Flexibility Score: inf
ROOT
ATOM      1  C   UNL A   1      33.749  34.606  30.197  1.00  0.00     0.116 C 
ENDROOT
BRANCH   1   2
ATOM      2  N   UNL A   1      32.691  35.260  30.945  1.00  0.00    -0.351 N 
ATOM      3  C   UNL A   1      32.735  36.154  31.978  1.00  0.00     0.279 C 
ATOM      4  O   UNL A   1      31.660  36.594  32.389  1.00  0.00    -0.268 OA
ATOM      5  H   UNL A   1      31.782  35.016  30.659  1.00  0.00     0.163 HD
BRANCH   3   6
ATOM      6  C   UNL A   1      34.075  36.631  32.565  1.00  0.00     0.281 C 
BRANCH   6   7
ATOM      7  C   UNL A   1      34.209  36.094  34.002  1.00  0.00     0.157 C 
BRANCH   7   8
ATOM      8  S   UNL A   1      35.164  34.546  34.142  1.00  0.00    -0.087 SA
BRANCH   8   9
ATOM      9  S   UNL A   1      36.482  34.708  32.572  1.00  0.00    -0.088 SA
BRANCH   9  10
ATOM     10  C   UNL A   1      36.821  32.969  32.040  1.00  0.00     0.018 C 
ATOM     11  C   UNL A   1      37.215  33.043  30.557  1.00  0.00     0.023 C 
ATOM     12  C   UNL A   1      35.560  32.110  32.191  1.00  0.00     0.023 C 
ATOM     13  C   UNL A   1      37.982  32.373  32.846  1.00  0.00     0.023 C 
ENDBRANCH   9  10
ENDBRANCH   8   9
ENDBRANCH   7   8
ENDBRANCH   6   7
BRANCH   6  14
ATOM     14  N   UNL A   1      34.243  38.091  32.381  1.00  0.00    -0.347 N 
ATOM     15  H   UNL A   1      33.950  38.576  33.229  1.00  0.00     0.345 HD
ATOM     16  H   UNL A   1      33.671  38.402  31.596  1.00  0.00     0.345 HD
ATOM     17  H   UNL A   1      35.223  38.298  32.192  1.00  0.00     0.345 HD
ENDBRANCH   6  14
ENDBRANCH   3   6
ENDBRANCH   1   2
BRANCH   1  18
ATOM     18  C   UNL A   1      33.600  34.820  28.693  1.00  0.00     0.023 C 
BRANCH  18  19
ATOM     19  C   UNL A   1      33.834  33.573  27.840  1.00  0.00     0.023 C 
BRANCH  19  20
ATOM     20  C   UNL A   1      34.387  32.368  28.591  1.00  0.00     0.116 C 
BRANCH  20  21
ATOM     21  N   UNL A   1      33.833  31.104  28.131  1.00  0.00    -0.352 N 
ATOM     22  C   UNL A   1      34.483  29.912  27.913  1.00  0.00     0.251 C 
ATOM     23  H   UNL A   1      32.864  31.101  27.952  1.00  0.00     0.163 HD
ATOM     24  O   UNL A   1      33.897  28.961  27.407  1.00  0.00    -0.269 OA
BRANCH  22  25
ATOM     25  C   UNL A   1      35.912  29.800  28.263  1.00  0.00     0.039 A 
ATOM     26  C   UNL A   1      36.268  29.411  29.558  1.00  0.00     0.014 A 
ATOM     27  C   UNL A   1      36.894  30.031  27.296  1.00  0.00     0.014 A 
ATOM     28  C   UNL A   1      37.611  29.178  29.863  1.00  0.00     0.010 A 
ATOM     29  C   UNL A   1      38.220  29.732  27.582  1.00  0.00     0.010 A 
ATOM     30  C   UNL A   1      38.592  29.300  28.866  1.00  0.00    -0.014 A 
BRANCH  30  31
ATOM     31  C   UNL A   1      40.020  28.996  29.126  1.00  0.00     0.031 A 
ATOM     32  C   UNL A   1      40.896  30.043  29.751  1.00  0.00     0.074 A 
ATOM     33  C   UNL A   1      40.551  27.835  28.700  1.00  0.00     0.049 A 
ATOM     34  N   UNL A   1      42.196  30.061  29.894  1.00  0.00    -0.248 NA
ATOM     35  C   UNL A   1      40.217  31.250  30.246  1.00  0.00     0.031 C 
ATOM     36  C   UNL A   1      39.812  26.754  28.047  1.00  0.00     0.029 A 
ATOM     37  N   UNL A   1      41.847  27.383  28.726  1.00  0.00    -0.354 N 
ATOM     38  C   UNL A   1      42.493  31.294  30.460  1.00  0.00     0.074 A 
ATOM     39  C   UNL A   1      41.243  32.010  30.596  1.00  0.00     0.031 C 
ATOM     40  C   UNL A   1      40.664  25.764  27.736  1.00  0.00     0.029 A 
ATOM     41  C   UNL A   1      42.014  26.158  28.129  1.00  0.00     0.049 A 
ATOM     42  H   UNL A   1      42.586  27.890  29.133  1.00  0.00     0.167 HD
ATOM     43  C   UNL A   1      43.698  31.778  30.843  1.00  0.00     0.037 A 
ATOM     44  C   UNL A   1      43.134  25.444  27.905  1.00  0.00     0.037 A 
ATOM     45  C   UNL A   1      44.932  31.044  30.740  1.00  0.00     0.049 A 
ATOM     46  C   UNL A   1      44.461  25.992  28.355  1.00  0.00     0.074 A 
ATOM     47  C   UNL A   1      46.196  31.418  31.159  1.00  0.00     0.029 A 
ATOM     48  N   UNL A   1      45.053  29.782  30.176  1.00  0.00    -0.354 N 
ATOM     49  N   UNL A   1      44.728  27.138  28.933  1.00  0.00    -0.248 NA
ATOM     50  C   UNL A   1      45.641  25.148  28.124  1.00  0.00     0.031 C 
ATOM     51  C   UNL A   1      47.090  30.397  30.816  1.00  0.00     0.029 A 
ATOM     52  C   UNL A   1      46.374  29.368  30.225  1.00  0.00     0.049 A 
ATOM     53  H   UNL A   1      44.310  29.259  29.798  1.00  0.00     0.167 HD
ATOM     54  C   UNL A   1      46.096  27.141  29.165  1.00  0.00     0.074 A 
ATOM     55  C   UNL A   1      46.606  25.880  28.666  1.00  0.00     0.031 C 
ATOM     56  C   UNL A   1      46.860  28.100  29.741  1.00  0.00     0.037 A 
BRANCH  43  57
ATOM     57  C   UNL A   1      43.736  33.170  31.402  1.00  0.00     0.064 A 
ATOM     58  C   UNL A   1      43.828  34.297  30.571  1.00  0.00     0.173 A 
ATOM     59  C   UNL A   1      43.673  33.379  32.788  1.00  0.00     0.173 A 
ATOM     60  F   UNL A   1      43.906  34.149  29.240  1.00  0.00    -0.203 F 
ATOM     61  C   UNL A   1      43.896  35.580  31.108  1.00  0.00     0.198 A 
ATOM     62  C   UNL A   1      43.709  34.665  33.320  1.00  0.00     0.198 A 
ATOM     63  F   UNL A   1      43.579  32.337  33.627  1.00  0.00    -0.203 F 
ATOM     64  F   UNL A   1      44.047  36.635  30.298  1.00  0.00    -0.200 F 
ATOM     65  C   UNL A   1      43.831  35.763  32.481  1.00  0.00     0.200 A 
ATOM     66  F   UNL A   1      43.634  34.842  34.647  1.00  0.00    -0.200 F 
ATOM     67  F   UNL A   1      43.898  36.999  32.997  1.00  0.00    -0.200 F 
ENDBRANCH  43  57
BRANCH  44  68
ATOM     68  C   UNL A   1      43.040  24.119  27.241  1.00  0.00     0.064 A 
ATOM     69  C   UNL A   1      43.346  23.977  25.880  1.00  0.00     0.173 A 
ATOM     70  C   UNL A   1      42.668  22.968  27.950  1.00  0.00     0.173 A 
ATOM     71  F   UNL A   1      43.688  25.053  25.157  1.00  0.00    -0.203 F 
ATOM     72  C   UNL A   1      43.272  22.736  25.251  1.00  0.00     0.198 A 
ATOM     73  C   UNL A   1      42.617  21.723  27.326  1.00  0.00     0.198 A 
ATOM     74  F   UNL A   1      42.372  23.051  29.256  1.00  0.00    -0.203 F 
ATOM     75  F   UNL A   1      43.538  22.634  23.942  1.00  0.00    -0.200 F 
ATOM     76  C   UNL A   1      42.916  21.609  25.976  1.00  0.00     0.200 A 
ATOM     77  F   UNL A   1      42.286  20.634  28.033  1.00  0.00    -0.200 F 
ATOM     78  F   UNL A   1      42.854  20.414  25.374  1.00  0.00    -0.200 F 
ENDBRANCH  44  68
BRANCH  56  79
ATOM     79  C   UNL A   1      48.321  27.809  29.917  1.00  0.00     0.064 A 
ATOM     80  C   UNL A   1      49.268  28.191  28.956  1.00  0.00     0.173 A 
ATOM     81  C   UNL A   1      48.782  27.201  31.093  1.00  0.00     0.173 A 
ATOM     82  F   UNL A   1      48.875  28.763  27.809  1.00  0.00    -0.203 F 
ATOM     83  C   UNL A   1      50.626  27.960  29.164  1.00  0.00     0.198 A 
ATOM     84  C   UNL A   1      50.141  26.995  31.309  1.00  0.00     0.198 A 
ATOM     85  F   UNL A   1      47.914  26.823  32.044  1.00  0.00    -0.203 F 
ATOM     86  F   UNL A   1      51.514  28.303  28.220  1.00  0.00    -0.200 F 
ATOM     87  C   UNL A   1      51.062  27.371  30.342  1.00  0.00     0.200 A 
ATOM     88  F   UNL A   1      50.561  26.438  32.452  1.00  0.00    -0.200 F 
ATOM     89  F   UNL A   1      52.370  27.163  30.544  1.00  0.00    -0.200 F 
ENDBRANCH  56  79
ENDBRANCH  30  31
ENDBRANCH  22  25
ENDBRANCH  20  21
ENDBRANCH  19  20
ENDBRANCH  18  19
ENDBRANCH   1  18
TORSDOF 16
ENDMDL
MODEL 2
REMARK VINA RESULT:      -9.9      4.751     10.384
REMARK SMILES CC(C)(C)SSC[C@H]([NH3+])C(=O)NCCCCNC(=O)c1ccc(-c2c3nc(c(-c4c(F)c(F)c(F)c(F)c4F)c4ccc([nH]4)c(-c4c(F)c(F)c(F)c(F)c4F)c4nc(c(-c5c(F)c(F)c(F)c(F)c5F)c5ccc2[nH]5)C=C4)C=C3)cc1
REMARK SMILES IDX 13 1 12 2 10 3 11 4 8 6 7 7 6 8 5 9 2 10 1 11 3 12 4 13 9 14
REMARK SMILES IDX 14 18 15 19 16 20 17 21 18 22 19 24 20 25 21 26 82 27 22 28
REMARK SMILES IDX 81 29 23 30 24 31 25 32 75 33 26 34 80 35 74 36 76 37 27 38
REMARK SMILES IDX 79 39 73 40 72 41 28 43 60 44 40 45 59 46 41 47 44 48 58 49
REMARK SMILES IDX 77 50 42 51 43 52 57 54 78 55 45 56 29 57 30 58 38 59 31 60
REMARK SMILES IDX 32 61 36 62 39 63 33 64 34 65 37 66 35 67 61 68 62 69 70 70
REMARK SMILES IDX 63 71 64 72 68 73 71 74 65 75 66 76 69 77 67 78 46 79 47 80
REMARK SMILES IDX 55 81 48 82 49 83 53 84 56 85 50 86 51 87 54 88 52 89
REMARK H PARENT 12 5 9 15 9 16 9 17 17 23 76 42 44 53
REMARK Flexibility Score: inf
ROOT
ATOM      1  C   UNL A   1      33.469  29.937  26.857  1.00  0.00     0.116 C 
ENDROOT
BRANCH   1   2
ATOM      2  N   UNL A   1      33.673  28.536  26.534  1.00  0.00    -0.351 N 
ATOM      3  C   UNL A   1      33.601  27.863  25.346  1.00  0.00     0.279 C 
ATOM      4  O   UNL A   1      33.884  26.664  25.360  1.00  0.00    -0.268 OA
ATOM      5  H   UNL A   1      33.902  27.971  27.306  1.00  0.00     0.163 HD
BRANCH   3   6
ATOM      6  C   UNL A   1      33.236  28.587  24.039  1.00  0.00     0.281 C 
BRANCH   6   7
ATOM      7  C   UNL A   1      32.157  27.772  23.303  1.00  0.00     0.157 C 
BRANCH   7   8
ATOM      8  S   UNL A   1      30.446  28.317  23.630  1.00  0.00    -0.087 SA
BRANCH   8   9
ATOM      9  S   UNL A   1      30.129  29.676  22.120  1.00  0.00    -0.088 SA
BRANCH   9  10
ATOM     10  C   UNL A   1      28.503  30.467  22.510  1.00  0.00     0.018 C 
ATOM     11  C   UNL A   1      28.768  31.446  23.663  1.00  0.00     0.023 C 
ATOM     12  C   UNL A   1      27.491  29.408  22.963  1.00  0.00     0.023 C 
ATOM     13  C   UNL A   1      27.973  31.240  21.297  1.00  0.00     0.023 C 
ENDBRANCH   9  10
ENDBRANCH   8   9
ENDBRANCH   7   8
ENDBRANCH   6   7
BRANCH   6  14
ATOM     14  N   UNL A   1      34.452  28.932  23.267  1.00  0.00    -0.347 N 
ATOM     15  H   UNL A   1      35.135  29.367  23.887  1.00  0.00     0.345 HD
ATOM     16  H   UNL A   1      34.208  29.583  22.522  1.00  0.00     0.345 HD
ATOM     17  H   UNL A   1      34.849  28.085  22.864  1.00  0.00     0.345 HD
ENDBRANCH   6  14
ENDBRANCH   3   6
ENDBRANCH   1   2
BRANCH   1  18
ATOM     18  C   UNL A   1      31.991  30.316  26.838  1.00  0.00     0.023 C 
BRANCH  18  19
ATOM     19  C   UNL A   1      31.714  31.820  26.836  1.00  0.00     0.023 C 
BRANCH  19  20
ATOM     20  C   UNL A   1      32.868  32.693  27.315  1.00  0.00     0.116 C 
BRANCH  20  21
ATOM     21  N   UNL A   1      32.461  34.055  27.627  1.00  0.00    -0.352 N 
ATOM     22  C   UNL A   1      32.983  34.909  28.570  1.00  0.00     0.251 C 
ATOM     23  H   UNL A   1      31.716  34.412  27.093  1.00  0.00     0.163 HD
ATOM     24  O   UNL A   1      32.452  35.991  28.798  1.00  0.00    -0.269 OA
BRANCH  22  25
ATOM     25  C   UNL A   1      34.174  34.492  29.336  1.00  0.00     0.039 A 
ATOM     26  C   UNL A   1      34.004  33.894  30.588  1.00  0.00     0.014 A 
ATOM     27  C   UNL A   1      35.451  34.649  28.792  1.00  0.00     0.014 A 
ATOM     28  C   UNL A   1      35.114  33.381  31.263  1.00  0.00     0.010 A 
ATOM     29  C   UNL A   1      36.544  34.078  29.432  1.00  0.00     0.010 A 
ATOM     30  C   UNL A   1      36.386  33.435  30.671  1.00  0.00    -0.014 A 
BRANCH  30  31
ATOM     31  C   UNL A   1      37.581  32.843  31.319  1.00  0.00     0.031 A 
ATOM     32  C   UNL A   1      38.296  31.704  30.651  1.00  0.00     0.074 A 
ATOM     33  C   UNL A   1      37.952  33.247  32.549  1.00  0.00     0.049 A 
ATOM     34  N   UNL A   1      39.235  30.923  31.118  1.00  0.00    -0.248 NA
ATOM     35  C   UNL A   1      37.865  31.377  29.283  1.00  0.00     0.031 C 
ATOM     36  C   UNL A   1      37.316  34.317  33.316  1.00  0.00     0.029 A 
ATOM     37  N   UNL A   1      38.939  32.780  33.381  1.00  0.00    -0.354 N 
ATOM     38  C   UNL A   1      39.479  29.991  30.119  1.00  0.00     0.074 A 
ATOM     39  C   UNL A   1      38.563  30.280  29.037  1.00  0.00     0.031 C 
ATOM     40  C   UNL A   1      37.929  34.429  34.506  1.00  0.00     0.029 A 
ATOM     41  C   UNL A   1      38.972  33.410  34.601  1.00  0.00     0.049 A 
ATOM     42  H   UNL A   1      39.563  32.063  33.128  1.00  0.00     0.167 HD
ATOM     43  C   UNL A   1      40.395  28.994  30.101  1.00  0.00     0.037 A 
ATOM     44  C   UNL A   1      39.741  33.176  35.682  1.00  0.00     0.037 A 
ATOM     45  C   UNL A   1      41.329  28.738  31.165  1.00  0.00     0.049 A 
ATOM     46  C   UNL A   1      40.765  32.075  35.634  1.00  0.00     0.074 A 
ATOM     47  C   UNL A   1      42.341  27.794  31.217  1.00  0.00     0.029 A 
ATOM     48  N   UNL A   1      41.366  29.432  32.366  1.00  0.00    -0.354 N 
ATOM     49  N   UNL A   1      41.022  31.229  34.666  1.00  0.00    -0.248 NA
ATOM     50  C   UNL A   1      41.605  31.897  36.825  1.00  0.00     0.031 C 
ATOM     51  C   UNL A   1      42.966  27.893  32.465  1.00  0.00     0.029 A 
ATOM     52  C   UNL A   1      42.374  28.929  33.171  1.00  0.00     0.049 A 
ATOM     53  H   UNL A   1      40.764  30.172  32.608  1.00  0.00     0.167 HD
ATOM     54  C   UNL A   1      42.073  30.442  35.116  1.00  0.00     0.074 A 
ATOM     55  C   UNL A   1      42.407  30.912  36.445  1.00  0.00     0.031 C 
ATOM     56  C   UNL A   1      42.705  29.423  34.484  1.00  0.00     0.037 A 
BRANCH  43  57
ATOM     57  C   UNL A   1      40.422  28.104  28.893  1.00  0.00     0.064 A 
ATOM     58  C   UNL A   1      39.694  26.906  28.842  1.00  0.00     0.173 A 
ATOM     59  C   UNL A   1      41.182  28.459  27.768  1.00  0.00     0.173 A 
ATOM     60  F   UNL A   1      38.964  26.515  29.897  1.00  0.00    -0.203 F 
ATOM     61  C   UNL A   1      39.757  26.076  27.726  1.00  0.00     0.198 A 
ATOM     62  C   UNL A   1      41.217  27.642  26.641  1.00  0.00     0.198 A 
ATOM     63  F   UNL A   1      41.892  29.596  27.761  1.00  0.00    -0.203 F 
ATOM     64  F   UNL A   1      39.103  24.906  27.726  1.00  0.00    -0.200 F 
ATOM     65  C   UNL A   1      40.513  26.446  26.625  1.00  0.00     0.200 A 
ATOM     66  F   UNL A   1      41.939  28.007  25.572  1.00  0.00    -0.200 F 
ATOM     67  F   UNL A   1      40.575  25.646  25.552  1.00  0.00    -0.200 F 
ENDBRANCH  43  57
BRANCH  44  68
ATOM     68  C   UNL A   1      39.584  34.023  36.892  1.00  0.00     0.064 A 
ATOM     69  C   UNL A   1      38.789  33.597  37.965  1.00  0.00     0.173 A 
ATOM     70  C   UNL A   1      40.240  35.256  37.014  1.00  0.00     0.173 A 
ATOM     71  F   UNL A   1      38.127  32.434  37.885  1.00  0.00    -0.203 F 
ATOM     72  C   UNL A   1      38.645  34.379  39.109  1.00  0.00     0.198 A 
ATOM     73  C   UNL A   1      40.115  36.026  38.168  1.00  0.00     0.198 A 
ATOM     74  F   UNL A   1      41.018  35.704  36.017  1.00  0.00    -0.203 F 
ATOM     75  F   UNL A   1      37.853  33.964  40.106  1.00  0.00    -0.200 F 
ATOM     76  C   UNL A   1      39.315  35.589  39.213  1.00  0.00     0.200 A 
ATOM     77  F   UNL A   1      40.775  37.189  38.271  1.00  0.00    -0.200 F 
ATOM     78  F   UNL A   1      39.185  36.336  40.318  1.00  0.00    -0.200 F 
ENDBRANCH  44  68
BRANCH  56  79
ATOM     79  C   UNL A   1      43.859  28.778  35.193  1.00  0.00     0.064 A 
ATOM     80  C   UNL A   1      43.675  27.701  36.071  1.00  0.00     0.173 A 
ATOM     81  C   UNL A   1      45.171  29.203  34.936  1.00  0.00     0.173 A 
ATOM     82  F   UNL A   1      42.438  27.267  36.358  1.00  0.00    -0.203 F 
ATOM     83  C   UNL A   1      44.764  27.080  36.677  1.00  0.00     0.198 A 
ATOM     84  C   UNL A   1      46.259  28.565  35.523  1.00  0.00     0.198 A 
ATOM     85  F   UNL A   1      45.398  30.227  34.099  1.00  0.00    -0.203 F 
ATOM     86  F   UNL A   1      44.566  26.073  37.538  1.00  0.00    -0.200 F 
ATOM     87  C   UNL A   1      46.055  27.507  36.396  1.00  0.00     0.200 A 
ATOM     88  F   UNL A   1      47.505  28.969  35.241  1.00  0.00    -0.200 F 
ATOM     89  F   UNL A   1      47.102  26.899  36.970  1.00  0.00    -0.200 F 
ENDBRANCH  56  79
ENDBRANCH  30  31
ENDBRANCH  22  25
ENDBRANCH  20  21
ENDBRANCH  19  20
ENDBRANCH  18  19
ENDBRANCH   1  18
TORSDOF 16
ENDMDL
MODEL 3
REMARK VINA RESULT:      -9.8      4.621      9.803
REMARK SMILES CC(C)(C)SSC[C@H]([NH3+])C(=O)NCCCCNC(=O)c1ccc(-c2c3nc(c(-c4c(F)c(F)c(F)c(F)c4F)c4ccc([nH]4)c(-c4c(F)c(F)c(F)c(F)c4F)c4nc(c(-c5c(F)c(F)c(F)c(F)c5F)c5ccc2[nH]5)C=C4)C=C3)cc1
REMARK SMILES IDX 13 1 12 2 10 3 11 4 8 6 7 7 6 8 5 9 2 10 1 11 3 12 4 13 9 14
REMARK SMILES IDX 14 18 15 19 16 20 17 21 18 22 19 24 20 25 21 26 82 27 22 28
REMARK SMILES IDX 81 29 23 30 24 31 25 32 75 33 26 34 80 35 74 36 76 37 27 38
REMARK SMILES IDX 79 39 73 40 72 41 28 43 60 44 40 45 59 46 41 47 44 48 58 49
REMARK SMILES IDX 77 50 42 51 43 52 57 54 78 55 45 56 29 57 30 58 38 59 31 60
REMARK SMILES IDX 32 61 36 62 39 63 33 64 34 65 37 66 35 67 61 68 62 69 70 70
REMARK SMILES IDX 63 71 64 72 68 73 71 74 65 75 66 76 69 77 67 78 46 79 47 80
REMARK SMILES IDX 55 81 48 82 49 83 53 84 56 85 50 86 51 87 54 88 52 89
REMARK H PARENT 12 5 9 15 9 16 9 17 17 23 76 42 44 53
REMARK Flexibility Score: inf
ROOT
ATOM      1  C   UNL A   1      34.008  26.247  25.192  1.00  0.00     0.116 C 
ENDROOT
BRANCH   1   2
ATOM      2  N   UNL A   1      33.850  25.559  23.923  1.00  0.00    -0.351 N 
ATOM      3  C   UNL A   1      33.311  25.968  22.735  1.00  0.00     0.279 C 
ATOM      4  O   UNL A   1      33.363  25.178  21.791  1.00  0.00    -0.268 OA
ATOM      5  H   UNL A   1      34.191  24.636  23.916  1.00  0.00     0.163 HD
BRANCH   3   6
ATOM      6  C   UNL A   1      32.712  27.376  22.572  1.00  0.00     0.281 C 
BRANCH   6   7
ATOM      7  C   UNL A   1      31.239  27.246  22.144  1.00  0.00     0.157 C 
BRANCH   7   8
ATOM      8  S   UNL A   1      30.035  27.631  23.459  1.00  0.00    -0.087 SA
BRANCH   8   9
ATOM      9  S   UNL A   1      29.885  29.677  23.322  1.00  0.00    -0.088 SA
BRANCH   9  10
ATOM     10  C   UNL A   1      28.119  30.007  22.880  1.00  0.00     0.018 C 
ATOM     11  C   UNL A   1      28.098  30.272  21.367  1.00  0.00     0.023 C 
ATOM     12  C   UNL A   1      27.607  31.246  23.623  1.00  0.00     0.023 C 
ATOM     13  C   UNL A   1      27.246  28.786  23.195  1.00  0.00     0.023 C 
ENDBRANCH   9  10
ENDBRANCH   8   9
ENDBRANCH   7   8
ENDBRANCH   6   7
BRANCH   6  14
ATOM     14  N   UNL A   1      33.581  28.224  21.723  1.00  0.00    -0.347 N 
ATOM     15  H   UNL A   1      34.213  28.763  22.314  1.00  0.00     0.345 HD
ATOM     16  H   UNL A   1      33.002  28.861  21.175  1.00  0.00     0.345 HD
ATOM     17  H   UNL A   1      34.124  27.632  21.095  1.00  0.00     0.345 HD
ENDBRANCH   6  14
ENDBRANCH   3   6
ENDBRANCH   1   2
BRANCH   1  18
ATOM     18  C   UNL A   1      32.673  26.438  25.906  1.00  0.00     0.023 C 
BRANCH  18  19
ATOM     19  C   UNL A   1      32.466  27.822  26.522  1.00  0.00     0.023 C 
BRANCH  19  20
ATOM     20  C   UNL A   1      33.135  28.970  25.778  1.00  0.00     0.116 C 
BRANCH  20  21
ATOM     21  N   UNL A   1      32.627  30.276  26.168  1.00  0.00    -0.352 N 
ATOM     22  C   UNL A   1      33.177  31.182  27.044  1.00  0.00     0.251 C 
ATOM     23  H   UNL A   1      31.778  30.548  25.750  1.00  0.00     0.163 HD
ATOM     24  O   UNL A   1      32.566  32.197  27.364  1.00  0.00    -0.269 OA
BRANCH  22  25
ATOM     25  C   UNL A   1      34.504  30.902  27.628  1.00  0.00     0.039 A 
ATOM     26  C   UNL A   1      35.452  31.927  27.690  1.00  0.00     0.014 A 
ATOM     27  C   UNL A   1      34.788  29.641  28.156  1.00  0.00     0.014 A 
ATOM     28  C   UNL A   1      36.661  31.710  28.354  1.00  0.00     0.010 A 
ATOM     29  C   UNL A   1      35.961  29.447  28.875  1.00  0.00     0.010 A 
ATOM     30  C   UNL A   1      36.907  30.480  28.985  1.00  0.00    -0.014 A 
BRANCH  30  31
ATOM     31  C   UNL A   1      38.146  30.227  29.759  1.00  0.00     0.031 A 
ATOM     32  C   UNL A   1      39.179  29.283  29.213  1.00  0.00     0.074 A 
ATOM     33  C   UNL A   1      38.290  30.748  30.992  1.00  0.00     0.049 A 
ATOM     34  N   UNL A   1      40.234  28.778  29.797  1.00  0.00    -0.248 NA
ATOM     35  C   UNL A   1      38.971  28.817  27.834  1.00  0.00     0.031 C 
ATOM     36  C   UNL A   1      37.340  31.648  31.647  1.00  0.00     0.029 A 
ATOM     37  N   UNL A   1      39.279  30.570  31.927  1.00  0.00    -0.354 N 
ATOM     38  C   UNL A   1      40.793  27.907  28.872  1.00  0.00     0.074 A 
ATOM     39  C   UNL A   1      39.939  27.924  27.704  1.00  0.00     0.031 C 
ATOM     40  C   UNL A   1      37.793  31.946  32.876  1.00  0.00     0.029 A 
ATOM     41  C   UNL A   1      39.041  31.224  33.110  1.00  0.00     0.049 A 
ATOM     42  H   UNL A   1      40.082  30.024  31.764  1.00  0.00     0.167 HD
ATOM     43  C   UNL A   1      41.925  27.171  28.982  1.00  0.00     0.037 A 
ATOM     44  C   UNL A   1      39.741  31.224  34.261  1.00  0.00     0.037 A 
ATOM     45  C   UNL A   1      42.790  27.190  30.131  1.00  0.00     0.049 A 
ATOM     46  C   UNL A   1      41.004  30.414  34.356  1.00  0.00     0.074 A 
ATOM     47  C   UNL A   1      43.993  26.532  30.317  1.00  0.00     0.029 A 
ATOM     48  N   UNL A   1      42.541  27.908  31.293  1.00  0.00    -0.354 N 
ATOM     49  N   UNL A   1      41.552  29.630  33.459  1.00  0.00    -0.248 NA
ATOM     50  C   UNL A   1      41.748  30.489  35.621  1.00  0.00     0.031 C 
ATOM     51  C   UNL A   1      44.455  26.823  31.605  1.00  0.00     0.029 A 
ATOM     52  C   UNL A   1      43.564  27.699  32.204  1.00  0.00     0.049 A 
ATOM     53  H   UNL A   1      41.756  28.481  31.446  1.00  0.00     0.167 HD
ATOM     54  C   UNL A   1      42.718  29.146  34.035  1.00  0.00     0.074 A 
ATOM     55  C   UNL A   1      42.801  29.725  35.361  1.00  0.00     0.031 C 
ATOM     56  C   UNL A   1      43.638  28.300  33.512  1.00  0.00     0.037 A 
BRANCH  43  57
ATOM     57  C   UNL A   1      42.283  26.281  27.829  1.00  0.00     0.064 A 
ATOM     58  C   UNL A   1      43.185  26.687  26.835  1.00  0.00     0.173 A 
ATOM     59  C   UNL A   1      41.718  25.001  27.720  1.00  0.00     0.173 A 
ATOM     60  F   UNL A   1      43.741  27.907  26.885  1.00  0.00    -0.203 F 
ATOM     61  C   UNL A   1      43.481  25.861  25.753  1.00  0.00     0.198 A 
ATOM     62  C   UNL A   1      42.041  24.164  26.654  1.00  0.00     0.198 A 
ATOM     63  F   UNL A   1      40.853  24.560  28.645  1.00  0.00    -0.203 F 
ATOM     64  F   UNL A   1      44.297  26.296  24.784  1.00  0.00    -0.200 F 
ATOM     65  C   UNL A   1      42.913  24.599  25.667  1.00  0.00     0.200 A 
ATOM     66  F   UNL A   1      41.500  22.940  26.578  1.00  0.00    -0.200 F 
ATOM     67  F   UNL A   1      43.196  23.805  24.624  1.00  0.00    -0.200 F 
ENDBRANCH  43  57
BRANCH  44  68
ATOM     68  C   UNL A   1      39.268  32.041  35.408  1.00  0.00     0.064 A 
ATOM     69  C   UNL A   1      39.597  33.400  35.504  1.00  0.00     0.173 A 
ATOM     70  C   UNL A   1      38.462  31.491  36.416  1.00  0.00     0.173 A 
ATOM     71  F   UNL A   1      40.382  33.964  34.574  1.00  0.00    -0.203 F 
ATOM     72  C   UNL A   1      39.148  34.176  36.570  1.00  0.00     0.198 A 
ATOM     73  C   UNL A   1      37.993  32.274  37.469  1.00  0.00     0.198 A 
ATOM     74  F   UNL A   1      38.113  30.197  36.365  1.00  0.00    -0.203 F 
ATOM     75  F   UNL A   1      39.504  35.465  36.655  1.00  0.00    -0.200 F 
ATOM     76  C   UNL A   1      38.340  33.615  37.547  1.00  0.00     0.200 A 
ATOM     77  F   UNL A   1      37.201  31.731  38.404  1.00  0.00    -0.200 F 
ATOM     78  F   UNL A   1      37.899  34.364  38.567  1.00  0.00    -0.200 F 
ENDBRANCH  44  68
BRANCH  56  79
ATOM     79  C   UNL A   1      44.845  27.986  34.347  1.00  0.00     0.064 A 
ATOM     80  C   UNL A   1      45.999  28.781  34.300  1.00  0.00     0.173 A 
ATOM     81  C   UNL A   1      44.816  26.916  35.253  1.00  0.00     0.173 A 
ATOM     82  F   UNL A   1      46.079  29.807  33.441  1.00  0.00    -0.203 F 
ATOM     83  C   UNL A   1      47.088  28.505  35.123  1.00  0.00     0.198 A 
ATOM     84  C   UNL A   1      45.896  26.658  36.092  1.00  0.00     0.198 A 
ATOM     85  F   UNL A   1      43.732  26.131  35.337  1.00  0.00    -0.203 F 
ATOM     86  F   UNL A   1      48.195  29.256  35.042  1.00  0.00    -0.200 F 
ATOM     87  C   UNL A   1      47.032  27.450  36.024  1.00  0.00     0.200 A 
ATOM     88  F   UNL A   1      45.835  25.648  36.970  1.00  0.00    -0.200 F 
ATOM     89  F   UNL A   1      48.076  27.195  36.824  1.00  0.00    -0.200 F 
ENDBRANCH  56  79
ENDBRANCH  30  31
ENDBRANCH  22  25
ENDBRANCH  20  21
ENDBRANCH  19  20
ENDBRANCH  18  19
ENDBRANCH   1  18
TORSDOF 16
ENDMDL
