MODEL 1
REMARK VINA RESULT:     -12.4      0.000      0.000
REMARK SMILES C[C@@H](C(=O)NCCCCNC(=O)c1ccc(-c2c3nc(c(-c4c(F)c(F)c(F)c(F)c4F)c4ccc([nH]4)c(-c4c(F)c(F)c(F)c(F)c4F)c4nc(c(-c5c(F)c(F)c(F)c(F)c5F)c5ccc2[nH]5)C=C4)C=C3)cc1)S(=O)(=O)N[C@@]12C[C@@H]3C[C@@](C)(C[C@@](C)(C3)C1)C2
REMARK SMILES IDX 7 1 6 2 5 3 3 4 4 5 2 7 1 8 76 9 77 10 78 11 79 12 80 14
REMARK SMILES IDX 81 15 90 16 91 17 82 18 87 19 84 20 89 21 83 22 86 23 88 24
REMARK SMILES IDX 85 25 8 26 9 27 10 28 11 29 12 31 13 32 14 33 75 34 15 35
REMARK SMILES IDX 74 36 16 37 17 38 18 39 68 40 19 41 73 42 67 43 69 44 20 45
REMARK SMILES IDX 72 46 66 47 65 48 21 50 53 51 33 52 52 53 34 54 37 55 51 56
REMARK SMILES IDX 70 57 35 58 36 59 50 61 71 62 38 63 22 64 23 65 31 66 24 67
REMARK SMILES IDX 25 68 29 69 32 70 26 71 27 72 30 73 28 74 54 75 55 76 63 77
REMARK SMILES IDX 56 78 57 79 61 80 64 81 58 82 59 83 62 84 60 85 39 86 40 87
REMARK SMILES IDX 48 88 41 89 42 90 46 91 49 92 43 93 44 94 47 95 45 96
REMARK H PARENT 5 6 79 13 10 30 69 49 37 60
REMARK Flexibility Score: inf
ROOT
ATOM      1  C   UNL A   1      35.550  22.972  23.790  1.00  0.00     0.023 C 
ENDROOT
BRANCH   1   2
ATOM      2  C   UNL A   1      34.039  23.169  23.638  1.00  0.00     0.116 C 
BRANCH   2   3
ATOM      3  N   UNL A   1      33.339  22.029  24.194  1.00  0.00    -0.355 N 
ATOM      4  C   UNL A   1      32.947  21.745  25.472  1.00  0.00     0.239 C 
ATOM      5  O   UNL A   1      32.633  20.568  25.664  1.00  0.00    -0.274 OA
ATOM      6  H   UNL A   1      33.103  21.337  23.534  1.00  0.00     0.163 HD
BRANCH   4   7
ATOM      7  C   UNL A   1      32.842  22.833  26.531  1.00  0.00     0.209 C 
ATOM      8  C   UNL A   1      33.276  22.515  27.960  1.00  0.00     0.037 C 
BRANCH   7   9
ATOM      9  S   UNL A   1      31.172  23.577  26.484  1.00  0.00     0.223 S 
ATOM     10  O   UNL A   1      30.699  23.541  25.116  1.00  0.00    -0.212 OA
ATOM     11  O   UNL A   1      30.368  22.924  27.500  1.00  0.00    -0.212 OA
BRANCH   9  12
ATOM     12  N   UNL A   1      31.252  25.178  26.953  1.00  0.00    -0.208 NA
ATOM     13  H   UNL A   1      31.811  25.169  27.806  1.00  0.00     0.141 HD
BRANCH  12  14
ATOM     14  C   UNL A   1      31.766  26.325  26.180  1.00  0.00     0.034 C 
ATOM     15  C   UNL A   1      33.208  26.014  25.690  1.00  0.00     0.027 C 
ATOM     16  C   UNL A   1      30.926  26.507  24.899  1.00  0.00     0.030 C 
ATOM     17  C   UNL A   1      31.862  27.603  27.027  1.00  0.00     0.030 C 
ATOM     18  C   UNL A   1      33.754  27.190  24.843  1.00  0.00    -0.008 C 
ATOM     19  C   UNL A   1      31.404  27.725  24.086  1.00  0.00    -0.030 C 
ATOM     20  C   UNL A   1      32.359  28.798  26.197  1.00  0.00    -0.030 C 
ATOM     21  C   UNL A   1      32.845  27.431  23.621  1.00  0.00     0.010 C 
ATOM     22  C   UNL A   1      33.779  28.471  25.695  1.00  0.00     0.010 C 
ATOM     23  C   UNL A   1      31.418  28.984  24.985  1.00  0.00     0.013 C 
ATOM     24  C   UNL A   1      30.468  27.947  22.891  1.00  0.00     0.011 C 
ATOM     25  C   UNL A   1      32.360  30.056  27.072  1.00  0.00     0.011 C 
ENDBRANCH  12  14
ENDBRANCH   9  12
ENDBRANCH   7   9
ENDBRANCH   4   7
ENDBRANCH   2   3
ENDBRANCH   1   2
BRANCH   1  26
ATOM     26  C   UNL A   1      36.214  23.997  24.723  1.00  0.00     0.023 C 
BRANCH  26  27
ATOM     27  C   UNL A   1      36.583  23.458  26.101  1.00  0.00     0.116 C 
BRANCH  27  28
ATOM     28  N   UNL A   1      37.708  22.538  26.064  1.00  0.00    -0.352 N 
ATOM     29  C   UNL A   1      39.023  22.778  26.367  1.00  0.00     0.251 C 
ATOM     30  H   UNL A   1      37.496  21.618  25.784  1.00  0.00     0.163 HD
ATOM     31  O   UNL A   1      39.870  21.918  26.144  1.00  0.00    -0.269 OA
BRANCH  29  32
ATOM     32  C   UNL A   1      39.424  24.083  26.933  1.00  0.00     0.039 A 
ATOM     33  C   UNL A   1      40.039  25.013  26.094  1.00  0.00     0.014 A 
ATOM     34  C   UNL A   1      39.221  24.380  28.283  1.00  0.00     0.014 A 
ATOM     35  C   UNL A   1      40.429  26.252  26.604  1.00  0.00     0.010 A 
ATOM     36  C   UNL A   1      39.534  25.645  28.771  1.00  0.00     0.010 A 
ATOM     37  C   UNL A   1      40.168  26.584  27.944  1.00  0.00    -0.014 A 
BRANCH  37  38
ATOM     38  C   UNL A   1      40.606  27.886  28.503  1.00  0.00     0.031 A 
ATOM     39  C   UNL A   1      42.064  28.131  28.787  1.00  0.00     0.074 A 
ATOM     40  C   UNL A   1      39.692  28.836  28.778  1.00  0.00     0.049 A 
ATOM     41  N   UNL A   1      42.646  29.201  29.268  1.00  0.00    -0.248 NA
ATOM     42  C   UNL A   1      42.987  27.016  28.523  1.00  0.00     0.031 C 
ATOM     43  C   UNL A   1      38.247  28.697  28.595  1.00  0.00     0.029 A 
ATOM     44  N   UNL A   1      39.845  30.108  29.266  1.00  0.00    -0.354 N 
ATOM     45  C   UNL A   1      43.993  28.881  29.376  1.00  0.00     0.074 A 
ATOM     46  C   UNL A   1      44.134  27.499  28.974  1.00  0.00     0.031 C 
ATOM     47  C   UNL A   1      37.649  29.852  28.929  1.00  0.00     0.029 A 
ATOM     48  C   UNL A   1      38.663  30.800  29.380  1.00  0.00     0.049 A 
ATOM     49  H   UNL A   1      40.718  30.490  29.512  1.00  0.00     0.167 HD
ATOM     50  C   UNL A   1      45.026  29.676  29.748  1.00  0.00     0.037 A 
ATOM     51  C   UNL A   1      38.431  32.060  29.794  1.00  0.00     0.037 A 
ATOM     52  C   UNL A   1      44.882  31.059  30.118  1.00  0.00     0.049 A 
ATOM     53  C   UNL A   1      39.597  32.926  30.192  1.00  0.00     0.074 A 
ATOM     54  C   UNL A   1      45.868  31.970  30.453  1.00  0.00     0.029 A 
ATOM     55  N   UNL A   1      43.671  31.730  30.205  1.00  0.00    -0.354 N 
ATOM     56  N   UNL A   1      40.876  32.639  30.212  1.00  0.00    -0.248 NA
ATOM     57  C   UNL A   1      39.284  34.300  30.607  1.00  0.00     0.031 C 
ATOM     58  C   UNL A   1      45.250  33.177  30.794  1.00  0.00     0.029 A 
ATOM     59  C   UNL A   1      43.883  33.039  30.608  1.00  0.00     0.049 A 
ATOM     60  H   UNL A   1      42.791  31.335  30.009  1.00  0.00     0.167 HD
ATOM     61  C   UNL A   1      41.523  33.804  30.601  1.00  0.00     0.074 A 
ATOM     62  C   UNL A   1      40.495  34.805  30.793  1.00  0.00     0.031 C 
ATOM     63  C   UNL A   1      42.849  34.028  30.779  1.00  0.00     0.037 A 
BRANCH  50  64
ATOM     64  C   UNL A   1      46.399  29.066  29.772  1.00  0.00     0.064 A 
ATOM     65  C   UNL A   1      47.232  29.075  28.642  1.00  0.00     0.173 A 
ATOM     66  C   UNL A   1      46.900  28.489  30.948  1.00  0.00     0.173 A 
ATOM     67  F   UNL A   1      46.799  29.602  27.486  1.00  0.00    -0.203 F 
ATOM     68  C   UNL A   1      48.498  28.496  28.679  1.00  0.00     0.198 A 
ATOM     69  C   UNL A   1      48.180  27.942  30.991  1.00  0.00     0.198 A 
ATOM     70  F   UNL A   1      46.149  28.457  32.060  1.00  0.00    -0.203 F 
ATOM     71  F   UNL A   1      49.250  28.463  27.570  1.00  0.00    -0.200 F 
ATOM     72  C   UNL A   1      48.974  27.938  29.855  1.00  0.00     0.200 A 
ATOM     73  F   UNL A   1      48.644  27.416  32.133  1.00  0.00    -0.200 F 
ATOM     74  F   UNL A   1      50.196  27.387  29.891  1.00  0.00    -0.200 F 
ENDBRANCH  50  64
BRANCH  51  75
ATOM     75  C   UNL A   1      37.044  32.596  29.806  1.00  0.00     0.064 A 
ATOM     76  C   UNL A   1      36.530  33.287  28.698  1.00  0.00     0.173 A 
ATOM     77  C   UNL A   1      36.212  32.448  30.924  1.00  0.00     0.173 A 
ATOM     78  F   UNL A   1      37.293  33.471  27.610  1.00  0.00    -0.203 F 
ATOM     79  C   UNL A   1      35.248  33.830  28.720  1.00  0.00     0.198 A 
ATOM     80  C   UNL A   1      34.918  32.965  30.933  1.00  0.00     0.198 A 
ATOM     81  F   UNL A   1      36.653  31.789  32.007  1.00  0.00    -0.203 F 
ATOM     82  F   UNL A   1      34.802  34.532  27.668  1.00  0.00    -0.200 F 
ATOM     83  C   UNL A   1      34.441  33.666  29.836  1.00  0.00     0.200 A 
ATOM     84  F   UNL A   1      34.137  32.789  32.006  1.00  0.00    -0.200 F 
ATOM     85  F   UNL A   1      33.207  34.189  29.856  1.00  0.00    -0.200 F 
ENDBRANCH  51  75
BRANCH  63  86
ATOM     86  C   UNL A   1      43.269  35.424  31.144  1.00  0.00     0.064 A 
ATOM     87  C   UNL A   1      43.590  36.383  30.173  1.00  0.00     0.173 A 
ATOM     88  C   UNL A   1      43.327  35.810  32.492  1.00  0.00     0.173 A 
ATOM     89  F   UNL A   1      43.562  36.060  28.870  1.00  0.00    -0.203 F 
ATOM     90  C   UNL A   1      43.995  37.664  30.538  1.00  0.00     0.198 A 
ATOM     91  C   UNL A   1      43.695  37.104  32.853  1.00  0.00     0.198 A 
ATOM     92  F   UNL A   1      43.019  34.936  33.462  1.00  0.00    -0.203 F 
ATOM     93  F   UNL A   1      44.359  38.543  29.594  1.00  0.00    -0.200 F 
ATOM     94  C   UNL A   1      44.041  38.025  31.876  1.00  0.00     0.200 A 
ATOM     95  F   UNL A   1      43.722  37.456  34.144  1.00  0.00    -0.200 F 
ATOM     96  F   UNL A   1      44.427  39.260  32.225  1.00  0.00    -0.200 F 
ENDBRANCH  63  86
ENDBRANCH  37  38
ENDBRANCH  29  32
ENDBRANCH  27  28
ENDBRANCH  26  27
ENDBRANCH   1  26
TORSDOF 14
ENDMDL
MODEL 2
REMARK VINA RESULT:     -12.2      0.433      2.312
REMARK SMILES C[C@@H](C(=O)NCCCCNC(=O)c1ccc(-c2c3nc(c(-c4c(F)c(F)c(F)c(F)c4F)c4ccc([nH]4)c(-c4c(F)c(F)c(F)c(F)c4F)c4nc(c(-c5c(F)c(F)c(F)c(F)c5F)c5ccc2[nH]5)C=C4)C=C3)cc1)S(=O)(=O)N[C@@]12C[C@@H]3C[C@@](C)(C[C@@](C)(C3)C1)C2
REMARK SMILES IDX 7 1 6 2 5 3 3 4 4 5 2 7 1 8 76 9 77 10 78 11 79 12 80 14
REMARK SMILES IDX 81 15 90 16 91 17 82 18 87 19 84 20 89 21 83 22 86 23 88 24
REMARK SMILES IDX 85 25 8 26 9 27 10 28 11 29 12 31 13 32 14 33 75 34 15 35
REMARK SMILES IDX 74 36 16 37 17 38 18 39 68 40 19 41 73 42 67 43 69 44 20 45
REMARK SMILES IDX 72 46 66 47 65 48 21 50 53 51 33 52 52 53 34 54 37 55 51 56
REMARK SMILES IDX 70 57 35 58 36 59 50 61 71 62 38 63 22 64 23 65 31 66 24 67
REMARK SMILES IDX 25 68 29 69 32 70 26 71 27 72 30 73 28 74 54 75 55 76 63 77
REMARK SMILES IDX 56 78 57 79 61 80 64 81 58 82 59 83 62 84 60 85 39 86 40 87
REMARK SMILES IDX 48 88 41 89 42 90 46 91 49 92 43 93 44 94 47 95 45 96
REMARK H PARENT 5 6 79 13 10 30 69 49 37 60
REMARK Flexibility Score: inf
ROOT
ATOM      1  C   UNL A   1      35.493  22.713  23.884  1.00  0.00     0.023 C 
ENDROOT
BRANCH   1   2
ATOM      2  C   UNL A   1      34.030  22.814  23.440  1.00  0.00     0.116 C 
BRANCH   2   3
ATOM      3  N   UNL A   1      33.254  21.765  24.069  1.00  0.00    -0.355 N 
ATOM      4  C   UNL A   1      32.866  21.582  25.366  1.00  0.00     0.239 C 
ATOM      5  O   UNL A   1      32.465  20.446  25.627  1.00  0.00    -0.274 OA
ATOM      6  H   UNL A   1      32.954  21.059  23.451  1.00  0.00     0.163 HD
BRANCH   4   7
ATOM      7  C   UNL A   1      32.866  22.730  26.364  1.00  0.00     0.209 C 
ATOM      8  C   UNL A   1      33.373  22.475  27.782  1.00  0.00     0.037 C 
BRANCH   7   9
ATOM      9  S   UNL A   1      31.225  23.539  26.371  1.00  0.00     0.223 S 
ATOM     10  O   UNL A   1      30.673  23.453  25.035  1.00  0.00    -0.212 OA
ATOM     11  O   UNL A   1      30.457  22.971  27.464  1.00  0.00    -0.212 OA
BRANCH   9  12
ATOM     12  N   UNL A   1      31.392  25.157  26.750  1.00  0.00    -0.208 NA
ATOM     13  H   UNL A   1      32.027  25.171  27.548  1.00  0.00     0.141 HD
BRANCH  12  14
ATOM     14  C   UNL A   1      31.865  26.249  25.877  1.00  0.00     0.034 C 
ATOM     15  C   UNL A   1      30.665  27.158  25.490  1.00  0.00     0.027 C 
ATOM     16  C   UNL A   1      32.835  27.157  26.660  1.00  0.00     0.030 C 
ATOM     17  C   UNL A   1      32.457  25.726  24.559  1.00  0.00     0.030 C 
ATOM     18  C   UNL A   1      31.146  28.334  24.604  1.00  0.00    -0.008 C 
ATOM     19  C   UNL A   1      33.386  28.286  25.768  1.00  0.00    -0.030 C 
ATOM     20  C   UNL A   1      32.983  26.873  23.680  1.00  0.00    -0.030 C 
ATOM     21  C   UNL A   1      32.194  29.175  25.359  1.00  0.00     0.010 C 
ATOM     22  C   UNL A   1      31.792  27.783  23.321  1.00  0.00     0.010 C 
ATOM     23  C   UNL A   1      34.020  27.683  24.491  1.00  0.00     0.013 C 
ATOM     24  C   UNL A   1      34.439  29.088  26.544  1.00  0.00     0.011 C 
ATOM     25  C   UNL A   1      33.628  26.288  22.419  1.00  0.00     0.011 C 
ENDBRANCH  12  14
ENDBRANCH   9  12
ENDBRANCH   7   9
ENDBRANCH   4   7
ENDBRANCH   2   3
ENDBRANCH   1   2
BRANCH   1  26
ATOM     26  C   UNL A   1      35.968  23.912  24.720  1.00  0.00     0.023 C 
BRANCH  26  27
ATOM     27  C   UNL A   1      36.537  23.548  26.086  1.00  0.00     0.116 C 
BRANCH  27  28
ATOM     28  N   UNL A   1      37.667  22.638  26.003  1.00  0.00    -0.352 N 
ATOM     29  C   UNL A   1      38.985  22.877  26.295  1.00  0.00     0.251 C 
ATOM     30  H   UNL A   1      37.457  21.727  25.696  1.00  0.00     0.163 HD
ATOM     31  O   UNL A   1      39.834  22.032  26.031  1.00  0.00    -0.269 OA
BRANCH  29  32
ATOM     32  C   UNL A   1      39.386  24.166  26.898  1.00  0.00     0.039 A 
ATOM     33  C   UNL A   1      40.050  25.098  26.098  1.00  0.00     0.014 A 
ATOM     34  C   UNL A   1      39.135  24.445  28.243  1.00  0.00     0.014 A 
ATOM     35  C   UNL A   1      40.441  26.322  26.644  1.00  0.00     0.010 A 
ATOM     36  C   UNL A   1      39.451  25.697  28.763  1.00  0.00     0.010 A 
ATOM     37  C   UNL A   1      40.133  26.637  27.977  1.00  0.00    -0.014 A 
BRANCH  37  38
ATOM     38  C   UNL A   1      40.571  27.922  28.574  1.00  0.00     0.031 A 
ATOM     39  C   UNL A   1      42.021  28.139  28.913  1.00  0.00     0.074 A 
ATOM     40  C   UNL A   1      39.662  28.882  28.834  1.00  0.00     0.049 A 
ATOM     41  N   UNL A   1      42.602  29.190  29.434  1.00  0.00    -0.248 NA
ATOM     42  C   UNL A   1      42.936  27.014  28.663  1.00  0.00     0.031 C 
ATOM     43  C   UNL A   1      38.223  28.769  28.597  1.00  0.00     0.029 A 
ATOM     44  N   UNL A   1      39.818  30.143  29.349  1.00  0.00    -0.354 N 
ATOM     45  C   UNL A   1      43.940  28.847  29.583  1.00  0.00     0.074 A 
ATOM     46  C   UNL A   1      44.073  27.470  29.162  1.00  0.00     0.031 C 
ATOM     47  C   UNL A   1      37.631  29.928  28.931  1.00  0.00     0.029 A 
ATOM     48  C   UNL A   1      38.644  30.852  29.434  1.00  0.00     0.049 A 
ATOM     49  H   UNL A   1      40.688  30.507  29.632  1.00  0.00     0.167 HD
ATOM     50  C   UNL A   1      44.971  29.619  30.005  1.00  0.00     0.037 A 
ATOM     51  C   UNL A   1      38.416  32.108  29.861  1.00  0.00     0.037 A 
ATOM     52  C   UNL A   1      44.836  30.997  30.394  1.00  0.00     0.049 A 
ATOM     53  C   UNL A   1      39.581  32.948  30.315  1.00  0.00     0.074 A 
ATOM     54  C   UNL A   1      45.824  31.886  30.780  1.00  0.00     0.029 A 
ATOM     55  N   UNL A   1      43.633  31.687  30.451  1.00  0.00    -0.354 N 
ATOM     56  N   UNL A   1      40.854  32.641  30.375  1.00  0.00    -0.248 NA
ATOM     57  C   UNL A   1      39.275  34.320  30.743  1.00  0.00     0.031 C 
ATOM     58  C   UNL A   1      45.212  33.098  31.120  1.00  0.00     0.029 A 
ATOM     59  C   UNL A   1      43.851  32.985  30.884  1.00  0.00     0.049 A 
ATOM     60  H   UNL A   1      42.754  31.309  30.217  1.00  0.00     0.167 HD
ATOM     61  C   UNL A   1      41.505  33.788  30.807  1.00  0.00     0.074 A 
ATOM     62  C   UNL A   1      40.486  34.802  30.981  1.00  0.00     0.031 C 
ATOM     63  C   UNL A   1      42.827  33.987  31.035  1.00  0.00     0.037 A 
BRANCH  50  64
ATOM     64  C   UNL A   1      46.333  28.987  30.067  1.00  0.00     0.064 A 
ATOM     65  C   UNL A   1      46.805  28.361  31.232  1.00  0.00     0.173 A 
ATOM     66  C   UNL A   1      47.167  28.985  28.940  1.00  0.00     0.173 A 
ATOM     67  F   UNL A   1      46.054  28.345  32.343  1.00  0.00    -0.203 F 
ATOM     68  C   UNL A   1      48.074  27.789  31.275  1.00  0.00     0.198 A 
ATOM     69  C   UNL A   1      48.422  28.381  28.977  1.00  0.00     0.198 A 
ATOM     70  F   UNL A   1      46.766  29.564  27.799  1.00  0.00    -0.203 F 
ATOM     71  F   UNL A   1      48.526  27.251  32.417  1.00  0.00    -0.200 F 
ATOM     72  C   UNL A   1      48.878  27.793  30.146  1.00  0.00     0.200 A 
ATOM     73  F   UNL A   1      49.192  28.373  27.880  1.00  0.00    -0.200 F 
ATOM     74  F   UNL A   1      50.097  27.237  30.187  1.00  0.00    -0.200 F 
ENDBRANCH  50  64
BRANCH  51  75
ATOM     75  C   UNL A   1      37.039  32.667  29.834  1.00  0.00     0.064 A 
ATOM     76  C   UNL A   1      36.181  32.520  30.934  1.00  0.00     0.173 A 
ATOM     77  C   UNL A   1      36.545  33.341  28.708  1.00  0.00     0.173 A 
ATOM     78  F   UNL A   1      36.600  31.868  32.028  1.00  0.00    -0.203 F 
ATOM     79  C   UNL A   1      34.875  33.002  30.897  1.00  0.00     0.198 A 
ATOM     80  C   UNL A   1      35.248  33.850  28.685  1.00  0.00     0.198 A 
ATOM     81  F   UNL A   1      37.327  33.515  27.632  1.00  0.00    -0.203 F 
ATOM     82  F   UNL A   1      34.059  32.800  31.942  1.00  0.00    -0.200 F 
ATOM     83  C   UNL A   1      34.410  33.670  29.775  1.00  0.00     0.200 A 
ATOM     84  F   UNL A   1      34.809  34.510  27.605  1.00  0.00    -0.200 F 
ATOM     85  F   UNL A   1      33.153  34.134  29.741  1.00  0.00    -0.200 F 
ENDBRANCH  51  75
BRANCH  63  86
ATOM     86  C   UNL A   1      43.255  35.370  31.439  1.00  0.00     0.064 A 
ATOM     87  C   UNL A   1      43.278  35.780  32.780  1.00  0.00     0.173 A 
ATOM     88  C   UNL A   1      43.669  36.290  30.464  1.00  0.00     0.173 A 
ATOM     89  F   UNL A   1      42.880  34.942  33.750  1.00  0.00    -0.203 F 
ATOM     90  C   UNL A   1      43.660  37.074  33.126  1.00  0.00     0.198 A 
ATOM     91  C   UNL A   1      44.087  37.571  30.817  1.00  0.00     0.198 A 
ATOM     92  F   UNL A   1      43.678  35.947  29.167  1.00  0.00    -0.203 F 
ATOM     93  F   UNL A   1      43.612  37.463  34.408  1.00  0.00    -0.200 F 
ATOM     94  C   UNL A   1      44.070  37.965  32.146  1.00  0.00     0.200 A 
ATOM     95  F   UNL A   1      44.500  38.424  29.871  1.00  0.00    -0.200 F 
ATOM     96  F   UNL A   1      44.440  39.208  32.482  1.00  0.00    -0.200 F 
ENDBRANCH  63  86
ENDBRANCH  37  38
ENDBRANCH  29  32
ENDBRANCH  27  28
ENDBRANCH  26  27
ENDBRANCH   1  26
TORSDOF 14
ENDMDL
MODEL 3
REMARK VINA RESULT:     -12.1      4.103      9.045
REMARK SMILES C[C@@H](C(=O)NCCCCNC(=O)c1ccc(-c2c3nc(c(-c4c(F)c(F)c(F)c(F)c4F)c4ccc([nH]4)c(-c4c(F)c(F)c(F)c(F)c4F)c4nc(c(-c5c(F)c(F)c(F)c(F)c5F)c5ccc2[nH]5)C=C4)C=C3)cc1)S(=O)(=O)N[C@@]12C[C@@H]3C[C@@](C)(C[C@@](C)(C3)C1)C2
REMARK SMILES IDX 7 1 6 2 5 3 3 4 4 5 2 7 1 8 76 9 77 10 78 11 79 12 80 14
REMARK SMILES IDX 81 15 90 16 91 17 82 18 87 19 84 20 89 21 83 22 86 23 88 24
REMARK SMILES IDX 85 25 8 26 9 27 10 28 11 29 12 31 13 32 14 33 75 34 15 35
REMARK SMILES IDX 74 36 16 37 17 38 18 39 68 40 19 41 73 42 67 43 69 44 20 45
REMARK SMILES IDX 72 46 66 47 65 48 21 50 53 51 33 52 52 53 34 54 37 55 51 56
REMARK SMILES IDX 70 57 35 58 36 59 50 61 71 62 38 63 22 64 23 65 31 66 24 67
REMARK SMILES IDX 25 68 29 69 32 70 26 71 27 72 30 73 28 74 54 75 55 76 63 77
REMARK SMILES IDX 56 78 57 79 61 80 64 81 58 82 59 83 62 84 60 85 39 86 40 87
REMARK SMILES IDX 48 88 41 89 42 90 46 91 49 92 43 93 44 94 47 95 45 96
REMARK H PARENT 5 6 79 13 10 30 69 49 37 60
REMARK Flexibility Score: inf
ROOT
ATOM      1  C   UNL A   1      32.431  27.279  26.250  1.00  0.00     0.023 C 
ENDROOT
BRANCH   1   2
ATOM      2  C   UNL A   1      31.364  26.392  25.602  1.00  0.00     0.116 C 
BRANCH   2   3
ATOM      3  N   UNL A   1      30.880  27.016  24.388  1.00  0.00    -0.355 N 
ATOM      4  C   UNL A   1      31.539  27.470  23.280  1.00  0.00     0.239 C 
ATOM      5  O   UNL A   1      30.873  28.209  22.553  1.00  0.00    -0.274 OA
ATOM      6  H   UNL A   1      29.902  27.134  24.356  1.00  0.00     0.163 HD
BRANCH   4   7
ATOM      7  C   UNL A   1      32.955  27.016  22.958  1.00  0.00     0.209 C 
ATOM      8  C   UNL A   1      33.927  28.017  22.337  1.00  0.00     0.037 C 
BRANCH   7   9
ATOM      9  S   UNL A   1      32.898  25.454  22.007  1.00  0.00     0.223 S 
ATOM     10  O   UNL A   1      31.718  24.720  22.413  1.00  0.00    -0.212 OA
ATOM     11  O   UNL A   1      33.044  25.786  20.602  1.00  0.00    -0.212 OA
BRANCH   9  12
ATOM     12  N   UNL A   1      34.232  24.518  22.375  1.00  0.00    -0.208 NA
ATOM     13  H   UNL A   1      35.012  25.174  22.387  1.00  0.00     0.141 HD
BRANCH  12  14
ATOM     14  C   UNL A   1      34.442  23.665  23.561  1.00  0.00     0.034 C 
ATOM     15  C   UNL A   1      34.419  24.544  24.842  1.00  0.00     0.027 C 
ATOM     16  C   UNL A   1      33.259  22.686  23.713  1.00  0.00     0.030 C 
ATOM     17  C   UNL A   1      35.809  22.963  23.540  1.00  0.00     0.030 C 
ATOM     18  C   UNL A   1      34.600  23.663  26.103  1.00  0.00    -0.008 C 
ATOM     19  C   UNL A   1      33.463  21.746  24.916  1.00  0.00    -0.030 C 
ATOM     20  C   UNL A   1      35.994  22.046  24.759  1.00  0.00    -0.030 C 
ATOM     21  C   UNL A   1      33.470  22.619  26.187  1.00  0.00     0.010 C 
ATOM     22  C   UNL A   1      35.946  22.923  26.027  1.00  0.00     0.010 C 
ATOM     23  C   UNL A   1      34.830  21.030  24.797  1.00  0.00     0.013 C 
ATOM     24  C   UNL A   1      32.333  20.709  24.957  1.00  0.00     0.011 C 
ATOM     25  C   UNL A   1      37.338  21.317  24.645  1.00  0.00     0.011 C 
ENDBRANCH  12  14
ENDBRANCH   9  12
ENDBRANCH   7   9
ENDBRANCH   4   7
ENDBRANCH   2   3
ENDBRANCH   1   2
BRANCH   1  26
ATOM     26  C   UNL A   1      32.004  28.748  26.399  1.00  0.00     0.023 C 
BRANCH  26  27
ATOM     27  C   UNL A   1      33.031  29.762  25.907  1.00  0.00     0.116 C 
BRANCH  27  28
ATOM     28  N   UNL A   1      32.694  31.128  26.270  1.00  0.00    -0.352 N 
ATOM     29  C   UNL A   1      33.294  31.946  27.192  1.00  0.00     0.251 C 
ATOM     30  H   UNL A   1      31.930  31.519  25.786  1.00  0.00     0.163 HD
ATOM     31  O   UNL A   1      32.788  33.027  27.473  1.00  0.00    -0.269 OA
BRANCH  29  32
ATOM     32  C   UNL A   1      34.533  31.510  27.869  1.00  0.00     0.039 A 
ATOM     33  C   UNL A   1      34.597  30.209  28.371  1.00  0.00     0.014 A 
ATOM     34  C   UNL A   1      35.615  32.379  28.031  1.00  0.00     0.014 A 
ATOM     35  C   UNL A   1      35.755  29.772  29.015  1.00  0.00     0.010 A 
ATOM     36  C   UNL A   1      36.798  31.918  28.600  1.00  0.00     0.010 A 
ATOM     37  C   UNL A   1      36.870  30.619  29.124  1.00  0.00    -0.014 A 
BRANCH  37  38
ATOM     38  C   UNL A   1      38.095  30.175  29.834  1.00  0.00     0.031 A 
ATOM     39  C   UNL A   1      38.358  30.638  31.242  1.00  0.00     0.074 A 
ATOM     40  C   UNL A   1      38.980  29.377  29.205  1.00  0.00     0.049 A 
ATOM     41  N   UNL A   1      39.364  30.358  32.032  1.00  0.00    -0.248 NA
ATOM     42  C   UNL A   1      37.376  31.563  31.830  1.00  0.00     0.031 C 
ATOM     43  C   UNL A   1      38.859  28.905  27.825  1.00  0.00     0.029 A 
ATOM     44  N   UNL A   1      40.151  28.820  29.647  1.00  0.00    -0.354 N 
ATOM     45  C   UNL A   1      39.141  31.080  33.197  1.00  0.00     0.074 A 
ATOM     46  C   UNL A   1      37.942  31.862  32.988  1.00  0.00     0.031 C 
ATOM     47  C   UNL A   1      39.896  28.098  27.546  1.00  0.00     0.029 A 
ATOM     48  C   UNL A   1      40.768  28.023  28.714  1.00  0.00     0.049 A 
ATOM     49  H   UNL A   1      40.517  28.977  30.548  1.00  0.00     0.167 HD
ATOM     50  C   UNL A   1      39.853  31.070  34.349  1.00  0.00     0.037 A 
ATOM     51  C   UNL A   1      41.905  27.306  28.800  1.00  0.00     0.037 A 
ATOM     52  C   UNL A   1      41.028  30.267  34.561  1.00  0.00     0.049 A 
ATOM     53  C   UNL A   1      42.673  27.303  30.095  1.00  0.00     0.074 A 
ATOM     54  C   UNL A   1      41.790  30.136  35.709  1.00  0.00     0.029 A 
ATOM     55  N   UNL A   1      41.614  29.457  33.598  1.00  0.00    -0.354 N 
ATOM     56  N   UNL A   1      42.409  27.926  31.218  1.00  0.00    -0.248 NA
ATOM     57  C   UNL A   1      43.890  26.481  30.138  1.00  0.00     0.031 C 
ATOM     58  C   UNL A   1      42.866  29.289  35.424  1.00  0.00     0.029 A 
ATOM     59  C   UNL A   1      42.739  28.840  34.120  1.00  0.00     0.049 A 
ATOM     60  H   UNL A   1      41.279  29.339  32.680  1.00  0.00     0.167 HD
ATOM     61  C   UNL A   1      43.399  27.541  32.112  1.00  0.00     0.074 A 
ATOM     62  C   UNL A   1      44.262  26.619  31.402  1.00  0.00     0.031 C 
ATOM     63  C   UNL A   1      43.577  27.912  33.404  1.00  0.00     0.037 A 
BRANCH  50  64
ATOM     64  C   UNL A   1      39.380  31.956  35.467  1.00  0.00     0.064 A 
ATOM     65  C   UNL A   1      38.522  31.483  36.473  1.00  0.00     0.173 A 
ATOM     66  C   UNL A   1      39.810  33.288  35.549  1.00  0.00     0.173 A 
ATOM     67  F   UNL A   1      38.069  30.221  36.437  1.00  0.00    -0.203 F 
ATOM     68  C   UNL A   1      38.085  32.321  37.496  1.00  0.00     0.198 A 
ATOM     69  C   UNL A   1      39.399  34.113  36.593  1.00  0.00     0.198 A 
ATOM     70  F   UNL A   1      40.634  33.792  34.618  1.00  0.00    -0.203 F 
ATOM     71  F   UNL A   1      37.219  31.862  38.410  1.00  0.00    -0.200 F 
ATOM     72  C   UNL A   1      38.530  33.632  37.560  1.00  0.00     0.200 A 
ATOM     73  F   UNL A   1      39.842  35.376  36.662  1.00  0.00    -0.200 F 
ATOM     74  F   UNL A   1      38.114  34.435  38.549  1.00  0.00    -0.200 F 
ENDBRANCH  50  64
BRANCH  51  75
ATOM     75  C   UNL A   1      42.360  26.491  27.643  1.00  0.00     0.064 A 
ATOM     76  C   UNL A   1      41.851  25.202  27.426  1.00  0.00     0.173 A 
ATOM     77  C   UNL A   1      43.322  26.971  26.743  1.00  0.00     0.173 A 
ATOM     78  F   UNL A   1      40.942  24.690  28.269  1.00  0.00    -0.203 F 
ATOM     79  C   UNL A   1      42.307  24.416  26.370  1.00  0.00     0.198 A 
ATOM     80  C   UNL A   1      43.754  26.196  25.668  1.00  0.00     0.198 A 
ATOM     81  F   UNL A   1      43.836  28.201  26.901  1.00  0.00    -0.203 F 
ATOM     82  F   UNL A   1      41.842  23.167  26.218  1.00  0.00    -0.200 F 
ATOM     83  C   UNL A   1      43.255  24.914  25.489  1.00  0.00     0.200 A 
ATOM     84  F   UNL A   1      44.657  26.688  24.811  1.00  0.00    -0.200 F 
ATOM     85  F   UNL A   1      43.692  24.158  24.473  1.00  0.00    -0.200 F 
ENDBRANCH  51  75
BRANCH  63  86
ATOM     86  C   UNL A   1      44.714  27.273  34.153  1.00  0.00     0.064 A 
ATOM     87  C   UNL A   1      44.567  26.056  34.833  1.00  0.00     0.173 A 
ATOM     88  C   UNL A   1      45.977  27.885  34.167  1.00  0.00     0.173 A 
ATOM     89  F   UNL A   1      43.376  25.437  34.860  1.00  0.00    -0.203 F 
ATOM     90  C   UNL A   1      45.630  25.496  35.536  1.00  0.00     0.198 A 
ATOM     91  C   UNL A   1      47.049  27.303  34.839  1.00  0.00     0.198 A 
ATOM     92  F   UNL A   1      46.176  29.045  33.523  1.00  0.00    -0.203 F 
ATOM     93  F   UNL A   1      45.449  24.366  36.232  1.00  0.00    -0.200 F 
ATOM     94  C   UNL A   1      46.871  26.116  35.532  1.00  0.00     0.200 A 
ATOM     95  F   UNL A   1      48.250  27.894  34.819  1.00  0.00    -0.200 F 
ATOM     96  F   UNL A   1      47.894  25.573  36.206  1.00  0.00    -0.200 F 
ENDBRANCH  63  86
ENDBRANCH  37  38
ENDBRANCH  29  32
ENDBRANCH  27  28
ENDBRANCH  26  27
ENDBRANCH   1  26
TORSDOF 14
ENDMDL
