MODEL 1
REMARK VINA RESULT:     -12.5      0.000      0.000
REMARK SMILES C=CCOc1cccc(NC(=O)c2ccccc2C(=O)NCCCCNC(=O)c2ccc(-c3c4nc(c(-c5c(F)c(F)c(F)c(F)c5F)c5ccc([nH]5)c(-c5c(F)c(F)c(F)c(F)c5F)c5nc(c(-c6c(F)c(F)c(F)c(F)c6F)c6ccc3[nH]6)C=C5)C=C4)cc2)c1
REMARK SMILES IDX 22 1 21 2 19 3 20 4 18 6 13 7 14 8 15 9 17 10 16 11 11 12
REMARK SMILES IDX 10 13 12 15 9 16 5 17 6 18 92 19 7 20 8 21 4 22 3 23 2 24
REMARK SMILES IDX 1 25 23 26 24 27 25 28 26 29 27 30 28 32 29 33 30 34 91 35
REMARK SMILES IDX 31 36 90 37 32 38 33 39 34 40 84 41 35 42 89 43 83 44 85 45
REMARK SMILES IDX 36 46 88 47 82 48 81 49 37 51 69 52 49 53 68 54 50 55 53 56
REMARK SMILES IDX 67 57 86 58 51 59 52 60 66 62 87 63 54 64 38 65 39 66 47 67
REMARK SMILES IDX 40 68 41 69 45 70 48 71 42 72 43 73 46 74 44 75 70 76 71 77
REMARK SMILES IDX 79 78 72 79 73 80 77 81 80 82 74 83 75 84 78 85 76 86 55 87
REMARK SMILES IDX 56 88 64 89 57 90 58 91 62 92 65 93 59 94 60 95 63 96 61 97
REMARK H PARENT 21 5 10 14 26 31 85 50 53 61
REMARK Flexibility Score: inf
ROOT
ATOM      1  C   UNL A   1      32.248  26.883  26.429  1.00  0.00     0.116 C 
ENDROOT
BRANCH   1   2
ATOM      2  N   UNL A   1      31.657  25.602  26.751  1.00  0.00    -0.352 N 
ATOM      3  C   UNL A   1      32.021  24.329  26.390  1.00  0.00     0.252 C 
ATOM      4  O   UNL A   1      31.305  23.400  26.769  1.00  0.00    -0.269 OA
ATOM      5  H   UNL A   1      30.857  25.651  27.324  1.00  0.00     0.163 HD
BRANCH   3   6
ATOM      6  C   UNL A   1      33.179  24.014  25.510  1.00  0.00     0.052 A 
ATOM      7  C   UNL A   1      33.142  23.738  24.137  1.00  0.00     0.052 A 
ATOM      8  C   UNL A   1      34.331  23.426  23.448  1.00  0.00     0.014 A 
ATOM      9  C   UNL A   1      35.566  23.484  24.090  1.00  0.00     0.001 A 
ATOM     10  C   UNL A   1      34.442  24.105  26.133  1.00  0.00     0.014 A 
ATOM     11  C   UNL A   1      35.624  23.850  25.428  1.00  0.00     0.001 A 
BRANCH   7  12
ATOM     12  C   UNL A   1      31.937  23.727  23.296  1.00  0.00     0.256 C 
ATOM     13  N   UNL A   1      31.352  24.860  22.791  1.00  0.00    -0.322 N 
ATOM     14  H   UNL A   1      30.484  24.692  22.357  1.00  0.00     0.170 HD
ATOM     15  O   UNL A   1      31.401  22.636  23.086  1.00  0.00    -0.269 OA
BRANCH  13  16
ATOM     16  C   UNL A   1      31.736  26.207  22.767  1.00  0.00     0.045 A 
ATOM     17  C   UNL A   1      31.064  28.485  23.221  1.00  0.00     0.121 A 
ATOM     18  C   UNL A   1      32.336  28.944  22.900  1.00  0.00     0.046 A 
ATOM     19  C   UNL A   1      30.751  27.133  23.125  1.00  0.00     0.072 A 
ATOM     20  C   UNL A   1      33.306  28.031  22.489  1.00  0.00     0.006 A 
ATOM     21  C   UNL A   1      33.003  26.667  22.411  1.00  0.00     0.026 A 
BRANCH  17  22
ATOM     22  O   UNL A   1      30.069  29.359  23.555  1.00  0.00    -0.489 OA
BRANCH  22  23
ATOM     23  C   UNL A   1      29.520  30.014  22.404  1.00  0.00     0.257 C 
BRANCH  23  24
ATOM     24  C   UNL A   1      28.022  29.905  22.440  1.00  0.00     0.006 C 
ATOM     25  C   UNL A   1      27.355  28.966  23.125  1.00  0.00     0.007 C 
ENDBRANCH  23  24
ENDBRANCH  22  23
ENDBRANCH  17  22
ENDBRANCH  13  16
ENDBRANCH   7  12
ENDBRANCH   3   6
ENDBRANCH   1   2
BRANCH   1  26
ATOM     26  C   UNL A   1      31.927  27.985  27.435  1.00  0.00     0.023 C 
BRANCH  26  27
ATOM     27  C   UNL A   1      31.453  29.318  26.848  1.00  0.00     0.023 C 
BRANCH  27  28
ATOM     28  C   UNL A   1      32.529  30.279  26.343  1.00  0.00     0.116 C 
BRANCH  28  29
ATOM     29  N   UNL A   1      32.414  31.639  26.850  1.00  0.00    -0.352 N 
ATOM     30  C   UNL A   1      33.324  32.394  27.558  1.00  0.00     0.251 C 
ATOM     31  H   UNL A   1      31.558  32.086  26.660  1.00  0.00     0.163 HD
ATOM     32  O   UNL A   1      33.037  33.526  27.935  1.00  0.00    -0.269 OA
BRANCH  30  33
ATOM     33  C   UNL A   1      34.636  31.816  27.922  1.00  0.00     0.039 A 
ATOM     34  C   UNL A   1      35.732  32.673  28.051  1.00  0.00     0.014 A 
ATOM     35  C   UNL A   1      34.772  30.456  28.202  1.00  0.00     0.014 A 
ATOM     36  C   UNL A   1      36.927  32.191  28.591  1.00  0.00     0.010 A 
ATOM     37  C   UNL A   1      35.942  29.992  28.804  1.00  0.00     0.010 A 
ATOM     38  C   UNL A   1      37.016  30.864  29.046  1.00  0.00    -0.014 A 
BRANCH  38  39
ATOM     39  C   UNL A   1      38.177  30.404  29.857  1.00  0.00     0.031 A 
ATOM     40  C   UNL A   1      39.161  29.410  29.309  1.00  0.00     0.074 A 
ATOM     41  C   UNL A   1      38.292  30.813  31.138  1.00  0.00     0.049 A 
ATOM     42  N   UNL A   1      40.180  28.840  29.905  1.00  0.00    -0.248 NA
ATOM     43  C   UNL A   1      38.960  28.979  27.919  1.00  0.00     0.031 C 
ATOM     44  C   UNL A   1      37.377  31.732  31.818  1.00  0.00     0.029 A 
ATOM     45  N   UNL A   1      39.221  30.501  32.101  1.00  0.00    -0.354 N 
ATOM     46  C   UNL A   1      40.726  27.970  28.972  1.00  0.00     0.074 A 
ATOM     47  C   UNL A   1      39.900  28.055  27.785  1.00  0.00     0.031 C 
ATOM     48  C   UNL A   1      37.810  31.938  33.072  1.00  0.00     0.029 A 
ATOM     49  C   UNL A   1      39.003  31.131  33.303  1.00  0.00     0.049 A 
ATOM     50  H   UNL A   1      39.972  29.884  31.945  1.00  0.00     0.167 HD
ATOM     51  C   UNL A   1      41.826  27.187  29.086  1.00  0.00     0.037 A 
ATOM     52  C   UNL A   1      39.682  31.064  34.465  1.00  0.00     0.037 A 
ATOM     53  C   UNL A   1      42.671  27.128  30.250  1.00  0.00     0.049 A 
ATOM     54  C   UNL A   1      40.886  30.169  34.572  1.00  0.00     0.074 A 
ATOM     55  C   UNL A   1      43.864  26.446  30.417  1.00  0.00     0.029 A 
ATOM     56  N   UNL A   1      42.409  27.770  31.452  1.00  0.00    -0.354 N 
ATOM     57  N   UNL A   1      41.443  29.420  33.653  1.00  0.00    -0.248 NA
ATOM     58  C   UNL A   1      41.549  30.105  35.882  1.00  0.00     0.031 C 
ATOM     59  C   UNL A   1      44.298  26.633  31.733  1.00  0.00     0.029 A 
ATOM     60  C   UNL A   1      43.397  27.467  32.376  1.00  0.00     0.049 A 
ATOM     61  H   UNL A   1      41.635  28.353  31.624  1.00  0.00     0.167 HD
ATOM     62  C   UNL A   1      42.533  28.817  34.263  1.00  0.00     0.074 A 
ATOM     63  C   UNL A   1      42.567  29.294  35.630  1.00  0.00     0.031 C 
ATOM     64  C   UNL A   1      43.426  27.947  33.733  1.00  0.00     0.037 A 
BRANCH  51  65
ATOM     65  C   UNL A   1      42.185  26.325  27.912  1.00  0.00     0.064 A 
ATOM     66  C   UNL A   1      41.567  25.086  27.692  1.00  0.00     0.173 A 
ATOM     67  C   UNL A   1      43.139  26.758  26.978  1.00  0.00     0.173 A 
ATOM     68  F   UNL A   1      40.653  24.623  28.559  1.00  0.00    -0.203 F 
ATOM     69  C   UNL A   1      41.913  24.297  26.598  1.00  0.00     0.198 A 
ATOM     70  C   UNL A   1      43.463  25.980  25.871  1.00  0.00     0.198 A 
ATOM     71  F   UNL A   1      43.754  27.940  27.138  1.00  0.00    -0.203 F 
ATOM     72  F   UNL A   1      41.345  23.094  26.435  1.00  0.00    -0.200 F 
ATOM     73  C   UNL A   1      42.856  24.746  25.686  1.00  0.00     0.200 A 
ATOM     74  F   UNL A   1      44.364  26.420  24.983  1.00  0.00    -0.200 F 
ATOM     75  F   UNL A   1      43.187  23.986  24.633  1.00  0.00    -0.200 F 
ENDBRANCH  51  65
BRANCH  52  76
ATOM     76  C   UNL A   1      39.255  31.893  35.622  1.00  0.00     0.064 A 
ATOM     77  C   UNL A   1      39.779  33.180  35.807  1.00  0.00     0.173 A 
ATOM     78  C   UNL A   1      38.328  31.423  36.562  1.00  0.00     0.173 A 
ATOM     79  F   UNL A   1      40.688  33.661  34.946  1.00  0.00    -0.203 F 
ATOM     80  C   UNL A   1      39.401  33.961  36.896  1.00  0.00     0.198 A 
ATOM     81  C   UNL A   1      37.932  32.214  37.638  1.00  0.00     0.198 A 
ATOM     82  F   UNL A   1      37.799  30.198  36.429  1.00  0.00    -0.203 F 
ATOM     83  F   UNL A   1      39.945  35.173  37.069  1.00  0.00    -0.200 F 
ATOM     84  C   UNL A   1      38.473  33.481  37.808  1.00  0.00     0.200 A 
ATOM     85  F   UNL A   1      37.028  31.751  38.511  1.00  0.00    -0.200 F 
ATOM     86  F   UNL A   1      38.106  34.234  38.853  1.00  0.00    -0.200 F 
ENDBRANCH  52  76
BRANCH  64  87
ATOM     87  C   UNL A   1      44.535  27.466  34.624  1.00  0.00     0.064 A 
ATOM     88  C   UNL A   1      45.729  28.187  34.762  1.00  0.00     0.173 A 
ATOM     89  C   UNL A   1      44.379  26.298  35.386  1.00  0.00     0.173 A 
ATOM     90  F   UNL A   1      45.933  29.300  34.041  1.00  0.00    -0.203 F 
ATOM     91  C   UNL A   1      46.734  27.749  35.620  1.00  0.00     0.198 A 
ATOM     92  C   UNL A   1      45.376  25.876  36.262  1.00  0.00     0.198 A 
ATOM     93  F   UNL A   1      43.255  25.573  35.292  1.00  0.00    -0.203 F 
ATOM     94  F   UNL A   1      47.883  28.434  35.709  1.00  0.00    -0.200 F 
ATOM     95  C   UNL A   1      46.553  26.599  36.376  1.00  0.00     0.200 A 
ATOM     96  F   UNL A   1      45.195  24.771  36.998  1.00  0.00    -0.200 F 
ATOM     97  F   UNL A   1      47.518  26.185  37.208  1.00  0.00    -0.200 F 
ENDBRANCH  64  87
ENDBRANCH  38  39
ENDBRANCH  30  33
ENDBRANCH  28  29
ENDBRANCH  27  28
ENDBRANCH  26  27
ENDBRANCH   1  26
TORSDOF 16
ENDMDL
MODEL 2
REMARK VINA RESULT:     -12.3      0.530      7.359
REMARK SMILES C=CCOc1cccc(NC(=O)c2ccccc2C(=O)NCCCCNC(=O)c2ccc(-c3c4nc(c(-c5c(F)c(F)c(F)c(F)c5F)c5ccc([nH]5)c(-c5c(F)c(F)c(F)c(F)c5F)c5nc(c(-c6c(F)c(F)c(F)c(F)c6F)c6ccc3[nH]6)C=C5)C=C4)cc2)c1
REMARK SMILES IDX 22 1 21 2 19 3 20 4 18 6 13 7 14 8 15 9 17 10 16 11 11 12
REMARK SMILES IDX 10 13 12 15 9 16 5 17 6 18 92 19 7 20 8 21 4 22 3 23 2 24
REMARK SMILES IDX 1 25 23 26 24 27 25 28 26 29 27 30 28 32 29 33 30 34 91 35
REMARK SMILES IDX 31 36 90 37 32 38 33 39 34 40 84 41 35 42 89 43 83 44 85 45
REMARK SMILES IDX 36 46 88 47 82 48 81 49 37 51 69 52 49 53 68 54 50 55 53 56
REMARK SMILES IDX 67 57 86 58 51 59 52 60 66 62 87 63 54 64 38 65 39 66 47 67
REMARK SMILES IDX 40 68 41 69 45 70 48 71 42 72 43 73 46 74 44 75 70 76 71 77
REMARK SMILES IDX 79 78 72 79 73 80 77 81 80 82 74 83 75 84 78 85 76 86 55 87
REMARK SMILES IDX 56 88 64 89 57 90 58 91 62 92 65 93 59 94 60 95 63 96 61 97
REMARK H PARENT 21 5 10 14 26 31 85 50 53 61
REMARK Flexibility Score: inf
ROOT
ATOM      1  C   UNL A   1      32.157  26.868  26.302  1.00  0.00     0.116 C 
ENDROOT
BRANCH   1   2
ATOM      2  N   UNL A   1      31.501  25.604  26.562  1.00  0.00    -0.352 N 
ATOM      3  C   UNL A   1      31.852  24.323  26.215  1.00  0.00     0.252 C 
ATOM      4  O   UNL A   1      31.079  23.415  26.527  1.00  0.00    -0.269 OA
ATOM      5  H   UNL A   1      30.662  25.674  27.074  1.00  0.00     0.163 HD
BRANCH   3   6
ATOM      6  C   UNL A   1      33.063  23.979  25.422  1.00  0.00     0.052 A 
ATOM      7  C   UNL A   1      33.117  23.685  24.053  1.00  0.00     0.052 A 
ATOM      8  C   UNL A   1      34.346  23.346  23.453  1.00  0.00     0.014 A 
ATOM      9  C   UNL A   1      35.533  23.393  24.179  1.00  0.00     0.001 A 
ATOM     10  C   UNL A   1      34.280  24.058  26.131  1.00  0.00     0.014 A 
ATOM     11  C   UNL A   1      35.504  23.774  25.513  1.00  0.00     0.001 A 
BRANCH   7  12
ATOM     12  C   UNL A   1      31.973  23.683  23.130  1.00  0.00     0.256 C 
ATOM     13  N   UNL A   1      31.422  24.820  22.598  1.00  0.00    -0.322 N 
ATOM     14  H   UNL A   1      30.587  24.657  22.103  1.00  0.00     0.170 HD
ATOM     15  O   UNL A   1      31.455  22.594  22.871  1.00  0.00    -0.269 OA
BRANCH  13  16
ATOM     16  C   UNL A   1      31.805  26.168  22.616  1.00  0.00     0.045 A 
ATOM     17  C   UNL A   1      31.140  28.427  23.166  1.00  0.00     0.121 A 
ATOM     18  C   UNL A   1      32.406  28.900  22.838  1.00  0.00     0.046 A 
ATOM     19  C   UNL A   1      30.826  27.079  23.027  1.00  0.00     0.072 A 
ATOM     20  C   UNL A   1      33.368  28.004  22.375  1.00  0.00     0.006 A 
ATOM     21  C   UNL A   1      33.065  26.643  22.253  1.00  0.00     0.026 A 
BRANCH  17  22
ATOM     22  O   UNL A   1      30.150  29.287  23.551  1.00  0.00    -0.489 OA
BRANCH  22  23
ATOM     23  C   UNL A   1      29.643  30.050  22.449  1.00  0.00     0.257 C 
BRANCH  23  24
ATOM     24  C   UNL A   1      28.889  31.239  22.976  1.00  0.00     0.006 C 
ATOM     25  C   UNL A   1      27.657  31.174  23.497  1.00  0.00     0.007 C 
ENDBRANCH  23  24
ENDBRANCH  22  23
ENDBRANCH  17  22
ENDBRANCH  13  16
ENDBRANCH   7  12
ENDBRANCH   3   6
ENDBRANCH   1   2
BRANCH   1  26
ATOM     26  C   UNL A   1      31.921  27.923  27.379  1.00  0.00     0.023 C 
BRANCH  26  27
ATOM     27  C   UNL A   1      31.485  29.306  26.887  1.00  0.00     0.023 C 
BRANCH  27  28
ATOM     28  C   UNL A   1      32.579  30.233  26.358  1.00  0.00     0.116 C 
BRANCH  28  29
ATOM     29  N   UNL A   1      32.532  31.589  26.888  1.00  0.00    -0.352 N 
ATOM     30  C   UNL A   1      33.482  32.289  27.600  1.00  0.00     0.251 C 
ATOM     31  H   UNL A   1      31.697  32.079  26.710  1.00  0.00     0.163 HD
ATOM     32  O   UNL A   1      33.252  33.428  27.997  1.00  0.00    -0.269 OA
BRANCH  30  33
ATOM     33  C   UNL A   1      34.767  31.644  27.945  1.00  0.00     0.039 A 
ATOM     34  C   UNL A   1      35.892  32.451  28.130  1.00  0.00     0.014 A 
ATOM     35  C   UNL A   1      34.850  30.267  28.151  1.00  0.00     0.014 A 
ATOM     36  C   UNL A   1      37.063  31.896  28.656  1.00  0.00     0.010 A 
ATOM     37  C   UNL A   1      35.995  29.728  28.739  1.00  0.00     0.010 A 
ATOM     38  C   UNL A   1      37.098  30.545  29.038  1.00  0.00    -0.014 A 
BRANCH  38  39
ATOM     39  C   UNL A   1      38.232  29.998  29.835  1.00  0.00     0.031 A 
ATOM     40  C   UNL A   1      38.477  30.449  31.246  1.00  0.00     0.074 A 
ATOM     41  C   UNL A   1      39.108  29.158  29.245  1.00  0.00     0.049 A 
ATOM     42  N   UNL A   1      39.462  30.139  32.054  1.00  0.00    -0.248 NA
ATOM     43  C   UNL A   1      37.505  31.390  31.817  1.00  0.00     0.031 C 
ATOM     44  C   UNL A   1      39.024  28.680  27.863  1.00  0.00     0.029 A 
ATOM     45  N   UNL A   1      40.248  28.563  29.730  1.00  0.00    -0.354 N 
ATOM     46  C   UNL A   1      39.239  30.863  33.217  1.00  0.00     0.074 A 
ATOM     47  C   UNL A   1      38.050  31.660  32.994  1.00  0.00     0.031 C 
ATOM     48  C   UNL A   1      40.043  27.840  27.624  1.00  0.00     0.029 A 
ATOM     49  C   UNL A   1      40.881  27.754  28.816  1.00  0.00     0.049 A 
ATOM     50  H   UNL A   1      40.580  28.703  30.646  1.00  0.00     0.167 HD
ATOM     51  C   UNL A   1      39.949  30.850  34.371  1.00  0.00     0.037 A 
ATOM     52  C   UNL A   1      42.012  27.030  28.921  1.00  0.00     0.037 A 
ATOM     53  C   UNL A   1      41.109  30.031  34.610  1.00  0.00     0.049 A 
ATOM     54  C   UNL A   1      42.793  27.052  30.205  1.00  0.00     0.074 A 
ATOM     55  C   UNL A   1      41.828  29.873  35.782  1.00  0.00     0.029 A 
ATOM     56  N   UNL A   1      41.727  29.238  33.654  1.00  0.00    -0.354 N 
ATOM     57  N   UNL A   1      42.521  27.672  31.327  1.00  0.00    -0.248 NA
ATOM     58  C   UNL A   1      44.042  26.279  30.234  1.00  0.00     0.031 C 
ATOM     59  C   UNL A   1      42.909  29.025  35.525  1.00  0.00     0.029 A 
ATOM     60  C   UNL A   1      42.840  28.619  34.202  1.00  0.00     0.049 A 
ATOM     61  H   UNL A   1      41.421  29.130  32.726  1.00  0.00     0.167 HD
ATOM     62  C   UNL A   1      43.549  27.345  32.200  1.00  0.00     0.074 A 
ATOM     63  C   UNL A   1      44.446  26.463  31.483  1.00  0.00     0.031 C 
ATOM     64  C   UNL A   1      43.728  27.741  33.484  1.00  0.00     0.037 A 
BRANCH  51  65
ATOM     65  C   UNL A   1      39.487  31.753  35.476  1.00  0.00     0.064 A 
ATOM     66  C   UNL A   1      39.978  33.059  35.614  1.00  0.00     0.173 A 
ATOM     67  C   UNL A   1      38.516  31.316  36.391  1.00  0.00     0.173 A 
ATOM     68  F   UNL A   1      40.912  33.523  34.769  1.00  0.00    -0.203 F 
ATOM     69  C   UNL A   1      39.539  33.885  36.647  1.00  0.00     0.198 A 
ATOM     70  C   UNL A   1      38.059  32.153  37.405  1.00  0.00     0.198 A 
ATOM     71  F   UNL A   1      38.007  30.078  36.298  1.00  0.00    -0.203 F 
ATOM     72  F   UNL A   1      40.060  35.111  36.789  1.00  0.00    -0.200 F 
ATOM     73  C   UNL A   1      38.578  33.433  37.538  1.00  0.00     0.200 A 
ATOM     74  F   UNL A   1      37.120  31.721  38.258  1.00  0.00    -0.200 F 
ATOM     75  F   UNL A   1      38.155  34.229  38.531  1.00  0.00    -0.200 F 
ENDBRANCH  51  65
BRANCH  52  76
ATOM     76  C   UNL A   1      42.464  26.194  27.778  1.00  0.00     0.064 A 
ATOM     77  C   UNL A   1      41.929  24.914  27.577  1.00  0.00     0.173 A 
ATOM     78  C   UNL A   1      43.435  26.647  26.874  1.00  0.00     0.173 A 
ATOM     79  F   UNL A   1      41.017  24.430  28.433  1.00  0.00    -0.203 F 
ATOM     80  C   UNL A   1      42.356  24.113  26.522  1.00  0.00     0.198 A 
ATOM     81  C   UNL A   1      43.843  25.855  25.803  1.00  0.00     0.198 A 
ATOM     82  F   UNL A   1      43.977  27.865  27.024  1.00  0.00    -0.203 F 
ATOM     83  F   UNL A   1      41.856  22.879  26.374  1.00  0.00    -0.200 F 
ATOM     84  C   UNL A   1      43.309  24.586  25.631  1.00  0.00     0.200 A 
ATOM     85  F   UNL A   1      44.756  26.319  24.939  1.00  0.00    -0.200 F 
ATOM     86  F   UNL A   1      43.717  23.817  24.612  1.00  0.00    -0.200 F 
ENDBRANCH  52  76
BRANCH  64  87
ATOM     87  C   UNL A   1      44.929  27.209  34.210  1.00  0.00     0.064 A 
ATOM     88  C   UNL A   1      44.894  25.979  34.880  1.00  0.00     0.173 A 
ATOM     89  C   UNL A   1      46.142  27.915  34.192  1.00  0.00     0.173 A 
ATOM     90  F   UNL A   1      43.753  25.276  34.942  1.00  0.00    -0.203 F 
ATOM     91  C   UNL A   1      46.026  25.480  35.519  1.00  0.00     0.198 A 
ATOM     92  C   UNL A   1      47.279  27.402  34.809  1.00  0.00     0.198 A 
ATOM     93  F   UNL A   1      46.228  29.096  33.562  1.00  0.00    -0.203 F 
ATOM     94  F   UNL A   1      45.961  24.318  36.185  1.00  0.00    -0.200 F 
ATOM     95  C   UNL A   1      47.219  26.187  35.475  1.00  0.00     0.200 A 
ATOM     96  F   UNL A   1      48.432  28.080  34.757  1.00  0.00    -0.200 F 
ATOM     97  F   UNL A   1      48.310  25.700  36.081  1.00  0.00    -0.200 F 
ENDBRANCH  64  87
ENDBRANCH  38  39
ENDBRANCH  30  33
ENDBRANCH  28  29
ENDBRANCH  27  28
ENDBRANCH  26  27
ENDBRANCH   1  26
TORSDOF 16
ENDMDL
MODEL 3
REMARK VINA RESULT:     -12.3      1.419      7.597
REMARK SMILES C=CCOc1cccc(NC(=O)c2ccccc2C(=O)NCCCCNC(=O)c2ccc(-c3c4nc(c(-c5c(F)c(F)c(F)c(F)c5F)c5ccc([nH]5)c(-c5c(F)c(F)c(F)c(F)c5F)c5nc(c(-c6c(F)c(F)c(F)c(F)c6F)c6ccc3[nH]6)C=C5)C=C4)cc2)c1
REMARK SMILES IDX 22 1 21 2 19 3 20 4 18 6 13 7 14 8 15 9 17 10 16 11 11 12
REMARK SMILES IDX 10 13 12 15 9 16 5 17 6 18 92 19 7 20 8 21 4 22 3 23 2 24
REMARK SMILES IDX 1 25 23 26 24 27 25 28 26 29 27 30 28 32 29 33 30 34 91 35
REMARK SMILES IDX 31 36 90 37 32 38 33 39 34 40 84 41 35 42 89 43 83 44 85 45
REMARK SMILES IDX 36 46 88 47 82 48 81 49 37 51 69 52 49 53 68 54 50 55 53 56
REMARK SMILES IDX 67 57 86 58 51 59 52 60 66 62 87 63 54 64 38 65 39 66 47 67
REMARK SMILES IDX 40 68 41 69 45 70 48 71 42 72 43 73 46 74 44 75 70 76 71 77
REMARK SMILES IDX 79 78 72 79 73 80 77 81 80 82 74 83 75 84 78 85 76 86 55 87
REMARK SMILES IDX 56 88 64 89 57 90 58 91 62 92 65 93 59 94 60 95 63 96 61 97
REMARK H PARENT 21 5 10 14 26 31 85 50 53 61
REMARK Flexibility Score: inf
ROOT
ATOM      1  C   UNL A   1      32.023  29.701  25.550  1.00  0.00     0.116 C 
ENDROOT
BRANCH   1   2
ATOM      2  N   UNL A   1      33.059  29.688  24.538  1.00  0.00    -0.352 N 
ATOM      3  C   UNL A   1      33.741  28.643  23.966  1.00  0.00     0.252 C 
ATOM      4  O   UNL A   1      34.622  28.915  23.149  1.00  0.00    -0.269 OA
ATOM      5  H   UNL A   1      33.320  30.577  24.205  1.00  0.00     0.163 HD
BRANCH   3   6
ATOM      6  C   UNL A   1      33.533  27.216  24.331  1.00  0.00     0.052 A 
ATOM      7  C   UNL A   1      33.088  26.188  23.489  1.00  0.00     0.052 A 
ATOM      8  C   UNL A   1      32.912  24.886  23.998  1.00  0.00     0.014 A 
ATOM      9  C   UNL A   1      33.268  24.576  25.308  1.00  0.00     0.001 A 
ATOM     10  C   UNL A   1      33.924  26.873  25.643  1.00  0.00     0.014 A 
ATOM     11  C   UNL A   1      33.799  25.565  26.124  1.00  0.00     0.001 A 
BRANCH   7  12
ATOM     12  C   UNL A   1      32.758  26.329  22.063  1.00  0.00     0.256 C 
ATOM     13  N   UNL A   1      31.609  26.919  21.604  1.00  0.00    -0.322 N 
ATOM     14  H   UNL A   1      31.479  26.820  20.633  1.00  0.00     0.170 HD
ATOM     15  O   UNL A   1      33.541  25.836  21.248  1.00  0.00    -0.269 OA
BRANCH  13  16
ATOM     16  C   UNL A   1      30.581  27.634  22.233  1.00  0.00     0.045 A 
ATOM     17  C   UNL A   1      29.523  29.790  22.505  1.00  0.00     0.121 A 
ATOM     18  C   UNL A   1      28.534  29.226  23.304  1.00  0.00     0.046 A 
ATOM     19  C   UNL A   1      30.558  29.012  21.999  1.00  0.00     0.072 A 
ATOM     20  C   UNL A   1      28.584  27.862  23.586  1.00  0.00     0.006 A 
ATOM     21  C   UNL A   1      29.611  27.070  23.062  1.00  0.00     0.026 A 
BRANCH  17  22
ATOM     22  O   UNL A   1      29.547  31.136  22.270  1.00  0.00    -0.489 OA
BRANCH  22  23
ATOM     23  C   UNL A   1      28.284  31.753  22.551  1.00  0.00     0.257 C 
BRANCH  23  24
ATOM     24  C   UNL A   1      27.904  32.645  21.403  1.00  0.00     0.006 C 
ATOM     25  C   UNL A   1      27.995  32.289  20.115  1.00  0.00     0.007 C 
ENDBRANCH  23  24
ENDBRANCH  22  23
ENDBRANCH  17  22
ENDBRANCH  13  16
ENDBRANCH   7  12
ENDBRANCH   3   6
ENDBRANCH   1   2
BRANCH   1  26
ATOM     26  C   UNL A   1      31.028  30.849  25.403  1.00  0.00     0.023 C 
BRANCH  26  27
ATOM     27  C   UNL A   1      31.108  31.952  26.462  1.00  0.00     0.023 C 
BRANCH  27  28
ATOM     28  C   UNL A   1      32.441  32.124  27.190  1.00  0.00     0.116 C 
BRANCH  28  29
ATOM     29  N   UNL A   1      32.791  33.503  27.499  1.00  0.00    -0.352 N 
ATOM     30  C   UNL A   1      33.963  34.023  28.002  1.00  0.00     0.251 C 
ATOM     31  H   UNL A   1      32.082  34.164  27.322  1.00  0.00     0.163 HD
ATOM     32  O   UNL A   1      34.067  35.224  28.232  1.00  0.00    -0.269 OA
BRANCH  30  33
ATOM     33  C   UNL A   1      35.089  33.120  28.329  1.00  0.00     0.039 A 
ATOM     34  C   UNL A   1      36.384  33.642  28.339  1.00  0.00     0.014 A 
ATOM     35  C   UNL A   1      34.865  31.790  28.688  1.00  0.00     0.014 A 
ATOM     36  C   UNL A   1      37.436  32.871  28.842  1.00  0.00     0.010 A 
ATOM     37  C   UNL A   1      35.902  31.047  29.253  1.00  0.00     0.010 A 
ATOM     38  C   UNL A   1      37.189  31.595  29.377  1.00  0.00    -0.014 A 
BRANCH  38  39
ATOM     39  C   UNL A   1      38.235  30.868  30.149  1.00  0.00     0.031 A 
ATOM     40  C   UNL A   1      38.478  31.171  31.600  1.00  0.00     0.074 A 
ATOM     41  C   UNL A   1      39.038  29.993  29.510  1.00  0.00     0.049 A 
ATOM     42  N   UNL A   1      39.399  30.693  32.401  1.00  0.00    -0.248 NA
ATOM     43  C   UNL A   1      37.590  32.158  32.227  1.00  0.00     0.031 C 
ATOM     44  C   UNL A   1      38.952  29.643  28.090  1.00  0.00     0.029 A 
ATOM     45  N   UNL A   1      40.095  29.242  29.969  1.00  0.00    -0.354 N 
ATOM     46  C   UNL A   1      39.214  31.336  33.617  1.00  0.00     0.074 A 
ATOM     47  C   UNL A   1      38.122  32.269  33.436  1.00  0.00     0.031 C 
ATOM     48  C   UNL A   1      39.886  28.724  27.804  1.00  0.00     0.029 A 
ATOM     49  C   UNL A   1      40.671  28.451  29.003  1.00  0.00     0.049 A 
ATOM     50  H   UNL A   1      40.409  29.269  30.901  1.00  0.00     0.167 HD
ATOM     51  C   UNL A   1      39.881  31.152  34.782  1.00  0.00     0.037 A 
ATOM     52  C   UNL A   1      41.718  27.606  29.072  1.00  0.00     0.037 A 
ATOM     53  C   UNL A   1      40.942  30.198  34.976  1.00  0.00     0.049 A 
ATOM     54  C   UNL A   1      42.454  27.438  30.372  1.00  0.00     0.074 A 
ATOM     55  C   UNL A   1      41.602  29.869  36.147  1.00  0.00     0.029 A 
ATOM     56  N   UNL A   1      41.506  29.427  33.971  1.00  0.00    -0.354 N 
ATOM     57  N   UNL A   1      42.212  27.987  31.536  1.00  0.00    -0.248 NA
ATOM     58  C   UNL A   1      43.616  26.538  30.363  1.00  0.00     0.031 C 
ATOM     59  C   UNL A   1      42.598  28.935  35.844  1.00  0.00     0.029 A 
ATOM     60  C   UNL A   1      42.532  28.651  34.489  1.00  0.00     0.049 A 
ATOM     61  H   UNL A   1      41.222  29.431  33.029  1.00  0.00     0.167 HD
ATOM     62  C   UNL A   1      43.171  27.482  32.402  1.00  0.00     0.074 A 
ATOM     63  C   UNL A   1      43.996  26.574  31.633  1.00  0.00     0.031 C 
ATOM     64  C   UNL A   1      43.348  27.749  33.719  1.00  0.00     0.037 A 
BRANCH  51  65
ATOM     65  C   UNL A   1      39.478  32.003  35.950  1.00  0.00     0.064 A 
ATOM     66  C   UNL A   1      40.109  33.225  36.224  1.00  0.00     0.173 A 
ATOM     67  C   UNL A   1      38.425  31.605  36.789  1.00  0.00     0.173 A 
ATOM     68  F   UNL A   1      41.126  33.647  35.456  1.00  0.00    -0.203 F 
ATOM     69  C   UNL A   1      39.724  34.003  37.313  1.00  0.00     0.198 A 
ATOM     70  C   UNL A   1      38.024  32.398  37.860  1.00  0.00     0.198 A 
ATOM     71  F   UNL A   1      37.782  30.449  36.566  1.00  0.00    -0.203 F 
ATOM     72  F   UNL A   1      40.376  35.142  37.584  1.00  0.00    -0.200 F 
ATOM     73  C   UNL A   1      38.679  33.591  38.127  1.00  0.00     0.200 A 
ATOM     74  F   UNL A   1      37.006  32.007  38.638  1.00  0.00    -0.200 F 
ATOM     75  F   UNL A   1      38.309  34.342  39.174  1.00  0.00    -0.200 F 
ENDBRANCH  51  65
BRANCH  52  76
ATOM     76  C   UNL A   1      42.119  26.825  27.873  1.00  0.00     0.064 A 
ATOM     77  C   UNL A   1      41.545  25.572  27.614  1.00  0.00     0.173 A 
ATOM     78  C   UNL A   1      43.078  27.305  26.970  1.00  0.00     0.173 A 
ATOM     79  F   UNL A   1      40.642  25.064  28.464  1.00  0.00    -0.203 F 
ATOM     80  C   UNL A   1      41.924  24.823  26.503  1.00  0.00     0.198 A 
ATOM     81  C   UNL A   1      43.439  26.565  25.846  1.00  0.00     0.198 A 
ATOM     82  F   UNL A   1      43.656  28.498  27.174  1.00  0.00    -0.203 F 
ATOM     83  F   UNL A   1      41.387  23.613  26.300  1.00  0.00    -0.200 F 
ATOM     84  C   UNL A   1      42.867  25.322  25.616  1.00  0.00     0.200 A 
ATOM     85  F   UNL A   1      44.342  27.054  24.986  1.00  0.00    -0.200 F 
ATOM     86  F   UNL A   1      43.229  24.603  24.545  1.00  0.00    -0.200 F 
ENDBRANCH  52  76
BRANCH  64  87
ATOM     87  C   UNL A   1      44.463  27.034  34.424  1.00  0.00     0.064 A 
ATOM     88  C   UNL A   1      44.293  25.745  34.947  1.00  0.00     0.173 A 
ATOM     89  C   UNL A   1      45.730  27.627  34.535  1.00  0.00     0.173 A 
ATOM     90  F   UNL A   1      43.095  25.143  34.883  1.00  0.00    -0.203 F 
ATOM     91  C   UNL A   1      45.347  25.079  35.567  1.00  0.00     0.198 A 
ATOM     92  C   UNL A   1      46.789  26.949  35.133  1.00  0.00     0.198 A 
ATOM     93  F   UNL A   1      45.946  28.858  34.049  1.00  0.00    -0.203 F 
ATOM     94  F   UNL A   1      45.152  23.861  36.092  1.00  0.00    -0.200 F 
ATOM     95  C   UNL A   1      46.596  25.678  35.651  1.00  0.00     0.200 A 
ATOM     96  F   UNL A   1      47.997  27.524  35.204  1.00  0.00    -0.200 F 
ATOM     97  F   UNL A   1      47.612  25.031  36.239  1.00  0.00    -0.200 F 
ENDBRANCH  64  87
ENDBRANCH  38  39
ENDBRANCH  30  33
ENDBRANCH  28  29
ENDBRANCH  27  28
ENDBRANCH  26  27
ENDBRANCH   1  26
TORSDOF 16
ENDMDL
