MODEL 1
REMARK VINA RESULT:     -11.1      0.000      0.000
REMARK SMILES O=C(CCc1ccc(S(=O)(=O)NC2COC2)cc1)NCCCCNC(=O)c1ccc(-c2c3nc(c(-c4c(F)c(F)c(F)c(F)c4F)c4ccc([nH]4)c(-c4c(F)c(F)c(F)c(F)c4F)c4nc(c(-c5c(F)c(F)c(F)c(F)c5F)c5ccc2[nH]5)C=C4)C=C3)cc1
REMARK SMILES IDX 20 1 19 2 1 3 2 4 3 6 4 7 5 8 6 9 18 10 7 11 17 12 8 13 9 14
REMARK SMILES IDX 10 15 11 16 12 17 13 19 14 20 16 21 15 22 21 23 22 24 23 25
REMARK SMILES IDX 24 26 25 27 26 29 27 30 28 31 89 32 29 33 88 34 30 35 31 36
REMARK SMILES IDX 32 37 82 38 33 39 87 40 81 41 83 42 34 43 86 44 80 45 79 46
REMARK SMILES IDX 35 48 67 49 47 50 66 51 48 52 51 53 65 54 84 55 49 56 50 57
REMARK SMILES IDX 64 59 85 60 52 61 36 62 37 63 45 64 38 65 39 66 43 67 46 68
REMARK SMILES IDX 40 69 41 70 44 71 42 72 68 73 69 74 77 75 70 76 71 77 75 78
REMARK SMILES IDX 78 79 72 80 73 81 76 82 74 83 53 84 54 85 62 86 55 87 56 88
REMARK SMILES IDX 60 89 63 90 57 91 58 92 61 93 59 94
REMARK H PARENT 19 5 12 18 24 28 83 47 51 58
REMARK Flexibility Score: inf
ROOT
ATOM      1  C   UNL A   1      34.572  32.418  29.209  1.00  0.00     0.116 C 
ENDROOT
BRANCH   1   2
ATOM      2  N   UNL A   1      34.282  31.210  28.459  1.00  0.00    -0.356 N 
ATOM      3  O   UNL A   1      36.427  31.005  27.674  1.00  0.00    -0.275 OA
ATOM      4  C   UNL A   1      35.289  30.555  27.779  1.00  0.00     0.220 C 
ATOM      5  H   UNL A   1      33.363  30.857  28.434  1.00  0.00     0.163 HD
BRANCH   4   6
ATOM      6  C   UNL A   1      34.920  29.186  27.244  1.00  0.00     0.105 C 
BRANCH   6   7
ATOM      7  C   UNL A   1      33.630  29.264  26.415  1.00  0.00     0.045 C 
BRANCH   7   8
ATOM      8  C   UNL A   1      33.467  28.073  25.493  1.00  0.00    -0.047 A 
ATOM      9  C   UNL A   1      33.207  26.803  26.026  1.00  0.00     0.005 A 
ATOM     10  C   UNL A   1      33.623  28.211  24.105  1.00  0.00     0.005 A 
ATOM     11  C   UNL A   1      33.211  25.678  25.203  1.00  0.00     0.022 A 
ATOM     12  C   UNL A   1      33.642  27.090  23.278  1.00  0.00     0.022 A 
ATOM     13  C   UNL A   1      33.479  25.825  23.841  1.00  0.00     0.082 A 
BRANCH  13  14
ATOM     14  S   UNL A   1      33.744  24.380  22.858  1.00  0.00     0.240 S 
ATOM     15  O   UNL A   1      33.279  24.633  21.514  1.00  0.00    -0.207 OA
ATOM     16  O   UNL A   1      35.069  23.881  23.146  1.00  0.00    -0.207 OA
BRANCH  14  17
ATOM     17  N   UNL A   1      32.669  23.265  23.530  1.00  0.00    -0.203 NA
ATOM     18  H   UNL A   1      32.095  22.943  22.751  1.00  0.00     0.141 HD
BRANCH  17  19
ATOM     19  C   UNL A   1      33.047  22.028  24.280  1.00  0.00     0.121 C 
ATOM     20  C   UNL A   1      32.242  21.643  25.527  1.00  0.00     0.182 C 
ATOM     21  C   UNL A   1      32.528  20.692  23.724  1.00  0.00     0.182 C 
ATOM     22  O   UNL A   1      31.969  20.321  25.001  1.00  0.00    -0.378 OA
ENDBRANCH  17  19
ENDBRANCH  14  17
ENDBRANCH  13  14
ENDBRANCH   7   8
ENDBRANCH   6   7
ENDBRANCH   4   6
ENDBRANCH   1   2
BRANCH   1  23
ATOM     23  C   UNL A   1      34.440  33.709  28.402  1.00  0.00     0.023 C 
BRANCH  23  24
ATOM     24  C   UNL A   1      33.148  34.508  28.619  1.00  0.00     0.023 C 
BRANCH  24  25
ATOM     25  C   UNL A   1      33.302  35.901  29.238  1.00  0.00     0.116 C 
BRANCH  25  26
ATOM     26  N   UNL A   1      32.462  36.102  30.407  1.00  0.00    -0.352 N 
ATOM     27  C   UNL A   1      32.615  35.718  31.720  1.00  0.00     0.251 C 
ATOM     28  H   UNL A   1      31.634  36.604  30.228  1.00  0.00     0.163 HD
ATOM     29  O   UNL A   1      31.686  35.907  32.503  1.00  0.00    -0.269 OA
BRANCH  27  30
ATOM     30  C   UNL A   1      33.843  35.046  32.226  1.00  0.00     0.039 A 
ATOM     31  C   UNL A   1      33.743  33.718  32.661  1.00  0.00     0.014 A 
ATOM     32  C   UNL A   1      35.065  35.703  32.366  1.00  0.00     0.014 A 
ATOM     33  C   UNL A   1      34.871  33.029  33.134  1.00  0.00     0.010 A 
ATOM     34  C   UNL A   1      36.199  34.999  32.806  1.00  0.00     0.010 A 
ATOM     35  C   UNL A   1      36.136  33.638  33.156  1.00  0.00    -0.014 A 
BRANCH  35  36
ATOM     36  C   UNL A   1      37.377  32.858  33.493  1.00  0.00     0.031 A 
ATOM     37  C   UNL A   1      38.166  33.130  34.753  1.00  0.00     0.074 A 
ATOM     38  C   UNL A   1      37.863  31.933  32.633  1.00  0.00     0.049 A 
ATOM     39  N   UNL A   1      39.289  32.586  35.164  1.00  0.00    -0.248 NA
ATOM     40  C   UNL A   1      37.640  34.161  35.658  1.00  0.00     0.031 C 
ATOM     41  C   UNL A   1      37.270  31.568  31.348  1.00  0.00     0.029 A 
ATOM     42  N   UNL A   1      38.986  31.135  32.706  1.00  0.00    -0.354 N 
ATOM     43  C   UNL A   1      39.608  33.222  36.358  1.00  0.00     0.074 A 
ATOM     44  C   UNL A   1      38.595  34.233  36.574  1.00  0.00     0.031 C 
ATOM     45  C   UNL A   1      38.022  30.625  30.758  1.00  0.00     0.029 A 
ATOM     46  C   UNL A   1      39.167  30.322  31.610  1.00  0.00     0.049 A 
ATOM     47  H   UNL A   1      39.603  31.146  33.473  1.00  0.00     0.167 HD
ATOM     48  C   UNL A   1      40.626  32.972  37.221  1.00  0.00     0.037 A 
ATOM     49  C   UNL A   1      40.132  29.429  31.312  1.00  0.00     0.037 A 
ATOM     50  C   UNL A   1      41.624  31.946  37.056  1.00  0.00     0.049 A 
ATOM     51  C   UNL A   1      41.250  29.164  32.284  1.00  0.00     0.074 A 
ATOM     52  C   UNL A   1      42.633  31.578  37.931  1.00  0.00     0.029 A 
ATOM     53  N   UNL A   1      41.746  31.128  35.944  1.00  0.00    -0.354 N 
ATOM     54  N   UNL A   1      41.473  29.705  33.455  1.00  0.00    -0.248 NA
ATOM     55  C   UNL A   1      42.241  28.146  31.899  1.00  0.00     0.031 C 
ATOM     56  C   UNL A   1      43.390  30.564  37.333  1.00  0.00     0.029 A 
ATOM     57  C   UNL A   1      42.824  30.269  36.105  1.00  0.00     0.049 A 
ATOM     58  H   UNL A   1      41.156  31.153  35.157  1.00  0.00     0.167 HD
ATOM     59  C   UNL A   1      42.602  29.072  33.960  1.00  0.00     0.074 A 
ATOM     60  C   UNL A   1      43.014  28.097  32.974  1.00  0.00     0.031 C 
ATOM     61  C   UNL A   1      43.232  29.282  35.140  1.00  0.00     0.037 A 
BRANCH  48  62
ATOM     62  C   UNL A   1      40.698  33.815  38.462  1.00  0.00     0.064 A 
ATOM     63  C   UNL A   1      39.968  33.483  39.614  1.00  0.00     0.173 A 
ATOM     64  C   UNL A   1      41.544  34.933  38.520  1.00  0.00     0.173 A 
ATOM     65  F   UNL A   1      39.144  32.424  39.609  1.00  0.00    -0.203 F 
ATOM     66  C   UNL A   1      40.054  34.261  40.766  1.00  0.00     0.198 A 
ATOM     67  C   UNL A   1      41.651  35.690  39.685  1.00  0.00     0.198 A 
ATOM     68  F   UNL A   1      42.279  35.283  37.454  1.00  0.00    -0.203 F 
ATOM     69  F   UNL A   1      39.309  33.952  41.836  1.00  0.00    -0.200 F 
ATOM     70  C   UNL A   1      40.898  35.359  40.802  1.00  0.00     0.200 A 
ATOM     71  F   UNL A   1      42.482  36.741  39.727  1.00  0.00    -0.200 F 
ATOM     72  F   UNL A   1      40.986  36.101  41.915  1.00  0.00    -0.200 F 
ENDBRANCH  48  62
BRANCH  49  73
ATOM     73  C   UNL A   1      40.074  28.675  30.031  1.00  0.00     0.064 A 
ATOM     74  C   UNL A   1      39.457  27.417  29.965  1.00  0.00     0.173 A 
ATOM     75  C   UNL A   1      40.660  29.177  28.861  1.00  0.00     0.173 A 
ATOM     76  F   UNL A   1      38.907  26.883  31.066  1.00  0.00    -0.203 F 
ATOM     77  C   UNL A   1      39.449  26.680  28.783  1.00  0.00     0.198 A 
ATOM     78  C   UNL A   1      40.629  28.450  27.672  1.00  0.00     0.198 A 
ATOM     79  F   UNL A   1      41.264  30.375  28.872  1.00  0.00    -0.203 F 
ATOM     80  F   UNL A   1      38.900  25.458  28.762  1.00  0.00    -0.200 F 
ATOM     81  C   UNL A   1      40.032  27.199  27.637  1.00  0.00     0.200 A 
ATOM     82  F   UNL A   1      41.187  28.956  26.564  1.00  0.00    -0.200 F 
ATOM     83  F   UNL A   1      40.030  26.487  26.501  1.00  0.00    -0.200 F 
ENDBRANCH  49  73
BRANCH  61  84
ATOM     84  C   UNL A   1      44.411  28.412  35.469  1.00  0.00     0.064 A 
ATOM     85  C   UNL A   1      45.722  28.787  35.139  1.00  0.00     0.173 A 
ATOM     86  C   UNL A   1      44.231  27.204  36.161  1.00  0.00     0.173 A 
ATOM     87  F   UNL A   1      45.950  29.923  34.463  1.00  0.00    -0.203 F 
ATOM     88  C   UNL A   1      46.805  27.975  35.469  1.00  0.00     0.198 A 
ATOM     89  C   UNL A   1      45.318  26.408  36.515  1.00  0.00     0.198 A 
ATOM     90  F   UNL A   1      42.999  26.800  36.505  1.00  0.00    -0.203 F 
ATOM     91  F   UNL A   1      48.044  28.332  35.106  1.00  0.00    -0.200 F 
ATOM     92  C   UNL A   1      46.603  26.791  36.164  1.00  0.00     0.200 A 
ATOM     93  F   UNL A   1      45.121  25.270  37.196  1.00  0.00    -0.200 F 
ATOM     94  F   UNL A   1      47.647  26.016  36.488  1.00  0.00    -0.200 F 
ENDBRANCH  61  84
ENDBRANCH  35  36
ENDBRANCH  27  30
ENDBRANCH  25  26
ENDBRANCH  24  25
ENDBRANCH  23  24
ENDBRANCH   1  23
TORSDOF 16
ENDMDL
MODEL 2
REMARK VINA RESULT:     -11.0      7.148     12.446
REMARK SMILES O=C(CCc1ccc(S(=O)(=O)NC2COC2)cc1)NCCCCNC(=O)c1ccc(-c2c3nc(c(-c4c(F)c(F)c(F)c(F)c4F)c4ccc([nH]4)c(-c4c(F)c(F)c(F)c(F)c4F)c4nc(c(-c5c(F)c(F)c(F)c(F)c5F)c5ccc2[nH]5)C=C4)C=C3)cc1
REMARK SMILES IDX 20 1 19 2 1 3 2 4 3 6 4 7 5 8 6 9 18 10 7 11 17 12 8 13 9 14
REMARK SMILES IDX 10 15 11 16 12 17 13 19 14 20 16 21 15 22 21 23 22 24 23 25
REMARK SMILES IDX 24 26 25 27 26 29 27 30 28 31 89 32 29 33 88 34 30 35 31 36
REMARK SMILES IDX 32 37 82 38 33 39 87 40 81 41 83 42 34 43 86 44 80 45 79 46
REMARK SMILES IDX 35 48 67 49 47 50 66 51 48 52 51 53 65 54 84 55 49 56 50 57
REMARK SMILES IDX 64 59 85 60 52 61 36 62 37 63 45 64 38 65 39 66 43 67 46 68
REMARK SMILES IDX 40 69 41 70 44 71 42 72 68 73 69 74 77 75 70 76 71 77 75 78
REMARK SMILES IDX 78 79 72 80 73 81 76 82 74 83 53 84 54 85 62 86 55 87 56 88
REMARK SMILES IDX 60 89 63 90 57 91 58 92 61 93 59 94
REMARK H PARENT 19 5 12 18 24 28 83 47 51 58
REMARK Flexibility Score: inf
ROOT
ATOM      1  C   UNL A   1      40.767  21.263  27.658  1.00  0.00     0.116 C 
ENDROOT
BRANCH   1   2
ATOM      2  N   UNL A   1      40.079  22.489  27.299  1.00  0.00    -0.356 N 
ATOM      3  O   UNL A   1      38.805  21.478  25.683  1.00  0.00    -0.275 OA
ATOM      4  C   UNL A   1      39.080  22.473  26.346  1.00  0.00     0.220 C 
ATOM      5  H   UNL A   1      40.327  23.336  27.736  1.00  0.00     0.163 HD
BRANCH   4   6
ATOM      6  C   UNL A   1      38.274  23.752  26.237  1.00  0.00     0.105 C 
BRANCH   6   7
ATOM      7  C   UNL A   1      37.351  23.702  25.011  1.00  0.00     0.045 C 
BRANCH   7   8
ATOM      8  C   UNL A   1      35.886  23.696  25.395  1.00  0.00    -0.047 A 
ATOM      9  C   UNL A   1      35.478  23.107  26.599  1.00  0.00     0.005 A 
ATOM     10  C   UNL A   1      34.915  24.231  24.534  1.00  0.00     0.005 A 
ATOM     11  C   UNL A   1      34.122  22.956  26.887  1.00  0.00     0.022 A 
ATOM     12  C   UNL A   1      33.558  24.072  24.809  1.00  0.00     0.022 A 
ATOM     13  C   UNL A   1      33.171  23.396  25.964  1.00  0.00     0.082 A 
BRANCH  13  14
ATOM     14  S   UNL A   1      31.475  22.967  26.211  1.00  0.00     0.240 S 
ATOM     15  O   UNL A   1      31.242  22.757  27.621  1.00  0.00    -0.207 OA
ATOM     16  O   UNL A   1      30.668  23.859  25.409  1.00  0.00    -0.207 OA
BRANCH  14  17
ATOM     17  N   UNL A   1      31.360  21.450  25.479  1.00  0.00    -0.203 NA
ATOM     18  H   UNL A   1      30.744  21.585  24.677  1.00  0.00     0.141 HD
BRANCH  17  19
ATOM     19  C   UNL A   1      32.505  20.637  24.964  1.00  0.00     0.121 C 
ATOM     20  C   UNL A   1      32.905  19.361  25.715  1.00  0.00     0.182 C 
ATOM     21  C   UNL A   1      32.209  19.675  23.803  1.00  0.00     0.182 C 
ATOM     22  O   UNL A   1      32.791  18.562  24.512  1.00  0.00    -0.378 OA
ENDBRANCH  17  19
ENDBRANCH  14  17
ENDBRANCH  13  14
ENDBRANCH   7   8
ENDBRANCH   6   7
ENDBRANCH   4   6
ENDBRANCH   1   2
BRANCH   1  23
ATOM     23  C   UNL A   1      41.931  20.899  26.736  1.00  0.00     0.023 C 
BRANCH  23  24
ATOM     24  C   UNL A   1      41.877  19.500  26.107  1.00  0.00     0.023 C 
BRANCH  24  25
ATOM     25  C   UNL A   1      43.159  18.665  26.190  1.00  0.00     0.116 C 
BRANCH  25  26
ATOM     26  N   UNL A   1      43.816  18.500  24.904  1.00  0.00    -0.352 N 
ATOM     27  C   UNL A   1      44.533  19.378  24.123  1.00  0.00     0.251 C 
ATOM     28  H   UNL A   1      43.733  17.596  24.522  1.00  0.00     0.163 HD
ATOM     29  O   UNL A   1      44.885  19.019  23.001  1.00  0.00    -0.269 OA
BRANCH  27  30
ATOM     30  C   UNL A   1      44.870  20.759  24.564  1.00  0.00     0.039 A 
ATOM     31  C   UNL A   1      44.574  21.822  23.700  1.00  0.00     0.014 A 
ATOM     32  C   UNL A   1      45.540  21.034  25.755  1.00  0.00     0.014 A 
ATOM     33  C   UNL A   1      44.855  23.148  24.069  1.00  0.00     0.010 A 
ATOM     34  C   UNL A   1      45.787  22.364  26.136  1.00  0.00     0.010 A 
ATOM     35  C   UNL A   1      45.410  23.450  25.323  1.00  0.00    -0.014 A 
BRANCH  35  36
ATOM     36  C   UNL A   1      45.552  24.869  25.797  1.00  0.00     0.031 A 
ATOM     37  C   UNL A   1      46.888  25.576  25.793  1.00  0.00     0.074 A 
ATOM     38  C   UNL A   1      44.490  25.532  26.313  1.00  0.00     0.049 A 
ATOM     39  N   UNL A   1      47.193  26.781  26.221  1.00  0.00    -0.248 NA
ATOM     40  C   UNL A   1      48.035  24.828  25.260  1.00  0.00     0.031 C 
ATOM     41  C   UNL A   1      43.135  25.000  26.446  1.00  0.00     0.029 A 
ATOM     42  N   UNL A   1      44.389  26.804  26.838  1.00  0.00    -0.354 N 
ATOM     43  C   UNL A   1      48.561  26.922  26.026  1.00  0.00     0.074 A 
ATOM     44  C   UNL A   1      49.038  25.660  25.500  1.00  0.00     0.031 C 
ATOM     45  C   UNL A   1      42.343  25.927  27.007  1.00  0.00     0.029 A 
ATOM     46  C   UNL A   1      43.130  27.122  27.293  1.00  0.00     0.049 A 
ATOM     47  H   UNL A   1      45.149  27.427  26.883  1.00  0.00     0.167 HD
ATOM     48  C   UNL A   1      49.352  28.006  26.230  1.00  0.00     0.037 A 
ATOM     49  C   UNL A   1      42.647  28.240  27.870  1.00  0.00     0.037 A 
ATOM     50  C   UNL A   1      48.901  29.287  26.712  1.00  0.00     0.049 A 
ATOM     51  C   UNL A   1      43.539  29.433  28.083  1.00  0.00     0.074 A 
ATOM     52  C   UNL A   1      49.628  30.456  26.859  1.00  0.00     0.029 A 
ATOM     53  N   UNL A   1      47.610  29.568  27.129  1.00  0.00    -0.354 N 
ATOM     54  N   UNL A   1      44.808  29.578  27.796  1.00  0.00    -0.248 NA
ATOM     55  C   UNL A   1      42.924  30.628  28.684  1.00  0.00     0.031 C 
ATOM     56  C   UNL A   1      48.789  31.435  27.402  1.00  0.00     0.029 A 
ATOM     57  C   UNL A   1      47.526  30.888  27.550  1.00  0.00     0.049 A 
ATOM     58  H   UNL A   1      46.863  28.927  27.127  1.00  0.00     0.167 HD
ATOM     59  C   UNL A   1      45.132  30.883  28.145  1.00  0.00     0.074 A 
ATOM     60  C   UNL A   1      43.926  31.495  28.656  1.00  0.00     0.031 C 
ATOM     61  C   UNL A   1      46.326  31.513  28.042  1.00  0.00     0.037 A 
BRANCH  48  62
ATOM     62  C   UNL A   1      50.810  27.867  25.896  1.00  0.00     0.064 A 
ATOM     63  C   UNL A   1      51.277  28.024  24.582  1.00  0.00     0.173 A 
ATOM     64  C   UNL A   1      51.756  27.627  26.905  1.00  0.00     0.173 A 
ATOM     65  F   UNL A   1      50.413  28.252  23.582  1.00  0.00    -0.203 F 
ATOM     66  C   UNL A   1      52.632  27.909  24.285  1.00  0.00     0.198 A 
ATOM     67  C   UNL A   1      53.114  27.544  26.607  1.00  0.00     0.198 A 
ATOM     68  F   UNL A   1      51.366  27.489  28.181  1.00  0.00    -0.203 F 
ATOM     69  F   UNL A   1      53.047  28.013  23.015  1.00  0.00    -0.200 F 
ATOM     70  C   UNL A   1      53.549  27.676  25.297  1.00  0.00     0.200 A 
ATOM     71  F   UNL A   1      54.003  27.339  27.589  1.00  0.00    -0.200 F 
ATOM     72  F   UNL A   1      54.854  27.574  25.009  1.00  0.00    -0.200 F 
ENDBRANCH  48  62
BRANCH  49  73
ATOM     73  C   UNL A   1      41.215  28.310  28.268  1.00  0.00     0.064 A 
ATOM     74  C   UNL A   1      40.255  28.859  27.405  1.00  0.00     0.173 A 
ATOM     75  C   UNL A   1      40.784  27.864  29.525  1.00  0.00     0.173 A 
ATOM     76  F   UNL A   1      40.625  29.325  26.202  1.00  0.00    -0.203 F 
ATOM     77  C   UNL A   1      38.923  28.980  27.793  1.00  0.00     0.198 A 
ATOM     78  C   UNL A   1      39.445  27.961  29.902  1.00  0.00     0.198 A 
ATOM     79  F   UNL A   1      41.662  27.332  30.387  1.00  0.00    -0.203 F 
ATOM     80  F   UNL A   1      38.037  29.557  26.969  1.00  0.00    -0.200 F 
ATOM     81  C   UNL A   1      38.518  28.528  29.039  1.00  0.00     0.200 A 
ATOM     82  F   UNL A   1      39.056  27.518  31.105  1.00  0.00    -0.200 F 
ATOM     83  F   UNL A   1      37.238  28.650  29.415  1.00  0.00    -0.200 F 
ENDBRANCH  49  73
BRANCH  61  84
ATOM     84  C   UNL A   1      46.392  32.959  28.443  1.00  0.00     0.064 A 
ATOM     85  C   UNL A   1      46.141  33.993  27.529  1.00  0.00     0.173 A 
ATOM     86  C   UNL A   1      46.671  33.315  29.773  1.00  0.00     0.173 A 
ATOM     87  F   UNL A   1      45.886  33.709  26.243  1.00  0.00    -0.203 F 
ATOM     88  C   UNL A   1      46.189  35.328  27.925  1.00  0.00     0.198 A 
ATOM     89  C   UNL A   1      46.691  34.649  30.171  1.00  0.00     0.198 A 
ATOM     90  F   UNL A   1      46.915  32.366  30.689  1.00  0.00    -0.203 F 
ATOM     91  F   UNL A   1      45.989  36.300  27.024  1.00  0.00    -0.200 F 
ATOM     92  C   UNL A   1      46.456  35.654  29.246  1.00  0.00     0.200 A 
ATOM     93  F   UNL A   1      46.938  34.962  31.451  1.00  0.00    -0.200 F 
ATOM     94  F   UNL A   1      46.492  36.939  29.627  1.00  0.00    -0.200 F 
ENDBRANCH  61  84
ENDBRANCH  35  36
ENDBRANCH  27  30
ENDBRANCH  25  26
ENDBRANCH  24  25
ENDBRANCH  23  24
ENDBRANCH   1  23
TORSDOF 16
ENDMDL
MODEL 3
REMARK VINA RESULT:     -11.0      2.841      5.154
REMARK SMILES O=C(CCc1ccc(S(=O)(=O)NC2COC2)cc1)NCCCCNC(=O)c1ccc(-c2c3nc(c(-c4c(F)c(F)c(F)c(F)c4F)c4ccc([nH]4)c(-c4c(F)c(F)c(F)c(F)c4F)c4nc(c(-c5c(F)c(F)c(F)c(F)c5F)c5ccc2[nH]5)C=C4)C=C3)cc1
REMARK SMILES IDX 20 1 19 2 1 3 2 4 3 6 4 7 5 8 6 9 18 10 7 11 17 12 8 13 9 14
REMARK SMILES IDX 10 15 11 16 12 17 13 19 14 20 16 21 15 22 21 23 22 24 23 25
REMARK SMILES IDX 24 26 25 27 26 29 27 30 28 31 89 32 29 33 88 34 30 35 31 36
REMARK SMILES IDX 32 37 82 38 33 39 87 40 81 41 83 42 34 43 86 44 80 45 79 46
REMARK SMILES IDX 35 48 67 49 47 50 66 51 48 52 51 53 65 54 84 55 49 56 50 57
REMARK SMILES IDX 64 59 85 60 52 61 36 62 37 63 45 64 38 65 39 66 43 67 46 68
REMARK SMILES IDX 40 69 41 70 44 71 42 72 68 73 69 74 77 75 70 76 71 77 75 78
REMARK SMILES IDX 78 79 72 80 73 81 76 82 74 83 53 84 54 85 62 86 55 87 56 88
REMARK SMILES IDX 60 89 63 90 57 91 58 92 61 93 59 94
REMARK H PARENT 19 5 12 18 24 28 83 47 51 58
REMARK Flexibility Score: inf
ROOT
ATOM      1  C   UNL A   1      31.629  28.547  22.781  1.00  0.00     0.116 C 
ENDROOT
BRANCH   1   2
ATOM      2  N   UNL A   1      31.972  27.137  22.725  1.00  0.00    -0.356 N 
ATOM      3  O   UNL A   1      34.029  27.522  21.788  1.00  0.00    -0.275 OA
ATOM      4  C   UNL A   1      33.213  26.741  22.268  1.00  0.00     0.220 C 
ATOM      5  H   UNL A   1      31.315  26.461  23.012  1.00  0.00     0.163 HD
BRANCH   4   6
ATOM      6  C   UNL A   1      33.542  25.278  22.487  1.00  0.00     0.105 C 
BRANCH   6   7
ATOM      7  C   UNL A   1      33.710  24.983  23.984  1.00  0.00     0.045 C 
BRANCH   7   8
ATOM      8  C   UNL A   1      33.527  23.514  24.306  1.00  0.00    -0.047 A 
ATOM      9  C   UNL A   1      34.609  22.631  24.193  1.00  0.00     0.005 A 
ATOM     10  C   UNL A   1      32.269  23.009  24.669  1.00  0.00     0.005 A 
ATOM     11  C   UNL A   1      34.415  21.257  24.332  1.00  0.00     0.022 A 
ATOM     12  C   UNL A   1      32.065  21.636  24.796  1.00  0.00     0.022 A 
ATOM     13  C   UNL A   1      33.133  20.766  24.584  1.00  0.00     0.082 A 
BRANCH  13  14
ATOM     14  S   UNL A   1      32.849  19.024  24.497  1.00  0.00     0.240 S 
ATOM     15  O   UNL A   1      32.097  18.611  25.658  1.00  0.00    -0.207 OA
ATOM     16  O   UNL A   1      32.442  18.706  23.147  1.00  0.00    -0.207 OA
BRANCH  14  17
ATOM     17  N   UNL A   1      34.399  18.381  24.681  1.00  0.00    -0.203 NA
ATOM     18  H   UNL A   1      34.626  18.508  25.667  1.00  0.00     0.141 HD
BRANCH  17  19
ATOM     19  C   UNL A   1      34.808  16.978  24.360  1.00  0.00     0.121 C 
ATOM     20  C   UNL A   1      35.508  16.145  25.441  1.00  0.00     0.182 C 
ATOM     21  C   UNL A   1      33.720  15.898  24.452  1.00  0.00     0.182 C 
ATOM     22  O   UNL A   1      34.536  15.078  25.314  1.00  0.00    -0.378 OA
ENDBRANCH  17  19
ENDBRANCH  14  17
ENDBRANCH  13  14
ENDBRANCH   7   8
ENDBRANCH   6   7
ENDBRANCH   4   6
ENDBRANCH   1   2
BRANCH   1  23
ATOM     23  C   UNL A   1      30.835  28.954  24.022  1.00  0.00     0.023 C 
BRANCH  23  24
ATOM     24  C   UNL A   1      31.560  28.794  25.365  1.00  0.00     0.023 C 
BRANCH  24  25
ATOM     25  C   UNL A   1      32.851  29.599  25.544  1.00  0.00     0.116 C 
BRANCH  25  26
ATOM     26  N   UNL A   1      32.630  30.905  26.143  1.00  0.00    -0.352 N 
ATOM     27  C   UNL A   1      33.311  31.589  27.125  1.00  0.00     0.251 C 
ATOM     28  H   UNL A   1      31.852  31.388  25.780  1.00  0.00     0.163 HD
ATOM     29  O   UNL A   1      32.839  32.644  27.545  1.00  0.00    -0.269 OA
BRANCH  27  30
ATOM     30  C   UNL A   1      34.576  31.088  27.727  1.00  0.00     0.039 A 
ATOM     31  C   UNL A   1      35.614  32.003  27.950  1.00  0.00     0.014 A 
ATOM     32  C   UNL A   1      34.805  29.740  28.000  1.00  0.00     0.014 A 
ATOM     33  C   UNL A   1      36.824  31.591  28.530  1.00  0.00     0.010 A 
ATOM     34  C   UNL A   1      36.005  29.338  28.614  1.00  0.00     0.010 A 
ATOM     35  C   UNL A   1      37.019  30.260  28.932  1.00  0.00    -0.014 A 
BRANCH  35  36
ATOM     36  C   UNL A   1      38.237  29.845  29.710  1.00  0.00     0.031 A 
ATOM     37  C   UNL A   1      38.518  30.389  31.092  1.00  0.00     0.074 A 
ATOM     38  C   UNL A   1      39.159  29.022  29.158  1.00  0.00     0.049 A 
ATOM     39  N   UNL A   1      39.552  30.177  31.875  1.00  0.00    -0.248 NA
ATOM     40  C   UNL A   1      37.522  31.307  31.662  1.00  0.00     0.031 C 
ATOM     41  C   UNL A   1      39.088  28.437  27.820  1.00  0.00     0.029 A 
ATOM     42  N   UNL A   1      40.354  28.543  29.654  1.00  0.00    -0.354 N 
ATOM     43  C   UNL A   1      39.337  30.946  33.011  1.00  0.00     0.074 A 
ATOM     44  C   UNL A   1      38.107  31.678  32.791  1.00  0.00     0.031 C 
ATOM     45  C   UNL A   1      40.177  27.683  27.601  1.00  0.00     0.029 A 
ATOM     46  C   UNL A   1      41.041  27.736  28.776  1.00  0.00     0.049 A 
ATOM     47  H   UNL A   1      40.686  28.760  30.555  1.00  0.00     0.167 HD
ATOM     48  C   UNL A   1      40.069  31.019  34.152  1.00  0.00     0.037 A 
ATOM     49  C   UNL A   1      42.225  27.102  28.888  1.00  0.00     0.037 A 
ATOM     50  C   UNL A   1      41.272  30.274  34.418  1.00  0.00     0.049 A 
ATOM     51  C   UNL A   1      43.019  27.193  30.164  1.00  0.00     0.074 A 
ATOM     52  C   UNL A   1      42.019  30.231  35.585  1.00  0.00     0.029 A 
ATOM     53  N   UNL A   1      41.911  29.446  33.509  1.00  0.00    -0.354 N 
ATOM     54  N   UNL A   1      42.744  27.846  31.264  1.00  0.00    -0.248 NA
ATOM     55  C   UNL A   1      44.282  26.439  30.217  1.00  0.00     0.031 C 
ATOM     56  C   UNL A   1      43.130  29.408  35.370  1.00  0.00     0.029 A 
ATOM     57  C   UNL A   1      43.051  28.902  34.085  1.00  0.00     0.049 A 
ATOM     58  H   UNL A   1      41.602  29.269  32.592  1.00  0.00     0.167 HD
ATOM     59  C   UNL A   1      43.774  27.554  32.149  1.00  0.00     0.074 A 
ATOM     60  C   UNL A   1      44.677  26.657  31.464  1.00  0.00     0.031 C 
ATOM     61  C   UNL A   1      43.946  27.993  33.419  1.00  0.00     0.037 A 
BRANCH  48  62
ATOM     62  C   UNL A   1      39.565  31.930  35.236  1.00  0.00     0.064 A 
ATOM     63  C   UNL A   1      39.919  33.288  35.273  1.00  0.00     0.173 A 
ATOM     64  C   UNL A   1      38.677  31.456  36.214  1.00  0.00     0.173 A 
ATOM     65  F   UNL A   1      40.766  33.788  34.361  1.00  0.00    -0.203 F 
ATOM     66  C   UNL A   1      39.434  34.127  36.272  1.00  0.00     0.198 A 
ATOM     67  C   UNL A   1      38.169  32.308  37.192  1.00  0.00     0.198 A 
ATOM     68  F   UNL A   1      38.290  30.172  36.213  1.00  0.00    -0.203 F 
ATOM     69  F   UNL A   1      39.828  35.408  36.315  1.00  0.00    -0.200 F 
ATOM     70  C   UNL A   1      38.556  33.640  37.225  1.00  0.00     0.200 A 
ATOM     71  F   UNL A   1      37.305  31.841  38.104  1.00  0.00    -0.200 F 
ATOM     72  F   UNL A   1      38.084  34.452  38.181  1.00  0.00    -0.200 F 
ENDBRANCH  48  62
BRANCH  49  73
ATOM     73  C   UNL A   1      42.735  26.278  27.759  1.00  0.00     0.064 A 
ATOM     74  C   UNL A   1      43.628  26.819  26.822  1.00  0.00     0.173 A 
ATOM     75  C   UNL A   1      42.316  24.954  27.574  1.00  0.00     0.173 A 
ATOM     76  F   UNL A   1      44.034  28.092  26.941  1.00  0.00    -0.203 F 
ATOM     77  C   UNL A   1      44.065  26.073  25.729  1.00  0.00     0.198 A 
ATOM     78  C   UNL A   1      42.774  24.199  26.495  1.00  0.00     0.198 A 
ATOM     79  F   UNL A   1      41.462  24.391  28.441  1.00  0.00    -0.203 F 
ATOM     80  F   UNL A   1      44.875  26.631  24.821  1.00  0.00    -0.200 F 
ATOM     81  C   UNL A   1      43.641  24.762  25.569  1.00  0.00     0.200 A 
ATOM     82  F   UNL A   1      42.368  22.931  26.346  1.00  0.00    -0.200 F 
ATOM     83  F   UNL A   1      44.056  24.046  24.515  1.00  0.00    -0.200 F 
ENDBRANCH  49  73
BRANCH  61  84
ATOM     84  C   UNL A   1      45.131  27.475  34.184  1.00  0.00     0.064 A 
ATOM     85  C   UNL A   1      45.046  26.336  34.997  1.00  0.00     0.173 A 
ATOM     86  C   UNL A   1      46.380  28.105  34.069  1.00  0.00     0.173 A 
ATOM     87  F   UNL A   1      43.873  25.705  35.156  1.00  0.00    -0.203 F 
ATOM     88  C   UNL A   1      46.161  25.860  35.685  1.00  0.00     0.198 A 
ATOM     89  C   UNL A   1      47.499  27.612  34.735  1.00  0.00     0.198 A 
ATOM     90  F   UNL A   1      46.519  29.196  33.300  1.00  0.00    -0.203 F 
ATOM     91  F   UNL A   1      46.046  24.796  36.491  1.00  0.00    -0.200 F 
ATOM     92  C   UNL A   1      47.387  26.493  35.547  1.00  0.00     0.200 A 
ATOM     93  F   UNL A   1      48.686  28.218  34.591  1.00  0.00    -0.200 F 
ATOM     94  F   UNL A   1      48.461  26.029  36.202  1.00  0.00    -0.200 F 
ENDBRANCH  61  84
ENDBRANCH  35  36
ENDBRANCH  27  30
ENDBRANCH  25  26
ENDBRANCH  24  25
ENDBRANCH  23  24
ENDBRANCH   1  23
TORSDOF 16
ENDMDL
