MODEL 1
REMARK VINA RESULT:     -13.0      0.000      0.000
REMARK SMILES O=C1Nc2ccccc2/C1=C/c1cccc(C(=O)NCCCCNC(=O)c2ccc(-c3c4nc(c(-c5c(F)c(F)c(F)c(F)c5F)c5ccc([nH]5)c(-c5c(F)c(F)c(F)c(F)c5F)c5nc(c(-c6c(F)c(F)c(F)c(F)c6F)c6ccc3[nH]6)C=C5)C=C4)cc2)c1
REMARK SMILES IDX 22 1 21 2 20 3 19 4 17 5 18 6 16 8 12 9 13 10 90 11 14 12
REMARK SMILES IDX 15 13 11 14 1 15 2 16 3 17 10 18 4 19 9 21 5 22 8 23 6 24
REMARK SMILES IDX 7 25 23 26 24 27 25 28 26 30 27 31 28 32 89 33 29 34 88 35
REMARK SMILES IDX 30 36 31 37 32 38 82 39 33 40 87 41 81 42 83 43 34 44 86 45
REMARK SMILES IDX 80 46 79 47 35 49 67 50 47 51 66 52 48 53 51 54 65 55 84 56
REMARK SMILES IDX 49 57 50 58 64 60 85 61 52 62 36 63 37 64 45 65 38 66 39 67
REMARK SMILES IDX 43 68 46 69 40 70 41 71 44 72 42 73 68 74 69 75 77 76 70 77
REMARK SMILES IDX 71 78 75 79 78 80 72 81 73 82 76 83 74 84 53 85 54 86 62 87
REMARK SMILES IDX 55 88 56 89 60 90 63 91 57 92 58 93 61 94 59 95
REMARK H PARENT 19 7 3 20 24 29 83 48 51 59
REMARK Flexibility Score: inf
ROOT
ATOM      1  C   UNL A   1      31.967  28.660  25.729  1.00  0.00     0.023 C 
ENDROOT
BRANCH   1   2
ATOM      2  C   UNL A   1      31.317  29.085  24.408  1.00  0.00     0.023 C 
BRANCH   2   3
ATOM      3  C   UNL A   1      32.284  29.069  23.219  1.00  0.00     0.116 C 
BRANCH   3   4
ATOM      4  N   UNL A   1      31.856  28.097  22.232  1.00  0.00    -0.352 N 
ATOM      5  C   UNL A   1      31.796  26.725  22.221  1.00  0.00     0.251 C 
ATOM      6  O   UNL A   1      31.365  26.204  21.190  1.00  0.00    -0.269 OA
ATOM      7  H   UNL A   1      31.543  28.508  21.393  1.00  0.00     0.163 HD
BRANCH   5   8
ATOM      8  C   UNL A   1      32.175  25.848  23.369  1.00  0.00     0.040 A 
ATOM      9  C   UNL A   1      33.779  24.862  24.920  1.00  0.00    -0.024 A 
ATOM     10  C   UNL A   1      32.741  24.374  25.711  1.00  0.00     0.008 A 
ATOM     11  C   UNL A   1      33.480  25.507  23.711  1.00  0.00     0.022 A 
ATOM     12  C   UNL A   1      31.418  24.594  25.321  1.00  0.00     0.001 A 
ATOM     13  C   UNL A   1      31.140  25.351  24.177  1.00  0.00     0.014 A 
BRANCH   9  14
ATOM     14  C   UNL A   1      35.188  24.765  25.318  1.00  0.00     0.022 C 
ATOM     15  O   UNL A   1      34.497  22.118  23.854  1.00  0.00    -0.269 OA
ATOM     16  C   UNL A   1      35.527  22.377  24.437  1.00  0.00     0.256 C 
ATOM     17  N   UNL A   1      36.612  21.527  24.584  1.00  0.00    -0.321 N 
ATOM     18  C   UNL A   1      35.923  23.649  25.165  1.00  0.00     0.050 C 
ATOM     19  C   UNL A   1      37.623  22.114  25.336  1.00  0.00     0.049 A 
ATOM     20  H   UNL A   1      36.662  20.620  24.205  1.00  0.00     0.170 HD
ATOM     21  C   UNL A   1      37.262  23.412  25.719  1.00  0.00     0.011 A 
ATOM     22  C   UNL A   1      38.812  21.526  25.713  1.00  0.00     0.027 A 
ATOM     23  C   UNL A   1      38.098  24.153  26.533  1.00  0.00     0.011 A 
ATOM     24  C   UNL A   1      39.663  22.274  26.528  1.00  0.00     0.002 A 
ATOM     25  C   UNL A   1      39.306  23.573  26.939  1.00  0.00     0.001 A 
ENDBRANCH   9  14
ENDBRANCH   5   8
ENDBRANCH   3   4
ENDBRANCH   2   3
ENDBRANCH   1   2
BRANCH   1  26
ATOM     26  C   UNL A   1      33.202  29.464  26.117  1.00  0.00     0.116 C 
BRANCH  26  27
ATOM     27  N   UNL A   1      32.903  30.835  26.505  1.00  0.00    -0.352 N 
ATOM     28  C   UNL A   1      33.608  31.650  27.356  1.00  0.00     0.251 C 
ATOM     29  H   UNL A   1      32.093  31.227  26.107  1.00  0.00     0.163 HD
ATOM     30  O   UNL A   1      33.174  32.749  27.679  1.00  0.00    -0.269 OA
BRANCH  28  31
ATOM     31  C   UNL A   1      34.886  31.160  27.908  1.00  0.00     0.039 A 
ATOM     32  C   UNL A   1      35.954  32.051  28.029  1.00  0.00     0.014 A 
ATOM     33  C   UNL A   1      35.000  29.846  28.365  1.00  0.00     0.014 A 
ATOM     34  C   UNL A   1      37.119  31.636  28.673  1.00  0.00     0.010 A 
ATOM     35  C   UNL A   1      36.126  29.464  29.084  1.00  0.00     0.010 A 
ATOM     36  C   UNL A   1      37.199  30.354  29.243  1.00  0.00    -0.014 A 
BRANCH  36  37
ATOM     37  C   UNL A   1      38.398  29.930  30.009  1.00  0.00     0.031 A 
ATOM     38  C   UNL A   1      38.624  30.445  31.403  1.00  0.00     0.074 A 
ATOM     39  C   UNL A   1      39.310  29.128  29.426  1.00  0.00     0.049 A 
ATOM     40  N   UNL A   1      39.626  30.224  32.214  1.00  0.00    -0.248 NA
ATOM     41  C   UNL A   1      37.601  31.353  31.949  1.00  0.00     0.031 C 
ATOM     42  C   UNL A   1      39.233  28.611  28.059  1.00  0.00     0.029 A 
ATOM     43  N   UNL A   1      40.488  28.611  29.908  1.00  0.00    -0.354 N 
ATOM     44  C   UNL A   1      39.360  30.971  33.355  1.00  0.00     0.074 A 
ATOM     45  C   UNL A   1      38.136  31.700  33.109  1.00  0.00     0.031 C 
ATOM     46  C   UNL A   1      40.298  27.829  27.822  1.00  0.00     0.029 A 
ATOM     47  C   UNL A   1      41.156  27.823  29.002  1.00  0.00     0.049 A 
ATOM     48  H   UNL A   1      40.821  28.789  30.818  1.00  0.00     0.167 HD
ATOM     49  C   UNL A   1      40.060  31.022  34.512  1.00  0.00     0.037 A 
ATOM     50  C   UNL A   1      42.333  27.177  29.109  1.00  0.00     0.037 A 
ATOM     51  C   UNL A   1      41.267  30.278  34.758  1.00  0.00     0.049 A 
ATOM     52  C   UNL A   1      43.094  27.259  30.406  1.00  0.00     0.074 A 
ATOM     53  C   UNL A   1      42.015  30.209  35.920  1.00  0.00     0.029 A 
ATOM     54  N   UNL A   1      41.906  29.478  33.822  1.00  0.00    -0.354 N 
ATOM     55  N   UNL A   1      42.789  27.899  31.509  1.00  0.00    -0.248 NA
ATOM     56  C   UNL A   1      44.362  26.520  30.476  1.00  0.00     0.031 C 
ATOM     57  C   UNL A   1      43.142  29.421  35.667  1.00  0.00     0.029 A 
ATOM     58  C   UNL A   1      43.059  28.938  34.372  1.00  0.00     0.049 A 
ATOM     59  H   UNL A   1      41.590  29.319  32.904  1.00  0.00     0.167 HD
ATOM     60  C   UNL A   1      43.806  27.616  32.411  1.00  0.00     0.074 A 
ATOM     61  C   UNL A   1      44.728  26.729  31.733  1.00  0.00     0.031 C 
ATOM     62  C   UNL A   1      43.963  28.050  33.685  1.00  0.00     0.037 A 
BRANCH  49  63
ATOM     63  C   UNL A   1      39.540  31.914  35.604  1.00  0.00     0.064 A 
ATOM     64  C   UNL A   1      38.577  31.471  36.524  1.00  0.00     0.173 A 
ATOM     65  C   UNL A   1      40.046  33.213  35.761  1.00  0.00     0.173 A 
ATOM     66  F   UNL A   1      38.051  30.242  36.414  1.00  0.00    -0.203 F 
ATOM     67  C   UNL A   1      38.120  32.305  37.541  1.00  0.00     0.198 A 
ATOM     68  C   UNL A   1      39.612  34.033  36.800  1.00  0.00     0.198 A 
ATOM     69  F   UNL A   1      40.971  33.686  34.913  1.00  0.00    -0.203 F 
ATOM     70  F   UNL A   1      37.162  31.879  38.377  1.00  0.00    -0.200 F 
ATOM     71  C   UNL A   1      38.644  33.582  37.684  1.00  0.00     0.200 A 
ATOM     72  F   UNL A   1      40.132  35.259  36.946  1.00  0.00    -0.200 F 
ATOM     73  F   UNL A   1      38.213  34.378  38.671  1.00  0.00    -0.200 F 
ENDBRANCH  49  63
BRANCH  50  74
ATOM     74  C   UNL A   1      42.859  26.385  27.965  1.00  0.00     0.064 A 
ATOM     75  C   UNL A   1      43.603  26.994  26.944  1.00  0.00     0.173 A 
ATOM     76  C   UNL A   1      42.611  25.009  27.856  1.00  0.00     0.173 A 
ATOM     77  F   UNL A   1      43.851  28.311  26.991  1.00  0.00    -0.203 F 
ATOM     78  C   UNL A   1      44.052  26.264  25.846  1.00  0.00     0.198 A 
ATOM     79  C   UNL A   1      43.090  24.272  26.775  1.00  0.00     0.198 A 
ATOM     80  F   UNL A   1      41.910  24.375  28.809  1.00  0.00    -0.203 F 
ATOM     81  F   UNL A   1      44.709  26.883  24.856  1.00  0.00    -0.200 F 
ATOM     82  C   UNL A   1      43.800  24.903  25.764  1.00  0.00     0.200 A 
ATOM     83  F   UNL A   1      42.859  22.954  26.710  1.00  0.00    -0.200 F 
ATOM     84  F   UNL A   1      44.232  24.201  24.708  1.00  0.00    -0.200 F 
ENDBRANCH  50  74
BRANCH  62  85
ATOM     85  C   UNL A   1      45.154  27.540  34.447  1.00  0.00     0.064 A 
ATOM     86  C   UNL A   1      46.373  28.234  34.469  1.00  0.00     0.173 A 
ATOM     87  C   UNL A   1      45.060  26.356  35.196  1.00  0.00     0.173 A 
ATOM     88  F   UNL A   1      46.520  29.363  33.760  1.00  0.00    -0.203 F 
ATOM     89  C   UNL A   1      47.463  27.744  35.184  1.00  0.00     0.198 A 
ATOM     90  C   UNL A   1      46.139  25.890  35.940  1.00  0.00     0.198 A 
ATOM     91  F   UNL A   1      43.914  25.658  35.218  1.00  0.00    -0.203 F 
ATOM     92  F   UNL A   1      48.635  28.392  35.142  1.00  0.00    -0.200 F 
ATOM     93  C   UNL A   1      47.343  26.578  35.926  1.00  0.00     0.200 A 
ATOM     94  F   UNL A   1      46.015  24.774  36.671  1.00  0.00    -0.200 F 
ATOM     95  F   UNL A   1      48.391  26.113  36.620  1.00  0.00    -0.200 F 
ENDBRANCH  62  85
ENDBRANCH  36  37
ENDBRANCH  28  31
ENDBRANCH  26  27
ENDBRANCH   1  26
TORSDOF 12
ENDMDL
MODEL 2
REMARK VINA RESULT:     -12.9      4.667     10.048
REMARK SMILES O=C1Nc2ccccc2/C1=C/c1cccc(C(=O)NCCCCNC(=O)c2ccc(-c3c4nc(c(-c5c(F)c(F)c(F)c(F)c5F)c5ccc([nH]5)c(-c5c(F)c(F)c(F)c(F)c5F)c5nc(c(-c6c(F)c(F)c(F)c(F)c6F)c6ccc3[nH]6)C=C5)C=C4)cc2)c1
REMARK SMILES IDX 22 1 21 2 20 3 19 4 17 5 18 6 16 8 12 9 13 10 90 11 14 12
REMARK SMILES IDX 15 13 11 14 1 15 2 16 3 17 10 18 4 19 9 21 5 22 8 23 6 24
REMARK SMILES IDX 7 25 23 26 24 27 25 28 26 30 27 31 28 32 89 33 29 34 88 35
REMARK SMILES IDX 30 36 31 37 32 38 82 39 33 40 87 41 81 42 83 43 34 44 86 45
REMARK SMILES IDX 80 46 79 47 35 49 67 50 47 51 66 52 48 53 51 54 65 55 84 56
REMARK SMILES IDX 49 57 50 58 64 60 85 61 52 62 36 63 37 64 45 65 38 66 39 67
REMARK SMILES IDX 43 68 46 69 40 70 41 71 44 72 42 73 68 74 69 75 77 76 70 77
REMARK SMILES IDX 71 78 75 79 78 80 72 81 73 82 76 83 74 84 53 85 54 86 62 87
REMARK SMILES IDX 55 88 56 89 60 90 63 91 57 92 58 93 61 94 59 95
REMARK H PARENT 19 7 3 20 24 29 83 48 51 59
REMARK Flexibility Score: inf
ROOT
ATOM      1  C   UNL A   1      38.328  19.715  25.033  1.00  0.00     0.023 C 
ENDROOT
BRANCH   1   2
ATOM      2  C   UNL A   1      37.421  20.905  24.705  1.00  0.00     0.023 C 
BRANCH   2   3
ATOM      3  C   UNL A   1      36.256  21.072  25.687  1.00  0.00     0.116 C 
BRANCH   3   4
ATOM      4  N   UNL A   1      35.214  20.104  25.406  1.00  0.00    -0.352 N 
ATOM      5  C   UNL A   1      33.960  20.199  24.853  1.00  0.00     0.251 C 
ATOM      6  O   UNL A   1      33.324  19.147  24.756  1.00  0.00    -0.269 OA
ATOM      7  H   UNL A   1      35.456  19.186  25.667  1.00  0.00     0.163 HD
BRANCH   5   8
ATOM      8  C   UNL A   1      33.351  21.462  24.337  1.00  0.00     0.040 A 
ATOM      9  C   UNL A   1      33.069  23.885  24.295  1.00  0.00    -0.024 A 
ATOM     10  C   UNL A   1      32.339  23.797  23.112  1.00  0.00     0.008 A 
ATOM     11  C   UNL A   1      33.480  22.709  24.941  1.00  0.00     0.022 A 
ATOM     12  C   UNL A   1      32.087  22.543  22.552  1.00  0.00     0.001 A 
ATOM     13  C   UNL A   1      32.616  21.390  23.144  1.00  0.00     0.014 A 
BRANCH   9  14
ATOM     14  C   UNL A   1      33.467  25.168  24.885  1.00  0.00     0.022 C 
ATOM     15  O   UNL A   1      30.683  24.473  26.068  1.00  0.00    -0.269 OA
ATOM     16  C   UNL A   1      31.296  25.508  26.215  1.00  0.00     0.256 C 
ATOM     17  N   UNL A   1      30.865  26.611  26.936  1.00  0.00    -0.321 N 
ATOM     18  C   UNL A   1      32.656  25.903  25.667  1.00  0.00     0.050 C 
ATOM     19  C   UNL A   1      31.787  27.649  26.880  1.00  0.00     0.049 A 
ATOM     20  H   UNL A   1      30.013  26.654  27.426  1.00  0.00     0.170 HD
ATOM     21  C   UNL A   1      32.904  27.278  26.121  1.00  0.00     0.011 A 
ATOM     22  C   UNL A   1      31.648  28.901  27.442  1.00  0.00     0.027 A 
ATOM     23  C   UNL A   1      33.915  28.189  25.881  1.00  0.00     0.011 A 
ATOM     24  C   UNL A   1      32.670  29.822  27.209  1.00  0.00     0.002 A 
ATOM     25  C   UNL A   1      33.789  29.471  26.431  1.00  0.00     0.001 A 
ENDBRANCH   9  14
ENDBRANCH   5   8
ENDBRANCH   3   4
ENDBRANCH   2   3
ENDBRANCH   1   2
BRANCH   1  26
ATOM     26  C   UNL A   1      39.573  20.067  25.838  1.00  0.00     0.116 C 
BRANCH  26  27
ATOM     27  N   UNL A   1      40.568  19.004  25.863  1.00  0.00    -0.352 N 
ATOM     28  C   UNL A   1      41.917  19.108  26.100  1.00  0.00     0.251 C 
ATOM     29  H   UNL A   1      40.231  18.097  25.686  1.00  0.00     0.163 HD
ATOM     30  O   UNL A   1      42.654  18.137  25.976  1.00  0.00    -0.269 OA
BRANCH  28  31
ATOM     31  C   UNL A   1      42.470  20.424  26.471  1.00  0.00     0.039 A 
ATOM     32  C   UNL A   1      43.061  21.211  25.481  1.00  0.00     0.014 A 
ATOM     33  C   UNL A   1      42.341  20.902  27.777  1.00  0.00     0.014 A 
ATOM     34  C   UNL A   1      43.463  22.510  25.790  1.00  0.00     0.010 A 
ATOM     35  C   UNL A   1      42.660  22.224  28.059  1.00  0.00     0.010 A 
ATOM     36  C   UNL A   1      43.228  23.041  27.070  1.00  0.00    -0.014 A 
BRANCH  36  37
ATOM     37  C   UNL A   1      43.569  24.451  27.388  1.00  0.00     0.031 A 
ATOM     38  C   UNL A   1      45.006  24.893  27.406  1.00  0.00     0.074 A 
ATOM     39  C   UNL A   1      42.589  25.316  27.715  1.00  0.00     0.049 A 
ATOM     40  N   UNL A   1      45.506  26.066  27.698  1.00  0.00    -0.248 NA
ATOM     41  C   UNL A   1      46.017  23.875  27.080  1.00  0.00     0.031 C 
ATOM     42  C   UNL A   1      41.163  24.990  27.790  1.00  0.00     0.029 A 
ATOM     43  N   UNL A   1      42.642  26.645  28.053  1.00  0.00    -0.354 N 
ATOM     44  C   UNL A   1      46.884  25.922  27.603  1.00  0.00     0.074 A 
ATOM     45  C   UNL A   1      47.146  24.536  27.288  1.00  0.00     0.031 C 
ATOM     46  C   UNL A   1      40.476  26.095  28.123  1.00  0.00     0.029 A 
ATOM     47  C   UNL A   1      41.413  27.195  28.326  1.00  0.00     0.049 A 
ATOM     48  H   UNL A   1      43.483  27.156  28.096  1.00  0.00     0.167 HD
ATOM     49  C   UNL A   1      47.843  26.868  27.740  1.00  0.00     0.037 A 
ATOM     50  C   UNL A   1      41.081  28.443  28.708  1.00  0.00     0.037 A 
ATOM     51  C   UNL A   1      47.575  28.251  28.034  1.00  0.00     0.049 A 
ATOM     52  C   UNL A   1      42.170  29.473  28.861  1.00  0.00     0.074 A 
ATOM     53  C   UNL A   1      48.471  29.302  28.128  1.00  0.00     0.029 A 
ATOM     54  N   UNL A   1      46.316  28.775  28.290  1.00  0.00    -0.354 N 
ATOM     55  N   UNL A   1      43.462  29.346  28.683  1.00  0.00    -0.248 NA
ATOM     56  C   UNL A   1      41.750  30.823  29.260  1.00  0.00     0.031 C 
ATOM     57  C   UNL A   1      47.762  30.447  28.505  1.00  0.00     0.029 A 
ATOM     58  C   UNL A   1      46.416  30.128  28.574  1.00  0.00     0.049 A 
ATOM     59  H   UNL A   1      45.476  28.261  28.273  1.00  0.00     0.167 HD
ATOM     60  C   UNL A   1      44.006  30.602  28.916  1.00  0.00     0.074 A 
ATOM     61  C   UNL A   1      42.900  31.483  29.229  1.00  0.00     0.031 C 
ATOM     62  C   UNL A   1      45.303  30.992  28.876  1.00  0.00     0.037 A 
BRANCH  49  63
ATOM     63  C   UNL A   1      49.274  26.442  27.574  1.00  0.00     0.064 A 
ATOM     64  C   UNL A   1      49.846  26.250  26.307  1.00  0.00     0.173 A 
ATOM     65  C   UNL A   1      50.097  26.267  28.697  1.00  0.00     0.173 A 
ATOM     66  F   UNL A   1      49.102  26.392  25.200  1.00  0.00    -0.203 F 
ATOM     67  C   UNL A   1      51.180  25.872  26.172  1.00  0.00     0.198 A 
ATOM     68  C   UNL A   1      51.440  25.923  28.557  1.00  0.00     0.198 A 
ATOM     69  F   UNL A   1      49.604  26.442  29.932  1.00  0.00    -0.203 F 
ATOM     70  F   UNL A   1      51.690  25.644  24.953  1.00  0.00    -0.200 F 
ATOM     71  C   UNL A   1      51.978  25.718  27.296  1.00  0.00     0.200 A 
ATOM     72  F   UNL A   1      52.213  25.792  29.643  1.00  0.00    -0.200 F 
ATOM     73  F   UNL A   1      53.264  25.368  27.163  1.00  0.00    -0.200 F 
ENDBRANCH  49  63
BRANCH  50  74
ATOM     74  C   UNL A   1      39.657  28.795  28.958  1.00  0.00     0.064 A 
ATOM     75  C   UNL A   1      39.080  28.622  30.225  1.00  0.00     0.173 A 
ATOM     76  C   UNL A   1      38.838  29.292  27.934  1.00  0.00     0.173 A 
ATOM     77  F   UNL A   1      39.815  28.132  31.234  1.00  0.00    -0.203 F 
ATOM     78  C   UNL A   1      37.734  28.902  30.448  1.00  0.00     0.198 A 
ATOM     79  C   UNL A   1      37.501  29.605  28.166  1.00  0.00     0.198 A 
ATOM     80  F   UNL A   1      39.341  29.483  26.704  1.00  0.00    -0.203 F 
ATOM     81  F   UNL A   1      37.194  28.671  31.652  1.00  0.00    -0.200 F 
ATOM     82  C   UNL A   1      36.946  29.399  29.420  1.00  0.00     0.200 A 
ATOM     83  F   UNL A   1      36.749  30.101  27.174  1.00  0.00    -0.200 F 
ATOM     84  F   UNL A   1      35.652  29.669  29.635  1.00  0.00    -0.200 F 
ENDBRANCH  50  74
BRANCH  62  85
ATOM     85  C   UNL A   1      45.596  32.443  29.135  1.00  0.00     0.064 A 
ATOM     86  C   UNL A   1      45.894  32.922  30.419  1.00  0.00     0.173 A 
ATOM     87  C   UNL A   1      45.616  33.361  28.072  1.00  0.00     0.173 A 
ATOM     88  F   UNL A   1      45.876  32.091  31.471  1.00  0.00    -0.203 F 
ATOM     89  C   UNL A   1      46.165  34.272  30.636  1.00  0.00     0.198 A 
ATOM     90  C   UNL A   1      45.925  34.701  28.287  1.00  0.00     0.198 A 
ATOM     91  F   UNL A   1      45.349  32.955  26.822  1.00  0.00    -0.203 F 
ATOM     92  F   UNL A   1      46.387  34.716  31.880  1.00  0.00    -0.200 F 
ATOM     93  C   UNL A   1      46.189  35.157  29.569  1.00  0.00     0.200 A 
ATOM     94  F   UNL A   1      45.967  35.552  27.252  1.00  0.00    -0.200 F 
ATOM     95  F   UNL A   1      46.459  36.453  29.779  1.00  0.00    -0.200 F 
ENDBRANCH  62  85
ENDBRANCH  36  37
ENDBRANCH  28  31
ENDBRANCH  26  27
ENDBRANCH   1  26
TORSDOF 12
ENDMDL
MODEL 3
REMARK VINA RESULT:     -12.9      1.985      3.179
REMARK SMILES O=C1Nc2ccccc2/C1=C/c1cccc(C(=O)NCCCCNC(=O)c2ccc(-c3c4nc(c(-c5c(F)c(F)c(F)c(F)c5F)c5ccc([nH]5)c(-c5c(F)c(F)c(F)c(F)c5F)c5nc(c(-c6c(F)c(F)c(F)c(F)c6F)c6ccc3[nH]6)C=C5)C=C4)cc2)c1
REMARK SMILES IDX 22 1 21 2 20 3 19 4 17 5 18 6 16 8 12 9 13 10 90 11 14 12
REMARK SMILES IDX 15 13 11 14 1 15 2 16 3 17 10 18 4 19 9 21 5 22 8 23 6 24
REMARK SMILES IDX 7 25 23 26 24 27 25 28 26 30 27 31 28 32 89 33 29 34 88 35
REMARK SMILES IDX 30 36 31 37 32 38 82 39 33 40 87 41 81 42 83 43 34 44 86 45
REMARK SMILES IDX 80 46 79 47 35 49 67 50 47 51 66 52 48 53 51 54 65 55 84 56
REMARK SMILES IDX 49 57 50 58 64 60 85 61 52 62 36 63 37 64 45 65 38 66 39 67
REMARK SMILES IDX 43 68 46 69 40 70 41 71 44 72 42 73 68 74 69 75 77 76 70 77
REMARK SMILES IDX 71 78 75 79 78 80 72 81 73 82 76 83 74 84 53 85 54 86 62 87
REMARK SMILES IDX 55 88 56 89 60 90 63 91 57 92 58 93 61 94 59 95
REMARK H PARENT 19 7 3 20 24 29 83 48 51 59
REMARK Flexibility Score: inf
ROOT
ATOM      1  C   UNL A   1      31.436  32.062  26.745  1.00  0.00     0.023 C 
ENDROOT
BRANCH   1   2
ATOM      2  C   UNL A   1      31.757  30.751  26.021  1.00  0.00     0.023 C 
BRANCH   2   3
ATOM      3  C   UNL A   1      32.512  29.742  26.893  1.00  0.00     0.116 C 
BRANCH   3   4
ATOM      4  N   UNL A   1      31.681  28.585  27.164  1.00  0.00    -0.352 N 
ATOM      5  C   UNL A   1      31.443  27.414  26.488  1.00  0.00     0.251 C 
ATOM      6  O   UNL A   1      30.660  26.624  27.021  1.00  0.00    -0.269 OA
ATOM      7  H   UNL A   1      31.183  28.655  28.011  1.00  0.00     0.163 HD
BRANCH   5   8
ATOM      8  C   UNL A   1      32.090  27.030  25.198  1.00  0.00     0.040 A 
ATOM      9  C   UNL A   1      33.649  25.729  23.846  1.00  0.00    -0.024 A 
ATOM     10  C   UNL A   1      33.053  26.196  22.676  1.00  0.00     0.008 A 
ATOM     11  C   UNL A   1      33.222  26.228  25.085  1.00  0.00     0.022 A 
ATOM     12  C   UNL A   1      31.994  27.102  22.761  1.00  0.00     0.001 A 
ATOM     13  C   UNL A   1      31.498  27.489  24.011  1.00  0.00     0.014 A 
BRANCH   9  14
ATOM     14  C   UNL A   1      34.692  24.697  23.843  1.00  0.00     0.022 C 
ATOM     15  O   UNL A   1      31.998  23.235  24.331  1.00  0.00    -0.269 OA
ATOM     16  C   UNL A   1      33.107  22.748  24.378  1.00  0.00     0.256 C 
ATOM     17  N   UNL A   1      33.401  21.427  24.679  1.00  0.00    -0.321 N 
ATOM     18  C   UNL A   1      34.454  23.408  24.146  1.00  0.00     0.050 C 
ATOM     19  C   UNL A   1      34.771  21.197  24.683  1.00  0.00     0.049 A 
ATOM     20  H   UNL A   1      32.724  20.738  24.867  1.00  0.00     0.170 HD
ATOM     21  C   UNL A   1      35.470  22.368  24.363  1.00  0.00     0.011 A 
ATOM     22  C   UNL A   1      35.403  20.011  24.993  1.00  0.00     0.027 A 
ATOM     23  C   UNL A   1      36.851  22.379  24.377  1.00  0.00     0.011 A 
ATOM     24  C   UNL A   1      36.799  20.015  25.001  1.00  0.00     0.002 A 
ATOM     25  C   UNL A   1      37.515  21.189  24.702  1.00  0.00     0.001 A 
ENDBRANCH   9  14
ENDBRANCH   5   8
ENDBRANCH   3   4
ENDBRANCH   2   3
ENDBRANCH   1   2
BRANCH   1  26
ATOM     26  C   UNL A   1      32.655  32.819  27.261  1.00  0.00     0.116 C 
BRANCH  26  27
ATOM     27  N   UNL A   1      32.369  34.199  27.625  1.00  0.00    -0.352 N 
ATOM     28  C   UNL A   1      32.979  34.969  28.585  1.00  0.00     0.251 C 
ATOM     29  H   UNL A   1      31.646  34.636  27.119  1.00  0.00     0.163 HD
ATOM     30  O   UNL A   1      32.556  36.085  28.860  1.00  0.00    -0.269 OA
BRANCH  28  31
ATOM     31  C   UNL A   1      34.136  34.409  29.310  1.00  0.00     0.039 A 
ATOM     32  C   UNL A   1      33.909  33.654  30.461  1.00  0.00     0.014 A 
ATOM     33  C   UNL A   1      35.430  34.576  28.810  1.00  0.00     0.014 A 
ATOM     34  C   UNL A   1      34.981  33.007  31.075  1.00  0.00     0.010 A 
ATOM     35  C   UNL A   1      36.480  33.859  29.371  1.00  0.00     0.010 A 
ATOM     36  C   UNL A   1      36.268  33.070  30.511  1.00  0.00    -0.014 A 
BRANCH  36  37
ATOM     37  C   UNL A   1      37.400  32.314  31.103  1.00  0.00     0.031 A 
ATOM     38  C   UNL A   1      37.905  32.664  32.475  1.00  0.00     0.074 A 
ATOM     39  C   UNL A   1      38.009  31.353  30.381  1.00  0.00     0.049 A 
ATOM     40  N   UNL A   1      38.905  32.150  33.145  1.00  0.00    -0.248 NA
ATOM     41  C   UNL A   1      37.212  33.757  33.178  1.00  0.00     0.031 C 
ATOM     42  C   UNL A   1      37.648  30.963  29.017  1.00  0.00     0.029 A 
ATOM     43  N   UNL A   1      39.065  30.532  30.691  1.00  0.00    -0.354 N 
ATOM     44  C   UNL A   1      38.967  32.862  34.336  1.00  0.00     0.074 A 
ATOM     45  C   UNL A   1      37.947  33.884  34.273  1.00  0.00     0.031 C 
ATOM     46  C   UNL A   1      38.449  29.961  28.619  1.00  0.00     0.029 A 
ATOM     47  C   UNL A   1      39.405  29.666  29.680  1.00  0.00     0.049 A 
ATOM     48  H   UNL A   1      39.533  30.561  31.557  1.00  0.00     0.167 HD
ATOM     49  C   UNL A   1      39.784  32.662  35.396  1.00  0.00     0.037 A 
ATOM     50  C   UNL A   1      40.386  28.745  29.614  1.00  0.00     0.037 A 
ATOM     51  C   UNL A   1      40.784  31.629  35.461  1.00  0.00     0.049 A 
ATOM     52  C   UNL A   1      41.286  28.551  30.807  1.00  0.00     0.074 A 
ATOM     53  C   UNL A   1      41.618  31.302  36.516  1.00  0.00     0.029 A 
ATOM     54  N   UNL A   1      41.091  30.762  34.423  1.00  0.00    -0.354 N 
ATOM     55  N   UNL A   1      41.279  29.171  31.961  1.00  0.00    -0.248 NA
ATOM     56  C   UNL A   1      42.326  27.520  30.689  1.00  0.00     0.031 C 
ATOM     57  C   UNL A   1      42.474  30.280  36.093  1.00  0.00     0.029 A 
ATOM     58  C   UNL A   1      42.125  29.920  34.802  1.00  0.00     0.049 A 
ATOM     59  H   UNL A   1      40.642  30.746  33.547  1.00  0.00     0.167 HD
ATOM     60  C   UNL A   1      42.287  28.588  32.716  1.00  0.00     0.074 A 
ATOM     61  C   UNL A   1      42.873  27.549  31.896  1.00  0.00     0.031 C 
ATOM     62  C   UNL A   1      42.692  28.885  33.975  1.00  0.00     0.037 A 
BRANCH  49  63
ATOM     63  C   UNL A   1      39.633  33.580  36.577  1.00  0.00     0.064 A 
ATOM     64  C   UNL A   1      40.280  34.823  36.634  1.00  0.00     0.173 A 
ATOM     65  C   UNL A   1      38.793  33.230  37.644  1.00  0.00     0.173 A 
ATOM     66  F   UNL A   1      41.105  35.203  35.646  1.00  0.00    -0.203 F 
ATOM     67  C   UNL A   1      40.115  35.669  37.728  1.00  0.00     0.198 A 
ATOM     68  C   UNL A   1      38.602  34.093  38.721  1.00  0.00     0.198 A 
ATOM     69  F   UNL A   1      38.145  32.055  37.640  1.00  0.00    -0.203 F 
ATOM     70  F   UNL A   1      40.785  36.829  37.785  1.00  0.00    -0.200 F 
ATOM     71  C   UNL A   1      39.268  35.307  38.766  1.00  0.00     0.200 A 
ATOM     72  F   UNL A   1      37.771  33.749  39.714  1.00  0.00    -0.200 F 
ATOM     73  F   UNL A   1      39.100  36.128  39.812  1.00  0.00    -0.200 F 
ENDBRANCH  49  63
BRANCH  50  74
ATOM     74  C   UNL A   1      40.562  27.926  28.385  1.00  0.00     0.064 A 
ATOM     75  C   UNL A   1      39.958  26.666  28.261  1.00  0.00     0.173 A 
ATOM     76  C   UNL A   1      41.353  28.374  27.317  1.00  0.00     0.173 A 
ATOM     77  F   UNL A   1      39.207  26.183  29.262  1.00  0.00    -0.203 F 
ATOM     78  C   UNL A   1      40.164  25.875  27.133  1.00  0.00     0.198 A 
ATOM     79  C   UNL A   1      41.530  27.598  26.174  1.00  0.00     0.198 A 
ATOM     80  F   UNL A   1      41.949  29.575  27.380  1.00  0.00    -0.203 F 
ATOM     81  F   UNL A   1      39.623  24.651  27.068  1.00  0.00    -0.200 F 
ATOM     82  C   UNL A   1      40.945  26.344  26.088  1.00  0.00     0.200 A 
ATOM     83  F   UNL A   1      42.272  28.062  25.160  1.00  0.00    -0.200 F 
ATOM     84  F   UNL A   1      41.143  25.583  25.002  1.00  0.00    -0.200 F 
ENDBRANCH  50  74
BRANCH  62  85
ATOM     85  C   UNL A   1      43.794  28.048  34.561  1.00  0.00     0.064 A 
ATOM     86  C   UNL A   1      45.139  28.443  34.498  1.00  0.00     0.173 A 
ATOM     87  C   UNL A   1      43.494  26.850  35.229  1.00  0.00     0.173 A 
ATOM     88  F   UNL A   1      45.482  29.572  33.860  1.00  0.00    -0.203 F 
ATOM     89  C   UNL A   1      46.144  27.653  35.050  1.00  0.00     0.198 A 
ATOM     90  C   UNL A   1      44.498  26.082  35.813  1.00  0.00     0.198 A 
ATOM     91  F   UNL A   1      42.224  26.430  35.327  1.00  0.00    -0.203 F 
ATOM     92  F   UNL A   1      47.427  28.021  34.925  1.00  0.00    -0.200 F 
ATOM     93  C   UNL A   1      45.822  26.479  35.715  1.00  0.00     0.200 A 
ATOM     94  F   UNL A   1      44.182  24.958  36.471  1.00  0.00    -0.200 F 
ATOM     95  F   UNL A   1      46.791  25.725  36.253  1.00  0.00    -0.200 F 
ENDBRANCH  62  85
ENDBRANCH  36  37
ENDBRANCH  28  31
ENDBRANCH  26  27
ENDBRANCH   1  26
TORSDOF 12
ENDMDL
