MODEL 1
REMARK VINA RESULT:     -11.3      0.000      0.000
REMARK SMILES C[C@@H]1[C@@H](C(=O)NCCCCNC(=O)c2ccc(-c3c4nc(c(-c5c(F)c(F)c(F)c(F)c5F)c5ccc([nH]5)c(-c5c(F)c(F)c(F)c(F)c5F)c5nc(c(-c6c(F)c(F)c(F)c(F)c6F)c6ccc3[nH]6)C=C5)C=C4)cc2)CCN1C(=O)N(C)Cc1ccsc1
REMARK SMILES IDX 7 1 6 2 4 3 5 4 3 6 1 7 2 8 79 9 77 10 78 11 80 12 81 13
REMARK SMILES IDX 82 14 83 15 84 16 85 17 86 18 89 19 87 20 88 21 8 22 9 23
REMARK SMILES IDX 10 24 11 25 12 26 13 28 14 29 15 30 76 31 16 32 75 33 17 34
REMARK SMILES IDX 18 35 19 36 69 37 20 38 74 39 68 40 70 41 21 42 73 43 67 44
REMARK SMILES IDX 66 45 22 47 54 48 34 49 53 50 35 51 38 52 52 53 71 54 36 55
REMARK SMILES IDX 37 56 51 58 72 59 39 60 23 61 24 62 32 63 25 64 26 65 30 66
REMARK SMILES IDX 33 67 27 68 28 69 31 70 29 71 55 72 56 73 64 74 57 75 58 76
REMARK SMILES IDX 62 77 65 78 59 79 60 80 63 81 61 82 40 83 41 84 49 85 42 86
REMARK SMILES IDX 43 87 47 88 50 89 44 90 45 91 48 92 46 93
REMARK H PARENT 6 5 11 27 70 46 38 57
REMARK Flexibility Score: inf
ROOT
ATOM      1  C   UNL A   1      34.495  32.106  28.833  1.00  0.00     0.116 C 
ENDROOT
BRANCH   1   2
ATOM      2  N   UNL A   1      35.025  31.147  27.887  1.00  0.00    -0.356 N 
ATOM      3  C   UNL A   1      34.383  30.141  27.226  1.00  0.00     0.225 C 
ATOM      4  O   UNL A   1      35.061  29.440  26.476  1.00  0.00    -0.275 OA
ATOM      5  H   UNL A   1      35.986  31.231  27.693  1.00  0.00     0.163 HD
BRANCH   3   6
ATOM      6  C   UNL A   1      32.902  29.883  27.502  1.00  0.00     0.102 C 
ATOM      7  C   UNL A   1      31.290  27.963  27.817  1.00  0.00     0.032 C 
ATOM      8  C   UNL A   1      32.472  28.487  26.989  1.00  0.00     0.096 C 
ATOM      9  N   UNL A   1      32.091  28.722  25.588  1.00  0.00    -0.321 N 
ATOM     10  C   UNL A   1      31.966  30.805  26.721  1.00  0.00     0.037 C 
ATOM     11  C   UNL A   1      31.903  30.148  25.361  1.00  0.00     0.122 C 
BRANCH   9  12
ATOM     12  C   UNL A   1      32.023  27.933  24.472  1.00  0.00     0.320 C 
ATOM     13  O   UNL A   1      33.013  27.911  23.725  1.00  0.00    -0.248 OA
BRANCH  12  14
ATOM     14  N   UNL A   1      30.899  27.230  24.112  1.00  0.00    -0.323 N 
ATOM     15  C   UNL A   1      30.072  26.292  24.852  1.00  0.00     0.149 C 
BRANCH  14  16
ATOM     16  C   UNL A   1      30.461  27.431  22.728  1.00  0.00     0.157 C 
BRANCH  16  17
ATOM     17  C   UNL A   1      29.629  28.684  22.563  1.00  0.00    -0.018 A 
ATOM     18  C   UNL A   1      28.257  28.769  22.983  1.00  0.00     0.017 A 
ATOM     19  C   UNL A   1      30.016  29.875  21.968  1.00  0.00     0.070 A 
ATOM     20  C   UNL A   1      27.674  29.978  22.678  1.00  0.00     0.065 A 
ATOM     21  S   UNL A   1      28.766  31.037  21.903  1.00  0.00    -0.152 S 
ENDBRANCH  16  17
ENDBRANCH  14  16
ENDBRANCH  12  14
ENDBRANCH   9  12
ENDBRANCH   3   6
ENDBRANCH   1   2
BRANCH   1  22
ATOM     22  C   UNL A   1      34.453  33.524  28.280  1.00  0.00     0.023 C 
BRANCH  22  23
ATOM     23  C   UNL A   1      33.226  34.342  28.677  1.00  0.00     0.023 C 
BRANCH  23  24
ATOM     24  C   UNL A   1      33.515  35.748  29.189  1.00  0.00     0.116 C 
BRANCH  24  25
ATOM     25  N   UNL A   1      32.644  36.142  30.285  1.00  0.00    -0.352 N 
ATOM     26  C   UNL A   1      32.714  35.825  31.622  1.00  0.00     0.251 C 
ATOM     27  H   UNL A   1      31.891  36.723  30.033  1.00  0.00     0.163 HD
ATOM     28  O   UNL A   1      31.796  36.123  32.374  1.00  0.00    -0.269 OA
BRANCH  26  29
ATOM     29  C   UNL A   1      33.890  35.096  32.145  1.00  0.00     0.039 A 
ATOM     30  C   UNL A   1      33.744  33.756  32.518  1.00  0.00     0.014 A 
ATOM     31  C   UNL A   1      35.132  35.723  32.256  1.00  0.00     0.014 A 
ATOM     32  C   UNL A   1      34.862  33.028  32.931  1.00  0.00     0.010 A 
ATOM     33  C   UNL A   1      36.259  34.973  32.574  1.00  0.00     0.010 A 
ATOM     34  C   UNL A   1      36.136  33.619  32.924  1.00  0.00    -0.014 A 
BRANCH  34  35
ATOM     35  C   UNL A   1      37.350  32.848  33.296  1.00  0.00     0.031 A 
ATOM     36  C   UNL A   1      38.063  33.144  34.587  1.00  0.00     0.074 A 
ATOM     37  C   UNL A   1      37.850  31.930  32.445  1.00  0.00     0.049 A 
ATOM     38  N   UNL A   1      39.176  32.639  35.056  1.00  0.00    -0.248 NA
ATOM     39  C   UNL A   1      37.458  34.169  35.453  1.00  0.00     0.031 C 
ATOM     40  C   UNL A   1      37.280  31.583  31.143  1.00  0.00     0.029 A 
ATOM     41  N   UNL A   1      38.960  31.127  32.545  1.00  0.00    -0.354 N 
ATOM     42  C   UNL A   1      39.410  33.295  36.258  1.00  0.00     0.074 A 
ATOM     43  C   UNL A   1      38.362  34.279  36.414  1.00  0.00     0.031 C 
ATOM     44  C   UNL A   1      38.026  30.620  30.578  1.00  0.00     0.029 A 
ATOM     45  C   UNL A   1      39.150  30.311  31.457  1.00  0.00     0.049 A 
ATOM     46  H   UNL A   1      39.561  31.134  33.325  1.00  0.00     0.167 HD
ATOM     47  C   UNL A   1      40.394  33.079  37.163  1.00  0.00     0.037 A 
ATOM     48  C   UNL A   1      40.125  29.420  31.195  1.00  0.00     0.037 A 
ATOM     49  C   UNL A   1      41.425  32.084  37.012  1.00  0.00     0.049 A 
ATOM     50  C   UNL A   1      41.216  29.208  32.210  1.00  0.00     0.074 A 
ATOM     51  C   UNL A   1      42.437  31.751  37.894  1.00  0.00     0.029 A 
ATOM     52  N   UNL A   1      41.574  31.266  35.902  1.00  0.00    -0.354 N 
ATOM     53  N   UNL A   1      41.392  29.786  33.373  1.00  0.00    -0.248 NA
ATOM     54  C   UNL A   1      42.243  28.210  31.877  1.00  0.00     0.031 C 
ATOM     55  C   UNL A   1      43.232  30.768  37.295  1.00  0.00     0.029 A 
ATOM     56  C   UNL A   1      42.677  30.442  36.068  1.00  0.00     0.049 A 
ATOM     57  H   UNL A   1      40.986  31.269  35.113  1.00  0.00     0.167 HD
ATOM     58  C   UNL A   1      42.521  29.197  33.927  1.00  0.00     0.074 A 
ATOM     59  C   UNL A   1      42.984  28.209  32.977  1.00  0.00     0.031 C 
ATOM     60  C   UNL A   1      43.118  29.451  35.118  1.00  0.00     0.037 A 
BRANCH  47  61
ATOM     61  C   UNL A   1      40.401  33.936  38.397  1.00  0.00     0.064 A 
ATOM     62  C   UNL A   1      41.146  35.125  38.466  1.00  0.00     0.173 A 
ATOM     63  C   UNL A   1      39.637  33.579  39.518  1.00  0.00     0.173 A 
ATOM     64  F   UNL A   1      41.904  35.509  37.427  1.00  0.00    -0.203 F 
ATOM     65  C   UNL A   1      41.157  35.900  39.623  1.00  0.00     0.198 A 
ATOM     66  C   UNL A   1      39.620  34.376  40.660  1.00  0.00     0.198 A 
ATOM     67  F   UNL A   1      38.900  32.458  39.506  1.00  0.00    -0.203 F 
ATOM     68  F   UNL A   1      41.925  36.996  39.686  1.00  0.00    -0.200 F 
ATOM     69  C   UNL A   1      40.388  35.529  40.715  1.00  0.00     0.200 A 
ATOM     70  F   UNL A   1      38.865  34.024  41.709  1.00  0.00    -0.200 F 
ATOM     71  F   UNL A   1      40.394  36.279  41.826  1.00  0.00    -0.200 F 
ENDBRANCH  47  61
BRANCH  48  72
ATOM     72  C   UNL A   1      40.099  28.638  29.930  1.00  0.00     0.064 A 
ATOM     73  C   UNL A   1      39.476  27.383  29.873  1.00  0.00     0.173 A 
ATOM     74  C   UNL A   1      40.701  29.120  28.758  1.00  0.00     0.173 A 
ATOM     75  F   UNL A   1      38.905  26.870  30.972  1.00  0.00    -0.203 F 
ATOM     76  C   UNL A   1      39.477  26.630  28.700  1.00  0.00     0.198 A 
ATOM     77  C   UNL A   1      40.672  28.380  27.578  1.00  0.00     0.198 A 
ATOM     78  F   UNL A   1      41.305  30.318  28.756  1.00  0.00    -0.203 F 
ATOM     79  F   UNL A   1      38.918  25.413  28.689  1.00  0.00    -0.200 F 
ATOM     80  C   UNL A   1      40.070  27.132  27.552  1.00  0.00     0.200 A 
ATOM     81  F   UNL A   1      41.232  28.876  26.466  1.00  0.00    -0.200 F 
ATOM     82  F   UNL A   1      40.066  26.410  26.423  1.00  0.00    -0.200 F 
ENDBRANCH  48  72
BRANCH  60  83
ATOM     83  C   UNL A   1      44.305  28.608  35.490  1.00  0.00     0.064 A 
ATOM     84  C   UNL A   1      45.617  28.992  35.171  1.00  0.00     0.173 A 
ATOM     85  C   UNL A   1      44.128  27.418  36.211  1.00  0.00     0.173 A 
ATOM     86  F   UNL A   1      45.841  30.114  34.471  1.00  0.00    -0.203 F 
ATOM     87  C   UNL A   1      46.702  28.198  35.533  1.00  0.00     0.198 A 
ATOM     88  C   UNL A   1      45.217  26.645  36.602  1.00  0.00     0.198 A 
ATOM     89  F   UNL A   1      42.895  27.009  36.549  1.00  0.00    -0.203 F 
ATOM     90  F   UNL A   1      47.942  28.555  35.170  1.00  0.00    -0.200 F 
ATOM     91  C   UNL A   1      46.503  27.031  36.255  1.00  0.00     0.200 A 
ATOM     92  F   UNL A   1      45.022  25.527  37.316  1.00  0.00    -0.200 F 
ATOM     93  F   UNL A   1      47.548  26.272  36.610  1.00  0.00    -0.200 F 
ENDBRANCH  60  83
ENDBRANCH  34  35
ENDBRANCH  26  29
ENDBRANCH  24  25
ENDBRANCH  23  24
ENDBRANCH  22  23
ENDBRANCH   1  22
TORSDOF 15
ENDMDL
MODEL 2
REMARK VINA RESULT:     -11.2      2.371      8.046
REMARK SMILES C[C@@H]1[C@@H](C(=O)NCCCCNC(=O)c2ccc(-c3c4nc(c(-c5c(F)c(F)c(F)c(F)c5F)c5ccc([nH]5)c(-c5c(F)c(F)c(F)c(F)c5F)c5nc(c(-c6c(F)c(F)c(F)c(F)c6F)c6ccc3[nH]6)C=C5)C=C4)cc2)CCN1C(=O)N(C)Cc1ccsc1
REMARK SMILES IDX 7 1 6 2 4 3 5 4 3 6 1 7 2 8 79 9 77 10 78 11 80 12 81 13
REMARK SMILES IDX 82 14 83 15 84 16 85 17 86 18 89 19 87 20 88 21 8 22 9 23
REMARK SMILES IDX 10 24 11 25 12 26 13 28 14 29 15 30 76 31 16 32 75 33 17 34
REMARK SMILES IDX 18 35 19 36 69 37 20 38 74 39 68 40 70 41 21 42 73 43 67 44
REMARK SMILES IDX 66 45 22 47 54 48 34 49 53 50 35 51 38 52 52 53 71 54 36 55
REMARK SMILES IDX 37 56 51 58 72 59 39 60 23 61 24 62 32 63 25 64 26 65 30 66
REMARK SMILES IDX 33 67 27 68 28 69 31 70 29 71 55 72 56 73 64 74 57 75 58 76
REMARK SMILES IDX 62 77 65 78 59 79 60 80 63 81 61 82 40 83 41 84 49 85 42 86
REMARK SMILES IDX 43 87 47 88 50 89 44 90 45 91 48 92 46 93
REMARK H PARENT 6 5 11 27 70 46 38 57
REMARK Flexibility Score: inf
ROOT
ATOM      1  C   UNL A   1      33.148  30.136  26.492  1.00  0.00     0.116 C 
ENDROOT
BRANCH   1   2
ATOM      2  N   UNL A   1      33.285  28.697  26.407  1.00  0.00    -0.356 N 
ATOM      3  C   UNL A   1      32.979  27.860  25.375  1.00  0.00     0.225 C 
ATOM      4  O   UNL A   1      33.173  26.657  25.551  1.00  0.00    -0.275 OA
ATOM      5  H   UNL A   1      33.651  28.261  27.209  1.00  0.00     0.163 HD
BRANCH   3   6
ATOM      6  C   UNL A   1      32.347  28.428  24.105  1.00  0.00     0.102 C 
ATOM      7  C   UNL A   1      30.453  27.960  22.500  1.00  0.00     0.032 C 
ATOM      8  C   UNL A   1      31.591  27.331  23.316  1.00  0.00     0.096 C 
ATOM      9  N   UNL A   1      32.621  26.742  22.447  1.00  0.00    -0.321 N 
ATOM     10  C   UNL A   1      33.369  28.906  23.075  1.00  0.00     0.037 C 
ATOM     11  C   UNL A   1      33.778  27.623  22.386  1.00  0.00     0.122 C 
BRANCH   9  12
ATOM     12  C   UNL A   1      32.771  25.529  21.833  1.00  0.00     0.320 C 
ATOM     13  O   UNL A   1      33.111  25.528  20.640  1.00  0.00    -0.248 OA
BRANCH  12  14
ATOM     14  N   UNL A   1      32.496  24.332  22.449  1.00  0.00    -0.323 N 
ATOM     15  C   UNL A   1      31.361  23.897  23.245  1.00  0.00     0.149 C 
BRANCH  14  16
ATOM     16  C   UNL A   1      33.538  23.312  22.310  1.00  0.00     0.157 C 
BRANCH  16  17
ATOM     17  C   UNL A   1      34.284  23.070  23.604  1.00  0.00    -0.018 A 
ATOM     18  C   UNL A   1      35.114  24.068  24.223  1.00  0.00     0.017 A 
ATOM     19  C   UNL A   1      34.328  21.897  24.340  1.00  0.00     0.070 A 
ATOM     20  C   UNL A   1      35.748  23.613  25.357  1.00  0.00     0.065 A 
ATOM     21  S   UNL A   1      35.345  21.993  25.710  1.00  0.00    -0.152 S 
ENDBRANCH  16  17
ENDBRANCH  14  16
ENDBRANCH  12  14
ENDBRANCH   9  12
ENDBRANCH   3   6
ENDBRANCH   1   2
BRANCH   1  22
ATOM     22  C   UNL A   1      31.703  30.586  26.668  1.00  0.00     0.023 C 
BRANCH  22  23
ATOM     23  C   UNL A   1      31.501  32.094  26.797  1.00  0.00     0.023 C 
BRANCH  23  24
ATOM     24  C   UNL A   1      32.744  32.889  27.177  1.00  0.00     0.116 C 
BRANCH  24  25
ATOM     25  N   UNL A   1      32.441  34.253  27.583  1.00  0.00    -0.352 N 
ATOM     26  C   UNL A   1      32.976  35.008  28.601  1.00  0.00     0.251 C 
ATOM     27  H   UNL A   1      31.749  34.704  27.049  1.00  0.00     0.163 HD
ATOM     28  O   UNL A   1      32.482  36.088  28.892  1.00  0.00    -0.269 OA
BRANCH  26  29
ATOM     29  C   UNL A   1      34.135  34.496  29.365  1.00  0.00     0.039 A 
ATOM     30  C   UNL A   1      33.907  33.816  30.564  1.00  0.00     0.014 A 
ATOM     31  C   UNL A   1      35.438  34.675  28.897  1.00  0.00     0.014 A 
ATOM     32  C   UNL A   1      34.983  33.251  31.254  1.00  0.00     0.010 A 
ATOM     33  C   UNL A   1      36.495  34.032  29.532  1.00  0.00     0.010 A 
ATOM     34  C   UNL A   1      36.281  33.319  30.722  1.00  0.00    -0.014 A 
BRANCH  34  35
ATOM     35  C   UNL A   1      37.432  32.671  31.402  1.00  0.00     0.031 A 
ATOM     36  C   UNL A   1      38.145  31.523  30.742  1.00  0.00     0.074 A 
ATOM     37  C   UNL A   1      37.794  33.068  32.638  1.00  0.00     0.049 A 
ATOM     38  N   UNL A   1      39.119  30.777  31.200  1.00  0.00    -0.248 NA
ATOM     39  C   UNL A   1      37.681  31.144  29.398  1.00  0.00     0.031 C 
ATOM     40  C   UNL A   1      37.154  34.138  33.405  1.00  0.00     0.029 A 
ATOM     41  N   UNL A   1      38.785  32.611  33.471  1.00  0.00    -0.354 N 
ATOM     42  C   UNL A   1      39.369  29.834  30.210  1.00  0.00     0.074 A 
ATOM     43  C   UNL A   1      38.403  30.060  29.157  1.00  0.00     0.031 C 
ATOM     44  C   UNL A   1      37.785  34.273  34.583  1.00  0.00     0.029 A 
ATOM     45  C   UNL A   1      38.844  33.273  34.673  1.00  0.00     0.049 A 
ATOM     46  H   UNL A   1      39.397  31.878  33.229  1.00  0.00     0.167 HD
ATOM     47  C   UNL A   1      40.333  28.884  30.169  1.00  0.00     0.037 A 
ATOM     48  C   UNL A   1      39.657  33.089  35.731  1.00  0.00     0.037 A 
ATOM     49  C   UNL A   1      41.305  28.675  31.211  1.00  0.00     0.049 A 
ATOM     50  C   UNL A   1      40.712  32.016  35.667  1.00  0.00     0.074 A 
ATOM     51  C   UNL A   1      42.354  27.774  31.243  1.00  0.00     0.029 A 
ATOM     52  N   UNL A   1      41.342  29.378  32.406  1.00  0.00    -0.354 N 
ATOM     53  N   UNL A   1      40.982  31.175  34.700  1.00  0.00    -0.248 NA
ATOM     54  C   UNL A   1      41.581  31.874  36.844  1.00  0.00     0.031 C 
ATOM     55  C   UNL A   1      42.993  27.893  32.482  1.00  0.00     0.029 A 
ATOM     56  C   UNL A   1      42.384  28.914  33.195  1.00  0.00     0.049 A 
ATOM     57  H   UNL A   1      40.721  30.099  32.659  1.00  0.00     0.167 HD
ATOM     58  C   UNL A   1      42.073  30.432  35.132  1.00  0.00     0.074 A 
ATOM     59  C   UNL A   1      42.421  30.930  36.446  1.00  0.00     0.031 C 
ATOM     60  C   UNL A   1      42.729  29.430  34.495  1.00  0.00     0.037 A 
BRANCH  47  61
ATOM     61  C   UNL A   1      40.381  27.998  28.956  1.00  0.00     0.064 A 
ATOM     62  C   UNL A   1      39.665  26.791  28.895  1.00  0.00     0.173 A 
ATOM     63  C   UNL A   1      41.133  28.368  27.831  1.00  0.00     0.173 A 
ATOM     64  F   UNL A   1      38.938  26.382  29.946  1.00  0.00    -0.203 F 
ATOM     65  C   UNL A   1      39.733  25.971  27.771  1.00  0.00     0.198 A 
ATOM     66  C   UNL A   1      41.170  27.564  26.695  1.00  0.00     0.198 A 
ATOM     67  F   UNL A   1      41.831  29.514  27.831  1.00  0.00    -0.203 F 
ATOM     68  F   UNL A   1      39.092  24.795  27.762  1.00  0.00    -0.200 F 
ATOM     69  C   UNL A   1      40.479  26.362  26.670  1.00  0.00     0.200 A 
ATOM     70  F   UNL A   1      41.878  27.951  25.626  1.00  0.00    -0.200 F 
ATOM     71  F   UNL A   1      40.539  25.576  25.587  1.00  0.00    -0.200 F 
ENDBRANCH  47  61
BRANCH  48  72
ATOM     72  C   UNL A   1      39.528  33.960  36.929  1.00  0.00     0.064 A 
ATOM     73  C   UNL A   1      40.166  35.207  36.984  1.00  0.00     0.173 A 
ATOM     74  C   UNL A   1      38.775  33.565  38.045  1.00  0.00     0.173 A 
ATOM     75  F   UNL A   1      40.915  35.622  35.951  1.00  0.00    -0.203 F 
ATOM     76  C   UNL A   1      40.077  36.014  38.117  1.00  0.00     0.198 A 
ATOM     77  C   UNL A   1      38.661  34.386  39.164  1.00  0.00     0.198 A 
ATOM     78  F   UNL A   1      38.139  32.384  38.042  1.00  0.00    -0.203 F 
ATOM     79  F   UNL A   1      40.739  37.178  38.161  1.00  0.00    -0.200 F 
ATOM     80  C   UNL A   1      39.319  35.606  39.204  1.00  0.00     0.200 A 
ATOM     81  F   UNL A   1      37.914  33.995  40.206  1.00  0.00    -0.200 F 
ATOM     82  F   UNL A   1      39.230  36.384  40.291  1.00  0.00    -0.200 F 
ENDBRANCH  48  72
BRANCH  60  83
ATOM     83  C   UNL A   1      43.927  28.841  35.185  1.00  0.00     0.064 A 
ATOM     84  C   UNL A   1      45.221  29.344  34.985  1.00  0.00     0.173 A 
ATOM     85  C   UNL A   1      43.769  27.780  36.090  1.00  0.00     0.173 A 
ATOM     86  F   UNL A   1      45.430  30.349  34.121  1.00  0.00    -0.203 F 
ATOM     87  C   UNL A   1      46.315  28.786  35.642  1.00  0.00     0.198 A 
ATOM     88  C   UNL A   1      44.859  27.248  36.771  1.00  0.00     0.198 A 
ATOM     89  F   UNL A   1      42.551  27.266  36.323  1.00  0.00    -0.203 F 
ATOM     90  F   UNL A   1      47.549  29.247  35.395  1.00  0.00    -0.200 F 
ATOM     91  C   UNL A   1      46.133  27.745  36.540  1.00  0.00     0.200 A 
ATOM     92  F   UNL A   1      44.677  26.253  37.651  1.00  0.00    -0.200 F 
ATOM     93  F   UNL A   1      47.185  27.214  37.177  1.00  0.00    -0.200 F 
ENDBRANCH  60  83
ENDBRANCH  34  35
ENDBRANCH  26  29
ENDBRANCH  24  25
ENDBRANCH  23  24
ENDBRANCH  22  23
ENDBRANCH   1  22
TORSDOF 15
ENDMDL
MODEL 3
REMARK VINA RESULT:     -11.0      6.376     11.776
REMARK SMILES C[C@@H]1[C@@H](C(=O)NCCCCNC(=O)c2ccc(-c3c4nc(c(-c5c(F)c(F)c(F)c(F)c5F)c5ccc([nH]5)c(-c5c(F)c(F)c(F)c(F)c5F)c5nc(c(-c6c(F)c(F)c(F)c(F)c6F)c6ccc3[nH]6)C=C5)C=C4)cc2)CCN1C(=O)N(C)Cc1ccsc1
REMARK SMILES IDX 7 1 6 2 4 3 5 4 3 6 1 7 2 8 79 9 77 10 78 11 80 12 81 13
REMARK SMILES IDX 82 14 83 15 84 16 85 17 86 18 89 19 87 20 88 21 8 22 9 23
REMARK SMILES IDX 10 24 11 25 12 26 13 28 14 29 15 30 76 31 16 32 75 33 17 34
REMARK SMILES IDX 18 35 19 36 69 37 20 38 74 39 68 40 70 41 21 42 73 43 67 44
REMARK SMILES IDX 66 45 22 47 54 48 34 49 53 50 35 51 38 52 52 53 71 54 36 55
REMARK SMILES IDX 37 56 51 58 72 59 39 60 23 61 24 62 32 63 25 64 26 65 30 66
REMARK SMILES IDX 33 67 27 68 28 69 31 70 29 71 55 72 56 73 64 74 57 75 58 76
REMARK SMILES IDX 62 77 65 78 59 79 60 80 63 81 61 82 40 83 41 84 49 85 42 86
REMARK SMILES IDX 43 87 47 88 50 89 44 90 45 91 48 92 46 93
REMARK H PARENT 6 5 11 27 70 46 38 57
REMARK Flexibility Score: inf
ROOT
ATOM      1  C   UNL A   1      37.516  21.735  25.103  1.00  0.00     0.116 C 
ENDROOT
BRANCH   1   2
ATOM      2  N   UNL A   1      36.616  22.194  26.140  1.00  0.00    -0.356 N 
ATOM      3  C   UNL A   1      35.355  22.701  26.026  1.00  0.00     0.225 C 
ATOM      4  O   UNL A   1      34.791  23.040  27.067  1.00  0.00    -0.275 OA
ATOM      5  H   UNL A   1      36.964  22.131  27.059  1.00  0.00     0.163 HD
BRANCH   3   6
ATOM      6  C   UNL A   1      34.744  22.899  24.640  1.00  0.00     0.102 C 
ATOM      7  C   UNL A   1      33.765  24.722  23.189  1.00  0.00     0.032 C 
ATOM      8  C   UNL A   1      33.815  24.137  24.608  1.00  0.00     0.096 C 
ATOM      9  N   UNL A   1      32.506  23.612  25.026  1.00  0.00    -0.321 N 
ATOM     10  C   UNL A   1      33.788  21.780  24.229  1.00  0.00     0.037 C 
ATOM     11  C   UNL A   1      32.503  22.160  24.930  1.00  0.00     0.122 C 
BRANCH   9  12
ATOM     12  C   UNL A   1      31.394  24.168  25.598  1.00  0.00     0.320 C 
ATOM     13  O   UNL A   1      30.997  23.684  26.668  1.00  0.00    -0.248 OA
BRANCH  12  14
ATOM     14  N   UNL A   1      30.668  25.176  25.012  1.00  0.00    -0.323 N 
ATOM     15  C   UNL A   1      30.175  25.345  23.655  1.00  0.00     0.149 C 
BRANCH  14  16
ATOM     16  C   UNL A   1      30.352  26.303  25.894  1.00  0.00     0.157 C 
BRANCH  16  17
ATOM     17  C   UNL A   1      31.538  27.218  26.107  1.00  0.00    -0.018 A 
ATOM     18  C   UNL A   1      31.809  27.863  27.363  1.00  0.00     0.017 A 
ATOM     19  C   UNL A   1      32.480  27.604  25.166  1.00  0.00     0.070 A 
ATOM     20  C   UNL A   1      32.900  28.701  27.315  1.00  0.00     0.065 A 
ATOM     21  S   UNL A   1      33.629  28.714  25.772  1.00  0.00    -0.152 S 
ENDBRANCH  16  17
ENDBRANCH  14  16
ENDBRANCH  12  14
ENDBRANCH   9  12
ENDBRANCH   3   6
ENDBRANCH   1   2
BRANCH   1  22
ATOM     22  C   UNL A   1      37.210  20.318  24.635  1.00  0.00     0.023 C 
BRANCH  22  23
ATOM     23  C   UNL A   1      38.251  19.267  25.014  1.00  0.00     0.023 C 
BRANCH  23  24
ATOM     24  C   UNL A   1      39.413  19.774  25.861  1.00  0.00     0.116 C 
BRANCH  24  25
ATOM     25  N   UNL A   1      40.522  18.834  25.920  1.00  0.00    -0.352 N 
ATOM     26  C   UNL A   1      41.869  19.071  26.067  1.00  0.00     0.251 C 
ATOM     27  H   UNL A   1      40.271  17.886  25.843  1.00  0.00     0.163 HD
ATOM     28  O   UNL A   1      42.672  18.158  25.936  1.00  0.00    -0.269 OA
BRANCH  26  29
ATOM     29  C   UNL A   1      42.348  20.441  26.354  1.00  0.00     0.039 A 
ATOM     30  C   UNL A   1      42.756  21.251  25.290  1.00  0.00     0.014 A 
ATOM     31  C   UNL A   1      42.385  20.929  27.661  1.00  0.00     0.014 A 
ATOM     32  C   UNL A   1      43.129  22.575  25.533  1.00  0.00     0.010 A 
ATOM     33  C   UNL A   1      42.663  22.272  27.890  1.00  0.00     0.010 A 
ATOM     34  C   UNL A   1      43.046  23.109  26.830  1.00  0.00    -0.014 A 
BRANCH  34  35
ATOM     35  C   UNL A   1      43.374  24.532  27.105  1.00  0.00     0.031 A 
ATOM     36  C   UNL A   1      44.765  25.045  26.852  1.00  0.00     0.074 A 
ATOM     37  C   UNL A   1      42.443  25.343  27.645  1.00  0.00     0.049 A 
ATOM     38  N   UNL A   1      45.270  26.228  27.097  1.00  0.00    -0.248 NA
ATOM     39  C   UNL A   1      45.724  24.091  26.273  1.00  0.00     0.031 C 
ATOM     40  C   UNL A   1      41.073  24.955  27.981  1.00  0.00     0.029 A 
ATOM     41  N   UNL A   1      42.513  26.664  28.014  1.00  0.00    -0.354 N 
ATOM     42  C   UNL A   1      46.605  26.153  26.719  1.00  0.00     0.074 A 
ATOM     43  C   UNL A   1      46.847  24.793  26.290  1.00  0.00     0.031 C 
ATOM     44  C   UNL A   1      40.423  26.019  28.480  1.00  0.00     0.029 A 
ATOM     45  C   UNL A   1      41.342  27.152  28.540  1.00  0.00     0.049 A 
ATOM     46  H   UNL A   1      43.326  27.211  27.910  1.00  0.00     0.167 HD
ATOM     47  C   UNL A   1      47.538  27.134  26.703  1.00  0.00     0.037 A 
ATOM     48  C   UNL A   1      41.045  28.374  29.023  1.00  0.00     0.037 A 
ATOM     49  C   UNL A   1      47.287  28.492  27.111  1.00  0.00     0.049 A 
ATOM     50  C   UNL A   1      42.103  29.445  29.008  1.00  0.00     0.074 A 
ATOM     51  C   UNL A   1      48.149  29.574  27.085  1.00  0.00     0.029 A 
ATOM     52  N   UNL A   1      46.082  28.952  27.623  1.00  0.00    -0.354 N 
ATOM     53  N   UNL A   1      43.343  29.381  28.587  1.00  0.00    -0.248 NA
ATOM     54  C   UNL A   1      41.716  30.763  29.531  1.00  0.00     0.031 C 
ATOM     55  C   UNL A   1      47.484  30.676  27.633  1.00  0.00     0.029 A 
ATOM     56  C   UNL A   1      46.185  30.298  27.939  1.00  0.00     0.049 A 
ATOM     57  H   UNL A   1      45.273  28.404  27.746  1.00  0.00     0.167 HD
ATOM     58  C   UNL A   1      43.870  30.654  28.756  1.00  0.00     0.074 A 
ATOM     59  C   UNL A   1      42.813  31.473  29.309  1.00  0.00     0.031 C 
ATOM     60  C   UNL A   1      45.118  31.105  28.475  1.00  0.00     0.037 A 
BRANCH  47  61
ATOM     61  C   UNL A   1      48.917  26.772  26.229  1.00  0.00     0.064 A 
ATOM     62  C   UNL A   1      49.318  26.979  24.899  1.00  0.00     0.173 A 
ATOM     63  C   UNL A   1      49.859  26.234  27.119  1.00  0.00     0.173 A 
ATOM     64  F   UNL A   1      48.455  27.481  24.003  1.00  0.00    -0.203 F 
ATOM     65  C   UNL A   1      50.594  26.622  24.470  1.00  0.00     0.198 A 
ATOM     66  C   UNL A   1      51.146  25.913  26.695  1.00  0.00     0.198 A 
ATOM     67  F   UNL A   1      49.533  26.022  28.403  1.00  0.00    -0.203 F 
ATOM     68  F   UNL A   1      50.932  26.770  23.181  1.00  0.00    -0.200 F 
ATOM     69  C   UNL A   1      51.509  26.097  25.370  1.00  0.00     0.200 A 
ATOM     70  F   UNL A   1      52.033  25.420  27.569  1.00  0.00    -0.200 F 
ATOM     71  F   UNL A   1      52.739  25.760  24.957  1.00  0.00    -0.200 F 
ENDBRANCH  47  61
BRANCH  48  72
ATOM     72  C   UNL A   1      39.677  28.661  29.533  1.00  0.00     0.064 A 
ATOM     73  C   UNL A   1      38.696  29.203  28.691  1.00  0.00     0.173 A 
ATOM     74  C   UNL A   1      39.325  28.410  30.867  1.00  0.00     0.173 A 
ATOM     75  F   UNL A   1      38.989  29.480  27.412  1.00  0.00    -0.203 F 
ATOM     76  C   UNL A   1      37.422  29.506  29.171  1.00  0.00     0.198 A 
ATOM     77  C   UNL A   1      38.042  28.683  31.336  1.00  0.00     0.198 A 
ATOM     78  F   UNL A   1      40.225  27.886  31.713  1.00  0.00    -0.203 F 
ATOM     79  F   UNL A   1      36.520  30.070  28.356  1.00  0.00    -0.200 F 
ATOM     80  C   UNL A   1      37.095  29.240  30.491  1.00  0.00     0.200 A 
ATOM     81  F   UNL A   1      37.725  28.410  32.609  1.00  0.00    -0.200 F 
ATOM     82  F   UNL A   1      35.869  29.527  30.950  1.00  0.00    -0.200 F 
ENDBRANCH  48  72
BRANCH  60  83
ATOM     83  C   UNL A   1      45.395  32.564  28.706  1.00  0.00     0.064 A 
ATOM     84  C   UNL A   1      45.959  33.032  29.902  1.00  0.00     0.173 A 
ATOM     85  C   UNL A   1      45.127  33.501  27.696  1.00  0.00     0.173 A 
ATOM     86  F   UNL A   1      46.222  32.180  30.904  1.00  0.00    -0.203 F 
ATOM     87  C   UNL A   1      46.214  34.389  30.090  1.00  0.00     0.198 A 
ATOM     88  C   UNL A   1      45.416  34.850  27.874  1.00  0.00     0.198 A 
ATOM     89  F   UNL A   1      44.595  33.105  26.529  1.00  0.00    -0.203 F 
ATOM     90  F   UNL A   1      46.701  34.821  31.261  1.00  0.00    -0.200 F 
ATOM     91  C   UNL A   1      45.950  35.295  29.074  1.00  0.00     0.200 A 
ATOM     92  F   UNL A   1      45.176  35.721  26.883  1.00  0.00    -0.200 F 
ATOM     93  F   UNL A   1      46.204  36.598  29.252  1.00  0.00    -0.200 F 
ENDBRANCH  60  83
ENDBRANCH  34  35
ENDBRANCH  26  29
ENDBRANCH  24  25
ENDBRANCH  23  24
ENDBRANCH  22  23
ENDBRANCH   1  22
TORSDOF 15
ENDMDL
