MODEL 1
REMARK VINA RESULT:     -13.8      0.000      0.000
REMARK SMILES O=C(NCCCCNC(=O)c1ccc(-c2c3nc(c(-c4c(F)c(F)c(F)c(F)c4F)c4ccc([nH]4)c(-c4c(F)c(F)c(F)c(F)c4F)c4nc(c(-c5c(F)c(F)c(F)c(F)c5F)c5ccc2[nH]5)C=C4)C=C3)cc1)C1=Cc2cc(Cl)c(Cl)c(Cl)c2O[C@@H]1C(F)(F)F
REMARK SMILES IDX 6 1 5 2 4 3 3 4 1 5 2 6 74 8 75 9 86 10 76 11 85 12 77 13
REMARK SMILES IDX 84 14 78 15 82 16 79 17 80 18 83 19 81 20 87 21 88 22 89 23
REMARK SMILES IDX 90 24 7 25 8 26 9 27 10 29 11 30 12 31 73 32 13 33 72 34
REMARK SMILES IDX 14 35 15 36 16 37 66 38 17 39 71 40 65 41 67 42 18 43 70 44
REMARK SMILES IDX 64 45 63 46 19 48 51 49 31 50 50 51 32 52 35 53 49 54 68 55
REMARK SMILES IDX 33 56 34 57 48 59 69 60 36 61 20 62 21 63 29 64 22 65 23 66
REMARK SMILES IDX 27 67 30 68 24 69 25 70 28 71 26 72 52 73 53 74 61 75 54 76
REMARK SMILES IDX 55 77 59 78 62 79 56 80 57 81 60 82 58 83 37 84 38 85 46 86
REMARK SMILES IDX 39 87 40 88 44 89 47 90 41 91 42 92 45 93 43 94
REMARK H PARENT 3 7 8 28 67 47 35 58
REMARK Flexibility Score: inf
ROOT
ATOM      1  C   UNL A   1      31.764  29.221  27.249  1.00  0.00     0.023 C 
ENDROOT
BRANCH   1   2
ATOM      2  C   UNL A   1      32.136  27.752  27.082  1.00  0.00     0.023 C 
BRANCH   2   3
ATOM      3  C   UNL A   1      31.361  26.982  26.015  1.00  0.00     0.116 C 
BRANCH   3   4
ATOM      4  N   UNL A   1      30.647  25.808  26.499  1.00  0.00    -0.352 N 
ATOM      5  O   UNL A   1      30.365  23.693  27.216  1.00  0.00    -0.270 OA
ATOM      6  C   UNL A   1      31.051  24.496  26.589  1.00  0.00     0.251 C 
ATOM      7  H   UNL A   1      29.730  25.980  26.812  1.00  0.00     0.163 HD
BRANCH   6   8
ATOM      8  C   UNL A   1      32.378  24.056  26.064  1.00  0.00     0.067 C 
ATOM      9  C   UNL A   1      32.975  22.949  26.525  1.00  0.00     0.025 C 
ATOM     10  C   UNL A   1      32.646  24.477  24.645  1.00  0.00     0.314 C 
ATOM     11  C   UNL A   1      33.120  21.871  25.548  1.00  0.00     0.020 A 
ATOM     12  O   UNL A   1      32.539  23.369  23.720  1.00  0.00    -0.474 OA
ATOM     13  C   UNL A   1      33.252  20.563  26.023  1.00  0.00     0.034 A 
ATOM     14  C   UNL A   1      32.776  22.101  24.207  1.00  0.00     0.148 A 
ATOM     15  C   UNL A   1      32.969  19.484  25.181  1.00  0.00     0.062 A 
ATOM     16  C   UNL A   1      32.530  21.015  23.351  1.00  0.00     0.103 A 
ATOM     17  Cl  UNL A   1      32.991  17.910  25.900  1.00  0.00    -0.083 Cl
ATOM     18  C   UNL A   1      32.598  19.700  23.844  1.00  0.00     0.082 A 
ATOM     19  Cl  UNL A   1      32.031  21.340  21.718  1.00  0.00    -0.079 Cl
ATOM     20  Cl  UNL A   1      32.153  18.359  22.836  1.00  0.00    -0.081 Cl
BRANCH  10  21
ATOM     21  C   UNL A   1      34.024  25.164  24.543  1.00  0.00     0.429 C 
ATOM     22  F   UNL A   1      33.976  26.254  23.744  1.00  0.00    -0.167 F 
ATOM     23  F   UNL A   1      34.472  25.579  25.753  1.00  0.00    -0.167 F 
ATOM     24  F   UNL A   1      34.972  24.335  24.035  1.00  0.00    -0.167 F 
ENDBRANCH  10  21
ENDBRANCH   6   8
ENDBRANCH   3   4
ENDBRANCH   2   3
ENDBRANCH   1   2
BRANCH   1  25
ATOM     25  C   UNL A   1      32.579  30.231  26.442  1.00  0.00     0.116 C 
BRANCH  25  26
ATOM     26  N   UNL A   1      32.536  31.602  26.945  1.00  0.00    -0.352 N 
ATOM     27  C   UNL A   1      33.499  32.312  27.620  1.00  0.00     0.251 C 
ATOM     28  H   UNL A   1      31.696  32.086  26.775  1.00  0.00     0.163 HD
ATOM     29  O   UNL A   1      33.269  33.459  28.001  1.00  0.00    -0.269 OA
BRANCH  27  30
ATOM     30  C   UNL A   1      34.789  31.672  27.962  1.00  0.00     0.039 A 
ATOM     31  C   UNL A   1      35.917  32.483  28.117  1.00  0.00     0.014 A 
ATOM     32  C   UNL A   1      34.868  30.302  28.218  1.00  0.00     0.014 A 
ATOM     33  C   UNL A   1      37.084  31.944  28.659  1.00  0.00     0.010 A 
ATOM     34  C   UNL A   1      36.005  29.783  28.834  1.00  0.00     0.010 A 
ATOM     35  C   UNL A   1      37.112  30.607  29.089  1.00  0.00    -0.014 A 
BRANCH  35  36
ATOM     36  C   UNL A   1      38.257  30.084  29.880  1.00  0.00     0.031 A 
ATOM     37  C   UNL A   1      38.479  30.526  31.296  1.00  0.00     0.074 A 
ATOM     38  C   UNL A   1      39.147  29.267  29.282  1.00  0.00     0.049 A 
ATOM     39  N   UNL A   1      39.441  30.200  32.121  1.00  0.00    -0.248 NA
ATOM     40  C   UNL A   1      37.510  31.483  31.850  1.00  0.00     0.031 C 
ATOM     41  C   UNL A   1      39.087  28.827  27.887  1.00  0.00     0.029 A 
ATOM     42  N   UNL A   1      40.281  28.666  29.768  1.00  0.00    -0.354 N 
ATOM     43  C   UNL A   1      39.201  30.919  33.284  1.00  0.00     0.074 A 
ATOM     44  C   UNL A   1      38.034  31.739  33.040  1.00  0.00     0.031 C 
ATOM     45  C   UNL A   1      40.115  28.001  27.639  1.00  0.00     0.029 A 
ATOM     46  C   UNL A   1      40.924  27.874  28.847  1.00  0.00     0.049 A 
ATOM     47  H   UNL A   1      40.604  28.789  30.690  1.00  0.00     0.167 HD
ATOM     48  C   UNL A   1      39.879  30.881  34.456  1.00  0.00     0.037 A 
ATOM     49  C   UNL A   1      42.038  27.127  28.963  1.00  0.00     0.037 A 
ATOM     50  C   UNL A   1      41.026  30.047  34.704  1.00  0.00     0.049 A 
ATOM     51  C   UNL A   1      42.756  27.081  30.283  1.00  0.00     0.074 A 
ATOM     52  C   UNL A   1      41.735  29.881  35.882  1.00  0.00     0.029 A 
ATOM     53  N   UNL A   1      41.633  29.237  33.756  1.00  0.00    -0.354 N 
ATOM     54  N   UNL A   1      42.468  27.699  31.402  1.00  0.00    -0.248 NA
ATOM     55  C   UNL A   1      43.951  26.228  30.356  1.00  0.00     0.031 C 
ATOM     56  C   UNL A   1      42.794  29.000  35.634  1.00  0.00     0.029 A 
ATOM     57  C   UNL A   1      42.720  28.586  34.314  1.00  0.00     0.049 A 
ATOM     58  H   UNL A   1      41.334  29.140  32.822  1.00  0.00     0.167 HD
ATOM     59  C   UNL A   1      43.430  27.297  32.318  1.00  0.00     0.074 A 
ATOM     60  C   UNL A   1      44.301  26.368  31.628  1.00  0.00     0.031 C 
ATOM     61  C   UNL A   1      43.579  27.665  33.613  1.00  0.00     0.037 A 
BRANCH  48  62
ATOM     62  C   UNL A   1      39.387  31.766  35.563  1.00  0.00     0.064 A 
ATOM     63  C   UNL A   1      38.442  31.315  36.497  1.00  0.00     0.173 A 
ATOM     64  C   UNL A   1      39.879  33.073  35.704  1.00  0.00     0.173 A 
ATOM     65  F   UNL A   1      37.932  30.078  36.396  1.00  0.00    -0.203 F 
ATOM     66  C   UNL A   1      37.981  32.151  37.511  1.00  0.00     0.198 A 
ATOM     67  C   UNL A   1      39.436  33.896  36.737  1.00  0.00     0.198 A 
ATOM     68  F   UNL A   1      40.788  33.551  34.842  1.00  0.00    -0.203 F 
ATOM     69  F   UNL A   1      37.039  31.715  38.359  1.00  0.00    -0.200 F 
ATOM     70  C   UNL A   1      38.483  33.437  37.633  1.00  0.00     0.200 A 
ATOM     71  F   UNL A   1      39.929  35.136  36.861  1.00  0.00    -0.200 F 
ATOM     72  F   UNL A   1      38.039  34.239  38.611  1.00  0.00    -0.200 F 
ENDBRANCH  48  62
BRANCH  49  73
ATOM     73  C   UNL A   1      42.512  26.322  27.809  1.00  0.00     0.064 A 
ATOM     74  C   UNL A   1      41.977  25.052  27.555  1.00  0.00     0.173 A 
ATOM     75  C   UNL A   1      43.493  26.807  26.932  1.00  0.00     0.173 A 
ATOM     76  F   UNL A   1      41.051  24.540  28.378  1.00  0.00    -0.203 F 
ATOM     77  C   UNL A   1      42.416  24.289  26.476  1.00  0.00     0.198 A 
ATOM     78  C   UNL A   1      43.914  26.052  25.839  1.00  0.00     0.198 A 
ATOM     79  F   UNL A   1      44.030  28.019  27.129  1.00  0.00    -0.203 F 
ATOM     80  F   UNL A   1      41.913  23.062  26.276  1.00  0.00    -0.200 F 
ATOM     81  C   UNL A   1      43.379  24.792  25.614  1.00  0.00     0.200 A 
ATOM     82  F   UNL A   1      44.836  26.546  25.001  1.00  0.00    -0.200 F 
ATOM     83  F   UNL A   1      43.796  24.061  24.571  1.00  0.00    -0.200 F 
ENDBRANCH  49  73
BRANCH  61  84
ATOM     84  C   UNL A   1      44.716  27.049  34.373  1.00  0.00     0.064 A 
ATOM     85  C   UNL A   1      45.967  27.676  34.453  1.00  0.00     0.173 A 
ATOM     86  C   UNL A   1      44.541  25.834  35.052  1.00  0.00     0.173 A 
ATOM     87  F   UNL A   1      46.187  28.830  33.805  1.00  0.00    -0.203 F 
ATOM     88  C   UNL A   1      47.011  27.097  35.168  1.00  0.00     0.198 A 
ATOM     89  C   UNL A   1      45.580  25.271  35.788  1.00  0.00     0.198 A 
ATOM     90  F   UNL A   1      43.361  25.198  35.008  1.00  0.00    -0.203 F 
ATOM     91  F   UNL A   1      48.213  27.691  35.196  1.00  0.00    -0.200 F 
ATOM     92  C   UNL A   1      46.816  25.899  35.840  1.00  0.00     0.200 A 
ATOM     93  F   UNL A   1      45.387  24.119  36.444  1.00  0.00    -0.200 F 
ATOM     94  F   UNL A   1      47.821  25.345  36.532  1.00  0.00    -0.200 F 
ENDBRANCH  61  84
ENDBRANCH  35  36
ENDBRANCH  27  30
ENDBRANCH  25  26
ENDBRANCH   1  25
TORSDOF 12
ENDMDL
MODEL 2
REMARK VINA RESULT:     -13.7      1.299      2.151
REMARK SMILES O=C(NCCCCNC(=O)c1ccc(-c2c3nc(c(-c4c(F)c(F)c(F)c(F)c4F)c4ccc([nH]4)c(-c4c(F)c(F)c(F)c(F)c4F)c4nc(c(-c5c(F)c(F)c(F)c(F)c5F)c5ccc2[nH]5)C=C4)C=C3)cc1)C1=Cc2cc(Cl)c(Cl)c(Cl)c2O[C@@H]1C(F)(F)F
REMARK SMILES IDX 6 1 5 2 4 3 3 4 1 5 2 6 74 8 75 9 86 10 76 11 85 12 77 13
REMARK SMILES IDX 84 14 78 15 82 16 79 17 80 18 83 19 81 20 87 21 88 22 89 23
REMARK SMILES IDX 90 24 7 25 8 26 9 27 10 29 11 30 12 31 73 32 13 33 72 34
REMARK SMILES IDX 14 35 15 36 16 37 66 38 17 39 71 40 65 41 67 42 18 43 70 44
REMARK SMILES IDX 64 45 63 46 19 48 51 49 31 50 50 51 32 52 35 53 49 54 68 55
REMARK SMILES IDX 33 56 34 57 48 59 69 60 36 61 20 62 21 63 29 64 22 65 23 66
REMARK SMILES IDX 27 67 30 68 24 69 25 70 28 71 26 72 52 73 53 74 61 75 54 76
REMARK SMILES IDX 55 77 59 78 62 79 56 80 57 81 60 82 58 83 37 84 38 85 46 86
REMARK SMILES IDX 39 87 40 88 44 89 47 90 41 91 42 92 45 93 43 94
REMARK H PARENT 3 7 8 28 67 47 35 58
REMARK Flexibility Score: inf
ROOT
ATOM      1  C   UNL A   1      31.828  30.055  25.335  1.00  0.00     0.023 C 
ENDROOT
BRANCH   1   2
ATOM      2  C   UNL A   1      32.774  29.338  24.379  1.00  0.00     0.023 C 
BRANCH   2   3
ATOM      3  C   UNL A   1      32.130  28.706  23.148  1.00  0.00     0.116 C 
BRANCH   3   4
ATOM      4  N   UNL A   1      32.974  27.762  22.427  1.00  0.00    -0.352 N 
ATOM      5  O   UNL A   1      33.724  25.762  21.719  1.00  0.00    -0.270 OA
ATOM      6  C   UNL A   1      33.103  26.400  22.566  1.00  0.00     0.251 C 
ATOM      7  H   UNL A   1      33.542  28.162  21.730  1.00  0.00     0.163 HD
BRANCH   6   8
ATOM      8  C   UNL A   1      32.385  25.658  23.644  1.00  0.00     0.067 C 
ATOM      9  C   UNL A   1      31.673  24.556  23.374  1.00  0.00     0.025 C 
ATOM     10  C   UNL A   1      33.015  25.790  25.003  1.00  0.00     0.314 C 
ATOM     11  C   UNL A   1      32.192  23.324  23.966  1.00  0.00     0.020 A 
ATOM     12  O   UNL A   1      33.703  24.580  25.402  1.00  0.00    -0.474 OA
ATOM     13  C   UNL A   1      31.850  22.108  23.368  1.00  0.00     0.034 A 
ATOM     14  C   UNL A   1      33.269  23.387  24.864  1.00  0.00     0.148 A 
ATOM     15  C   UNL A   1      32.627  20.971  23.605  1.00  0.00     0.062 A 
ATOM     16  C   UNL A   1      34.025  22.235  25.132  1.00  0.00     0.103 A 
ATOM     17  Cl  UNL A   1      32.234  19.555  22.691  1.00  0.00    -0.083 Cl
ATOM     18  C   UNL A   1      33.723  21.026  24.480  1.00  0.00     0.082 A 
ATOM     19  Cl  UNL A   1      35.399  22.369  26.189  1.00  0.00    -0.079 Cl
ATOM     20  Cl  UNL A   1      34.739  19.634  24.692  1.00  0.00    -0.081 Cl
BRANCH  10  21
ATOM     21  C   UNL A   1      31.956  26.203  26.046  1.00  0.00     0.429 C 
ATOM     22  F   UNL A   1      31.504  25.136  26.742  1.00  0.00    -0.167 F 
ATOM     23  F   UNL A   1      32.452  27.084  26.948  1.00  0.00    -0.167 F 
ATOM     24  F   UNL A   1      30.877  26.794  25.471  1.00  0.00    -0.167 F 
ENDBRANCH  10  21
ENDBRANCH   6   8
ENDBRANCH   3   4
ENDBRANCH   2   3
ENDBRANCH   1   2
BRANCH   1  25
ATOM     25  C   UNL A   1      32.373  30.379  26.726  1.00  0.00     0.116 C 
BRANCH  25  26
ATOM     26  N   UNL A   1      32.419  31.801  27.055  1.00  0.00    -0.352 N 
ATOM     27  C   UNL A   1      33.455  32.542  27.570  1.00  0.00     0.251 C 
ATOM     28  H   UNL A   1      31.588  32.300  26.883  1.00  0.00     0.163 HD
ATOM     29  O   UNL A   1      33.297  33.737  27.819  1.00  0.00    -0.269 OA
BRANCH  27  30
ATOM     30  C   UNL A   1      34.740  31.889  27.902  1.00  0.00     0.039 A 
ATOM     31  C   UNL A   1      35.878  32.689  28.048  1.00  0.00     0.014 A 
ATOM     32  C   UNL A   1      34.808  30.519  28.159  1.00  0.00     0.014 A 
ATOM     33  C   UNL A   1      37.044  32.139  28.581  1.00  0.00     0.010 A 
ATOM     34  C   UNL A   1      35.945  29.989  28.766  1.00  0.00     0.010 A 
ATOM     35  C   UNL A   1      37.062  30.801  29.012  1.00  0.00    -0.014 A 
BRANCH  35  36
ATOM     36  C   UNL A   1      38.207  30.267  29.794  1.00  0.00     0.031 A 
ATOM     37  C   UNL A   1      38.440  30.701  31.211  1.00  0.00     0.074 A 
ATOM     38  C   UNL A   1      39.089  29.447  29.187  1.00  0.00     0.049 A 
ATOM     39  N   UNL A   1      39.405  30.365  32.029  1.00  0.00    -0.248 NA
ATOM     40  C   UNL A   1      37.480  31.661  31.774  1.00  0.00     0.031 C 
ATOM     41  C   UNL A   1      39.018  29.014  27.790  1.00  0.00     0.029 A 
ATOM     42  N   UNL A   1      40.222  28.837  29.664  1.00  0.00    -0.354 N 
ATOM     43  C   UNL A   1      39.176  31.079  33.197  1.00  0.00     0.074 A 
ATOM     44  C   UNL A   1      38.012  31.908  32.962  1.00  0.00     0.031 C 
ATOM     45  C   UNL A   1      40.039  28.182  27.533  1.00  0.00     0.029 A 
ATOM     46  C   UNL A   1      40.855  28.045  28.736  1.00  0.00     0.049 A 
ATOM     47  H   UNL A   1      40.551  28.953  30.584  1.00  0.00     0.167 HD
ATOM     48  C   UNL A   1      39.860  31.032  34.364  1.00  0.00     0.037 A 
ATOM     49  C   UNL A   1      41.964  27.290  28.842  1.00  0.00     0.037 A 
ATOM     50  C   UNL A   1      41.002  30.189  34.603  1.00  0.00     0.049 A 
ATOM     51  C   UNL A   1      42.689  27.232  30.157  1.00  0.00     0.074 A 
ATOM     52  C   UNL A   1      41.717  30.013  35.775  1.00  0.00     0.029 A 
ATOM     53  N   UNL A   1      41.599  29.379  33.647  1.00  0.00    -0.354 N 
ATOM     54  N   UNL A   1      42.411  27.847  31.281  1.00  0.00    -0.248 NA
ATOM     55  C   UNL A   1      43.879  26.371  30.220  1.00  0.00     0.031 C 
ATOM     56  C   UNL A   1      42.769  29.125  35.518  1.00  0.00     0.029 A 
ATOM     57  C   UNL A   1      42.685  28.718  34.196  1.00  0.00     0.049 A 
ATOM     58  H   UNL A   1      41.295  29.288  32.715  1.00  0.00     0.167 HD
ATOM     59  C   UNL A   1      43.376  27.434  32.190  1.00  0.00     0.074 A 
ATOM     60  C   UNL A   1      44.237  26.503  31.490  1.00  0.00     0.031 C 
ATOM     61  C   UNL A   1      43.534  27.796  33.486  1.00  0.00     0.037 A 
BRANCH  48  62
ATOM     62  C   UNL A   1      39.380  31.915  35.478  1.00  0.00     0.064 A 
ATOM     63  C   UNL A   1      38.476  31.449  36.445  1.00  0.00     0.173 A 
ATOM     64  C   UNL A   1      39.842  33.234  35.593  1.00  0.00     0.173 A 
ATOM     65  F   UNL A   1      37.995  30.198  36.372  1.00  0.00    -0.203 F 
ATOM     66  C   UNL A   1      38.026  32.282  37.466  1.00  0.00     0.198 A 
ATOM     67  C   UNL A   1      39.410  34.056  36.632  1.00  0.00     0.198 A 
ATOM     68  F   UNL A   1      40.711  33.727  34.699  1.00  0.00    -0.203 F 
ATOM     69  F   UNL A   1      37.121  31.831  38.347  1.00  0.00    -0.200 F 
ATOM     70  C   UNL A   1      38.497  33.581  37.561  1.00  0.00     0.200 A 
ATOM     71  F   UNL A   1      39.875  35.309  36.729  1.00  0.00    -0.200 F 
ATOM     72  F   UNL A   1      38.064  34.381  38.545  1.00  0.00    -0.200 F 
ENDBRANCH  48  62
BRANCH  49  73
ATOM     73  C   UNL A   1      42.426  26.487  27.681  1.00  0.00     0.064 A 
ATOM     74  C   UNL A   1      43.395  26.992  26.804  1.00  0.00     0.173 A 
ATOM     75  C   UNL A   1      41.924  25.202  27.432  1.00  0.00     0.173 A 
ATOM     76  F   UNL A   1      43.890  28.224  26.991  1.00  0.00    -0.203 F 
ATOM     77  C   UNL A   1      43.834  26.248  25.711  1.00  0.00     0.198 A 
ATOM     78  C   UNL A   1      42.381  24.450  26.353  1.00  0.00     0.198 A 
ATOM     79  F   UNL A   1      40.999  24.673  28.248  1.00  0.00    -0.203 F 
ATOM     80  F   UNL A   1      44.736  26.768  24.868  1.00  0.00    -0.200 F 
ATOM     81  C   UNL A   1      43.333  24.974  25.490  1.00  0.00     0.200 A 
ATOM     82  F   UNL A   1      41.903  23.214  26.150  1.00  0.00    -0.200 F 
ATOM     83  F   UNL A   1      43.761  24.255  24.444  1.00  0.00    -0.200 F 
ENDBRANCH  49  73
BRANCH  61  84
ATOM     84  C   UNL A   1      44.671  27.168  34.236  1.00  0.00     0.064 A 
ATOM     85  C   UNL A   1      45.929  27.783  34.305  1.00  0.00     0.173 A 
ATOM     86  C   UNL A   1      44.489  25.955  34.919  1.00  0.00     0.173 A 
ATOM     87  F   UNL A   1      46.155  28.934  33.654  1.00  0.00    -0.203 F 
ATOM     88  C   UNL A   1      46.973  27.193  35.012  1.00  0.00     0.198 A 
ATOM     89  C   UNL A   1      45.529  25.383  35.645  1.00  0.00     0.198 A 
ATOM     90  F   UNL A   1      43.303  25.332  34.885  1.00  0.00    -0.203 F 
ATOM     91  F   UNL A   1      48.181  27.775  35.029  1.00  0.00    -0.200 F 
ATOM     92  C   UNL A   1      46.771  25.998  35.687  1.00  0.00     0.200 A 
ATOM     93  F   UNL A   1      45.329  24.233  36.304  1.00  0.00    -0.200 F 
ATOM     94  F   UNL A   1      47.777  25.434  36.371  1.00  0.00    -0.200 F 
ENDBRANCH  61  84
ENDBRANCH  35  36
ENDBRANCH  27  30
ENDBRANCH  25  26
ENDBRANCH   1  25
TORSDOF 12
ENDMDL
MODEL 3
REMARK VINA RESULT:     -13.7      1.726      2.112
REMARK SMILES O=C(NCCCCNC(=O)c1ccc(-c2c3nc(c(-c4c(F)c(F)c(F)c(F)c4F)c4ccc([nH]4)c(-c4c(F)c(F)c(F)c(F)c4F)c4nc(c(-c5c(F)c(F)c(F)c(F)c5F)c5ccc2[nH]5)C=C4)C=C3)cc1)C1=Cc2cc(Cl)c(Cl)c(Cl)c2O[C@@H]1C(F)(F)F
REMARK SMILES IDX 6 1 5 2 4 3 3 4 1 5 2 6 74 8 75 9 86 10 76 11 85 12 77 13
REMARK SMILES IDX 84 14 78 15 82 16 79 17 80 18 83 19 81 20 87 21 88 22 89 23
REMARK SMILES IDX 90 24 7 25 8 26 9 27 10 29 11 30 12 31 73 32 13 33 72 34
REMARK SMILES IDX 14 35 15 36 16 37 66 38 17 39 71 40 65 41 67 42 18 43 70 44
REMARK SMILES IDX 64 45 63 46 19 48 51 49 31 50 50 51 32 52 35 53 49 54 68 55
REMARK SMILES IDX 33 56 34 57 48 59 69 60 36 61 20 62 21 63 29 64 22 65 23 66
REMARK SMILES IDX 27 67 30 68 24 69 25 70 28 71 26 72 52 73 53 74 61 75 54 76
REMARK SMILES IDX 55 77 59 78 62 79 56 80 57 81 60 82 58 83 37 84 38 85 46 86
REMARK SMILES IDX 39 87 40 88 44 89 47 90 41 91 42 92 45 93 43 94
REMARK H PARENT 3 7 8 28 67 47 35 58
REMARK Flexibility Score: inf
ROOT
ATOM      1  C   UNL A   1      31.694  28.699  26.042  1.00  0.00     0.023 C 
ENDROOT
BRANCH   1   2
ATOM      2  C   UNL A   1      31.824  27.377  26.790  1.00  0.00     0.023 C 
BRANCH   2   3
ATOM      3  C   UNL A   1      31.054  26.197  26.203  1.00  0.00     0.116 C 
BRANCH   3   4
ATOM      4  N   UNL A   1      31.273  24.923  26.875  1.00  0.00    -0.352 N 
ATOM      5  O   UNL A   1      32.304  22.988  27.383  1.00  0.00    -0.270 OA
ATOM      6  C   UNL A   1      32.129  23.891  26.569  1.00  0.00     0.251 C 
ATOM      7  H   UNL A   1      30.719  24.776  27.676  1.00  0.00     0.163 HD
BRANCH   6   8
ATOM      8  C   UNL A   1      32.964  23.917  25.331  1.00  0.00     0.067 C 
ATOM      9  C   UNL A   1      34.087  24.644  25.265  1.00  0.00     0.025 C 
ATOM     10  C   UNL A   1      32.869  22.666  24.503  1.00  0.00     0.314 C 
ATOM     11  C   UNL A   1      35.318  23.868  25.126  1.00  0.00     0.020 A 
ATOM     12  O   UNL A   1      34.059  21.849  24.615  1.00  0.00    -0.474 OA
ATOM     13  C   UNL A   1      36.518  24.453  25.541  1.00  0.00     0.034 A 
ATOM     14  C   UNL A   1      35.244  22.480  24.928  1.00  0.00     0.148 A 
ATOM     15  C   UNL A   1      37.623  23.648  25.831  1.00  0.00     0.062 A 
ATOM     16  C   UNL A   1      36.367  21.676  25.183  1.00  0.00     0.103 A 
ATOM     17  Cl  UNL A   1      39.008  24.439  26.501  1.00  0.00    -0.083 Cl
ATOM     18  C   UNL A   1      37.554  22.256  25.663  1.00  0.00     0.082 A 
ATOM     19  Cl  UNL A   1      36.214  19.954  25.001  1.00  0.00    -0.079 Cl
ATOM     20  Cl  UNL A   1      38.898  21.256  26.120  1.00  0.00    -0.081 Cl
BRANCH  10  21
ATOM     21  C   UNL A   1      32.568  23.020  23.031  1.00  0.00     0.429 C 
ATOM     22  F   UNL A   1      31.913  22.016  22.404  1.00  0.00    -0.167 F 
ATOM     23  F   UNL A   1      31.791  24.126  22.927  1.00  0.00    -0.167 F 
ATOM     24  F   UNL A   1      33.699  23.265  22.322  1.00  0.00    -0.167 F 
ENDBRANCH  10  21
ENDBRANCH   6   8
ENDBRANCH   3   4
ENDBRANCH   2   3
ENDBRANCH   1   2
BRANCH   1  25
ATOM     25  C   UNL A   1      32.921  29.610  26.038  1.00  0.00     0.116 C 
BRANCH  25  26
ATOM     26  N   UNL A   1      32.717  30.923  26.644  1.00  0.00    -0.352 N 
ATOM     27  C   UNL A   1      33.572  31.665  27.423  1.00  0.00     0.251 C 
ATOM     28  H   UNL A   1      31.841  31.336  26.468  1.00  0.00     0.163 HD
ATOM     29  O   UNL A   1      33.210  32.749  27.879  1.00  0.00    -0.269 OA
BRANCH  27  30
ATOM     30  C   UNL A   1      34.903  31.127  27.782  1.00  0.00     0.039 A 
ATOM     31  C   UNL A   1      35.951  32.026  28.001  1.00  0.00     0.014 A 
ATOM     32  C   UNL A   1      35.096  29.760  27.992  1.00  0.00     0.014 A 
ATOM     33  C   UNL A   1      37.145  31.571  28.560  1.00  0.00     0.010 A 
ATOM     34  C   UNL A   1      36.256  29.319  28.624  1.00  0.00     0.010 A 
ATOM     35  C   UNL A   1      37.278  30.226  28.943  1.00  0.00    -0.014 A 
BRANCH  35  36
ATOM     36  C   UNL A   1      38.442  29.775  29.750  1.00  0.00     0.031 A 
ATOM     37  C   UNL A   1      38.659  30.292  31.142  1.00  0.00     0.074 A 
ATOM     38  C   UNL A   1      39.352  28.955  29.186  1.00  0.00     0.049 A 
ATOM     39  N   UNL A   1      39.635  30.034  31.975  1.00  0.00    -0.248 NA
ATOM     40  C   UNL A   1      37.666  31.246  31.655  1.00  0.00     0.031 C 
ATOM     41  C   UNL A   1      39.297  28.447  27.815  1.00  0.00     0.029 A 
ATOM     42  N   UNL A   1      40.506  28.412  29.693  1.00  0.00    -0.354 N 
ATOM     43  C   UNL A   1      39.381  30.801  33.104  1.00  0.00     0.074 A 
ATOM     44  C   UNL A   1      38.189  31.574  32.828  1.00  0.00     0.031 C 
ATOM     45  C   UNL A   1      40.347  27.639  27.601  1.00  0.00     0.029 A 
ATOM     46  C   UNL A   1      41.166  27.595  28.808  1.00  0.00     0.049 A 
ATOM     47  H   UNL A   1      40.830  28.589  30.606  1.00  0.00     0.167 HD
ATOM     48  C   UNL A   1      40.066  30.839  34.271  1.00  0.00     0.037 A 
ATOM     49  C   UNL A   1      42.301  26.886  28.952  1.00  0.00     0.037 A 
ATOM     50  C   UNL A   1      41.237  30.051  34.552  1.00  0.00     0.049 A 
ATOM     51  C   UNL A   1      43.028  26.924  30.267  1.00  0.00     0.074 A 
ATOM     52  C   UNL A   1      41.958  29.963  35.731  1.00  0.00     0.029 A 
ATOM     53  N   UNL A   1      41.862  29.214  33.640  1.00  0.00    -0.354 N 
ATOM     54  N   UNL A   1      42.729  27.587  31.357  1.00  0.00    -0.248 NA
ATOM     55  C   UNL A   1      44.247  26.110  30.374  1.00  0.00     0.031 C 
ATOM     56  C   UNL A   1      43.040  29.101  35.520  1.00  0.00     0.029 A 
ATOM     57  C   UNL A   1      42.971  28.622  34.221  1.00  0.00     0.049 A 
ATOM     58  H   UNL A   1      41.562  29.063  32.714  1.00  0.00     0.167 HD
ATOM     59  C   UNL A   1      43.707  27.258  32.285  1.00  0.00     0.074 A 
ATOM     60  C   UNL A   1      44.600  26.321  31.635  1.00  0.00     0.031 C 
ATOM     61  C   UNL A   1      43.852  27.693  33.560  1.00  0.00     0.037 A 
BRANCH  48  62
ATOM     62  C   UNL A   1      39.554  31.763  35.338  1.00  0.00     0.064 A 
ATOM     63  C   UNL A   1      38.625  31.332  36.297  1.00  0.00     0.173 A 
ATOM     64  C   UNL A   1      40.011  33.087  35.414  1.00  0.00     0.173 A 
ATOM     65  F   UNL A   1      38.149  30.078  36.258  1.00  0.00    -0.203 F 
ATOM     66  C   UNL A   1      38.147  32.202  37.272  1.00  0.00     0.198 A 
ATOM     67  C   UNL A   1      39.551  33.946  36.409  1.00  0.00     0.198 A 
ATOM     68  F   UNL A   1      40.904  33.548  34.525  1.00  0.00    -0.203 F 
ATOM     69  F   UNL A   1      37.219  31.782  38.145  1.00  0.00    -0.200 F 
ATOM     70  C   UNL A   1      38.614  33.505  37.331  1.00  0.00     0.200 A 
ATOM     71  F   UNL A   1      40.010  35.204  36.471  1.00  0.00    -0.200 F 
ATOM     72  F   UNL A   1      38.152  34.341  38.272  1.00  0.00    -0.200 F 
ENDBRANCH  48  62
BRANCH  49  73
ATOM     73  C   UNL A   1      42.792  26.040  27.835  1.00  0.00     0.064 A 
ATOM     74  C   UNL A   1      42.363  24.712  27.701  1.00  0.00     0.173 A 
ATOM     75  C   UNL A   1      43.684  26.539  26.875  1.00  0.00     0.173 A 
ATOM     76  F   UNL A   1      41.525  24.186  28.607  1.00  0.00    -0.203 F 
ATOM     77  C   UNL A   1      42.818  23.910  26.657  1.00  0.00     0.198 A 
ATOM     78  C   UNL A   1      44.120  25.743  25.818  1.00  0.00     0.198 A 
ATOM     79  F   UNL A   1      44.119  27.805  26.956  1.00  0.00    -0.203 F 
ATOM     80  F   UNL A   1      42.419  22.633  26.573  1.00  0.00    -0.200 F 
ATOM     81  C   UNL A   1      43.691  24.428  25.712  1.00  0.00     0.200 A 
ATOM     82  F   UNL A   1      44.954  26.250  24.899  1.00  0.00    -0.200 F 
ATOM     83  F   UNL A   1      44.123  23.658  24.704  1.00  0.00    -0.200 F 
ENDBRANCH  49  73
BRANCH  61  84
ATOM     84  C   UNL A   1      45.010  27.147  34.341  1.00  0.00     0.064 A 
ATOM     85  C   UNL A   1      46.248  27.805  34.370  1.00  0.00     0.173 A 
ATOM     86  C   UNL A   1      44.870  25.970  35.092  1.00  0.00     0.173 A 
ATOM     87  F   UNL A   1      46.435  28.923  33.653  1.00  0.00    -0.203 F 
ATOM     88  C   UNL A   1      47.312  27.291  35.105  1.00  0.00     0.198 A 
ATOM     89  C   UNL A   1      45.929  25.474  35.846  1.00  0.00     0.198 A 
ATOM     90  F   UNL A   1      43.704  25.307  35.098  1.00  0.00    -0.203 F 
ATOM     91  F   UNL A   1      48.500  27.912  35.084  1.00  0.00    -0.200 F 
ATOM     92  C   UNL A   1      47.150  26.131  35.848  1.00  0.00     0.200 A 
ATOM     93  F   UNL A   1      45.768  24.358  36.571  1.00  0.00    -0.200 F 
ATOM     94  F   UNL A   1      48.175  25.640  36.559  1.00  0.00    -0.200 F 
ENDBRANCH  61  84
ENDBRANCH  35  36
ENDBRANCH  27  30
ENDBRANCH  25  26
ENDBRANCH   1  25
TORSDOF 12
ENDMDL
