MODEL 1
REMARK VINA RESULT:     -11.9      0.000      0.000
REMARK SMILES CC[C@H](C(=O)NCCCCNC(=O)c1ccc(-c2c3nc(c(-c4c(F)c(F)c(F)c(F)c4F)c4ccc([nH]4)c(-c4c(F)c(F)c(F)c(F)c4F)c4nc(c(-c5c(F)c(F)c(F)c(F)c5F)c5ccc2[nH]5)C=C4)C=C3)cc1)N1C(=O)/C(=C\c2cc(OC)ccc2OC)SC1=S
REMARK SMILES IDX 8 1 7 2 6 3 4 4 5 5 3 7 2 8 1 9 77 10 78 11 93 12 79 13
REMARK SMILES IDX 80 14 92 15 94 16 81 17 82 18 83 19 89 20 84 21 88 22 87 23
REMARK SMILES IDX 90 24 91 25 85 26 86 27 9 28 10 29 11 30 12 31 13 33 14 34
REMARK SMILES IDX 15 35 76 36 16 37 75 38 17 39 18 40 19 41 69 42 20 43 74 44
REMARK SMILES IDX 68 45 70 46 21 47 73 48 67 49 66 50 22 52 54 53 34 54 53 55
REMARK SMILES IDX 35 56 38 57 52 58 71 59 36 60 37 61 51 63 72 64 39 65 23 66
REMARK SMILES IDX 24 67 32 68 25 69 26 70 30 71 33 72 27 73 28 74 31 75 29 76
REMARK SMILES IDX 55 77 56 78 64 79 57 80 58 81 62 82 65 83 59 84 60 85 63 86
REMARK SMILES IDX 61 87 40 88 41 89 49 90 42 91 43 92 47 93 50 94 44 95 45 96
REMARK SMILES IDX 48 97 46 98
REMARK H PARENT 6 6 11 32 70 51 38 62
REMARK Flexibility Score: inf
ROOT
ATOM      1  C   UNL A   1      34.760  30.198  27.889  1.00  0.00     0.023 C 
ENDROOT
BRANCH   1   2
ATOM      2  C   UNL A   1      34.658  28.996  26.964  1.00  0.00     0.116 C 
BRANCH   2   3
ATOM      3  N   UNL A   1      34.402  29.372  25.588  1.00  0.00    -0.354 N 
ATOM      4  C   UNL A   1      33.519  28.814  24.697  1.00  0.00     0.243 C 
ATOM      5  O   UNL A   1      33.528  29.237  23.537  1.00  0.00    -0.273 OA
ATOM      6  H   UNL A   1      34.931  30.129  25.247  1.00  0.00     0.163 HD
BRANCH   4   7
ATOM      7  C   UNL A   1      32.706  27.544  25.085  1.00  0.00     0.181 C 
BRANCH   7   8
ATOM      8  C   UNL A   1      31.451  28.131  25.794  1.00  0.00     0.032 C 
ATOM      9  C   UNL A   1      31.401  27.757  27.271  1.00  0.00     0.006 C 
ENDBRANCH   7   8
BRANCH   7  10
ATOM     10  N   UNL A   1      32.467  26.652  23.907  1.00  0.00    -0.280 N 
ATOM     11  C   UNL A   1      32.814  25.307  24.048  1.00  0.00     0.266 C 
ATOM     12  C   UNL A   1      31.598  26.864  22.858  1.00  0.00     0.149 C 
ATOM     13  O   UNL A   1      33.261  24.795  25.063  1.00  0.00    -0.268 OA
ATOM     14  C   UNL A   1      32.557  24.544  22.795  1.00  0.00     0.081 C 
ATOM     15  S   UNL A   1      31.779  25.578  21.665  1.00  0.00    -0.054 SA
ATOM     16  S   UNL A   1      30.442  28.043  22.635  1.00  0.00    -0.052 S 
ATOM     17  C   UNL A   1      32.825  23.257  22.530  1.00  0.00     0.033 C 
BRANCH  17  18
ATOM     18  C   UNL A   1      33.443  22.279  23.439  1.00  0.00     0.021 A 
ATOM     19  C   UNL A   1      32.604  21.243  23.898  1.00  0.00     0.058 A 
ATOM     20  C   UNL A   1      34.779  22.304  23.874  1.00  0.00     0.126 A 
ATOM     21  C   UNL A   1      33.081  20.227  24.734  1.00  0.00     0.119 A 
ATOM     22  C   UNL A   1      35.262  21.250  24.661  1.00  0.00     0.051 A 
ATOM     23  C   UNL A   1      34.425  20.218  25.090  1.00  0.00     0.050 A 
BRANCH  20  24
ATOM     24  O   UNL A   1      35.745  23.224  23.565  1.00  0.00    -0.496 OA
ATOM     25  C   UNL A   1      36.807  23.406  24.489  1.00  0.00     0.278 C 
ENDBRANCH  20  24
BRANCH  21  26
ATOM     26  O   UNL A   1      32.154  19.294  25.114  1.00  0.00    -0.497 OA
ATOM     27  C   UNL A   1      32.673  18.052  25.581  1.00  0.00     0.278 C 
ENDBRANCH  21  26
ENDBRANCH  17  18
ENDBRANCH   7  10
ENDBRANCH   4   7
ENDBRANCH   2   3
ENDBRANCH   1   2
BRANCH   1  28
ATOM     28  C   UNL A   1      34.242  31.501  27.286  1.00  0.00     0.023 C 
BRANCH  28  29
ATOM     29  C   UNL A   1      32.793  31.837  27.627  1.00  0.00     0.116 C 
BRANCH  29  30
ATOM     30  N   UNL A   1      32.525  33.272  27.635  1.00  0.00    -0.352 N 
ATOM     31  C   UNL A   1      33.127  34.269  28.368  1.00  0.00     0.251 C 
ATOM     32  H   UNL A   1      31.810  33.569  27.028  1.00  0.00     0.163 HD
ATOM     33  O   UNL A   1      32.704  35.412  28.340  1.00  0.00    -0.269 OA
BRANCH  31  34
ATOM     34  C   UNL A   1      34.271  33.912  29.227  1.00  0.00     0.039 A 
ATOM     35  C   UNL A   1      34.048  33.110  30.347  1.00  0.00     0.014 A 
ATOM     36  C   UNL A   1      35.563  34.289  28.856  1.00  0.00     0.014 A 
ATOM     37  C   UNL A   1      35.140  32.596  31.045  1.00  0.00     0.010 A 
ATOM     38  C   UNL A   1      36.647  33.708  29.499  1.00  0.00     0.010 A 
ATOM     39  C   UNL A   1      36.446  32.848  30.592  1.00  0.00    -0.014 A 
BRANCH  39  40
ATOM     40  C   UNL A   1      37.623  32.213  31.234  1.00  0.00     0.031 A 
ATOM     41  C   UNL A   1      38.377  31.140  30.504  1.00  0.00     0.074 A 
ATOM     42  C   UNL A   1      37.950  32.534  32.502  1.00  0.00     0.049 A 
ATOM     43  N   UNL A   1      39.354  30.379  30.930  1.00  0.00    -0.248 NA
ATOM     44  C   UNL A   1      37.954  30.860  29.123  1.00  0.00     0.031 C 
ATOM     45  C   UNL A   1      37.255  33.519  33.333  1.00  0.00     0.029 A 
ATOM     46  N   UNL A   1      38.942  32.052  33.318  1.00  0.00    -0.354 N 
ATOM     47  C   UNL A   1      39.640  29.518  29.881  1.00  0.00     0.074 A 
ATOM     48  C   UNL A   1      38.705  29.814  28.817  1.00  0.00     0.031 C 
ATOM     49  C   UNL A   1      37.854  33.582  34.534  1.00  0.00     0.029 A 
ATOM     50  C   UNL A   1      38.948  32.616  34.571  1.00  0.00     0.049 A 
ATOM     51  H   UNL A   1      39.587  31.366  33.034  1.00  0.00     0.167 HD
ATOM     52  C   UNL A   1      40.613  28.580  29.803  1.00  0.00     0.037 A 
ATOM     53  C   UNL A   1      39.742  32.374  35.631  1.00  0.00     0.037 A 
ATOM     54  C   UNL A   1      41.569  28.320  30.846  1.00  0.00     0.049 A 
ATOM     55  C   UNL A   1      40.828  31.339  35.511  1.00  0.00     0.074 A 
ATOM     56  C   UNL A   1      42.641  27.446  30.834  1.00  0.00     0.029 A 
ATOM     57  N   UNL A   1      41.567  28.939  32.087  1.00  0.00    -0.354 N 
ATOM     58  N   UNL A   1      41.136  30.579  34.489  1.00  0.00    -0.248 NA
ATOM     59  C   UNL A   1      41.679  31.134  36.691  1.00  0.00     0.031 C 
ATOM     60  C   UNL A   1      43.268  27.511  32.083  1.00  0.00     0.029 A 
ATOM     61  C   UNL A   1      42.611  28.454  32.858  1.00  0.00     0.049 A 
ATOM     62  H   UNL A   1      40.921  29.623  32.377  1.00  0.00     0.167 HD
ATOM     63  C   UNL A   1      42.227  29.823  34.892  1.00  0.00     0.074 A 
ATOM     64  C   UNL A   1      42.538  30.225  36.247  1.00  0.00     0.031 C 
ATOM     65  C   UNL A   1      42.909  28.877  34.201  1.00  0.00     0.037 A 
BRANCH  52  66
ATOM     66  C   UNL A   1      40.697  27.773  28.542  1.00  0.00     0.064 A 
ATOM     67  C   UNL A   1      39.992  26.569  28.393  1.00  0.00     0.173 A 
ATOM     68  C   UNL A   1      41.469  28.222  27.460  1.00  0.00     0.173 A 
ATOM     69  F   UNL A   1      39.253  26.090  29.405  1.00  0.00    -0.203 F 
ATOM     70  C   UNL A   1      40.081  25.828  27.217  1.00  0.00     0.198 A 
ATOM     71  C   UNL A   1      41.532  27.493  26.275  1.00  0.00     0.198 A 
ATOM     72  F   UNL A   1      42.160  29.367  27.551  1.00  0.00    -0.203 F 
ATOM     73  F   UNL A   1      39.440  24.656  27.117  1.00  0.00    -0.200 F 
ATOM     74  C   UNL A   1      40.844  26.294  26.158  1.00  0.00     0.200 A 
ATOM     75  F   UNL A   1      42.263  27.948  25.249  1.00  0.00    -0.200 F 
ATOM     76  F   UNL A   1      40.925  25.583  25.026  1.00  0.00    -0.200 F 
ENDBRANCH  52  66
BRANCH  53  77
ATOM     77  C   UNL A   1      39.557  33.140  36.891  1.00  0.00     0.064 A 
ATOM     78  C   UNL A   1      38.629  32.722  37.854  1.00  0.00     0.173 A 
ATOM     79  C   UNL A   1      40.297  34.300  37.158  1.00  0.00     0.173 A 
ATOM     80  F   UNL A   1      37.883  31.628  37.633  1.00  0.00    -0.203 F 
ATOM     81  C   UNL A   1      38.431  33.447  39.028  1.00  0.00     0.198 A 
ATOM     82  C   UNL A   1      40.117  35.011  38.342  1.00  0.00     0.198 A 
ATOM     83  F   UNL A   1      41.202  34.739  36.270  1.00  0.00    -0.203 F 
ATOM     84  F   UNL A   1      37.506  33.049  39.911  1.00  0.00    -0.200 F 
ATOM     85  C   UNL A   1      39.179  34.588  39.273  1.00  0.00     0.200 A 
ATOM     86  F   UNL A   1      40.850  36.107  38.583  1.00  0.00    -0.200 F 
ATOM     87  F   UNL A   1      38.991  35.284  40.402  1.00  0.00    -0.200 F 
ENDBRANCH  53  77
BRANCH  65  88
ATOM     88  C   UNL A   1      44.078  28.235  34.886  1.00  0.00     0.064 A 
ATOM     89  C   UNL A   1      45.358  28.807  34.841  1.00  0.00     0.173 A 
ATOM     90  C   UNL A   1      43.904  27.065  35.639  1.00  0.00     0.173 A 
ATOM     91  F   UNL A   1      45.576  29.917  34.120  1.00  0.00    -0.203 F 
ATOM     92  C   UNL A   1      46.426  28.220  35.513  1.00  0.00     0.198 A 
ATOM     93  C   UNL A   1      44.968  26.494  36.331  1.00  0.00     0.198 A 
ATOM     94  F   UNL A   1      42.697  26.484  35.717  1.00  0.00    -0.203 F 
ATOM     95  F   UNL A   1      47.648  28.762  35.428  1.00  0.00    -0.200 F 
ATOM     96  C   UNL A   1      46.229  27.070  36.264  1.00  0.00     0.200 A 
ATOM     97  F   UNL A   1      44.774  25.392  37.066  1.00  0.00    -0.200 F 
ATOM     98  F   UNL A   1      47.256  26.513  36.919  1.00  0.00    -0.200 F 
ENDBRANCH  65  88
ENDBRANCH  39  40
ENDBRANCH  31  34
ENDBRANCH  29  30
ENDBRANCH  28  29
ENDBRANCH   1  28
TORSDOF 16
ENDMDL
MODEL 2
REMARK VINA RESULT:     -11.9      0.123      1.555
REMARK SMILES CC[C@H](C(=O)NCCCCNC(=O)c1ccc(-c2c3nc(c(-c4c(F)c(F)c(F)c(F)c4F)c4ccc([nH]4)c(-c4c(F)c(F)c(F)c(F)c4F)c4nc(c(-c5c(F)c(F)c(F)c(F)c5F)c5ccc2[nH]5)C=C4)C=C3)cc1)N1C(=O)/C(=C\c2cc(OC)ccc2OC)SC1=S
REMARK SMILES IDX 8 1 7 2 6 3 4 4 5 5 3 7 2 8 1 9 77 10 78 11 93 12 79 13
REMARK SMILES IDX 80 14 92 15 94 16 81 17 82 18 83 19 89 20 84 21 88 22 87 23
REMARK SMILES IDX 90 24 91 25 85 26 86 27 9 28 10 29 11 30 12 31 13 33 14 34
REMARK SMILES IDX 15 35 76 36 16 37 75 38 17 39 18 40 19 41 69 42 20 43 74 44
REMARK SMILES IDX 68 45 70 46 21 47 73 48 67 49 66 50 22 52 54 53 34 54 53 55
REMARK SMILES IDX 35 56 38 57 52 58 71 59 36 60 37 61 51 63 72 64 39 65 23 66
REMARK SMILES IDX 24 67 32 68 25 69 26 70 30 71 33 72 27 73 28 74 31 75 29 76
REMARK SMILES IDX 55 77 56 78 64 79 57 80 58 81 62 82 65 83 59 84 60 85 63 86
REMARK SMILES IDX 61 87 40 88 41 89 49 90 42 91 43 92 47 93 50 94 44 95 45 96
REMARK SMILES IDX 48 97 46 98
REMARK H PARENT 6 6 11 32 70 51 38 62
REMARK Flexibility Score: inf
ROOT
ATOM      1  C   UNL A   1      34.767  30.234  27.907  1.00  0.00     0.023 C 
ENDROOT
BRANCH   1   2
ATOM      2  C   UNL A   1      34.639  29.029  26.990  1.00  0.00     0.116 C 
BRANCH   2   3
ATOM      3  N   UNL A   1      34.395  29.401  25.611  1.00  0.00    -0.354 N 
ATOM      4  C   UNL A   1      33.513  28.847  24.717  1.00  0.00     0.243 C 
ATOM      5  O   UNL A   1      33.533  29.266  23.555  1.00  0.00    -0.273 OA
ATOM      6  H   UNL A   1      34.933  30.152  25.270  1.00  0.00     0.163 HD
BRANCH   4   7
ATOM      7  C   UNL A   1      32.686  27.587  25.105  1.00  0.00     0.181 C 
BRANCH   7   8
ATOM      8  C   UNL A   1      31.427  28.188  25.793  1.00  0.00     0.032 C 
ATOM      9  C   UNL A   1      31.394  27.890  27.288  1.00  0.00     0.006 C 
ENDBRANCH   7   8
BRANCH   7  10
ATOM     10  N   UNL A   1      32.455  26.687  23.931  1.00  0.00    -0.280 N 
ATOM     11  C   UNL A   1      32.809  25.344  24.080  1.00  0.00     0.266 C 
ATOM     12  C   UNL A   1      31.587  26.889  22.879  1.00  0.00     0.149 C 
ATOM     13  O   UNL A   1      33.256  24.841  25.099  1.00  0.00    -0.268 OA
ATOM     14  C   UNL A   1      32.559  24.574  22.830  1.00  0.00     0.081 C 
ATOM     15  S   UNL A   1      31.778  25.597  21.693  1.00  0.00    -0.054 SA
ATOM     16  S   UNL A   1      30.425  28.060  22.647  1.00  0.00    -0.052 S 
ATOM     17  C   UNL A   1      32.836  23.287  22.573  1.00  0.00     0.033 C 
BRANCH  17  18
ATOM     18  C   UNL A   1      33.456  22.317  23.489  1.00  0.00     0.021 A 
ATOM     19  C   UNL A   1      32.609  21.309  23.992  1.00  0.00     0.058 A 
ATOM     20  C   UNL A   1      34.803  22.325  23.890  1.00  0.00     0.126 A 
ATOM     21  C   UNL A   1      33.087  20.303  24.840  1.00  0.00     0.119 A 
ATOM     22  C   UNL A   1      35.285  21.280  24.689  1.00  0.00     0.051 A 
ATOM     23  C   UNL A   1      34.439  20.275  25.163  1.00  0.00     0.050 A 
BRANCH  20  24
ATOM     24  O   UNL A   1      35.779  23.218  23.537  1.00  0.00    -0.496 OA
ATOM     25  C   UNL A   1      36.915  23.327  24.380  1.00  0.00     0.278 C 
ENDBRANCH  20  24
BRANCH  21  26
ATOM     26  O   UNL A   1      32.151  19.397  25.264  1.00  0.00    -0.497 OA
ATOM     27  C   UNL A   1      32.538  18.027  25.209  1.00  0.00     0.278 C 
ENDBRANCH  21  26
ENDBRANCH  17  18
ENDBRANCH   7  10
ENDBRANCH   4   7
ENDBRANCH   2   3
ENDBRANCH   1   2
BRANCH   1  28
ATOM     28  C   UNL A   1      34.253  31.539  27.306  1.00  0.00     0.023 C 
BRANCH  28  29
ATOM     29  C   UNL A   1      32.831  31.919  27.711  1.00  0.00     0.116 C 
BRANCH  29  30
ATOM     30  N   UNL A   1      32.597  33.359  27.693  1.00  0.00    -0.352 N 
ATOM     31  C   UNL A   1      33.226  34.356  28.402  1.00  0.00     0.251 C 
ATOM     32  H   UNL A   1      31.885  33.662  27.084  1.00  0.00     0.163 HD
ATOM     33  O   UNL A   1      32.830  35.508  28.355  1.00  0.00    -0.269 OA
BRANCH  31  34
ATOM     34  C   UNL A   1      34.367  33.989  29.262  1.00  0.00     0.039 A 
ATOM     35  C   UNL A   1      34.139  33.176  30.373  1.00  0.00     0.014 A 
ATOM     36  C   UNL A   1      35.660  34.368  28.900  1.00  0.00     0.014 A 
ATOM     37  C   UNL A   1      35.228  32.654  31.070  1.00  0.00     0.010 A 
ATOM     38  C   UNL A   1      36.742  33.778  29.540  1.00  0.00     0.010 A 
ATOM     39  C   UNL A   1      36.536  32.908  30.624  1.00  0.00    -0.014 A 
BRANCH  39  40
ATOM     40  C   UNL A   1      37.710  32.265  31.263  1.00  0.00     0.031 A 
ATOM     41  C   UNL A   1      38.452  31.184  30.534  1.00  0.00     0.074 A 
ATOM     42  C   UNL A   1      38.044  32.588  32.528  1.00  0.00     0.049 A 
ATOM     43  N   UNL A   1      39.423  30.416  30.959  1.00  0.00    -0.248 NA
ATOM     44  C   UNL A   1      38.021  30.903  29.155  1.00  0.00     0.031 C 
ATOM     45  C   UNL A   1      37.361  33.582  33.359  1.00  0.00     0.029 A 
ATOM     46  N   UNL A   1      39.035  32.100  33.343  1.00  0.00    -0.354 N 
ATOM     47  C   UNL A   1      39.698  29.548  29.911  1.00  0.00     0.074 A 
ATOM     48  C   UNL A   1      38.762  29.849  28.851  1.00  0.00     0.031 C 
ATOM     49  C   UNL A   1      37.965  33.643  34.558  1.00  0.00     0.029 A 
ATOM     50  C   UNL A   1      39.051  32.668  34.594  1.00  0.00     0.049 A 
ATOM     51  H   UNL A   1      39.673  31.407  33.059  1.00  0.00     0.167 HD
ATOM     52  C   UNL A   1      40.663  28.601  29.833  1.00  0.00     0.037 A 
ATOM     53  C   UNL A   1      39.847  32.423  35.652  1.00  0.00     0.037 A 
ATOM     54  C   UNL A   1      41.620  28.337  30.873  1.00  0.00     0.049 A 
ATOM     55  C   UNL A   1      40.924  31.378  35.531  1.00  0.00     0.074 A 
ATOM     56  C   UNL A   1      42.685  27.454  30.860  1.00  0.00     0.029 A 
ATOM     57  N   UNL A   1      41.629  28.960  32.111  1.00  0.00    -0.354 N 
ATOM     58  N   UNL A   1      41.221  30.611  34.510  1.00  0.00    -0.248 NA
ATOM     59  C   UNL A   1      41.778  31.169  36.707  1.00  0.00     0.031 C 
ATOM     60  C   UNL A   1      43.317  27.517  32.106  1.00  0.00     0.029 A 
ATOM     61  C   UNL A   1      42.672  28.468  32.880  1.00  0.00     0.049 A 
ATOM     62  H   UNL A   1      40.989  29.650  32.402  1.00  0.00     0.167 HD
ATOM     63  C   UNL A   1      42.307  29.847  34.911  1.00  0.00     0.074 A 
ATOM     64  C   UNL A   1      42.627  30.252  36.263  1.00  0.00     0.031 C 
ATOM     65  C   UNL A   1      42.979  28.893  34.221  1.00  0.00     0.037 A 
BRANCH  52  66
ATOM     66  C   UNL A   1      40.734  27.790  28.574  1.00  0.00     0.064 A 
ATOM     67  C   UNL A   1      41.537  28.182  27.492  1.00  0.00     0.173 A 
ATOM     68  C   UNL A   1      40.012  26.593  28.457  1.00  0.00     0.173 A 
ATOM     69  F   UNL A   1      42.234  29.328  27.549  1.00  0.00    -0.203 F 
ATOM     70  C   UNL A   1      41.591  27.421  26.327  1.00  0.00     0.198 A 
ATOM     71  C   UNL A   1      40.092  25.819  27.303  1.00  0.00     0.198 A 
ATOM     72  F   UNL A   1      39.231  26.174  29.463  1.00  0.00    -0.203 F 
ATOM     73  F   UNL A   1      42.325  27.842  25.289  1.00  0.00    -0.200 F 
ATOM     74  C   UNL A   1      40.875  26.238  26.237  1.00  0.00     0.200 A 
ATOM     75  F   UNL A   1      39.405  24.671  27.218  1.00  0.00    -0.200 F 
ATOM     76  F   UNL A   1      40.932  25.504  25.118  1.00  0.00    -0.200 F 
ENDBRANCH  52  66
BRANCH  53  77
ATOM     77  C   UNL A   1      39.674  33.194  36.909  1.00  0.00     0.064 A 
ATOM     78  C   UNL A   1      38.737  32.795  37.872  1.00  0.00     0.173 A 
ATOM     79  C   UNL A   1      40.434  34.342  37.175  1.00  0.00     0.173 A 
ATOM     80  F   UNL A   1      37.973  31.714  37.652  1.00  0.00    -0.203 F 
ATOM     81  C   UNL A   1      38.550  33.525  39.044  1.00  0.00     0.198 A 
ATOM     82  C   UNL A   1      40.265  35.058  38.358  1.00  0.00     0.198 A 
ATOM     83  F   UNL A   1      41.348  34.763  36.288  1.00  0.00    -0.203 F 
ATOM     84  F   UNL A   1      37.618  33.146  39.927  1.00  0.00    -0.200 F 
ATOM     85  C   UNL A   1      39.318  34.653  39.288  1.00  0.00     0.200 A 
ATOM     86  F   UNL A   1      41.016  36.141  38.597  1.00  0.00    -0.200 F 
ATOM     87  F   UNL A   1      39.141  35.355  40.416  1.00  0.00    -0.200 F 
ENDBRANCH  53  77
BRANCH  65  88
ATOM     88  C   UNL A   1      44.145  28.244  34.903  1.00  0.00     0.064 A 
ATOM     89  C   UNL A   1      43.998  27.054  35.631  1.00  0.00     0.173 A 
ATOM     90  C   UNL A   1      45.432  28.789  34.782  1.00  0.00     0.173 A 
ATOM     91  F   UNL A   1      42.784  26.504  35.787  1.00  0.00    -0.203 F 
ATOM     92  C   UNL A   1      45.096  26.442  36.228  1.00  0.00     0.198 A 
ATOM     93  C   UNL A   1      46.532  28.161  35.358  1.00  0.00     0.198 A 
ATOM     94  F   UNL A   1      45.623  29.923  34.090  1.00  0.00    -0.203 F 
ATOM     95  F   UNL A   1      44.929  25.326  36.950  1.00  0.00    -0.200 F 
ATOM     96  C   UNL A   1      46.363  26.991  36.084  1.00  0.00     0.200 A 
ATOM     97  F   UNL A   1      47.755  28.685  35.208  1.00  0.00    -0.200 F 
ATOM     98  F   UNL A   1      47.421  26.395  36.650  1.00  0.00    -0.200 F 
ENDBRANCH  65  88
ENDBRANCH  39  40
ENDBRANCH  31  34
ENDBRANCH  29  30
ENDBRANCH  28  29
ENDBRANCH   1  28
TORSDOF 16
ENDMDL
MODEL 3
REMARK VINA RESULT:     -11.7      0.340      7.120
REMARK SMILES CC[C@H](C(=O)NCCCCNC(=O)c1ccc(-c2c3nc(c(-c4c(F)c(F)c(F)c(F)c4F)c4ccc([nH]4)c(-c4c(F)c(F)c(F)c(F)c4F)c4nc(c(-c5c(F)c(F)c(F)c(F)c5F)c5ccc2[nH]5)C=C4)C=C3)cc1)N1C(=O)/C(=C\c2cc(OC)ccc2OC)SC1=S
REMARK SMILES IDX 8 1 7 2 6 3 4 4 5 5 3 7 2 8 1 9 77 10 78 11 93 12 79 13
REMARK SMILES IDX 80 14 92 15 94 16 81 17 82 18 83 19 89 20 84 21 88 22 87 23
REMARK SMILES IDX 90 24 91 25 85 26 86 27 9 28 10 29 11 30 12 31 13 33 14 34
REMARK SMILES IDX 15 35 76 36 16 37 75 38 17 39 18 40 19 41 69 42 20 43 74 44
REMARK SMILES IDX 68 45 70 46 21 47 73 48 67 49 66 50 22 52 54 53 34 54 53 55
REMARK SMILES IDX 35 56 38 57 52 58 71 59 36 60 37 61 51 63 72 64 39 65 23 66
REMARK SMILES IDX 24 67 32 68 25 69 26 70 30 71 33 72 27 73 28 74 31 75 29 76
REMARK SMILES IDX 55 77 56 78 64 79 57 80 58 81 62 82 65 83 59 84 60 85 63 86
REMARK SMILES IDX 61 87 40 88 41 89 49 90 42 91 43 92 47 93 50 94 44 95 45 96
REMARK SMILES IDX 48 97 46 98
REMARK H PARENT 6 6 11 32 70 51 38 62
REMARK Flexibility Score: inf
ROOT
ATOM      1  C   UNL A   1      34.501  30.336  27.917  1.00  0.00     0.023 C 
ENDROOT
BRANCH   1   2
ATOM      2  C   UNL A   1      34.530  29.137  26.983  1.00  0.00     0.116 C 
BRANCH   2   3
ATOM      3  N   UNL A   1      34.272  29.499  25.604  1.00  0.00    -0.354 N 
ATOM      4  C   UNL A   1      33.419  28.904  24.706  1.00  0.00     0.243 C 
ATOM      5  O   UNL A   1      33.422  29.324  23.545  1.00  0.00    -0.273 OA
ATOM      6  H   UNL A   1      34.774  30.276  25.265  1.00  0.00     0.163 HD
BRANCH   4   7
ATOM      7  C   UNL A   1      32.654  27.605  25.091  1.00  0.00     0.181 C 
BRANCH   7   8
ATOM      8  C   UNL A   1      31.385  28.143  25.814  1.00  0.00     0.032 C 
ATOM      9  C   UNL A   1      31.401  27.828  27.306  1.00  0.00     0.006 C 
ENDBRANCH   7   8
BRANCH   7  10
ATOM     10  N   UNL A   1      32.435  26.714  23.907  1.00  0.00    -0.280 N 
ATOM     11  C   UNL A   1      32.794  25.372  24.048  1.00  0.00     0.266 C 
ATOM     12  C   UNL A   1      31.575  26.921  22.850  1.00  0.00     0.149 C 
ATOM     13  O   UNL A   1      33.235  24.862  25.066  1.00  0.00    -0.268 OA
ATOM     14  C   UNL A   1      32.557  24.611  22.790  1.00  0.00     0.081 C 
ATOM     15  S   UNL A   1      31.781  25.640  21.655  1.00  0.00    -0.054 SA
ATOM     16  S   UNL A   1      30.409  28.089  22.619  1.00  0.00    -0.052 S 
ATOM     17  C   UNL A   1      32.841  23.327  22.524  1.00  0.00     0.033 C 
BRANCH  17  18
ATOM     18  C   UNL A   1      33.458  22.352  23.436  1.00  0.00     0.021 A 
ATOM     19  C   UNL A   1      32.612  21.335  23.923  1.00  0.00     0.058 A 
ATOM     20  C   UNL A   1      34.802  22.363  23.849  1.00  0.00     0.126 A 
ATOM     21  C   UNL A   1      33.088  20.324  24.766  1.00  0.00     0.119 A 
ATOM     22  C   UNL A   1      35.283  21.313  24.643  1.00  0.00     0.051 A 
ATOM     23  C   UNL A   1      34.437  20.300  25.100  1.00  0.00     0.050 A 
BRANCH  20  24
ATOM     24  O   UNL A   1      35.776  23.264  23.512  1.00  0.00    -0.496 OA
ATOM     25  C   UNL A   1      37.029  23.164  24.172  1.00  0.00     0.278 C 
ENDBRANCH  20  24
BRANCH  21  26
ATOM     26  O   UNL A   1      32.153  19.410  25.173  1.00  0.00    -0.497 OA
ATOM     27  C   UNL A   1      32.593  18.056  25.245  1.00  0.00     0.278 C 
ENDBRANCH  21  26
ENDBRANCH  17  18
ENDBRANCH   7  10
ENDBRANCH   4   7
ENDBRANCH   2   3
ENDBRANCH   1   2
BRANCH   1  28
ATOM     28  C   UNL A   1      34.074  31.642  27.252  1.00  0.00     0.023 C 
BRANCH  28  29
ATOM     29  C   UNL A   1      32.665  32.113  27.602  1.00  0.00     0.116 C 
BRANCH  29  30
ATOM     30  N   UNL A   1      32.542  33.566  27.639  1.00  0.00    -0.352 N 
ATOM     31  C   UNL A   1      33.250  34.485  28.378  1.00  0.00     0.251 C 
ATOM     32  H   UNL A   1      31.850  33.944  27.049  1.00  0.00     0.163 HD
ATOM     33  O   UNL A   1      32.942  35.665  28.376  1.00  0.00    -0.269 OA
BRANCH  31  34
ATOM     34  C   UNL A   1      34.365  34.002  29.212  1.00  0.00     0.039 A 
ATOM     35  C   UNL A   1      34.081  33.207  30.323  1.00  0.00     0.014 A 
ATOM     36  C   UNL A   1      35.682  34.254  28.826  1.00  0.00     0.014 A 
ATOM     37  C   UNL A   1      35.127  32.575  30.994  1.00  0.00     0.010 A 
ATOM     38  C   UNL A   1      36.713  33.557  29.441  1.00  0.00     0.010 A 
ATOM     39  C   UNL A   1      36.444  32.702  30.523  1.00  0.00    -0.014 A 
BRANCH  39  40
ATOM     40  C   UNL A   1      37.561  31.942  31.135  1.00  0.00     0.031 A 
ATOM     41  C   UNL A   1      38.022  32.287  32.521  1.00  0.00     0.074 A 
ATOM     42  C   UNL A   1      38.215  31.013  30.410  1.00  0.00     0.049 A 
ATOM     43  N   UNL A   1      39.051  31.830  33.189  1.00  0.00    -0.248 NA
ATOM     44  C   UNL A   1      37.243  33.309  33.239  1.00  0.00     0.031 C 
ATOM     45  C   UNL A   1      37.897  30.633  29.032  1.00  0.00     0.029 A 
ATOM     46  N   UNL A   1      39.298  30.231  30.728  1.00  0.00    -0.354 N 
ATOM     47  C   UNL A   1      39.056  32.526  34.389  1.00  0.00     0.074 A 
ATOM     48  C   UNL A   1      37.961  33.470  34.340  1.00  0.00     0.031 C 
ATOM     49  C   UNL A   1      38.752  29.677  28.631  1.00  0.00     0.029 A 
ATOM     50  C   UNL A   1      39.701  29.406  29.706  1.00  0.00     0.049 A 
ATOM     51  H   UNL A   1      39.744  30.260  31.604  1.00  0.00     0.167 HD
ATOM     52  C   UNL A   1      39.886  32.373  35.447  1.00  0.00     0.037 A 
ATOM     53  C   UNL A   1      40.726  28.535  29.643  1.00  0.00     0.037 A 
ATOM     54  C   UNL A   1      40.946  31.402  35.509  1.00  0.00     0.049 A 
ATOM     55  C   UNL A   1      41.622  28.372  30.841  1.00  0.00     0.074 A 
ATOM     56  C   UNL A   1      41.791  31.115  36.565  1.00  0.00     0.029 A 
ATOM     57  N   UNL A   1      41.299  30.557  34.468  1.00  0.00    -0.354 N 
ATOM     58  N   UNL A   1      41.575  28.986  31.998  1.00  0.00    -0.248 NA
ATOM     59  C   UNL A   1      42.710  27.391  30.725  1.00  0.00     0.031 C 
ATOM     60  C   UNL A   1      42.681  30.119  36.151  1.00  0.00     0.029 A 
ATOM     61  C   UNL A   1      42.364  29.758  34.851  1.00  0.00     0.049 A 
ATOM     62  H   UNL A   1      40.859  30.528  33.588  1.00  0.00     0.167 HD
ATOM     63  C   UNL A   1      42.609  28.451  32.755  1.00  0.00     0.074 A 
ATOM     64  C   UNL A   1      43.258  27.453  31.932  1.00  0.00     0.031 C 
ATOM     65  C   UNL A   1      42.987  28.762  34.018  1.00  0.00     0.037 A 
BRANCH  52  66
ATOM     66  C   UNL A   1      39.673  33.272  36.628  1.00  0.00     0.064 A 
ATOM     67  C   UNL A   1      40.360  34.488  36.758  1.00  0.00     0.173 A 
ATOM     68  C   UNL A   1      38.752  32.926  37.629  1.00  0.00     0.173 A 
ATOM     69  F   UNL A   1      41.262  34.856  35.836  1.00  0.00    -0.203 F 
ATOM     70  C   UNL A   1      40.154  35.313  37.862  1.00  0.00     0.198 A 
ATOM     71  C   UNL A   1      38.528  33.766  38.716  1.00  0.00     0.198 A 
ATOM     72  F   UNL A   1      38.070  31.775  37.551  1.00  0.00    -0.203 F 
ATOM     73  F   UNL A   1      40.859  36.445  37.990  1.00  0.00    -0.200 F 
ATOM     74  C   UNL A   1      39.235  34.954  38.835  1.00  0.00     0.200 A 
ATOM     75  F   UNL A   1      37.633  33.424  39.652  1.00  0.00    -0.200 F 
ATOM     76  F   UNL A   1      39.034  35.750  39.894  1.00  0.00    -0.200 F 
ENDBRANCH  52  66
BRANCH  53  77
ATOM     77  C   UNL A   1      40.948  27.734  28.412  1.00  0.00     0.064 A 
ATOM     78  C   UNL A   1      40.306  26.501  28.234  1.00  0.00     0.173 A 
ATOM     79  C   UNL A   1      41.805  28.177  27.394  1.00  0.00     0.173 A 
ATOM     80  F   UNL A   1      39.493  26.027  29.191  1.00  0.00    -0.203 F 
ATOM     81  C   UNL A   1      40.527  25.730  27.094  1.00  0.00     0.198 A 
ATOM     82  C   UNL A   1      42.006  27.418  26.243  1.00  0.00     0.198 A 
ATOM     83  F   UNL A   1      42.439  29.352  27.514  1.00  0.00    -0.203 F 
ATOM     84  F   UNL A   1      39.934  24.536  26.970  1.00  0.00    -0.200 F 
ATOM     85  C   UNL A   1      41.373  26.192  26.098  1.00  0.00     0.200 A 
ATOM     86  F   UNL A   1      42.814  27.871  25.276  1.00  0.00    -0.200 F 
ATOM     87  F   UNL A   1      41.584  25.453  25.000  1.00  0.00    -0.200 F 
ENDBRANCH  53  77
BRANCH  65  88
ATOM     88  C   UNL A   1      44.136  27.994  34.600  1.00  0.00     0.064 A 
ATOM     89  C   UNL A   1      45.452  28.473  34.525  1.00  0.00     0.173 A 
ATOM     90  C   UNL A   1      43.910  26.791  35.286  1.00  0.00     0.173 A 
ATOM     91  F   UNL A   1      45.718  29.611  33.865  1.00  0.00    -0.203 F 
ATOM     92  C   UNL A   1      46.503  27.768  35.102  1.00  0.00     0.198 A 
ATOM     93  C   UNL A   1      44.960  26.101  35.885  1.00  0.00     0.198 A 
ATOM     94  F   UNL A   1      42.668  26.295  35.390  1.00  0.00    -0.203 F 
ATOM     95  F   UNL A   1      47.757  28.225  34.988  1.00  0.00    -0.200 F 
ATOM     96  C   UNL A   1      46.256  26.588  35.789  1.00  0.00     0.200 A 
ATOM     97  F   UNL A   1      44.719  24.969  36.558  1.00  0.00    -0.200 F 
ATOM     98  F   UNL A   1      47.268  25.916  36.353  1.00  0.00    -0.200 F 
ENDBRANCH  65  88
ENDBRANCH  39  40
ENDBRANCH  31  34
ENDBRANCH  29  30
ENDBRANCH  28  29
ENDBRANCH   1  28
TORSDOF 16
ENDMDL
