MODEL 1
REMARK VINA RESULT:     -12.9      0.000      0.000
REMARK SMILES Cc1ccc(NC(=O)C[N@H+]2CCC[C@@H](C(=O)NCCCCNC(=O)c3ccc(-c4c5nc(c(-c6c(F)c(F)c(F)c(F)c6F)c6ccc([nH]6)c(-c6c(F)c(F)c(F)c(F)c6F)c6nc(c(-c7c(F)c(F)c(F)c(F)c7F)c7ccc4[nH]7)C=C6)C=C5)cc3)C2)cc1Cl
REMARK SMILES IDX 19 1 18 2 17 3 15 4 16 5 14 7 10 8 11 9 88 10 12 12 13 13
REMARK SMILES IDX 9 14 7 15 6 16 8 18 5 19 1 20 2 21 3 22 90 23 4 24 89 25
REMARK SMILES IDX 91 26 20 27 21 28 22 29 23 30 24 32 25 33 26 34 87 35 27 36
REMARK SMILES IDX 86 37 28 38 29 39 30 40 80 41 31 42 85 43 79 44 81 45 32 46
REMARK SMILES IDX 84 47 78 48 77 49 33 51 65 52 45 53 64 54 46 55 49 56 63 57
REMARK SMILES IDX 82 58 47 59 48 60 62 62 83 63 50 64 34 65 35 66 43 67 36 68
REMARK SMILES IDX 37 69 41 70 44 71 38 72 39 73 42 74 40 75 66 76 67 77 75 78
REMARK SMILES IDX 68 79 69 80 73 81 76 82 70 83 71 84 74 85 72 86 51 87 52 88
REMARK SMILES IDX 60 89 53 90 54 91 58 92 61 93 55 94 56 95 59 96 57 97
REMARK H PARENT 17 6 10 11 6 17 22 31 81 50 49 61
REMARK Flexibility Score: inf
ROOT
ATOM      1  C   UNL A   1      31.481  30.579  26.775  1.00  0.00     0.023 C 
ENDROOT
BRANCH   1   2
ATOM      2  C   UNL A   1      32.263  29.911  25.643  1.00  0.00     0.116 C 
BRANCH   2   3
ATOM      3  N   UNL A   1      31.393  29.653  24.512  1.00  0.00    -0.356 N 
ATOM      4  C   UNL A   1      31.495  28.719  23.526  1.00  0.00     0.228 C 
ATOM      5  O   UNL A   1      30.748  28.839  22.553  1.00  0.00    -0.275 OA
ATOM      6  H   UNL A   1      30.608  30.244  24.447  1.00  0.00     0.163 HD
BRANCH   4   7
ATOM      7  C   UNL A   1      32.397  27.505  23.714  1.00  0.00     0.133 C 
ATOM      8  N   UNL A   1      32.053  25.071  24.368  1.00  0.00    -0.326 N 
ATOM      9  C   UNL A   1      32.636  24.640  23.094  1.00  0.00     0.262 C 
ATOM     10  C   UNL A   1      31.483  26.417  24.284  1.00  0.00     0.276 C 
ATOM     11  H   UNL A   1      32.820  25.121  25.037  1.00  0.00     0.348 HD
ATOM     12  C   UNL A   1      33.653  25.668  22.581  1.00  0.00     0.062 C 
ATOM     13  C   UNL A   1      33.006  27.038  22.393  1.00  0.00     0.025 C 
BRANCH   8  14
ATOM     14  C   UNL A   1      31.086  24.078  24.916  1.00  0.00     0.363 C 
BRANCH  14  15
ATOM     15  C   UNL A   1      31.340  23.618  26.366  1.00  0.00     0.279 C 
ATOM     16  N   UNL A   1      32.474  22.964  26.775  1.00  0.00    -0.321 N 
ATOM     17  H   UNL A   1      32.481  22.741  27.734  1.00  0.00     0.170 HD
ATOM     18  O   UNL A   1      30.520  23.903  27.251  1.00  0.00    -0.268 OA
BRANCH  16  19
ATOM     19  C   UNL A   1      33.630  22.550  26.089  1.00  0.00     0.042 A 
ATOM     20  C   UNL A   1      37.287  20.686  24.739  1.00  0.00     0.046 C 
ATOM     21  C   UNL A   1      36.009  21.388  25.102  1.00  0.00    -0.032 A 
ATOM     22  C   UNL A   1      34.816  20.654  25.139  1.00  0.00     0.007 A 
ATOM     23  C   UNL A   1      35.972  22.732  25.496  1.00  0.00     0.046 A 
ATOM     24  C   UNL A   1      33.634  21.236  25.607  1.00  0.00     0.026 A 
ATOM     25  C   UNL A   1      34.781  23.317  25.951  1.00  0.00     0.047 A 
ATOM     26  Cl  UNL A   1      37.402  23.703  25.531  1.00  0.00    -0.084 Cl
ENDBRANCH  16  19
ENDBRANCH  14  15
ENDBRANCH   8  14
ENDBRANCH   4   7
ENDBRANCH   2   3
ENDBRANCH   1   2
BRANCH   1  27
ATOM     27  C   UNL A   1      31.439  32.110  26.700  1.00  0.00     0.023 C 
BRANCH  27  28
ATOM     28  C   UNL A   1      32.668  32.827  27.251  1.00  0.00     0.116 C 
BRANCH  28  29
ATOM     29  N   UNL A   1      32.401  34.206  27.626  1.00  0.00    -0.352 N 
ATOM     30  C   UNL A   1      32.987  34.977  28.599  1.00  0.00     0.251 C 
ATOM     31  H   UNL A   1      31.696  34.652  27.104  1.00  0.00     0.163 HD
ATOM     32  O   UNL A   1      32.528  36.086  28.863  1.00  0.00    -0.269 OA
BRANCH  30  33
ATOM     33  C   UNL A   1      34.150  34.466  29.355  1.00  0.00     0.039 A 
ATOM     34  C   UNL A   1      33.930  33.863  30.596  1.00  0.00     0.014 A 
ATOM     35  C   UNL A   1      35.448  34.575  28.849  1.00  0.00     0.014 A 
ATOM     36  C   UNL A   1      35.003  33.308  31.297  1.00  0.00     0.010 A 
ATOM     37  C   UNL A   1      36.504  33.954  29.512  1.00  0.00     0.010 A 
ATOM     38  C   UNL A   1      36.293  33.311  30.742  1.00  0.00    -0.014 A 
BRANCH  38  39
ATOM     39  C   UNL A   1      37.424  32.635  31.429  1.00  0.00     0.031 A 
ATOM     40  C   UNL A   1      38.124  31.474  30.781  1.00  0.00     0.074 A 
ATOM     41  C   UNL A   1      37.783  33.032  32.666  1.00  0.00     0.049 A 
ATOM     42  N   UNL A   1      39.095  30.726  31.247  1.00  0.00    -0.248 NA
ATOM     43  C   UNL A   1      37.656  31.082  29.444  1.00  0.00     0.031 C 
ATOM     44  C   UNL A   1      37.156  34.118  33.420  1.00  0.00     0.029 A 
ATOM     45  N   UNL A   1      38.761  32.564  33.510  1.00  0.00    -0.354 N 
ATOM     46  C   UNL A   1      39.343  29.774  30.268  1.00  0.00     0.074 A 
ATOM     47  C   UNL A   1      38.385  30.001  29.206  1.00  0.00     0.031 C 
ATOM     48  C   UNL A   1      37.780  34.252  34.601  1.00  0.00     0.029 A 
ATOM     49  C   UNL A   1      38.821  33.234  34.708  1.00  0.00     0.049 A 
ATOM     50  H   UNL A   1      39.361  31.819  33.279  1.00  0.00     0.167 HD
ATOM     51  C   UNL A   1      40.297  28.812  30.244  1.00  0.00     0.037 A 
ATOM     52  C   UNL A   1      39.621  33.045  35.776  1.00  0.00     0.037 A 
ATOM     53  C   UNL A   1      41.260  28.601  31.295  1.00  0.00     0.049 A 
ATOM     54  C   UNL A   1      40.655  31.953  35.734  1.00  0.00     0.074 A 
ATOM     55  C   UNL A   1      42.304  27.694  31.337  1.00  0.00     0.029 A 
ATOM     56  N   UNL A   1      41.290  29.300  32.493  1.00  0.00    -0.354 N 
ATOM     57  N   UNL A   1      40.931  31.108  34.770  1.00  0.00    -0.248 NA
ATOM     58  C   UNL A   1      41.497  31.793  36.929  1.00  0.00     0.031 C 
ATOM     59  C   UNL A   1      42.928  27.801  32.585  1.00  0.00     0.029 A 
ATOM     60  C   UNL A   1      42.315  28.821  33.295  1.00  0.00     0.049 A 
ATOM     61  H   UNL A   1      40.674  30.029  32.738  1.00  0.00     0.167 HD
ATOM     62  C   UNL A   1      41.994  30.340  35.228  1.00  0.00     0.074 A 
ATOM     63  C   UNL A   1      42.324  30.830  36.550  1.00  0.00     0.031 C 
ATOM     64  C   UNL A   1      42.639  29.322  34.607  1.00  0.00     0.037 A 
BRANCH  51  65
ATOM     65  C   UNL A   1      40.343  27.906  29.047  1.00  0.00     0.064 A 
ATOM     66  C   UNL A   1      41.107  28.219  27.912  1.00  0.00     0.173 A 
ATOM     67  C   UNL A   1      39.644  26.689  29.049  1.00  0.00     0.173 A 
ATOM     68  F   UNL A   1      41.789  29.374  27.853  1.00  0.00    -0.203 F 
ATOM     69  C   UNL A   1      41.141  27.365  26.812  1.00  0.00     0.198 A 
ATOM     70  C   UNL A   1      39.708  25.822  27.961  1.00  0.00     0.198 A 
ATOM     71  F   UNL A   1      38.904  26.335  30.110  1.00  0.00    -0.203 F 
ATOM     72  F   UNL A   1      41.832  27.713  25.716  1.00  0.00    -0.200 F 
ATOM     73  C   UNL A   1      40.448  26.165  26.839  1.00  0.00     0.200 A 
ATOM     74  F   UNL A   1      39.051  24.654  27.998  1.00  0.00    -0.200 F 
ATOM     75  F   UNL A   1      40.488  25.341  25.783  1.00  0.00    -0.200 F 
ENDBRANCH  51  65
BRANCH  52  76
ATOM     76  C   UNL A   1      39.489  33.923  36.968  1.00  0.00     0.064 A 
ATOM     77  C   UNL A   1      40.132  35.168  37.020  1.00  0.00     0.173 A 
ATOM     78  C   UNL A   1      38.730  33.535  38.083  1.00  0.00     0.173 A 
ATOM     79  F   UNL A   1      40.887  35.574  35.989  1.00  0.00    -0.203 F 
ATOM     80  C   UNL A   1      40.040  35.981  38.148  1.00  0.00     0.198 A 
ATOM     81  C   UNL A   1      38.612  34.363  39.197  1.00  0.00     0.198 A 
ATOM     82  F   UNL A   1      38.091  32.357  38.083  1.00  0.00    -0.203 F 
ATOM     83  F   UNL A   1      40.707  37.142  38.190  1.00  0.00    -0.200 F 
ATOM     84  C   UNL A   1      39.276  35.581  39.233  1.00  0.00     0.200 A 
ATOM     85  F   UNL A   1      37.859  33.981  40.237  1.00  0.00    -0.200 F 
ATOM     86  F   UNL A   1      39.184  36.364  40.316  1.00  0.00    -0.200 F 
ENDBRANCH  52  76
BRANCH  64  87
ATOM     87  C   UNL A   1      43.796  28.693  35.331  1.00  0.00     0.064 A 
ATOM     88  C   UNL A   1      43.621  27.621  36.219  1.00  0.00     0.173 A 
ATOM     89  C   UNL A   1      45.106  29.146  35.103  1.00  0.00     0.173 A 
ATOM     90  F   UNL A   1      42.389  27.159  36.484  1.00  0.00    -0.203 F 
ATOM     91  C   UNL A   1      44.708  27.047  36.873  1.00  0.00     0.198 A 
ATOM     92  C   UNL A   1      46.193  28.546  35.729  1.00  0.00     0.198 A 
ATOM     93  F   UNL A   1      45.331  30.163  34.257  1.00  0.00    -0.203 F 
ATOM     94  F   UNL A   1      44.511  26.060  37.756  1.00  0.00    -0.200 F 
ATOM     95  C   UNL A   1      45.993  27.503  36.620  1.00  0.00     0.200 A 
ATOM     96  F   UNL A   1      47.436  28.978  35.471  1.00  0.00    -0.200 F 
ATOM     97  F   UNL A   1      47.040  26.943  37.243  1.00  0.00    -0.200 F 
ENDBRANCH  64  87
ENDBRANCH  38  39
ENDBRANCH  30  33
ENDBRANCH  28  29
ENDBRANCH  27  28
ENDBRANCH   1  27
TORSDOF 14
ENDMDL
MODEL 2
REMARK VINA RESULT:     -12.7      0.890      7.381
REMARK SMILES Cc1ccc(NC(=O)C[N@H+]2CCC[C@@H](C(=O)NCCCCNC(=O)c3ccc(-c4c5nc(c(-c6c(F)c(F)c(F)c(F)c6F)c6ccc([nH]6)c(-c6c(F)c(F)c(F)c(F)c6F)c6nc(c(-c7c(F)c(F)c(F)c(F)c7F)c7ccc4[nH]7)C=C6)C=C5)cc3)C2)cc1Cl
REMARK SMILES IDX 19 1 18 2 17 3 15 4 16 5 14 7 10 8 11 9 88 10 12 12 13 13
REMARK SMILES IDX 9 14 7 15 6 16 8 18 5 19 1 20 2 21 3 22 90 23 4 24 89 25
REMARK SMILES IDX 91 26 20 27 21 28 22 29 23 30 24 32 25 33 26 34 87 35 27 36
REMARK SMILES IDX 86 37 28 38 29 39 30 40 80 41 31 42 85 43 79 44 81 45 32 46
REMARK SMILES IDX 84 47 78 48 77 49 33 51 65 52 45 53 64 54 46 55 49 56 63 57
REMARK SMILES IDX 82 58 47 59 48 60 62 62 83 63 50 64 34 65 35 66 43 67 36 68
REMARK SMILES IDX 37 69 41 70 44 71 38 72 39 73 42 74 40 75 66 76 67 77 75 78
REMARK SMILES IDX 68 79 69 80 73 81 76 82 70 83 71 84 74 85 72 86 51 87 52 88
REMARK SMILES IDX 60 89 53 90 54 91 58 92 61 93 55 94 56 95 59 96 57 97
REMARK H PARENT 17 6 10 11 6 17 22 31 81 50 49 61
REMARK Flexibility Score: inf
ROOT
ATOM      1  C   UNL A   1      31.415  30.604  26.475  1.00  0.00     0.023 C 
ENDROOT
BRANCH   1   2
ATOM      2  C   UNL A   1      32.221  30.049  25.299  1.00  0.00     0.116 C 
BRANCH   2   3
ATOM      3  N   UNL A   1      31.333  29.523  24.281  1.00  0.00    -0.356 N 
ATOM      4  C   UNL A   1      31.411  28.366  23.566  1.00  0.00     0.228 C 
ATOM      5  O   UNL A   1      30.652  28.244  22.603  1.00  0.00    -0.275 OA
ATOM      6  H   UNL A   1      30.554  30.089  24.074  1.00  0.00     0.163 HD
BRANCH   4   7
ATOM      7  C   UNL A   1      32.300  27.227  24.051  1.00  0.00     0.133 C 
ATOM      8  N   UNL A   1      31.935  24.807  24.742  1.00  0.00    -0.326 N 
ATOM      9  C   UNL A   1      32.851  24.361  23.687  1.00  0.00     0.262 C 
ATOM     10  C   UNL A   1      31.332  26.105  24.435  1.00  0.00     0.276 C 
ATOM     11  H   UNL A   1      32.500  24.940  25.581  1.00  0.00     0.348 HD
ATOM     12  C   UNL A   1      33.907  25.434  23.389  1.00  0.00     0.062 C 
ATOM     13  C   UNL A   1      33.254  26.745  22.960  1.00  0.00     0.025 C 
BRANCH   8  14
ATOM     14  C   UNL A   1      30.917  23.774  25.086  1.00  0.00     0.363 C 
BRANCH  14  15
ATOM     15  C   UNL A   1      30.868  23.339  26.564  1.00  0.00     0.279 C 
ATOM     16  N   UNL A   1      31.872  22.648  27.193  1.00  0.00    -0.321 N 
ATOM     17  H   UNL A   1      31.685  22.449  28.140  1.00  0.00     0.170 HD
ATOM     18  O   UNL A   1      29.909  23.681  27.271  1.00  0.00    -0.268 OA
BRANCH  16  19
ATOM     19  C   UNL A   1      33.117  22.168  26.749  1.00  0.00     0.042 A 
ATOM     20  C   UNL A   1      36.836  21.369  24.699  1.00  0.00     0.046 C 
ATOM     21  C   UNL A   1      35.579  21.572  25.497  1.00  0.00    -0.032 A 
ATOM     22  C   UNL A   1      35.409  22.766  26.209  1.00  0.00     0.007 A 
ATOM     23  C   UNL A   1      34.522  20.651  25.487  1.00  0.00     0.046 A 
ATOM     24  C   UNL A   1      34.199  23.052  26.846  1.00  0.00     0.026 A 
ATOM     25  C   UNL A   1      33.314  20.933  26.141  1.00  0.00     0.047 A 
ATOM     26  Cl  UNL A   1      34.620  19.173  24.595  1.00  0.00    -0.084 Cl
ENDBRANCH  16  19
ENDBRANCH  14  15
ENDBRANCH   8  14
ENDBRANCH   4   7
ENDBRANCH   2   3
ENDBRANCH   1   2
BRANCH   1  27
ATOM     27  C   UNL A   1      31.391  32.134  26.562  1.00  0.00     0.023 C 
BRANCH  27  28
ATOM     28  C   UNL A   1      32.646  32.777  27.146  1.00  0.00     0.116 C 
BRANCH  28  29
ATOM     29  N   UNL A   1      32.432  34.146  27.584  1.00  0.00    -0.352 N 
ATOM     30  C   UNL A   1      33.068  34.860  28.569  1.00  0.00     0.251 C 
ATOM     31  H   UNL A   1      31.726  34.634  27.102  1.00  0.00     0.163 HD
ATOM     32  O   UNL A   1      32.651  35.970  28.891  1.00  0.00    -0.269 OA
BRANCH  30  33
ATOM     33  C   UNL A   1      34.237  34.284  29.269  1.00  0.00     0.039 A 
ATOM     34  C   UNL A   1      34.018  33.500  30.404  1.00  0.00     0.014 A 
ATOM     35  C   UNL A   1      35.538  34.510  28.813  1.00  0.00     0.014 A 
ATOM     36  C   UNL A   1      35.098  32.885  31.041  1.00  0.00     0.010 A 
ATOM     37  C   UNL A   1      36.605  33.836  29.403  1.00  0.00     0.010 A 
ATOM     38  C   UNL A   1      36.397  33.014  30.522  1.00  0.00    -0.014 A 
BRANCH  38  39
ATOM     39  C   UNL A   1      37.540  32.284  31.129  1.00  0.00     0.031 A 
ATOM     40  C   UNL A   1      38.033  32.646  32.502  1.00  0.00     0.074 A 
ATOM     41  C   UNL A   1      38.174  31.331  30.417  1.00  0.00     0.049 A 
ATOM     42  N   UNL A   1      39.046  32.159  33.175  1.00  0.00    -0.248 NA
ATOM     43  C   UNL A   1      37.308  33.716  33.203  1.00  0.00     0.031 C 
ATOM     44  C   UNL A   1      37.820  30.916  29.059  1.00  0.00     0.029 A 
ATOM     45  N   UNL A   1      39.253  30.542  30.734  1.00  0.00    -0.354 N 
ATOM     46  C   UNL A   1      39.086  32.867  34.367  1.00  0.00     0.074 A 
ATOM     47  C   UNL A   1      38.030  33.857  34.305  1.00  0.00     0.031 C 
ATOM     48  C   UNL A   1      38.646  29.932  28.670  1.00  0.00     0.029 A 
ATOM     49  C   UNL A   1      39.616  29.676  29.731  1.00  0.00     0.049 A 
ATOM     50  H   UNL A   1      39.721  30.592  31.598  1.00  0.00     0.167 HD
ATOM     51  C   UNL A   1      39.910  32.695  35.428  1.00  0.00     0.037 A 
ATOM     52  C   UNL A   1      40.622  28.781  29.670  1.00  0.00     0.037 A 
ATOM     53  C   UNL A   1      40.948  31.698  35.493  1.00  0.00     0.049 A 
ATOM     54  C   UNL A   1      41.539  28.628  30.853  1.00  0.00     0.074 A 
ATOM     55  C   UNL A   1      41.795  31.403  36.547  1.00  0.00     0.029 A 
ATOM     56  N   UNL A   1      41.286  30.838  34.457  1.00  0.00    -0.354 N 
ATOM     57  N   UNL A   1      41.519  29.251  32.006  1.00  0.00    -0.248 NA
ATOM     58  C   UNL A   1      42.619  27.638  30.727  1.00  0.00     0.031 C 
ATOM     59  C   UNL A   1      42.686  30.409  36.128  1.00  0.00     0.029 A 
ATOM     60  C   UNL A   1      42.351  30.036  34.837  1.00  0.00     0.049 A 
ATOM     61  H   UNL A   1      40.836  30.804  33.582  1.00  0.00     0.167 HD
ATOM     62  C   UNL A   1      42.557  28.709  32.753  1.00  0.00     0.074 A 
ATOM     63  C   UNL A   1      43.178  27.695  31.927  1.00  0.00     0.031 C 
ATOM     64  C   UNL A   1      42.958  29.023  34.009  1.00  0.00     0.037 A 
BRANCH  51  65
ATOM     65  C   UNL A   1      39.733  33.611  36.605  1.00  0.00     0.064 A 
ATOM     66  C   UNL A   1      40.405  34.841  36.693  1.00  0.00     0.173 A 
ATOM     67  C   UNL A   1      38.851  33.273  37.644  1.00  0.00     0.173 A 
ATOM     68  F   UNL A   1      41.267  35.210  35.733  1.00  0.00    -0.203 F 
ATOM     69  C   UNL A   1      40.226  35.680  37.790  1.00  0.00     0.198 A 
ATOM     70  C   UNL A   1      38.649  34.130  38.722  1.00  0.00     0.198 A 
ATOM     71  F   UNL A   1      38.178  32.114  37.609  1.00  0.00    -0.203 F 
ATOM     72  F   UNL A   1      40.922  36.823  37.879  1.00  0.00    -0.200 F 
ATOM     73  C   UNL A   1      39.344  35.328  38.800  1.00  0.00     0.200 A 
ATOM     74  F   UNL A   1      37.783  33.796  39.688  1.00  0.00    -0.200 F 
ATOM     75  F   UNL A   1      39.168  36.140  39.852  1.00  0.00    -0.200 F 
ENDBRANCH  51  65
BRANCH  52  76
ATOM     76  C   UNL A   1      40.801  27.946  28.454  1.00  0.00     0.064 A 
ATOM     77  C   UNL A   1      40.183  26.692  28.343  1.00  0.00     0.173 A 
ATOM     78  C   UNL A   1      41.600  28.374  27.384  1.00  0.00     0.173 A 
ATOM     79  F   UNL A   1      39.427  26.229  29.349  1.00  0.00    -0.203 F 
ATOM     80  C   UNL A   1      40.374  25.891  27.221  1.00  0.00     0.198 A 
ATOM     81  C   UNL A   1      41.765  27.586  26.247  1.00  0.00     0.198 A 
ATOM     82  F   UNL A   1      42.211  29.567  27.436  1.00  0.00    -0.203 F 
ATOM     83  F   UNL A   1      39.812  24.675  27.164  1.00  0.00    -0.200 F 
ATOM     84  C   UNL A   1      41.160  26.340  26.171  1.00  0.00     0.200 A 
ATOM     85  F   UNL A   1      42.512  28.030  25.227  1.00  0.00    -0.200 F 
ATOM     86  F   UNL A   1      41.341  25.570  25.089  1.00  0.00    -0.200 F 
ENDBRANCH  52  76
BRANCH  64  87
ATOM     87  C   UNL A   1      44.097  28.234  34.589  1.00  0.00     0.064 A 
ATOM     88  C   UNL A   1      45.426  28.673  34.495  1.00  0.00     0.173 A 
ATOM     89  C   UNL A   1      43.851  27.038  35.283  1.00  0.00     0.173 A 
ATOM     90  F   UNL A   1      45.719  29.802  33.830  1.00  0.00    -0.203 F 
ATOM     91  C   UNL A   1      46.467  27.932  35.048  1.00  0.00     0.198 A 
ATOM     92  C   UNL A   1      44.889  26.319  35.865  1.00  0.00     0.198 A 
ATOM     93  F   UNL A   1      42.597  26.577  35.409  1.00  0.00    -0.203 F 
ATOM     94  F   UNL A   1      47.733  28.344  34.900  1.00  0.00    -0.200 F 
ATOM     95  C   UNL A   1      46.197  26.760  35.740  1.00  0.00     0.200 A 
ATOM     96  F   UNL A   1      44.624  25.196  36.548  1.00  0.00    -0.200 F 
ATOM     97  F   UNL A   1      47.199  26.053  36.280  1.00  0.00    -0.200 F 
ENDBRANCH  64  87
ENDBRANCH  38  39
ENDBRANCH  30  33
ENDBRANCH  28  29
ENDBRANCH  27  28
ENDBRANCH   1  27
TORSDOF 14
ENDMDL
MODEL 3
REMARK VINA RESULT:     -12.7      1.282      2.316
REMARK SMILES Cc1ccc(NC(=O)C[N@H+]2CCC[C@@H](C(=O)NCCCCNC(=O)c3ccc(-c4c5nc(c(-c6c(F)c(F)c(F)c(F)c6F)c6ccc([nH]6)c(-c6c(F)c(F)c(F)c(F)c6F)c6nc(c(-c7c(F)c(F)c(F)c(F)c7F)c7ccc4[nH]7)C=C6)C=C5)cc3)C2)cc1Cl
REMARK SMILES IDX 19 1 18 2 17 3 15 4 16 5 14 7 10 8 11 9 88 10 12 12 13 13
REMARK SMILES IDX 9 14 7 15 6 16 8 18 5 19 1 20 2 21 3 22 90 23 4 24 89 25
REMARK SMILES IDX 91 26 20 27 21 28 22 29 23 30 24 32 25 33 26 34 87 35 27 36
REMARK SMILES IDX 86 37 28 38 29 39 30 40 80 41 31 42 85 43 79 44 81 45 32 46
REMARK SMILES IDX 84 47 78 48 77 49 33 51 65 52 45 53 64 54 46 55 49 56 63 57
REMARK SMILES IDX 82 58 47 59 48 60 62 62 83 63 50 64 34 65 35 66 43 67 36 68
REMARK SMILES IDX 37 69 41 70 44 71 38 72 39 73 42 74 40 75 66 76 67 77 75 78
REMARK SMILES IDX 68 79 69 80 73 81 76 82 70 83 71 84 74 85 72 86 51 87 52 88
REMARK SMILES IDX 60 89 53 90 54 91 58 92 61 93 55 94 56 95 59 96 57 97
REMARK H PARENT 17 6 10 11 6 17 22 31 81 50 49 61
REMARK Flexibility Score: inf
ROOT
ATOM      1  C   UNL A   1      31.626  30.672  26.238  1.00  0.00     0.023 C 
ENDROOT
BRANCH   1   2
ATOM      2  C   UNL A   1      32.669  29.902  27.049  1.00  0.00     0.116 C 
BRANCH   2   3
ATOM      3  N   UNL A   1      32.278  28.513  27.184  1.00  0.00    -0.356 N 
ATOM      4  C   UNL A   1      31.544  27.726  26.348  1.00  0.00     0.228 C 
ATOM      5  O   UNL A   1      31.161  26.639  26.784  1.00  0.00    -0.275 OA
ATOM      6  H   UNL A   1      32.591  28.069  28.005  1.00  0.00     0.163 HD
BRANCH   4   7
ATOM      7  C   UNL A   1      31.350  28.132  24.891  1.00  0.00     0.133 C 
ATOM      8  N   UNL A   1      32.351  27.431  22.662  1.00  0.00    -0.326 N 
ATOM      9  C   UNL A   1      31.021  27.050  22.177  1.00  0.00     0.262 C 
ATOM     10  C   UNL A   1      32.439  27.381  24.122  1.00  0.00     0.276 C 
ATOM     11  H   UNL A   1      32.490  28.405  22.394  1.00  0.00     0.348 HD
ATOM     12  C   UNL A   1      29.930  27.892  22.851  1.00  0.00     0.062 C 
ATOM     13  C   UNL A   1      29.971  27.733  24.369  1.00  0.00     0.025 C 
BRANCH   8  14
ATOM     14  C   UNL A   1      33.441  26.658  22.000  1.00  0.00     0.363 C 
BRANCH  14  15
ATOM     15  C   UNL A   1      32.993  25.455  21.146  1.00  0.00     0.279 C 
ATOM     16  N   UNL A   1      32.605  24.247  21.668  1.00  0.00    -0.321 N 
ATOM     17  H   UNL A   1      32.347  23.585  20.987  1.00  0.00     0.170 HD
ATOM     18  O   UNL A   1      32.902  25.577  19.916  1.00  0.00    -0.268 OA
BRANCH  16  19
ATOM     19  C   UNL A   1      32.503  23.773  22.988  1.00  0.00     0.042 A 
ATOM     20  C   UNL A   1      31.897  23.216  27.230  1.00  0.00     0.046 C 
ATOM     21  C   UNL A   1      32.126  23.292  25.747  1.00  0.00    -0.032 A 
ATOM     22  C   UNL A   1      31.028  23.485  24.898  1.00  0.00     0.007 A 
ATOM     23  C   UNL A   1      33.406  23.269  25.179  1.00  0.00     0.046 A 
ATOM     24  C   UNL A   1      31.214  23.701  23.529  1.00  0.00     0.026 A 
ATOM     25  C   UNL A   1      33.588  23.471  23.803  1.00  0.00     0.047 A 
ATOM     26  Cl  UNL A   1      34.824  23.087  26.152  1.00  0.00    -0.084 Cl
ENDBRANCH  16  19
ENDBRANCH  14  15
ENDBRANCH   8  14
ENDBRANCH   4   7
ENDBRANCH   2   3
ENDBRANCH   1   2
BRANCH   1  27
ATOM     27  C   UNL A   1      31.403  32.117  26.699  1.00  0.00     0.023 C 
BRANCH  27  28
ATOM     28  C   UNL A   1      32.634  32.823  27.260  1.00  0.00     0.116 C 
BRANCH  28  29
ATOM     29  N   UNL A   1      32.379  34.206  27.625  1.00  0.00    -0.352 N 
ATOM     30  C   UNL A   1      32.976  34.981  28.589  1.00  0.00     0.251 C 
ATOM     31  H   UNL A   1      31.674  34.654  27.104  1.00  0.00     0.163 HD
ATOM     32  O   UNL A   1      32.526  36.095  28.847  1.00  0.00    -0.269 OA
BRANCH  30  33
ATOM     33  C   UNL A   1      34.139  34.468  29.342  1.00  0.00     0.039 A 
ATOM     34  C   UNL A   1      33.921  33.867  30.585  1.00  0.00     0.014 A 
ATOM     35  C   UNL A   1      35.436  34.573  28.832  1.00  0.00     0.014 A 
ATOM     36  C   UNL A   1      34.994  33.310  31.283  1.00  0.00     0.010 A 
ATOM     37  C   UNL A   1      36.492  33.950  29.493  1.00  0.00     0.010 A 
ATOM     38  C   UNL A   1      36.283  33.309  30.725  1.00  0.00    -0.014 A 
BRANCH  38  39
ATOM     39  C   UNL A   1      37.414  32.631  31.410  1.00  0.00     0.031 A 
ATOM     40  C   UNL A   1      38.113  31.470  30.759  1.00  0.00     0.074 A 
ATOM     41  C   UNL A   1      37.775  33.026  32.646  1.00  0.00     0.049 A 
ATOM     42  N   UNL A   1      39.083  30.721  31.222  1.00  0.00    -0.248 NA
ATOM     43  C   UNL A   1      37.642  31.080  29.422  1.00  0.00     0.031 C 
ATOM     44  C   UNL A   1      37.149  34.111  33.403  1.00  0.00     0.029 A 
ATOM     45  N   UNL A   1      38.753  32.556  33.489  1.00  0.00    -0.354 N 
ATOM     46  C   UNL A   1      39.329  29.770  30.242  1.00  0.00     0.074 A 
ATOM     47  C   UNL A   1      38.370  29.999  29.182  1.00  0.00     0.031 C 
ATOM     48  C   UNL A   1      37.775  34.243  34.583  1.00  0.00     0.029 A 
ATOM     49  C   UNL A   1      38.815  33.224  34.688  1.00  0.00     0.049 A 
ATOM     50  H   UNL A   1      39.352  31.810  33.256  1.00  0.00     0.167 HD
ATOM     51  C   UNL A   1      40.282  28.807  30.216  1.00  0.00     0.037 A 
ATOM     52  C   UNL A   1      39.616  33.032  35.755  1.00  0.00     0.037 A 
ATOM     53  C   UNL A   1      41.245  28.594  31.265  1.00  0.00     0.049 A 
ATOM     54  C   UNL A   1      40.649  31.939  35.710  1.00  0.00     0.074 A 
ATOM     55  C   UNL A   1      42.289  27.685  31.305  1.00  0.00     0.029 A 
ATOM     56  N   UNL A   1      41.278  29.290  32.465  1.00  0.00    -0.354 N 
ATOM     57  N   UNL A   1      40.923  31.095  34.745  1.00  0.00    -0.248 NA
ATOM     58  C   UNL A   1      41.491  31.776  36.904  1.00  0.00     0.031 C 
ATOM     59  C   UNL A   1      42.914  27.790  32.553  1.00  0.00     0.029 A 
ATOM     60  C   UNL A   1      42.303  28.809  33.264  1.00  0.00     0.049 A 
ATOM     61  H   UNL A   1      40.663  30.019  32.711  1.00  0.00     0.167 HD
ATOM     62  C   UNL A   1      41.986  30.325  35.200  1.00  0.00     0.074 A 
ATOM     63  C   UNL A   1      42.317  30.813  36.522  1.00  0.00     0.031 C 
ATOM     64  C   UNL A   1      42.629  29.308  34.577  1.00  0.00     0.037 A 
BRANCH  51  65
ATOM     65  C   UNL A   1      40.326  27.902  29.017  1.00  0.00     0.064 A 
ATOM     66  C   UNL A   1      41.081  28.222  27.877  1.00  0.00     0.173 A 
ATOM     67  C   UNL A   1      39.634  26.681  29.022  1.00  0.00     0.173 A 
ATOM     68  F   UNL A   1      41.755  29.381  27.815  1.00  0.00    -0.203 F 
ATOM     69  C   UNL A   1      41.113  27.370  26.776  1.00  0.00     0.198 A 
ATOM     70  C   UNL A   1      39.697  25.816  27.933  1.00  0.00     0.198 A 
ATOM     71  F   UNL A   1      38.904  26.322  30.087  1.00  0.00    -0.203 F 
ATOM     72  F   UNL A   1      41.794  27.723  25.677  1.00  0.00    -0.200 F 
ATOM     73  C   UNL A   1      40.428  26.165  26.807  1.00  0.00     0.200 A 
ATOM     74  F   UNL A   1      39.047  24.644  27.972  1.00  0.00    -0.200 F 
ATOM     75  F   UNL A   1      40.465  25.343  25.749  1.00  0.00    -0.200 F 
ENDBRANCH  51  65
BRANCH  52  76
ATOM     76  C   UNL A   1      39.487  33.908  36.949  1.00  0.00     0.064 A 
ATOM     77  C   UNL A   1      40.127  35.155  37.000  1.00  0.00     0.173 A 
ATOM     78  C   UNL A   1      38.732  33.517  38.065  1.00  0.00     0.173 A 
ATOM     79  F   UNL A   1      40.877  35.563  35.967  1.00  0.00    -0.203 F 
ATOM     80  C   UNL A   1      40.037  35.966  38.129  1.00  0.00     0.198 A 
ATOM     81  C   UNL A   1      38.616  34.344  39.181  1.00  0.00     0.198 A 
ATOM     82  F   UNL A   1      38.095  32.337  38.067  1.00  0.00    -0.203 F 
ATOM     83  F   UNL A   1      40.701  37.129  38.170  1.00  0.00    -0.200 F 
ATOM     84  C   UNL A   1      39.277  35.563  39.216  1.00  0.00     0.200 A 
ATOM     85  F   UNL A   1      37.867  33.958  40.224  1.00  0.00    -0.200 F 
ATOM     86  F   UNL A   1      39.187  36.345  40.301  1.00  0.00    -0.200 F 
ENDBRANCH  52  76
BRANCH  64  87
ATOM     87  C   UNL A   1      43.787  28.676  35.298  1.00  0.00     0.064 A 
ATOM     88  C   UNL A   1      45.106  29.114  35.108  1.00  0.00     0.173 A 
ATOM     89  C   UNL A   1      43.567  27.642  36.222  1.00  0.00     0.173 A 
ATOM     90  F   UNL A   1      45.373  30.089  34.226  1.00  0.00    -0.203 F 
ATOM     91  C   UNL A   1      46.164  28.521  35.793  1.00  0.00     0.198 A 
ATOM     92  C   UNL A   1      44.622  27.077  36.932  1.00  0.00     0.198 A 
ATOM     93  F   UNL A   1      42.324  27.191  36.448  1.00  0.00    -0.203 F 
ATOM     94  F   UNL A   1      47.420  28.919  35.556  1.00  0.00    -0.200 F 
ATOM     95  C   UNL A   1      45.920  27.510  36.711  1.00  0.00     0.200 A 
ATOM     96  F   UNL A   1      44.381  26.111  37.830  1.00  0.00    -0.200 F 
ATOM     97  F   UNL A   1      46.937  26.947  37.377  1.00  0.00    -0.200 F 
ENDBRANCH  64  87
ENDBRANCH  38  39
ENDBRANCH  30  33
ENDBRANCH  28  29
ENDBRANCH  27  28
ENDBRANCH   1  27
TORSDOF 14
ENDMDL
