MODEL 1
REMARK VINA RESULT:     -13.9      0.000      0.000
REMARK SMILES Cn1cc(C(=O)NCCCCNC(=O)c2ccc(-c3c4nc(c(-c5c(F)c(F)c(F)c(F)c5F)c5ccc([nH]5)c(-c5c(F)c(F)c(F)c(F)c5F)c5nc(c(-c6c(F)c(F)c(F)c(F)c6F)c6ccc3[nH]6)C=C5)C=C4)cc2)c(C(=O)Nc2ccc(-c3nc4cc(Cl)ccc4o3)cc2)n1
REMARK SMILES IDX 9 1 8 2 7 3 5 4 6 5 4 7 1 8 2 9 3 10 98 11 78 12 79 13 80 14
REMARK SMILES IDX 81 15 82 17 83 18 97 19 84 20 96 21 85 22 86 23 87 24 95 25
REMARK SMILES IDX 88 26 94 27 89 28 93 29 90 30 92 31 91 32 10 33 11 34 12 35
REMARK SMILES IDX 13 36 14 38 15 39 16 40 77 41 17 42 76 43 18 44 19 45 20 46
REMARK SMILES IDX 70 47 21 48 75 49 69 50 71 51 22 52 74 53 68 54 67 55 23 57
REMARK SMILES IDX 55 58 35 59 54 60 36 61 39 62 53 63 72 64 37 65 38 66 52 68
REMARK SMILES IDX 73 69 40 70 24 71 25 72 33 73 26 74 27 75 31 76 34 77 28 78
REMARK SMILES IDX 29 79 32 80 30 81 56 82 57 83 65 84 58 85 59 86 63 87 66 88
REMARK SMILES IDX 60 89 61 90 64 91 62 92 41 93 42 94 50 95 43 96 44 97 48 98
REMARK SMILES IDX 51 99 45 100 46 101 49 102 47 103
REMARK H PARENT 7 6 81 16 12 37 71 56 39 67
REMARK Flexibility Score: inf
ROOT
ATOM      1  C   UNL A   1      33.654  27.743  24.841  1.00  0.00     0.023 C 
ENDROOT
BRANCH   1   2
ATOM      2  C   UNL A   1      33.086  26.604  25.685  1.00  0.00     0.116 C 
BRANCH   2   3
ATOM      3  N   UNL A   1      34.027  25.545  25.997  1.00  0.00    -0.352 N 
ATOM      4  C   UNL A   1      33.917  24.178  26.087  1.00  0.00     0.255 C 
ATOM      5  O   UNL A   1      34.984  23.559  26.090  1.00  0.00    -0.269 OA
ATOM      6  H   UNL A   1      34.935  25.875  26.184  1.00  0.00     0.163 HD
BRANCH   4   7
ATOM      7  C   UNL A   1      32.641  23.480  26.184  1.00  0.00     0.090 A 
ATOM      8  C   UNL A   1      29.397  22.589  27.495  1.00  0.00     0.173 C 
ATOM      9  N   UNL A   1      30.649  22.751  26.795  1.00  0.00    -0.274 N 
ATOM     10  C   UNL A   1      31.773  23.368  27.256  1.00  0.00     0.123 A 
ATOM     11  N   UNL A   1      30.746  22.340  25.531  1.00  0.00    -0.167 NA
ATOM     12  C   UNL A   1      31.935  22.815  25.104  1.00  0.00     0.163 A 
BRANCH  12  13
ATOM     13  C   UNL A   1      32.280  22.682  23.670  1.00  0.00     0.276 C 
ATOM     14  O   UNL A   1      32.903  21.701  23.249  1.00  0.00    -0.267 OA
ATOM     15  N   UNL A   1      31.866  23.605  22.731  1.00  0.00    -0.321 N 
ATOM     16  H   UNL A   1      31.945  23.301  21.798  1.00  0.00     0.170 HD
BRANCH  15  17
ATOM     17  C   UNL A   1      31.354  24.896  22.878  1.00  0.00     0.041 A 
ATOM     18  C   UNL A   1      31.914  25.903  22.083  1.00  0.00     0.027 A 
ATOM     19  C   UNL A   1      30.310  25.199  23.746  1.00  0.00     0.027 A 
ATOM     20  C   UNL A   1      31.330  27.171  22.039  1.00  0.00     0.016 A 
ATOM     21  C   UNL A   1      29.751  26.474  23.727  1.00  0.00     0.016 A 
ATOM     22  C   UNL A   1      30.218  27.454  22.837  1.00  0.00     0.037 A 
BRANCH  22  23
ATOM     23  C   UNL A   1      29.450  28.681  22.706  1.00  0.00     0.227 A 
ATOM     24  N   UNL A   1      28.722  29.065  21.673  1.00  0.00    -0.209 NA
ATOM     25  O   UNL A   1      29.715  29.671  23.622  1.00  0.00    -0.436 OA
ATOM     26  C   UNL A   1      28.549  30.401  21.878  1.00  0.00     0.111 A 
ATOM     27  C   UNL A   1      29.150  30.783  23.065  1.00  0.00     0.155 A 
ATOM     28  C   UNL A   1      27.944  31.361  21.066  1.00  0.00     0.053 A 
ATOM     29  C   UNL A   1      29.200  32.088  23.538  1.00  0.00     0.051 A 
ATOM     30  C   UNL A   1      28.001  32.688  21.492  1.00  0.00     0.043 A 
ATOM     31  C   UNL A   1      28.610  33.047  22.703  1.00  0.00     0.024 A 
ATOM     32  Cl  UNL A   1      27.328  33.890  20.461  1.00  0.00    -0.084 Cl
ENDBRANCH  22  23
ENDBRANCH  15  17
ENDBRANCH  12  13
ENDBRANCH   4   7
ENDBRANCH   2   3
ENDBRANCH   1   2
BRANCH   1  33
ATOM     33  C   UNL A   1      32.966  29.106  24.994  1.00  0.00     0.023 C 
BRANCH  33  34
ATOM     34  C   UNL A   1      32.352  29.445  26.355  1.00  0.00     0.116 C 
BRANCH  34  35
ATOM     35  N   UNL A   1      32.205  30.866  26.612  1.00  0.00    -0.352 N 
ATOM     36  C   UNL A   1      33.053  31.760  27.226  1.00  0.00     0.251 C 
ATOM     37  H   UNL A   1      31.358  31.255  26.295  1.00  0.00     0.163 HD
ATOM     38  O   UNL A   1      32.683  32.927  27.348  1.00  0.00    -0.269 OA
BRANCH  36  39
ATOM     39  C   UNL A   1      34.375  31.362  27.783  1.00  0.00     0.039 A 
ATOM     40  C   UNL A   1      35.356  32.355  27.918  1.00  0.00     0.014 A 
ATOM     41  C   UNL A   1      34.696  30.049  28.129  1.00  0.00     0.014 A 
ATOM     42  C   UNL A   1      36.613  32.055  28.463  1.00  0.00     0.010 A 
ATOM     43  C   UNL A   1      35.932  29.759  28.721  1.00  0.00     0.010 A 
ATOM     44  C   UNL A   1      36.898  30.761  28.913  1.00  0.00    -0.014 A 
BRANCH  44  45
ATOM     45  C   UNL A   1      38.159  30.436  29.642  1.00  0.00     0.031 A 
ATOM     46  C   UNL A   1      39.101  29.382  29.129  1.00  0.00     0.074 A 
ATOM     47  C   UNL A   1      38.402  30.993  30.845  1.00  0.00     0.049 A 
ATOM     48  N   UNL A   1      40.144  28.852  29.717  1.00  0.00    -0.248 NA
ATOM     49  C   UNL A   1      38.830  28.853  27.786  1.00  0.00     0.031 C 
ATOM     50  C   UNL A   1      37.583  32.022  31.479  1.00  0.00     0.029 A 
ATOM     51  N   UNL A   1      39.373  30.725  31.781  1.00  0.00    -0.354 N 
ATOM     52  C   UNL A   1      40.655  27.927  28.820  1.00  0.00     0.074 A 
ATOM     53  C   UNL A   1      39.777  27.932  27.666  1.00  0.00     0.031 C 
ATOM     54  C   UNL A   1      38.027  32.236  32.727  1.00  0.00     0.029 A 
ATOM     55  C   UNL A   1      39.169  31.370  32.977  1.00  0.00     0.049 A 
ATOM     56  H   UNL A   1      40.139  30.131  31.610  1.00  0.00     0.167 HD
ATOM     57  C   UNL A   1      41.772  27.168  28.929  1.00  0.00     0.037 A 
ATOM     58  C   UNL A   1      39.809  31.267  34.157  1.00  0.00     0.037 A 
ATOM     59  C   UNL A   1      42.679  27.189  30.047  1.00  0.00     0.049 A 
ATOM     60  C   UNL A   1      41.022  30.395  34.273  1.00  0.00     0.074 A 
ATOM     61  C   UNL A   1      43.895  26.540  30.186  1.00  0.00     0.029 A 
ATOM     62  N   UNL A   1      42.466  27.891  31.222  1.00  0.00    -0.354 N 
ATOM     63  N   UNL A   1      41.545  29.594  33.381  1.00  0.00    -0.248 NA
ATOM     64  C   UNL A   1      41.758  30.447  35.544  1.00  0.00     0.031 C 
ATOM     65  C   UNL A   1      44.407  26.832  31.456  1.00  0.00     0.029 A 
ATOM     66  C   UNL A   1      43.521  27.679  32.098  1.00  0.00     0.049 A 
ATOM     67  H   UNL A   1      41.683  28.458  31.408  1.00  0.00     0.167 HD
ATOM     68  C   UNL A   1      42.700  29.087  33.959  1.00  0.00     0.074 A 
ATOM     69  C   UNL A   1      42.787  29.648  35.290  1.00  0.00     0.031 C 
ATOM     70  C   UNL A   1      43.616  28.252  33.414  1.00  0.00     0.037 A 
BRANCH  57  71
ATOM     71  C   UNL A   1      42.098  26.263  27.782  1.00  0.00     0.064 A 
ATOM     72  C   UNL A   1      43.035  26.636  26.807  1.00  0.00     0.173 A 
ATOM     73  C   UNL A   1      41.499  25.001  27.676  1.00  0.00     0.173 A 
ATOM     74  F   UNL A   1      43.626  27.839  26.864  1.00  0.00    -0.203 F 
ATOM     75  C   UNL A   1      43.343  25.784  25.750  1.00  0.00     0.198 A 
ATOM     76  C   UNL A   1      41.823  24.143  26.628  1.00  0.00     0.198 A 
ATOM     77  F   UNL A   1      40.600  24.600  28.588  1.00  0.00    -0.203 F 
ATOM     78  F   UNL A   1      44.213  26.174  24.809  1.00  0.00    -0.200 F 
ATOM     79  C   UNL A   1      42.741  24.537  25.664  1.00  0.00     0.200 A 
ATOM     80  F   UNL A   1      41.245  22.937  26.547  1.00  0.00    -0.200 F 
ATOM     81  F   UNL A   1      43.038  23.718  24.646  1.00  0.00    -0.200 F 
ENDBRANCH  57  71
BRANCH  58  82
ATOM     82  C   UNL A   1      39.317  32.036  35.324  1.00  0.00     0.064 A 
ATOM     83  C   UNL A   1      39.674  33.378  35.505  1.00  0.00     0.173 A 
ATOM     84  C   UNL A   1      38.472  31.443  36.270  1.00  0.00     0.173 A 
ATOM     85  F   UNL A   1      40.495  33.975  34.629  1.00  0.00    -0.203 F 
ATOM     86  C   UNL A   1      39.208  34.100  36.601  1.00  0.00     0.198 A 
ATOM     87  C   UNL A   1      37.998  32.169  37.360  1.00  0.00     0.198 A 
ATOM     88  F   UNL A   1      38.106  30.160  36.134  1.00  0.00    -0.203 F 
ATOM     89  F   UNL A   1      39.583  35.375  36.767  1.00  0.00    -0.200 F 
ATOM     90  C   UNL A   1      38.369  33.495  37.526  1.00  0.00     0.200 A 
ATOM     91  F   UNL A   1      37.187  31.584  38.253  1.00  0.00    -0.200 F 
ATOM     92  F   UNL A   1      37.926  34.190  38.583  1.00  0.00    -0.200 F 
ENDBRANCH  58  82
BRANCH  70  93
ATOM     93  C   UNL A   1      44.831  27.948  34.233  1.00  0.00     0.064 A 
ATOM     94  C   UNL A   1      45.978  28.750  34.174  1.00  0.00     0.173 A 
ATOM     95  C   UNL A   1      44.837  26.846  35.101  1.00  0.00     0.173 A 
ATOM     96  F   UNL A   1      46.024  29.802  33.343  1.00  0.00    -0.203 F 
ATOM     97  C   UNL A   1      47.096  28.451  34.949  1.00  0.00     0.198 A 
ATOM     98  C   UNL A   1      45.951  26.559  35.884  1.00  0.00     0.198 A 
ATOM     99  F   UNL A   1      43.762  26.047  35.185  1.00  0.00    -0.203 F 
ATOM    100  F   UNL A   1      48.196  29.211  34.855  1.00  0.00    -0.200 F 
ATOM    101  C   UNL A   1      47.079  27.359  35.806  1.00  0.00     0.200 A 
ATOM    102  F   UNL A   1      45.933  25.505  36.711  1.00  0.00    -0.200 F 
ATOM    103  F   UNL A   1      48.158  27.074  36.548  1.00  0.00    -0.200 F 
ENDBRANCH  70  93
ENDBRANCH  44  45
ENDBRANCH  36  39
ENDBRANCH  34  35
ENDBRANCH  33  34
ENDBRANCH   1  33
TORSDOF 14
ENDMDL
MODEL 2
REMARK VINA RESULT:     -13.9      6.054     10.115
REMARK SMILES Cn1cc(C(=O)NCCCCNC(=O)c2ccc(-c3c4nc(c(-c5c(F)c(F)c(F)c(F)c5F)c5ccc([nH]5)c(-c5c(F)c(F)c(F)c(F)c5F)c5nc(c(-c6c(F)c(F)c(F)c(F)c6F)c6ccc3[nH]6)C=C5)C=C4)cc2)c(C(=O)Nc2ccc(-c3nc4cc(Cl)ccc4o3)cc2)n1
REMARK SMILES IDX 9 1 8 2 7 3 5 4 6 5 4 7 1 8 2 9 3 10 98 11 78 12 79 13 80 14
REMARK SMILES IDX 81 15 82 17 83 18 97 19 84 20 96 21 85 22 86 23 87 24 95 25
REMARK SMILES IDX 88 26 94 27 89 28 93 29 90 30 92 31 91 32 10 33 11 34 12 35
REMARK SMILES IDX 13 36 14 38 15 39 16 40 77 41 17 42 76 43 18 44 19 45 20 46
REMARK SMILES IDX 70 47 21 48 75 49 69 50 71 51 22 52 74 53 68 54 67 55 23 57
REMARK SMILES IDX 55 58 35 59 54 60 36 61 39 62 53 63 72 64 37 65 38 66 52 68
REMARK SMILES IDX 73 69 40 70 24 71 25 72 33 73 26 74 27 75 31 76 34 77 28 78
REMARK SMILES IDX 29 79 32 80 30 81 56 82 57 83 65 84 58 85 59 86 63 87 66 88
REMARK SMILES IDX 60 89 61 90 64 91 62 92 41 93 42 94 50 95 43 96 44 97 48 98
REMARK SMILES IDX 51 99 45 100 46 101 49 102 47 103
REMARK H PARENT 7 6 81 16 12 37 71 56 39 67
REMARK Flexibility Score: inf
ROOT
ATOM      1  C   UNL A   1      41.750  19.846  25.869  1.00  0.00     0.023 C 
ENDROOT
BRANCH   1   2
ATOM      2  C   UNL A   1      43.010  20.706  25.903  1.00  0.00     0.116 C 
BRANCH   2   3
ATOM      3  N   UNL A   1      42.847  22.053  25.390  1.00  0.00    -0.352 N 
ATOM      4  C   UNL A   1      43.261  23.288  25.828  1.00  0.00     0.255 C 
ATOM      5  O   UNL A   1      43.195  24.196  24.994  1.00  0.00    -0.269 OA
ATOM      6  H   UNL A   1      42.333  22.090  24.552  1.00  0.00     0.163 HD
BRANCH   4   7
ATOM      7  C   UNL A   1      43.739  23.542  27.182  1.00  0.00     0.090 A 
ATOM      8  C   UNL A   1      43.961  23.234  30.772  1.00  0.00     0.173 C 
ATOM      9  N   UNL A   1      44.056  23.547  29.366  1.00  0.00    -0.274 N 
ATOM     10  C   UNL A   1      43.141  23.260  28.398  1.00  0.00     0.123 A 
ATOM     11  N   UNL A   1      45.172  24.105  28.898  1.00  0.00    -0.167 NA
ATOM     12  C   UNL A   1      45.037  24.072  27.555  1.00  0.00     0.163 A 
BRANCH  12  13
ATOM     13  C   UNL A   1      46.192  24.463  26.715  1.00  0.00     0.276 C 
ATOM     14  O   UNL A   1      47.045  23.637  26.372  1.00  0.00    -0.267 OA
ATOM     15  N   UNL A   1      46.333  25.744  26.219  1.00  0.00    -0.321 N 
ATOM     16  H   UNL A   1      46.993  25.830  25.494  1.00  0.00     0.170 HD
BRANCH  15  17
ATOM     17  C   UNL A   1      45.700  26.938  26.571  1.00  0.00     0.041 A 
ATOM     18  C   UNL A   1      46.396  27.811  27.415  1.00  0.00     0.027 A 
ATOM     19  C   UNL A   1      44.441  27.293  26.096  1.00  0.00     0.027 A 
ATOM     20  C   UNL A   1      45.908  29.097  27.655  1.00  0.00     0.016 A 
ATOM     21  C   UNL A   1      43.939  28.563  26.365  1.00  0.00     0.016 A 
ATOM     22  C   UNL A   1      44.690  29.495  27.099  1.00  0.00     0.037 A 
BRANCH  22  23
ATOM     23  C   UNL A   1      44.214  30.867  27.151  1.00  0.00     0.227 A 
ATOM     24  N   UNL A   1      44.328  31.791  26.214  1.00  0.00    -0.209 NA
ATOM     25  O   UNL A   1      43.854  31.346  28.388  1.00  0.00    -0.436 OA
ATOM     26  C   UNL A   1      44.096  32.958  26.879  1.00  0.00     0.111 A 
ATOM     27  C   UNL A   1      43.805  32.698  28.208  1.00  0.00     0.155 A 
ATOM     28  C   UNL A   1      44.175  34.276  26.430  1.00  0.00     0.053 A 
ATOM     29  C   UNL A   1      43.571  33.675  29.167  1.00  0.00     0.051 A 
ATOM     30  C   UNL A   1      43.978  35.287  27.372  1.00  0.00     0.043 A 
ATOM     31  C   UNL A   1      43.677  34.996  28.711  1.00  0.00     0.024 A 
ATOM     32  Cl  UNL A   1      44.151  36.916  26.848  1.00  0.00    -0.084 Cl
ENDBRANCH  22  23
ENDBRANCH  15  17
ENDBRANCH  12  13
ENDBRANCH   4   7
ENDBRANCH   2   3
ENDBRANCH   1   2
BRANCH   1  33
ATOM     33  C   UNL A   1      40.697  20.147  26.944  1.00  0.00     0.023 C 
BRANCH  33  34
ATOM     34  C   UNL A   1      40.362  21.615  27.222  1.00  0.00     0.116 C 
BRANCH  34  35
ATOM     35  N   UNL A   1      39.273  22.146  26.423  1.00  0.00    -0.352 N 
ATOM     36  C   UNL A   1      38.789  23.429  26.305  1.00  0.00     0.251 C 
ATOM     37  H   UNL A   1      38.802  21.478  25.875  1.00  0.00     0.163 HD
ATOM     38  O   UNL A   1      37.822  23.623  25.569  1.00  0.00    -0.269 OA
BRANCH  36  39
ATOM     39  C   UNL A   1      39.360  24.577  27.061  1.00  0.00     0.039 A 
ATOM     40  C   UNL A   1      40.225  25.446  26.380  1.00  0.00     0.014 A 
ATOM     41  C   UNL A   1      39.114  24.799  28.416  1.00  0.00     0.014 A 
ATOM     42  C   UNL A   1      40.775  26.564  27.025  1.00  0.00     0.010 A 
ATOM     43  C   UNL A   1      39.621  25.943  29.046  1.00  0.00     0.010 A 
ATOM     44  C   UNL A   1      40.441  26.850  28.354  1.00  0.00    -0.014 A 
BRANCH  44  45
ATOM     45  C   UNL A   1      40.875  28.110  29.025  1.00  0.00     0.031 A 
ATOM     46  C   UNL A   1      42.193  28.191  29.742  1.00  0.00     0.074 A 
ATOM     47  C   UNL A   1      40.024  29.151  29.113  1.00  0.00     0.049 A 
ATOM     48  N   UNL A   1      42.652  29.139  30.521  1.00  0.00    -0.248 NA
ATOM     49  C   UNL A   1      43.112  27.058  29.565  1.00  0.00     0.031 C 
ATOM     50  C   UNL A   1      38.711  29.223  28.480  1.00  0.00     0.029 A 
ATOM     51  N   UNL A   1      40.110  30.326  29.822  1.00  0.00    -0.354 N 
ATOM     52  C   UNL A   1      43.909  28.720  30.928  1.00  0.00     0.074 A 
ATOM     53  C   UNL A   1      44.122  27.408  30.350  1.00  0.00     0.031 C 
ATOM     54  C   UNL A   1      38.077  30.330  28.895  1.00  0.00     0.029 A 
ATOM     55  C   UNL A   1      38.944  31.054  29.814  1.00  0.00     0.049 A 
ATOM     56  H   UNL A   1      40.926  30.617  30.290  1.00  0.00     0.167 HD
ATOM     57  C   UNL A   1      44.819  29.380  31.685  1.00  0.00     0.037 A 
ATOM     58  C   UNL A   1      38.592  32.167  30.483  1.00  0.00     0.037 A 
ATOM     59  C   UNL A   1      44.640  30.702  32.225  1.00  0.00     0.049 A 
ATOM     60  C   UNL A   1      39.597  32.868  31.345  1.00  0.00     0.074 A 
ATOM     61  C   UNL A   1      45.556  31.491  32.902  1.00  0.00     0.029 A 
ATOM     62  N   UNL A   1      43.463  31.431  32.155  1.00  0.00    -0.354 N 
ATOM     63  N   UNL A   1      40.817  32.500  31.646  1.00  0.00    -0.248 NA
ATOM     64  C   UNL A   1      39.193  34.156  31.925  1.00  0.00     0.031 C 
ATOM     65  C   UNL A   1      44.925  32.689  33.261  1.00  0.00     0.029 A 
ATOM     66  C   UNL A   1      43.625  32.653  32.790  1.00  0.00     0.049 A 
ATOM     67  H   UNL A   1      42.635  31.127  31.718  1.00  0.00     0.167 HD
ATOM     68  C   UNL A   1      41.346  33.536  32.403  1.00  0.00     0.074 A 
ATOM     69  C   UNL A   1      40.306  34.532  32.542  1.00  0.00     0.031 C 
ATOM     70  C   UNL A   1      42.596  33.652  32.911  1.00  0.00     0.037 A 
BRANCH  57  71
ATOM     71  C   UNL A   1      46.119  28.687  31.950  1.00  0.00     0.064 A 
ATOM     72  C   UNL A   1      47.271  28.998  31.211  1.00  0.00     0.173 A 
ATOM     73  C   UNL A   1      46.225  27.735  32.972  1.00  0.00     0.173 A 
ATOM     74  F   UNL A   1      47.213  29.896  30.218  1.00  0.00    -0.203 F 
ATOM     75  C   UNL A   1      48.479  28.359  31.472  1.00  0.00     0.198 A 
ATOM     76  C   UNL A   1      47.440  27.111  33.243  1.00  0.00     0.198 A 
ATOM     77  F   UNL A   1      45.151  27.410  33.707  1.00  0.00    -0.203 F 
ATOM     78  F   UNL A   1      49.559  28.643  30.731  1.00  0.00    -0.200 F 
ATOM     79  C   UNL A   1      48.564  27.420  32.490  1.00  0.00     0.200 A 
ATOM     80  F   UNL A   1      47.524  26.207  34.229  1.00  0.00    -0.200 F 
ATOM     81  F   UNL A   1      49.729  26.805  32.740  1.00  0.00    -0.200 F 
ENDBRANCH  57  71
BRANCH  58  82
ATOM     82  C   UNL A   1      37.217  32.700  30.341  1.00  0.00     0.064 A 
ATOM     83  C   UNL A   1      36.863  33.500  29.248  1.00  0.00     0.173 A 
ATOM     84  C   UNL A   1      36.231  32.407  31.293  1.00  0.00     0.173 A 
ATOM     85  F   UNL A   1      37.784  33.817  28.326  1.00  0.00    -0.203 F 
ATOM     86  C   UNL A   1      35.570  33.999  29.116  1.00  0.00     0.198 A 
ATOM     87  C   UNL A   1      34.935  32.897  31.153  1.00  0.00     0.198 A 
ATOM     88  F   UNL A   1      36.528  31.644  32.354  1.00  0.00    -0.203 F 
ATOM     89  F   UNL A   1      35.260  34.783  28.075  1.00  0.00    -0.200 F 
ATOM     90  C   UNL A   1      34.606  33.694  30.067  1.00  0.00     0.200 A 
ATOM     91  F   UNL A   1      34.005  32.602  32.073  1.00  0.00    -0.200 F 
ATOM     92  F   UNL A   1      33.363  34.178  29.941  1.00  0.00    -0.200 F 
ENDBRANCH  58  82
BRANCH  70  93
ATOM     93  C   UNL A   1      42.931  34.934  33.606  1.00  0.00     0.064 A 
ATOM     94  C   UNL A   1      43.381  36.058  32.901  1.00  0.00     0.173 A 
ATOM     95  C   UNL A   1      42.783  35.040  34.997  1.00  0.00     0.173 A 
ATOM     96  F   UNL A   1      43.557  35.995  31.572  1.00  0.00    -0.203 F 
ATOM     97  C   UNL A   1      43.683  37.243  33.567  1.00  0.00     0.198 A 
ATOM     98  C   UNL A   1      43.071  36.231  35.658  1.00  0.00     0.198 A 
ATOM     99  F   UNL A   1      42.361  33.988  35.713  1.00  0.00    -0.203 F 
ATOM    100  F   UNL A   1      44.143  38.297  32.880  1.00  0.00    -0.200 F 
ATOM    101  C   UNL A   1      43.524  37.329  34.943  1.00  0.00     0.200 A 
ATOM    102  F   UNL A   1      42.917  36.312  36.986  1.00  0.00    -0.200 F 
ATOM    103  F   UNL A   1      43.817  38.470  35.582  1.00  0.00    -0.200 F 
ENDBRANCH  70  93
ENDBRANCH  44  45
ENDBRANCH  36  39
ENDBRANCH  34  35
ENDBRANCH  33  34
ENDBRANCH   1  33
TORSDOF 14
ENDMDL
MODEL 3
REMARK VINA RESULT:     -13.6      3.760      9.097
REMARK SMILES Cn1cc(C(=O)NCCCCNC(=O)c2ccc(-c3c4nc(c(-c5c(F)c(F)c(F)c(F)c5F)c5ccc([nH]5)c(-c5c(F)c(F)c(F)c(F)c5F)c5nc(c(-c6c(F)c(F)c(F)c(F)c6F)c6ccc3[nH]6)C=C5)C=C4)cc2)c(C(=O)Nc2ccc(-c3nc4cc(Cl)ccc4o3)cc2)n1
REMARK SMILES IDX 9 1 8 2 7 3 5 4 6 5 4 7 1 8 2 9 3 10 98 11 78 12 79 13 80 14
REMARK SMILES IDX 81 15 82 17 83 18 97 19 84 20 96 21 85 22 86 23 87 24 95 25
REMARK SMILES IDX 88 26 94 27 89 28 93 29 90 30 92 31 91 32 10 33 11 34 12 35
REMARK SMILES IDX 13 36 14 38 15 39 16 40 77 41 17 42 76 43 18 44 19 45 20 46
REMARK SMILES IDX 70 47 21 48 75 49 69 50 71 51 22 52 74 53 68 54 67 55 23 57
REMARK SMILES IDX 55 58 35 59 54 60 36 61 39 62 53 63 72 64 37 65 38 66 52 68
REMARK SMILES IDX 73 69 40 70 24 71 25 72 33 73 26 74 27 75 31 76 34 77 28 78
REMARK SMILES IDX 29 79 32 80 30 81 56 82 57 83 65 84 58 85 59 86 63 87 66 88
REMARK SMILES IDX 60 89 61 90 64 91 62 92 41 93 42 94 50 95 43 96 44 97 48 98
REMARK SMILES IDX 51 99 45 100 46 101 49 102 47 103
REMARK H PARENT 7 6 81 16 12 37 71 56 39 67
REMARK Flexibility Score: inf
ROOT
ATOM      1  C   UNL A   1      31.576  26.678  26.879  1.00  0.00     0.023 C 
ENDROOT
BRANCH   1   2
ATOM      2  C   UNL A   1      30.664  26.471  25.673  1.00  0.00     0.116 C 
BRANCH   2   3
ATOM      3  N   UNL A   1      30.513  27.629  24.812  1.00  0.00    -0.352 N 
ATOM      4  C   UNL A   1      30.764  27.857  23.480  1.00  0.00     0.255 C 
ATOM      5  O   UNL A   1      30.247  28.874  23.010  1.00  0.00    -0.269 OA
ATOM      6  H   UNL A   1      30.155  28.417  25.281  1.00  0.00     0.163 HD
BRANCH   4   7
ATOM      7  C   UNL A   1      31.589  26.982  22.657  1.00  0.00     0.090 A 
ATOM      8  C   UNL A   1      32.682  25.195  19.716  1.00  0.00     0.173 C 
ATOM      9  N   UNL A   1      32.447  25.786  21.013  1.00  0.00    -0.274 N 
ATOM     10  C   UNL A   1      31.295  26.366  21.453  1.00  0.00     0.123 A 
ATOM     11  N   UNL A   1      33.453  25.869  21.882  1.00  0.00    -0.167 NA
ATOM     12  C   UNL A   1      32.981  26.642  22.882  1.00  0.00     0.163 A 
BRANCH  12  13
ATOM     13  C   UNL A   1      33.916  27.080  23.944  1.00  0.00     0.276 C 
ATOM     14  O   UNL A   1      34.263  28.262  24.045  1.00  0.00    -0.267 OA
ATOM     15  N   UNL A   1      34.388  26.211  24.907  1.00  0.00    -0.321 N 
ATOM     16  H   UNL A   1      34.802  26.649  25.685  1.00  0.00     0.170 HD
BRANCH  15  17
ATOM     17  C   UNL A   1      34.376  24.815  24.966  1.00  0.00     0.041 A 
ATOM     18  C   UNL A   1      33.442  24.215  25.818  1.00  0.00     0.027 A 
ATOM     19  C   UNL A   1      35.223  24.020  24.200  1.00  0.00     0.027 A 
ATOM     20  C   UNL A   1      33.246  22.833  25.788  1.00  0.00     0.016 A 
ATOM     21  C   UNL A   1      35.051  22.638  24.196  1.00  0.00     0.016 A 
ATOM     22  C   UNL A   1      34.027  22.038  24.946  1.00  0.00     0.037 A 
BRANCH  22  23
ATOM     23  C   UNL A   1      33.755  20.627  24.724  1.00  0.00     0.227 A 
ATOM     24  N   UNL A   1      32.653  19.966  25.028  1.00  0.00    -0.209 NA
ATOM     25  O   UNL A   1      34.837  19.833  24.423  1.00  0.00    -0.436 OA
ATOM     26  C   UNL A   1      33.040  18.659  24.993  1.00  0.00     0.111 A 
ATOM     27  C   UNL A   1      34.371  18.566  24.623  1.00  0.00     0.155 A 
ATOM     28  C   UNL A   1      32.328  17.505  25.321  1.00  0.00     0.053 A 
ATOM     29  C   UNL A   1      35.084  17.377  24.544  1.00  0.00     0.051 A 
ATOM     30  C   UNL A   1      33.019  16.294  25.284  1.00  0.00     0.043 A 
ATOM     31  C   UNL A   1      34.365  16.226  24.898  1.00  0.00     0.024 A 
ATOM     32  Cl  UNL A   1      32.173  14.874  25.762  1.00  0.00    -0.084 Cl
ENDBRANCH  22  23
ENDBRANCH  15  17
ENDBRANCH  12  13
ENDBRANCH   4   7
ENDBRANCH   2   3
ENDBRANCH   1   2
BRANCH   1  33
ATOM     33  C   UNL A   1      31.802  28.132  27.313  1.00  0.00     0.023 C 
BRANCH  33  34
ATOM     34  C   UNL A   1      33.247  28.625  27.430  1.00  0.00     0.116 C 
BRANCH  34  35
ATOM     35  N   UNL A   1      33.386  30.066  27.532  1.00  0.00    -0.352 N 
ATOM     36  C   UNL A   1      34.457  30.840  27.915  1.00  0.00     0.251 C 
ATOM     37  H   UNL A   1      32.579  30.575  27.287  1.00  0.00     0.163 HD
ATOM     38  O   UNL A   1      34.315  32.062  27.945  1.00  0.00    -0.269 OA
BRANCH  36  39
ATOM     39  C   UNL A   1      35.761  30.257  28.333  1.00  0.00     0.039 A 
ATOM     40  C   UNL A   1      36.799  30.223  27.390  1.00  0.00     0.014 A 
ATOM     41  C   UNL A   1      35.983  29.703  29.595  1.00  0.00     0.014 A 
ATOM     42  C   UNL A   1      38.062  29.715  27.727  1.00  0.00     0.010 A 
ATOM     43  C   UNL A   1      37.258  29.243  29.948  1.00  0.00     0.010 A 
ATOM     44  C   UNL A   1      38.318  29.260  29.026  1.00  0.00    -0.014 A 
BRANCH  44  45
ATOM     45  C   UNL A   1      39.686  28.862  29.470  1.00  0.00     0.031 A 
ATOM     46  C   UNL A   1      40.592  29.841  30.160  1.00  0.00     0.074 A 
ATOM     47  C   UNL A   1      40.174  27.651  29.133  1.00  0.00     0.049 A 
ATOM     48  N   UNL A   1      41.863  29.722  30.456  1.00  0.00    -0.248 NA
ATOM     49  C   UNL A   1      39.996  31.122  30.563  1.00  0.00     0.031 C 
ATOM     50  C   UNL A   1      39.424  26.596  28.459  1.00  0.00     0.029 A 
ATOM     51  N   UNL A   1      41.439  27.127  29.255  1.00  0.00    -0.354 N 
ATOM     52  C   UNL A   1      42.219  30.909  31.079  1.00  0.00     0.074 A 
ATOM     53  C   UNL A   1      41.043  31.756  31.073  1.00  0.00     0.031 C 
ATOM     54  C   UNL A   1      40.255  25.591  28.146  1.00  0.00     0.029 A 
ATOM     55  C   UNL A   1      41.594  25.923  28.609  1.00  0.00     0.049 A 
ATOM     56  H   UNL A   1      42.163  27.569  29.756  1.00  0.00     0.167 HD
ATOM     57  C   UNL A   1      43.407  31.250  31.636  1.00  0.00     0.037 A 
ATOM     58  C   UNL A   1      42.690  25.173  28.389  1.00  0.00     0.037 A 
ATOM     59  C   UNL A   1      44.567  30.401  31.691  1.00  0.00     0.049 A 
ATOM     60  C   UNL A   1      44.004  25.581  28.981  1.00  0.00     0.074 A 
ATOM     61  C   UNL A   1      45.771  30.623  32.340  1.00  0.00     0.029 A 
ATOM     62  N   UNL A   1      44.673  29.167  31.069  1.00  0.00    -0.354 N 
ATOM     63  N   UNL A   1      44.301  26.668  29.647  1.00  0.00    -0.248 NA
ATOM     64  C   UNL A   1      45.123  24.641  28.827  1.00  0.00     0.031 C 
ATOM     65  C   UNL A   1      46.613  29.532  32.091  1.00  0.00     0.029 A 
ATOM     66  C   UNL A   1      45.927  28.623  31.305  1.00  0.00     0.049 A 
ATOM     67  H   UNL A   1      43.963  28.739  30.538  1.00  0.00     0.167 HD
ATOM     68  C   UNL A   1      45.623  26.519  30.041  1.00  0.00     0.074 A 
ATOM     69  C   UNL A   1      46.081  25.250  29.514  1.00  0.00     0.031 C 
ATOM     70  C   UNL A   1      46.374  27.354  30.797  1.00  0.00     0.037 A 
BRANCH  57  71
ATOM     71  C   UNL A   1      43.501  32.604  32.267  1.00  0.00     0.064 A 
ATOM     72  C   UNL A   1      43.176  32.800  33.617  1.00  0.00     0.173 A 
ATOM     73  C   UNL A   1      43.953  33.706  31.529  1.00  0.00     0.173 A 
ATOM     74  F   UNL A   1      42.730  31.775  34.359  1.00  0.00    -0.203 F 
ATOM     75  C   UNL A   1      43.280  34.059  34.201  1.00  0.00     0.198 A 
ATOM     76  C   UNL A   1      44.073  34.960  32.120  1.00  0.00     0.198 A 
ATOM     77  F   UNL A   1      44.279  33.565  30.235  1.00  0.00    -0.203 F 
ATOM     78  F   UNL A   1      42.930  34.232  35.483  1.00  0.00    -0.200 F 
ATOM     79  C   UNL A   1      43.732  35.137  33.454  1.00  0.00     0.200 A 
ATOM     80  F   UNL A   1      44.514  36.001  31.400  1.00  0.00    -0.200 F 
ATOM     81  F   UNL A   1      43.830  36.349  34.017  1.00  0.00    -0.200 F 
ENDBRANCH  57  71
BRANCH  58  82
ATOM     82  C   UNL A   1      42.577  23.937  27.579  1.00  0.00     0.064 A 
ATOM     83  C   UNL A   1      42.080  22.753  28.136  1.00  0.00     0.173 A 
ATOM     84  C   UNL A   1      42.955  23.926  26.230  1.00  0.00     0.173 A 
ATOM     85  F   UNL A   1      41.725  22.720  29.429  1.00  0.00    -0.203 F 
ATOM     86  C   UNL A   1      41.974  21.594  27.373  1.00  0.00     0.198 A 
ATOM     87  C   UNL A   1      42.837  22.769  25.464  1.00  0.00     0.198 A 
ATOM     88  F   UNL A   1      43.435  25.040  25.657  1.00  0.00    -0.203 F 
ATOM     89  F   UNL A   1      41.519  20.465  27.933  1.00  0.00    -0.200 F 
ATOM     90  C   UNL A   1      42.350  21.603  26.037  1.00  0.00     0.200 A 
ATOM     91  F   UNL A   1      43.201  22.780  24.174  1.00  0.00    -0.200 F 
ATOM     92  F   UNL A   1      42.251  20.486  25.304  1.00  0.00    -0.200 F 
ENDBRANCH  58  82
BRANCH  70  93
ATOM     93  C   UNL A   1      47.750  26.891  31.160  1.00  0.00     0.064 A 
ATOM     94  C   UNL A   1      47.984  26.083  32.280  1.00  0.00     0.173 A 
ATOM     95  C   UNL A   1      48.847  27.250  30.361  1.00  0.00     0.173 A 
ATOM     96  F   UNL A   1      46.968  25.733  33.083  1.00  0.00    -0.203 F 
ATOM     97  C   UNL A   1      49.272  25.659  32.597  1.00  0.00     0.198 A 
ATOM     98  C   UNL A   1      50.131  26.812  30.673  1.00  0.00     0.198 A 
ATOM     99  F   UNL A   1      48.671  28.026  29.282  1.00  0.00    -0.203 F 
ATOM    100  F   UNL A   1      49.480  24.914  33.691  1.00  0.00    -0.200 F 
ATOM    101  C   UNL A   1      50.342  26.021  31.791  1.00  0.00     0.200 A 
ATOM    102  F   UNL A   1      51.163  27.161  29.893  1.00  0.00    -0.200 F 
ATOM    103  F   UNL A   1      51.581  25.613  32.099  1.00  0.00    -0.200 F 
ENDBRANCH  70  93
ENDBRANCH  44  45
ENDBRANCH  36  39
ENDBRANCH  34  35
ENDBRANCH  33  34
ENDBRANCH   1  33
TORSDOF 14
ENDMDL
