MODEL 1
REMARK VINA RESULT:     -13.1      0.000      0.000
REMARK SMILES O=C(NCCCCNC(=O)[C@H](c1cnn(Cc2ccccc2)c1)[NH+]1CCOCC1)c1ccc(-c2c3nc(c(-c4c(F)c(F)c(F)c(F)c4F)c4ccc([nH]4)c(-c4c(F)c(F)c(F)c(F)c4F)c4nc(c(-c5c(F)c(F)c(F)c(F)c5F)c5ccc2[nH]5)C=C4)C=C3)cc1
REMARK SMILES IDX 6 1 5 2 4 3 3 4 1 5 2 6 30 8 31 9 92 10 32 11 91 12 33 13
REMARK SMILES IDX 34 14 35 15 85 16 36 17 90 18 84 19 86 20 37 21 89 22 83 23
REMARK SMILES IDX 82 24 38 26 70 27 50 28 69 29 51 30 54 31 68 32 87 33 52 34
REMARK SMILES IDX 53 35 67 37 88 38 55 39 39 40 40 41 48 42 41 43 42 44 46 45
REMARK SMILES IDX 49 46 43 47 44 48 47 49 45 50 71 51 72 52 80 53 73 54 74 55
REMARK SMILES IDX 78 56 81 57 75 58 76 59 79 60 77 61 56 62 57 63 65 64 58 65
REMARK SMILES IDX 59 66 63 67 66 68 60 69 61 70 64 71 62 72 7 73 8 74 9 75
REMARK SMILES IDX 10 77 11 78 24 79 25 80 29 81 26 83 28 84 27 85 12 86 13 87
REMARK SMILES IDX 23 88 14 89 15 90 16 91 17 92 18 93 22 94 19 95 21 96 20 97
REMARK H PARENT 3 7 86 25 54 36 8 76 24 82
REMARK Flexibility Score: inf
ROOT
ATOM      1  C   UNL A   1      34.287  29.292  27.205  1.00  0.00     0.023 C 
ENDROOT
BRANCH   1   2
ATOM      2  C   UNL A   1      33.573  30.652  27.256  1.00  0.00     0.023 C 
BRANCH   2   3
ATOM      3  C   UNL A   1      34.434  31.835  27.699  1.00  0.00     0.116 C 
BRANCH   3   4
ATOM      4  N   UNL A   1      34.376  32.107  29.120  1.00  0.00    -0.352 N 
ATOM      5  O   UNL A   1      34.843  32.427  31.248  1.00  0.00    -0.269 OA
ATOM      6  C   UNL A   1      35.224  31.936  30.177  1.00  0.00     0.251 C 
ATOM      7  H   UNL A   1      33.521  32.512  29.389  1.00  0.00     0.163 HD
BRANCH   6   8
ATOM      8  C   UNL A   1      36.512  31.187  30.165  1.00  0.00     0.039 A 
ATOM      9  C   UNL A   1      37.791  31.740  30.078  1.00  0.00     0.014 A 
ATOM     10  C   UNL A   1      36.401  29.782  30.232  1.00  0.00     0.014 A 
ATOM     11  C   UNL A   1      38.914  30.912  29.993  1.00  0.00     0.010 A 
ATOM     12  C   UNL A   1      37.518  28.953  30.156  1.00  0.00     0.010 A 
ATOM     13  C   UNL A   1      38.778  29.517  30.004  1.00  0.00    -0.014 A 
BRANCH  13  14
ATOM     14  C   UNL A   1      39.990  28.693  30.004  1.00  0.00     0.031 A 
ATOM     15  C   UNL A   1      40.618  28.498  31.345  1.00  0.00     0.074 A 
ATOM     16  C   UNL A   1      40.465  28.019  28.934  1.00  0.00     0.049 A 
ATOM     17  N   UNL A   1      41.810  28.826  31.729  1.00  0.00    -0.248 NA
ATOM     18  C   UNL A   1      39.783  27.932  32.416  1.00  0.00     0.031 C 
ATOM     19  C   UNL A   1      39.835  27.828  27.625  1.00  0.00     0.029 A 
ATOM     20  N   UNL A   1      41.609  27.276  28.832  1.00  0.00    -0.354 N 
ATOM     21  C   UNL A   1      41.935  28.382  33.045  1.00  0.00     0.074 A 
ATOM     22  C   UNL A   1      40.626  27.934  33.450  1.00  0.00     0.031 C 
ATOM     23  C   UNL A   1      40.500  26.866  26.941  1.00  0.00     0.029 A 
ATOM     24  C   UNL A   1      41.679  26.476  27.697  1.00  0.00     0.049 A 
ATOM     25  H   UNL A   1      42.325  27.307  29.506  1.00  0.00     0.167 HD
ATOM     26  C   UNL A   1      43.149  28.253  33.650  1.00  0.00     0.037 A 
ATOM     27  C   UNL A   1      42.617  25.535  27.420  1.00  0.00     0.037 A 
ATOM     28  C   UNL A   1      44.156  29.027  32.977  1.00  0.00     0.049 A 
ATOM     29  C   UNL A   1      43.803  25.820  28.259  1.00  0.00     0.074 A 
ATOM     30  C   UNL A   1      44.339  30.372  32.726  1.00  0.00     0.029 A 
ATOM     31  N   UNL A   1      45.031  28.377  32.146  1.00  0.00    -0.354 N 
ATOM     32  N   UNL A   1      44.583  26.852  28.099  1.00  0.00    -0.248 NA
ATOM     33  C   UNL A   1      43.890  25.160  29.551  1.00  0.00     0.031 C 
ATOM     34  C   UNL A   1      44.916  30.426  31.423  1.00  0.00     0.029 A 
ATOM     35  C   UNL A   1      45.100  29.112  30.992  1.00  0.00     0.049 A 
ATOM     36  H   UNL A   1      45.516  27.543  32.340  1.00  0.00     0.167 HD
ATOM     37  C   UNL A   1      44.923  27.230  29.388  1.00  0.00     0.074 A 
ATOM     38  C   UNL A   1      44.545  26.101  30.233  1.00  0.00     0.031 C 
ATOM     39  C   UNL A   1      45.222  28.527  29.680  1.00  0.00     0.037 A 
BRANCH  26  40
ATOM     40  C   UNL A   1      43.503  27.179  34.649  1.00  0.00     0.064 A 
ATOM     41  C   UNL A   1      43.894  27.546  35.954  1.00  0.00     0.173 A 
ATOM     42  C   UNL A   1      43.776  25.842  34.288  1.00  0.00     0.173 A 
ATOM     43  F   UNL A   1      43.699  28.797  36.401  1.00  0.00    -0.203 F 
ATOM     44  C   UNL A   1      44.582  26.668  36.797  1.00  0.00     0.198 A 
ATOM     45  C   UNL A   1      44.418  24.953  35.150  1.00  0.00     0.198 A 
ATOM     46  F   UNL A   1      43.539  25.378  33.056  1.00  0.00    -0.203 F 
ATOM     47  F   UNL A   1      45.047  27.103  37.975  1.00  0.00    -0.200 F 
ATOM     48  C   UNL A   1      44.850  25.375  36.390  1.00  0.00     0.200 A 
ATOM     49  F   UNL A   1      44.686  23.709  34.731  1.00  0.00    -0.200 F 
ATOM     50  F   UNL A   1      45.567  24.552  37.166  1.00  0.00    -0.200 F 
ENDBRANCH  26  40
BRANCH  27  51
ATOM     51  C   UNL A   1      42.463  24.239  26.715  1.00  0.00     0.064 A 
ATOM     52  C   UNL A   1      43.287  23.896  25.629  1.00  0.00     0.173 A 
ATOM     53  C   UNL A   1      41.717  23.191  27.287  1.00  0.00     0.173 A 
ATOM     54  F   UNL A   1      44.069  24.823  25.055  1.00  0.00    -0.203 F 
ATOM     55  C   UNL A   1      43.381  22.579  25.164  1.00  0.00     0.198 A 
ATOM     56  C   UNL A   1      41.808  21.879  26.819  1.00  0.00     0.198 A 
ATOM     57  F   UNL A   1      40.965  23.403  28.376  1.00  0.00    -0.203 F 
ATOM     58  F   UNL A   1      44.228  22.278  24.169  1.00  0.00    -0.200 F 
ATOM     59  C   UNL A   1      42.651  21.570  25.768  1.00  0.00     0.200 A 
ATOM     60  F   UNL A   1      41.127  20.904  27.439  1.00  0.00    -0.200 F 
ATOM     61  F   UNL A   1      42.790  20.298  25.368  1.00  0.00    -0.200 F 
ENDBRANCH  27  51
BRANCH  39  62
ATOM     62  C   UNL A   1      45.449  29.476  28.539  1.00  0.00     0.064 A 
ATOM     63  C   UNL A   1      44.423  30.184  27.889  1.00  0.00     0.173 A 
ATOM     64  C   UNL A   1      46.771  29.804  28.210  1.00  0.00     0.173 A 
ATOM     65  F   UNL A   1      43.138  29.996  28.214  1.00  0.00    -0.203 F 
ATOM     66  C   UNL A   1      44.714  31.154  26.930  1.00  0.00     0.198 A 
ATOM     67  C   UNL A   1      47.059  30.798  27.280  1.00  0.00     0.198 A 
ATOM     68  F   UNL A   1      47.790  29.195  28.838  1.00  0.00    -0.203 F 
ATOM     69  F   UNL A   1      43.720  31.817  26.321  1.00  0.00    -0.200 F 
ATOM     70  C   UNL A   1      46.031  31.467  26.635  1.00  0.00     0.200 A 
ATOM     71  F   UNL A   1      48.333  31.132  27.035  1.00  0.00    -0.200 F 
ATOM     72  F   UNL A   1      46.310  32.437  25.752  1.00  0.00    -0.200 F 
ENDBRANCH  39  62
ENDBRANCH  13  14
ENDBRANCH   6   8
ENDBRANCH   3   4
ENDBRANCH   2   3
ENDBRANCH   1   2
BRANCH   1  73
ATOM     73  C   UNL A   1      33.789  28.309  26.144  1.00  0.00     0.116 C 
BRANCH  73  74
ATOM     74  N   UNL A   1      32.801  27.387  26.671  1.00  0.00    -0.351 N 
ATOM     75  C   UNL A   1      32.113  26.355  26.094  1.00  0.00     0.283 C 
ATOM     76  H   UNL A   1      32.586  27.529  27.621  1.00  0.00     0.163 HD
ATOM     77  O   UNL A   1      31.414  25.701  26.876  1.00  0.00    -0.268 OA
BRANCH  75  78
ATOM     78  C   UNL A   1      32.233  26.029  24.575  1.00  0.00     0.308 C 
BRANCH  78  79
ATOM     79  N   UNL A   1      32.150  24.577  24.233  1.00  0.00    -0.317 N 
ATOM     80  C   UNL A   1      33.266  23.702  24.641  1.00  0.00     0.292 C 
ATOM     81  C   UNL A   1      31.826  24.268  22.827  1.00  0.00     0.292 C 
ATOM     82  H   UNL A   1      31.356  24.351  24.833  1.00  0.00     0.349 HD
ATOM     83  C   UNL A   1      34.469  23.727  23.691  1.00  0.00     0.221 C 
ATOM     84  C   UNL A   1      33.041  24.210  21.874  1.00  0.00     0.221 C 
ATOM     85  O   UNL A   1      34.070  23.345  22.368  1.00  0.00    -0.370 OA
ENDBRANCH  78  79
BRANCH  78  86
ATOM     86  C   UNL A   1      31.242  26.840  23.759  1.00  0.00     0.057 A 
ATOM     87  C   UNL A   1      31.481  27.529  22.539  1.00  0.00     0.145 A 
ATOM     88  C   UNL A   1      29.906  27.110  24.015  1.00  0.00     0.119 A 
ATOM     89  N   UNL A   1      30.407  28.164  22.073  1.00  0.00    -0.181 NA
ATOM     90  N   UNL A   1      29.473  27.950  23.021  1.00  0.00    -0.268 N 
BRANCH  90  91
ATOM     91  C   UNL A   1      28.153  28.554  22.871  1.00  0.00     0.179 C 
BRANCH  91  92
ATOM     92  C   UNL A   1      28.214  30.027  22.529  1.00  0.00    -0.027 A 
ATOM     93  C   UNL A   1      28.028  30.452  21.205  1.00  0.00     0.005 A 
ATOM     94  C   UNL A   1      28.524  30.992  23.503  1.00  0.00     0.005 A 
ATOM     95  C   UNL A   1      28.120  31.806  20.872  1.00  0.00     0.000 A 
ATOM     96  C   UNL A   1      28.606  32.345  23.171  1.00  0.00     0.000 A 
ATOM     97  C   UNL A   1      28.403  32.752  21.856  1.00  0.00     0.000 A 
ENDBRANCH  91  92
ENDBRANCH  90  91
ENDBRANCH  78  86
ENDBRANCH  75  78
ENDBRANCH  73  74
ENDBRANCH   1  73
TORSDOF 15
ENDMDL
MODEL 2
REMARK VINA RESULT:     -13.0      1.499      4.182
REMARK SMILES O=C(NCCCCNC(=O)[C@H](c1cnn(Cc2ccccc2)c1)[NH+]1CCOCC1)c1ccc(-c2c3nc(c(-c4c(F)c(F)c(F)c(F)c4F)c4ccc([nH]4)c(-c4c(F)c(F)c(F)c(F)c4F)c4nc(c(-c5c(F)c(F)c(F)c(F)c5F)c5ccc2[nH]5)C=C4)C=C3)cc1
REMARK SMILES IDX 6 1 5 2 4 3 3 4 1 5 2 6 30 8 31 9 92 10 32 11 91 12 33 13
REMARK SMILES IDX 34 14 35 15 85 16 36 17 90 18 84 19 86 20 37 21 89 22 83 23
REMARK SMILES IDX 82 24 38 26 70 27 50 28 69 29 51 30 54 31 68 32 87 33 52 34
REMARK SMILES IDX 53 35 67 37 88 38 55 39 39 40 40 41 48 42 41 43 42 44 46 45
REMARK SMILES IDX 49 46 43 47 44 48 47 49 45 50 71 51 72 52 80 53 73 54 74 55
REMARK SMILES IDX 78 56 81 57 75 58 76 59 79 60 77 61 56 62 57 63 65 64 58 65
REMARK SMILES IDX 59 66 63 67 66 68 60 69 61 70 64 71 62 72 7 73 8 74 9 75
REMARK SMILES IDX 10 77 11 78 24 79 25 80 29 81 26 83 28 84 27 85 12 86 13 87
REMARK SMILES IDX 23 88 14 89 15 90 16 91 17 92 18 93 22 94 19 95 21 96 20 97
REMARK H PARENT 3 7 86 25 54 36 8 76 24 82
REMARK Flexibility Score: inf
ROOT
ATOM      1  C   UNL A   1      32.572  29.653  27.016  1.00  0.00     0.023 C 
ENDROOT
BRANCH   1   2
ATOM      2  C   UNL A   1      33.996  30.033  27.451  1.00  0.00     0.023 C 
BRANCH   2   3
ATOM      3  C   UNL A   1      34.254  31.528  27.637  1.00  0.00     0.116 C 
BRANCH   3   4
ATOM      4  N   UNL A   1      34.272  31.956  29.020  1.00  0.00    -0.352 N 
ATOM      5  O   UNL A   1      34.857  32.540  31.061  1.00  0.00    -0.269 OA
ATOM      6  C   UNL A   1      35.197  31.952  30.025  1.00  0.00     0.251 C 
ATOM      7  H   UNL A   1      33.414  32.343  29.303  1.00  0.00     0.163 HD
BRANCH   6   8
ATOM      8  C   UNL A   1      36.524  31.274  30.004  1.00  0.00     0.039 A 
ATOM      9  C   UNL A   1      37.770  31.898  29.926  1.00  0.00     0.014 A 
ATOM     10  C   UNL A   1      36.491  29.865  30.051  1.00  0.00     0.014 A 
ATOM     11  C   UNL A   1      38.937  31.135  29.830  1.00  0.00     0.010 A 
ATOM     12  C   UNL A   1      37.651  29.100  29.964  1.00  0.00     0.010 A 
ATOM     13  C   UNL A   1      38.878  29.734  29.820  1.00  0.00    -0.014 A 
BRANCH  13  14
ATOM     14  C   UNL A   1      40.134  28.978  29.809  1.00  0.00     0.031 A 
ATOM     15  C   UNL A   1      40.769  28.795  31.149  1.00  0.00     0.074 A 
ATOM     16  C   UNL A   1      40.647  28.351  28.729  1.00  0.00     0.049 A 
ATOM     17  N   UNL A   1      41.940  29.181  31.542  1.00  0.00    -0.248 NA
ATOM     18  C   UNL A   1      39.964  28.164  32.207  1.00  0.00     0.031 C 
ATOM     19  C   UNL A   1      40.032  28.149  27.415  1.00  0.00     0.029 A 
ATOM     20  N   UNL A   1      41.831  27.674  28.617  1.00  0.00    -0.354 N 
ATOM     21  C   UNL A   1      42.087  28.721  32.851  1.00  0.00     0.074 A 
ATOM     22  C   UNL A   1      40.805  28.195  33.243  1.00  0.00     0.031 C 
ATOM     23  C   UNL A   1      40.750  27.237  26.717  1.00  0.00     0.029 A 
ATOM     24  C   UNL A   1      41.947  26.900  27.469  1.00  0.00     0.049 A 
ATOM     25  H   UNL A   1      42.543  27.733  29.294  1.00  0.00     0.167 HD
ATOM     26  C   UNL A   1      43.305  28.649  33.456  1.00  0.00     0.037 A 
ATOM     27  C   UNL A   1      42.936  26.016  27.178  1.00  0.00     0.037 A 
ATOM     28  C   UNL A   1      44.269  29.488  32.801  1.00  0.00     0.049 A 
ATOM     29  C   UNL A   1      44.104  26.351  28.025  1.00  0.00     0.074 A 
ATOM     30  C   UNL A   1      44.379  30.846  32.573  1.00  0.00     0.029 A 
ATOM     31  N   UNL A   1      45.180  28.903  31.961  1.00  0.00    -0.354 N 
ATOM     32  N   UNL A   1      44.825  27.427  27.887  1.00  0.00    -0.248 NA
ATOM     33  C   UNL A   1      44.224  25.674  29.306  1.00  0.00     0.031 C 
ATOM     34  C   UNL A   1      44.955  30.954  31.274  1.00  0.00     0.029 A 
ATOM     35  C   UNL A   1      45.212  29.661  30.820  1.00  0.00     0.049 A 
ATOM     36  H   UNL A   1      45.710  28.093  32.141  1.00  0.00     0.167 HD
ATOM     37  C   UNL A   1      45.141  27.801  29.182  1.00  0.00     0.074 A 
ATOM     38  C   UNL A   1      44.825  26.637  30.006  1.00  0.00     0.031 C 
ATOM     39  C   UNL A   1      45.368  29.107  29.499  1.00  0.00     0.037 A 
BRANCH  26  40
ATOM     40  C   UNL A   1      43.716  27.578  34.438  1.00  0.00     0.064 A 
ATOM     41  C   UNL A   1      43.685  26.224  34.041  1.00  0.00     0.173 A 
ATOM     42  C   UNL A   1      43.830  27.800  35.827  1.00  0.00     0.173 A 
ATOM     43  F   UNL A   1      43.562  25.892  32.746  1.00  0.00    -0.203 F 
ATOM     44  C   UNL A   1      43.682  25.179  34.970  1.00  0.00     0.198 A 
ATOM     45  C   UNL A   1      43.879  26.754  36.748  1.00  0.00     0.198 A 
ATOM     46  F   UNL A   1      43.786  29.029  36.354  1.00  0.00    -0.203 F 
ATOM     47  F   UNL A   1      43.520  23.917  34.552  1.00  0.00    -0.200 F 
ATOM     48  C   UNL A   1      43.770  25.446  36.323  1.00  0.00     0.200 A 
ATOM     49  F   UNL A   1      43.946  27.033  38.057  1.00  0.00    -0.200 F 
ATOM     50  F   UNL A   1      43.700  24.453  37.219  1.00  0.00    -0.200 F 
ENDBRANCH  26  40
BRANCH  27  51
ATOM     51  C   UNL A   1      42.856  24.726  26.450  1.00  0.00     0.064 A 
ATOM     52  C   UNL A   1      43.661  24.471  25.327  1.00  0.00     0.173 A 
ATOM     53  C   UNL A   1      42.214  23.613  27.025  1.00  0.00     0.173 A 
ATOM     54  F   UNL A   1      44.347  25.466  24.746  1.00  0.00    -0.203 F 
ATOM     55  C   UNL A   1      43.838  23.174  24.828  1.00  0.00     0.198 A 
ATOM     56  C   UNL A   1      42.388  22.321  26.525  1.00  0.00     0.198 A 
ATOM     57  F   UNL A   1      41.490  23.744  28.145  1.00  0.00    -0.203 F 
ATOM     58  F   UNL A   1      44.667  22.960  23.797  1.00  0.00    -0.200 F 
ATOM     59  C   UNL A   1      43.211  22.100  25.436  1.00  0.00     0.200 A 
ATOM     60  F   UNL A   1      41.808  21.284  27.146  1.00  0.00    -0.200 F 
ATOM     61  F   UNL A   1      43.432  20.850  25.003  1.00  0.00    -0.200 F 
ENDBRANCH  27  51
BRANCH  39  62
ATOM     62  C   UNL A   1      45.544  30.087  28.375  1.00  0.00     0.064 A 
ATOM     63  C   UNL A   1      44.482  30.742  27.728  1.00  0.00     0.173 A 
ATOM     64  C   UNL A   1      46.847  30.500  28.061  1.00  0.00     0.173 A 
ATOM     65  F   UNL A   1      43.208  30.471  28.040  1.00  0.00    -0.203 F 
ATOM     66  C   UNL A   1      44.720  31.745  26.788  1.00  0.00     0.198 A 
ATOM     67  C   UNL A   1      47.080  31.525  27.151  1.00  0.00     0.198 A 
ATOM     68  F   UNL A   1      47.896  29.944  28.687  1.00  0.00    -0.203 F 
ATOM     69  F   UNL A   1      43.692  32.356  26.182  1.00  0.00    -0.200 F 
ATOM     70  C   UNL A   1      46.017  32.142  26.509  1.00  0.00     0.200 A 
ATOM     71  F   UNL A   1      48.332  31.940  26.921  1.00  0.00    -0.200 F 
ATOM     72  F   UNL A   1      46.243  33.141  25.644  1.00  0.00    -0.200 F 
ENDBRANCH  39  62
ENDBRANCH  13  14
ENDBRANCH   6   8
ENDBRANCH   3   4
ENDBRANCH   2   3
ENDBRANCH   1   2
BRANCH   1  73
ATOM     73  C   UNL A   1      32.170  30.061  25.598  1.00  0.00     0.116 C 
BRANCH  73  74
ATOM     74  N   UNL A   1      33.163  29.676  24.614  1.00  0.00    -0.351 N 
ATOM     75  C   UNL A   1      33.294  28.561  23.833  1.00  0.00     0.283 C 
ATOM     76  H   UNL A   1      33.877  30.342  24.483  1.00  0.00     0.163 HD
ATOM     77  O   UNL A   1      34.220  28.610  23.015  1.00  0.00    -0.268 OA
BRANCH  75  78
ATOM     78  C   UNL A   1      32.327  27.346  23.960  1.00  0.00     0.308 C 
BRANCH  78  79
ATOM     79  N   UNL A   1      31.315  27.227  22.866  1.00  0.00    -0.317 N 
ATOM     80  C   UNL A   1      30.673  28.463  22.376  1.00  0.00     0.292 C 
ATOM     81  C   UNL A   1      30.255  26.223  23.080  1.00  0.00     0.292 C 
ATOM     82  H   UNL A   1      31.955  26.911  22.137  1.00  0.00     0.349 HD
ATOM     83  C   UNL A   1      29.501  28.949  23.235  1.00  0.00     0.221 C 
ATOM     84  C   UNL A   1      29.030  26.726  23.877  1.00  0.00     0.221 C 
ATOM     85  O   UNL A   1      28.492  27.934  23.327  1.00  0.00    -0.370 OA
ENDBRANCH  78  79
BRANCH  78  86
ATOM     86  C   UNL A   1      33.095  26.048  24.135  1.00  0.00     0.057 A 
ATOM     87  C   UNL A   1      33.719  25.265  23.127  1.00  0.00     0.145 A 
ATOM     88  C   UNL A   1      33.344  25.324  25.292  1.00  0.00     0.119 A 
ATOM     89  N   UNL A   1      34.304  24.166  23.599  1.00  0.00    -0.181 NA
ATOM     90  N   UNL A   1      34.008  24.186  24.913  1.00  0.00    -0.268 N 
BRANCH  90  91
ATOM     91  C   UNL A   1      34.452  23.084  25.761  1.00  0.00     0.179 C 
BRANCH  91  92
ATOM     92  C   UNL A   1      35.951  22.884  25.731  1.00  0.00    -0.027 A 
ATOM     93  C   UNL A   1      36.490  21.640  25.371  1.00  0.00     0.005 A 
ATOM     94  C   UNL A   1      36.833  23.904  26.126  1.00  0.00     0.005 A 
ATOM     95  C   UNL A   1      37.872  21.433  25.377  1.00  0.00     0.000 A 
ATOM     96  C   UNL A   1      38.214  23.700  26.123  1.00  0.00     0.000 A 
ATOM     97  C   UNL A   1      38.733  22.465  25.746  1.00  0.00     0.000 A 
ENDBRANCH  91  92
ENDBRANCH  90  91
ENDBRANCH  78  86
ENDBRANCH  75  78
ENDBRANCH  73  74
ENDBRANCH   1  73
TORSDOF 15
ENDMDL
MODEL 3
REMARK VINA RESULT:     -12.9      3.693      8.745
REMARK SMILES O=C(NCCCCNC(=O)[C@H](c1cnn(Cc2ccccc2)c1)[NH+]1CCOCC1)c1ccc(-c2c3nc(c(-c4c(F)c(F)c(F)c(F)c4F)c4ccc([nH]4)c(-c4c(F)c(F)c(F)c(F)c4F)c4nc(c(-c5c(F)c(F)c(F)c(F)c5F)c5ccc2[nH]5)C=C4)C=C3)cc1
REMARK SMILES IDX 6 1 5 2 4 3 3 4 1 5 2 6 30 8 31 9 92 10 32 11 91 12 33 13
REMARK SMILES IDX 34 14 35 15 85 16 36 17 90 18 84 19 86 20 37 21 89 22 83 23
REMARK SMILES IDX 82 24 38 26 70 27 50 28 69 29 51 30 54 31 68 32 87 33 52 34
REMARK SMILES IDX 53 35 67 37 88 38 55 39 39 40 40 41 48 42 41 43 42 44 46 45
REMARK SMILES IDX 49 46 43 47 44 48 47 49 45 50 71 51 72 52 80 53 73 54 74 55
REMARK SMILES IDX 78 56 81 57 75 58 76 59 79 60 77 61 56 62 57 63 65 64 58 65
REMARK SMILES IDX 59 66 63 67 66 68 60 69 61 70 64 71 62 72 7 73 8 74 9 75
REMARK SMILES IDX 10 77 11 78 24 79 25 80 29 81 26 83 28 84 27 85 12 86 13 87
REMARK SMILES IDX 23 88 14 89 15 90 16 91 17 92 18 93 22 94 19 95 21 96 20 97
REMARK H PARENT 3 7 86 25 54 36 8 76 24 82
REMARK Flexibility Score: inf
ROOT
ATOM      1  C   UNL A   1      38.172  23.449  26.003  1.00  0.00     0.023 C 
ENDROOT
BRANCH   1   2
ATOM      2  C   UNL A   1      38.712  22.010  26.041  1.00  0.00     0.023 C 
BRANCH   2   3
ATOM      3  C   UNL A   1      40.080  21.835  26.699  1.00  0.00     0.116 C 
BRANCH   3   4
ATOM      4  N   UNL A   1      41.195  22.186  25.845  1.00  0.00    -0.352 N 
ATOM      5  O   UNL A   1      42.989  23.098  24.951  1.00  0.00    -0.269 OA
ATOM      6  C   UNL A   1      42.069  23.232  25.770  1.00  0.00     0.251 C 
ATOM      7  H   UNL A   1      41.364  21.508  25.153  1.00  0.00     0.163 HD
BRANCH   6   8
ATOM      8  C   UNL A   1      41.986  24.511  26.532  1.00  0.00     0.039 A 
ATOM      9  C   UNL A   1      42.624  24.797  27.740  1.00  0.00     0.014 A 
ATOM     10  C   UNL A   1      41.164  25.506  25.964  1.00  0.00     0.014 A 
ATOM     11  C   UNL A   1      42.391  26.012  28.391  1.00  0.00     0.010 A 
ATOM     12  C   UNL A   1      40.935  26.722  26.605  1.00  0.00     0.010 A 
ATOM     13  C   UNL A   1      41.525  26.966  27.838  1.00  0.00    -0.014 A 
BRANCH  13  14
ATOM     14  C   UNL A   1      41.384  28.260  28.512  1.00  0.00     0.031 A 
ATOM     15  C   UNL A   1      42.493  29.227  28.254  1.00  0.00     0.074 A 
ATOM     16  C   UNL A   1      40.292  28.656  29.202  1.00  0.00     0.049 A 
ATOM     17  N   UNL A   1      43.294  29.777  29.109  1.00  0.00    -0.248 NA
ATOM     18  C   UNL A   1      42.794  29.566  26.853  1.00  0.00     0.031 C 
ATOM     19  C   UNL A   1      38.992  27.990  29.310  1.00  0.00     0.029 A 
ATOM     20  N   UNL A   1      40.099  29.815  29.902  1.00  0.00    -0.354 N 
ATOM     21  C   UNL A   1      44.110  30.644  28.382  1.00  0.00     0.074 A 
ATOM     22  C   UNL A   1      43.829  30.396  26.991  1.00  0.00     0.031 C 
ATOM     23  C   UNL A   1      38.093  28.844  29.854  1.00  0.00     0.029 A 
ATOM     24  C   UNL A   1      38.780  30.058  30.263  1.00  0.00     0.049 A 
ATOM     25  H   UNL A   1      40.836  30.427  30.132  1.00  0.00     0.167 HD
ATOM     26  C   UNL A   1      44.834  31.627  28.986  1.00  0.00     0.037 A 
ATOM     27  C   UNL A   1      38.283  31.191  30.821  1.00  0.00     0.037 A 
ATOM     28  C   UNL A   1      45.007  31.367  30.388  1.00  0.00     0.049 A 
ATOM     29  C   UNL A   1      39.414  31.931  31.426  1.00  0.00     0.074 A 
ATOM     30  C   UNL A   1      45.614  30.367  31.122  1.00  0.00     0.029 A 
ATOM     31  N   UNL A   1      44.223  32.051  31.280  1.00  0.00    -0.354 N 
ATOM     32  N   UNL A   1      40.075  31.530  32.475  1.00  0.00    -0.248 NA
ATOM     33  C   UNL A   1      40.081  32.930  30.606  1.00  0.00     0.031 C 
ATOM     34  C   UNL A   1      44.775  30.189  32.261  1.00  0.00     0.029 A 
ATOM     35  C   UNL A   1      43.749  31.131  32.177  1.00  0.00     0.049 A 
ATOM     36  H   UNL A   1      44.036  33.017  31.278  1.00  0.00     0.167 HD
ATOM     37  C   UNL A   1      41.388  31.886  32.213  1.00  0.00     0.074 A 
ATOM     38  C   UNL A   1      41.317  32.824  31.097  1.00  0.00     0.031 C 
ATOM     39  C   UNL A   1      42.425  31.178  32.743  1.00  0.00     0.037 A 
BRANCH  26  40
ATOM     40  C   UNL A   1      45.109  32.985  28.385  1.00  0.00     0.064 A 
ATOM     41  C   UNL A   1      44.029  33.843  28.086  1.00  0.00     0.173 A 
ATOM     42  C   UNL A   1      46.345  33.343  27.808  1.00  0.00     0.173 A 
ATOM     43  F   UNL A   1      42.801  33.593  28.568  1.00  0.00    -0.203 F 
ATOM     44  C   UNL A   1      44.162  34.923  27.209  1.00  0.00     0.198 A 
ATOM     45  C   UNL A   1      46.486  34.450  26.972  1.00  0.00     0.198 A 
ATOM     46  F   UNL A   1      47.435  32.576  27.934  1.00  0.00    -0.203 F 
ATOM     47  F   UNL A   1      43.081  35.630  26.854  1.00  0.00    -0.200 F 
ATOM     48  C   UNL A   1      45.389  35.220  26.645  1.00  0.00     0.200 A 
ATOM     49  F   UNL A   1      47.679  34.712  26.421  1.00  0.00    -0.200 F 
ATOM     50  F   UNL A   1      45.506  36.211  25.753  1.00  0.00    -0.200 F 
ENDBRANCH  26  40
BRANCH  27  51
ATOM     51  C   UNL A   1      36.962  31.835  30.618  1.00  0.00     0.064 A 
ATOM     52  C   UNL A   1      36.004  31.879  31.646  1.00  0.00     0.173 A 
ATOM     53  C   UNL A   1      36.736  32.685  29.517  1.00  0.00     0.173 A 
ATOM     54  F   UNL A   1      36.166  31.139  32.753  1.00  0.00    -0.203 F 
ATOM     55  C   UNL A   1      34.904  32.744  31.589  1.00  0.00     0.198 A 
ATOM     56  C   UNL A   1      35.637  33.543  29.461  1.00  0.00     0.198 A 
ATOM     57  F   UNL A   1      37.634  32.772  28.526  1.00  0.00    -0.203 F 
ATOM     58  F   UNL A   1      34.048  32.807  32.619  1.00  0.00    -0.200 F 
ATOM     59  C   UNL A   1      34.729  33.583  30.502  1.00  0.00     0.200 A 
ATOM     60  F   UNL A   1      35.500  34.380  28.422  1.00  0.00    -0.200 F 
ATOM     61  F   UNL A   1      33.714  34.459  30.477  1.00  0.00    -0.200 F 
ENDBRANCH  27  51
BRANCH  39  62
ATOM     62  C   UNL A   1      42.122  30.188  33.831  1.00  0.00     0.064 A 
ATOM     63  C   UNL A   1      41.702  28.867  33.597  1.00  0.00     0.173 A 
ATOM     64  C   UNL A   1      42.434  30.544  35.150  1.00  0.00     0.173 A 
ATOM     65  F   UNL A   1      41.474  28.421  32.355  1.00  0.00    -0.203 F 
ATOM     66  C   UNL A   1      41.573  27.956  34.646  1.00  0.00     0.198 A 
ATOM     67  C   UNL A   1      42.340  29.624  36.189  1.00  0.00     0.198 A 
ATOM     68  F   UNL A   1      42.890  31.777  35.422  1.00  0.00    -0.203 F 
ATOM     69  F   UNL A   1      41.169  26.701  34.402  1.00  0.00    -0.200 F 
ATOM     70  C   UNL A   1      41.903  28.333  35.938  1.00  0.00     0.200 A 
ATOM     71  F   UNL A   1      42.708  29.977  37.427  1.00  0.00    -0.200 F 
ATOM     72  F   UNL A   1      41.829  27.443  36.938  1.00  0.00    -0.200 F 
ENDBRANCH  39  62
ENDBRANCH  13  14
ENDBRANCH   6   8
ENDBRANCH   3   4
ENDBRANCH   2   3
ENDBRANCH   1   2
BRANCH   1  73
ATOM     73  C   UNL A   1      36.730  23.614  25.518  1.00  0.00     0.116 C 
BRANCH  73  74
ATOM     74  N   UNL A   1      35.764  23.258  26.539  1.00  0.00    -0.351 N 
ATOM     75  C   UNL A   1      34.414  23.042  26.487  1.00  0.00     0.283 C 
ATOM     76  H   UNL A   1      36.151  23.149  27.438  1.00  0.00     0.163 HD
ATOM     77  O   UNL A   1      33.915  22.645  27.545  1.00  0.00    -0.268 OA
BRANCH  75  78
ATOM     78  C   UNL A   1      33.593  23.261  25.181  1.00  0.00     0.308 C 
BRANCH  78  79
ATOM     79  N   UNL A   1      32.367  22.415  25.056  1.00  0.00    -0.317 N 
ATOM     80  C   UNL A   1      32.487  20.972  25.341  1.00  0.00     0.292 C 
ATOM     81  C   UNL A   1      31.611  22.564  23.799  1.00  0.00     0.292 C 
ATOM     82  H   UNL A   1      31.848  22.832  25.830  1.00  0.00     0.349 HD
ATOM     83  C   UNL A   1      33.026  20.140  24.172  1.00  0.00     0.221 C 
ATOM     84  C   UNL A   1      32.094  21.670  22.635  1.00  0.00     0.221 C 
ATOM     85  O   UNL A   1      32.188  20.294  23.019  1.00  0.00    -0.370 OA
ENDBRANCH  78  79
BRANCH  78  86
ATOM     86  C   UNL A   1      33.265  24.729  24.977  1.00  0.00     0.057 A 
ATOM     87  C   UNL A   1      33.709  25.581  23.929  1.00  0.00     0.145 A 
ATOM     88  C   UNL A   1      32.490  25.573  25.758  1.00  0.00     0.119 A 
ATOM     89  N   UNL A   1      33.258  26.829  24.037  1.00  0.00    -0.181 NA
ATOM     90  N   UNL A   1      32.568  26.821  25.194  1.00  0.00    -0.268 N 
BRANCH  90  91
ATOM     91  C   UNL A   1      31.962  28.059  25.672  1.00  0.00     0.179 C 
BRANCH  91  92
ATOM     92  C   UNL A   1      32.935  28.939  26.426  1.00  0.00    -0.027 A 
ATOM     93  C   UNL A   1      32.585  30.258  26.753  1.00  0.00     0.005 A 
ATOM     94  C   UNL A   1      34.225  28.490  26.754  1.00  0.00     0.005 A 
ATOM     95  C   UNL A   1      33.490  31.092  27.415  1.00  0.00     0.000 A 
ATOM     96  C   UNL A   1      35.125  29.320  27.424  1.00  0.00     0.000 A 
ATOM     97  C   UNL A   1      34.757  30.620  27.756  1.00  0.00     0.000 A 
ENDBRANCH  91  92
ENDBRANCH  90  91
ENDBRANCH  78  86
ENDBRANCH  75  78
ENDBRANCH  73  74
ENDBRANCH   1  73
TORSDOF 15
ENDMDL
