MODEL 1
REMARK VINA RESULT:     -12.5      0.000      0.000
REMARK SMILES C[C@H](NC(=O)NCCc1ccccc1F)C(=O)NCCCCNC(=O)c1ccc(-c2c3nc(c(-c4c(F)c(F)c(F)c(F)c4F)c4ccc([nH]4)c(-c4c(F)c(F)c(F)c(F)c4F)c4nc(c(-c5c(F)c(F)c(F)c(F)c5F)c5ccc2[nH]5)C=C4)C=C3)cc1
REMARK SMILES IDX 19 1 18 2 16 3 17 4 2 6 1 7 3 8 4 9 5 11 6 12 7 14 8 15 9 16
REMARK SMILES IDX 10 17 14 18 11 19 13 20 15 21 12 22 20 23 21 24 22 25 23 26
REMARK SMILES IDX 24 27 25 29 26 30 27 31 88 32 28 33 87 34 29 35 30 36 31 37
REMARK SMILES IDX 81 38 32 39 86 40 80 41 82 42 33 43 85 44 79 45 78 46 34 48
REMARK SMILES IDX 66 49 46 50 65 51 47 52 50 53 64 54 83 55 48 56 49 57 63 59
REMARK SMILES IDX 84 60 51 61 35 62 36 63 44 64 37 65 38 66 42 67 45 68 39 69
REMARK SMILES IDX 40 70 43 71 41 72 67 73 68 74 76 75 69 76 70 77 74 78 77 79
REMARK SMILES IDX 71 80 72 81 75 82 73 83 52 84 53 85 61 86 54 87 55 88 59 89
REMARK SMILES IDX 62 90 56 91 57 92 60 93 58 94
REMARK H PARENT 18 5 3 10 6 13 23 28 82 47 50 58
REMARK Flexibility Score: inf
ROOT
ATOM      1  C   UNL A   1      31.516  29.880  25.397  1.00  0.00     0.116 C 
ENDROOT
BRANCH   1   2
ATOM      2  N   UNL A   1      32.636  29.668  24.490  1.00  0.00    -0.354 N 
ATOM      3  C   UNL A   1      33.323  28.516  24.218  1.00  0.00     0.242 C 
ATOM      4  O   UNL A   1      34.209  28.548  23.363  1.00  0.00    -0.273 OA
ATOM      5  H   UNL A   1      32.941  30.467  24.003  1.00  0.00     0.163 HD
BRANCH   3   6
ATOM      6  C   UNL A   1      32.899  27.196  24.899  1.00  0.00     0.170 C 
ATOM      7  C   UNL A   1      33.914  26.954  26.014  1.00  0.00     0.041 C 
BRANCH   6   8
ATOM      8  N   UNL A   1      32.729  26.216  23.812  1.00  0.00    -0.327 N 
ATOM      9  C   UNL A   1      31.836  25.344  23.354  1.00  0.00     0.315 C 
ATOM     10  H   UNL A   1      33.532  26.204  23.242  1.00  0.00     0.166 HD
ATOM     11  O   UNL A   1      32.224  24.525  22.517  1.00  0.00    -0.249 OA
ATOM     12  N   UNL A   1      30.569  25.271  23.759  1.00  0.00    -0.338 N 
ATOM     13  H   UNL A   1      30.109  24.442  23.494  1.00  0.00     0.165 HD
BRANCH  12  14
ATOM     14  C   UNL A   1      29.745  26.185  24.514  1.00  0.00     0.122 C 
BRANCH  14  15
ATOM     15  C   UNL A   1      28.487  26.631  23.773  1.00  0.00     0.060 C 
BRANCH  15  16
ATOM     16  C   UNL A   1      28.593  27.992  23.141  1.00  0.00    -0.010 A 
ATOM     17  C   UNL A   1      29.805  28.438  22.599  1.00  0.00     0.007 A 
ATOM     18  C   UNL A   1      27.486  28.846  23.103  1.00  0.00     0.126 A 
ATOM     19  C   UNL A   1      29.904  29.722  22.057  1.00  0.00     0.000 A 
ATOM     20  C   UNL A   1      27.581  30.129  22.573  1.00  0.00     0.039 A 
ATOM     21  F   UNL A   1      26.310  28.434  23.597  1.00  0.00    -0.207 F 
ATOM     22  C   UNL A   1      28.796  30.570  22.053  1.00  0.00     0.003 A 
ENDBRANCH  15  16
ENDBRANCH  14  15
ENDBRANCH  12  14
ENDBRANCH   6   8
ENDBRANCH   3   6
ENDBRANCH   1   2
BRANCH   1  23
ATOM     23  C   UNL A   1      31.977  30.476  26.721  1.00  0.00     0.023 C 
BRANCH  23  24
ATOM     24  C   UNL A   1      31.689  31.969  26.852  1.00  0.00     0.023 C 
BRANCH  24  25
ATOM     25  C   UNL A   1      32.858  32.794  27.376  1.00  0.00     0.116 C 
BRANCH  25  26
ATOM     26  N   UNL A   1      32.497  34.176  27.653  1.00  0.00    -0.352 N 
ATOM     27  C   UNL A   1      33.010  35.011  28.615  1.00  0.00     0.251 C 
ATOM     28  H   UNL A   1      31.796  34.561  27.077  1.00  0.00     0.163 HD
ATOM     29  O   UNL A   1      32.509  36.109  28.833  1.00  0.00    -0.269 OA
BRANCH  27  30
ATOM     30  C   UNL A   1      34.162  34.547  29.410  1.00  0.00     0.039 A 
ATOM     31  C   UNL A   1      33.933  33.987  30.668  1.00  0.00     0.014 A 
ATOM     32  C   UNL A   1      35.454  34.610  28.881  1.00  0.00     0.014 A 
ATOM     33  C   UNL A   1      34.999  33.425  31.370  1.00  0.00     0.010 A 
ATOM     34  C   UNL A   1      36.499  33.983  29.547  1.00  0.00     0.010 A 
ATOM     35  C   UNL A   1      36.283  33.384  30.797  1.00  0.00    -0.014 A 
BRANCH  35  36
ATOM     36  C   UNL A   1      37.412  32.718  31.490  1.00  0.00     0.031 A 
ATOM     37  C   UNL A   1      38.116  31.562  30.840  1.00  0.00     0.074 A 
ATOM     38  C   UNL A   1      37.764  33.118  32.728  1.00  0.00     0.049 A 
ATOM     39  N   UNL A   1      39.077  30.808  31.312  1.00  0.00    -0.248 NA
ATOM     40  C   UNL A   1      37.665  31.185  29.490  1.00  0.00     0.031 C 
ATOM     41  C   UNL A   1      37.126  34.199  33.481  1.00  0.00     0.029 A 
ATOM     42  N   UNL A   1      38.741  32.657  33.575  1.00  0.00    -0.354 N 
ATOM     43  C   UNL A   1      39.335  29.868  30.325  1.00  0.00     0.074 A 
ATOM     44  C   UNL A   1      38.396  30.106  29.252  1.00  0.00     0.031 C 
ATOM     45  C   UNL A   1      37.746  34.337  34.663  1.00  0.00     0.029 A 
ATOM     46  C   UNL A   1      38.798  33.330  34.771  1.00  0.00     0.049 A 
ATOM     47  H   UNL A   1      39.345  31.913  33.347  1.00  0.00     0.167 HD
ATOM     48  C   UNL A   1      40.291  28.909  30.305  1.00  0.00     0.037 A 
ATOM     49  C   UNL A   1      39.603  33.153  35.837  1.00  0.00     0.037 A 
ATOM     50  C   UNL A   1      41.243  28.697  31.362  1.00  0.00     0.049 A 
ATOM     51  C   UNL A   1      40.651  32.075  35.793  1.00  0.00     0.074 A 
ATOM     52  C   UNL A   1      42.284  27.787  31.410  1.00  0.00     0.029 A 
ATOM     53  N   UNL A   1      41.272  29.404  32.555  1.00  0.00    -0.354 N 
ATOM     54  N   UNL A   1      40.922  31.226  34.832  1.00  0.00    -0.248 NA
ATOM     55  C   UNL A   1      41.507  31.930  36.979  1.00  0.00     0.031 C 
ATOM     56  C   UNL A   1      42.915  27.911  32.651  1.00  0.00     0.029 A 
ATOM     57  C   UNL A   1      42.302  28.935  33.354  1.00  0.00     0.049 A 
ATOM     58  H   UNL A   1      40.653  30.131  32.797  1.00  0.00     0.167 HD
ATOM     59  C   UNL A   1      41.990  30.463  35.284  1.00  0.00     0.074 A 
ATOM     60  C   UNL A   1      42.329  30.959  36.602  1.00  0.00     0.031 C 
ATOM     61  C   UNL A   1      42.632  29.445  34.661  1.00  0.00     0.037 A 
BRANCH  48  62
ATOM     62  C   UNL A   1      40.374  28.027  29.095  1.00  0.00     0.064 A 
ATOM     63  C   UNL A   1      41.121  28.422  27.975  1.00  0.00     0.173 A 
ATOM     64  C   UNL A   1      39.652  26.827  29.013  1.00  0.00     0.173 A 
ATOM     65  F   UNL A   1      41.826  29.563  27.999  1.00  0.00    -0.203 F 
ATOM     66  C   UNL A   1      41.128  27.655  26.813  1.00  0.00     0.198 A 
ATOM     67  C   UNL A   1      39.686  26.048  27.860  1.00  0.00     0.198 A 
ATOM     68  F   UNL A   1      38.932  26.400  30.062  1.00  0.00    -0.203 F 
ATOM     69  F   UNL A   1      41.821  28.069  25.743  1.00  0.00    -0.200 F 
ATOM     70  C   UNL A   1      40.415  26.468  26.758  1.00  0.00     0.200 A 
ATOM     71  F   UNL A   1      39.015  24.889  27.818  1.00  0.00    -0.200 F 
ATOM     72  F   UNL A   1      40.429  25.727  25.641  1.00  0.00    -0.200 F 
ENDBRANCH  48  62
BRANCH  49  73
ATOM     73  C   UNL A   1      39.466  34.045  37.017  1.00  0.00     0.064 A 
ATOM     74  C   UNL A   1      40.105  35.293  37.070  1.00  0.00     0.173 A 
ATOM     75  C   UNL A   1      38.713  33.651  38.131  1.00  0.00     0.173 A 
ATOM     76  F   UNL A   1      40.841  35.715  36.031  1.00  0.00    -0.203 F 
ATOM     77  C   UNL A   1      40.012  36.101  38.200  1.00  0.00     0.198 A 
ATOM     78  C   UNL A   1      38.599  34.472  39.251  1.00  0.00     0.198 A 
ATOM     79  F   UNL A   1      38.067  32.475  38.121  1.00  0.00    -0.203 F 
ATOM     80  F   UNL A   1      40.661  37.272  38.238  1.00  0.00    -0.200 F 
ATOM     81  C   UNL A   1      39.256  35.692  39.288  1.00  0.00     0.200 A 
ATOM     82  F   UNL A   1      37.847  34.084  40.290  1.00  0.00    -0.200 F 
ATOM     83  F   UNL A   1      39.157  36.476  40.370  1.00  0.00    -0.200 F 
ENDBRANCH  49  73
BRANCH  61  84
ATOM     84  C   UNL A   1      43.783  28.801  35.377  1.00  0.00     0.064 A 
ATOM     85  C   UNL A   1      43.552  27.797  36.329  1.00  0.00     0.173 A 
ATOM     86  C   UNL A   1      45.100  29.243  35.192  1.00  0.00     0.173 A 
ATOM     87  F   UNL A   1      42.307  27.347  36.551  1.00  0.00    -0.203 F 
ATOM     88  C   UNL A   1      44.597  27.271  37.084  1.00  0.00     0.198 A 
ATOM     89  C   UNL A   1      46.148  28.694  35.927  1.00  0.00     0.198 A 
ATOM     90  F   UNL A   1      45.372  30.193  34.285  1.00  0.00    -0.203 F 
ATOM     91  F   UNL A   1      44.347  26.342  38.017  1.00  0.00    -0.200 F 
ATOM     92  C   UNL A   1      45.893  27.719  36.881  1.00  0.00     0.200 A 
ATOM     93  F   UNL A   1      47.403  29.111  35.715  1.00  0.00    -0.200 F 
ATOM     94  F   UNL A   1      46.900  27.209  37.604  1.00  0.00    -0.200 F 
ENDBRANCH  61  84
ENDBRANCH  35  36
ENDBRANCH  27  30
ENDBRANCH  25  26
ENDBRANCH  24  25
ENDBRANCH  23  24
ENDBRANCH   1  23
TORSDOF 15
ENDMDL
MODEL 2
REMARK VINA RESULT:     -12.4      1.105      7.632
REMARK SMILES C[C@H](NC(=O)NCCc1ccccc1F)C(=O)NCCCCNC(=O)c1ccc(-c2c3nc(c(-c4c(F)c(F)c(F)c(F)c4F)c4ccc([nH]4)c(-c4c(F)c(F)c(F)c(F)c4F)c4nc(c(-c5c(F)c(F)c(F)c(F)c5F)c5ccc2[nH]5)C=C4)C=C3)cc1
REMARK SMILES IDX 19 1 18 2 16 3 17 4 2 6 1 7 3 8 4 9 5 11 6 12 7 14 8 15 9 16
REMARK SMILES IDX 10 17 14 18 11 19 13 20 15 21 12 22 20 23 21 24 22 25 23 26
REMARK SMILES IDX 24 27 25 29 26 30 27 31 88 32 28 33 87 34 29 35 30 36 31 37
REMARK SMILES IDX 81 38 32 39 86 40 80 41 82 42 33 43 85 44 79 45 78 46 34 48
REMARK SMILES IDX 66 49 46 50 65 51 47 52 50 53 64 54 83 55 48 56 49 57 63 59
REMARK SMILES IDX 84 60 51 61 35 62 36 63 44 64 37 65 38 66 42 67 45 68 39 69
REMARK SMILES IDX 40 70 43 71 41 72 67 73 68 74 76 75 69 76 70 77 74 78 77 79
REMARK SMILES IDX 71 80 72 81 75 82 73 83 52 84 53 85 61 86 54 87 55 88 59 89
REMARK SMILES IDX 62 90 56 91 57 92 60 93 58 94
REMARK H PARENT 18 5 3 10 6 13 23 28 82 47 50 58
REMARK Flexibility Score: inf
ROOT
ATOM      1  C   UNL A   1      32.889  30.023  26.343  1.00  0.00     0.116 C 
ENDROOT
BRANCH   1   2
ATOM      2  N   UNL A   1      33.669  29.702  25.156  1.00  0.00    -0.354 N 
ATOM      3  C   UNL A   1      33.703  28.540  24.432  1.00  0.00     0.242 C 
ATOM      4  O   UNL A   1      34.398  28.501  23.415  1.00  0.00    -0.273 OA
ATOM      5  H   UNL A   1      34.254  30.421  24.827  1.00  0.00     0.163 HD
BRANCH   3   6
ATOM      6  C   UNL A   1      32.793  27.360  24.838  1.00  0.00     0.170 C 
ATOM      7  C   UNL A   1      33.502  26.663  25.997  1.00  0.00     0.041 C 
BRANCH   6   8
ATOM      8  N   UNL A   1      32.493  26.633  23.593  1.00  0.00    -0.327 N 
ATOM      9  C   UNL A   1      31.550  26.553  22.658  1.00  0.00     0.315 C 
ATOM     10  H   UNL A   1      33.224  26.007  23.385  1.00  0.00     0.166 HD
ATOM     11  O   UNL A   1      31.600  25.593  21.885  1.00  0.00    -0.249 OA
ATOM     12  N   UNL A   1      30.541  27.413  22.522  1.00  0.00    -0.338 N 
ATOM     13  H   UNL A   1      29.817  27.093  21.937  1.00  0.00     0.165 HD
BRANCH  12  14
ATOM     14  C   UNL A   1      30.315  28.727  23.075  1.00  0.00     0.122 C 
BRANCH  14  15
ATOM     15  C   UNL A   1      28.841  29.122  23.131  1.00  0.00     0.060 C 
BRANCH  15  16
ATOM     16  C   UNL A   1      28.524  30.425  22.449  1.00  0.00    -0.010 A 
ATOM     17  C   UNL A   1      28.136  30.453  21.103  1.00  0.00     0.007 A 
ATOM     18  C   UNL A   1      28.635  31.635  23.140  1.00  0.00     0.126 A 
ATOM     19  C   UNL A   1      27.890  31.671  20.467  1.00  0.00     0.000 A 
ATOM     20  C   UNL A   1      28.401  32.853  22.509  1.00  0.00     0.039 A 
ATOM     21  F   UNL A   1      28.986  31.633  24.434  1.00  0.00    -0.207 F 
ATOM     22  C   UNL A   1      28.032  32.871  21.165  1.00  0.00     0.003 A 
ENDBRANCH  15  16
ENDBRANCH  14  15
ENDBRANCH  12  14
ENDBRANCH   6   8
ENDBRANCH   3   6
ENDBRANCH   1   2
BRANCH   1  23
ATOM     23  C   UNL A   1      31.643  30.825  25.990  1.00  0.00     0.023 C 
BRANCH  23  24
ATOM     24  C   UNL A   1      31.411  32.026  26.904  1.00  0.00     0.023 C 
BRANCH  24  25
ATOM     25  C   UNL A   1      32.674  32.800  27.261  1.00  0.00     0.116 C 
BRANCH  25  26
ATOM     26  N   UNL A   1      32.409  34.188  27.611  1.00  0.00    -0.352 N 
ATOM     27  C   UNL A   1      33.012  34.949  28.582  1.00  0.00     0.251 C 
ATOM     28  H   UNL A   1      31.707  34.637  27.085  1.00  0.00     0.163 HD
ATOM     29  O   UNL A   1      32.588  36.063  28.868  1.00  0.00    -0.269 OA
BRANCH  27  30
ATOM     30  C   UNL A   1      34.169  34.385  29.303  1.00  0.00     0.039 A 
ATOM     31  C   UNL A   1      33.947  33.654  30.471  1.00  0.00     0.014 A 
ATOM     32  C   UNL A   1      35.459  34.527  28.784  1.00  0.00     0.014 A 
ATOM     33  C   UNL A   1      35.018  33.006  31.085  1.00  0.00     0.010 A 
ATOM     34  C   UNL A   1      36.510  33.819  29.355  1.00  0.00     0.010 A 
ATOM     35  C   UNL A   1      36.300  33.052  30.510  1.00  0.00    -0.014 A 
BRANCH  35  36
ATOM     36  C   UNL A   1      37.434  32.302  31.102  1.00  0.00     0.031 A 
ATOM     37  C   UNL A   1      37.930  32.650  32.476  1.00  0.00     0.074 A 
ATOM     38  C   UNL A   1      38.053  31.349  30.378  1.00  0.00     0.049 A 
ATOM     39  N   UNL A   1      38.949  32.160  33.136  1.00  0.00    -0.248 NA
ATOM     40  C   UNL A   1      37.203  33.709  33.196  1.00  0.00     0.031 C 
ATOM     41  C   UNL A   1      37.691  30.953  29.017  1.00  0.00     0.029 A 
ATOM     42  N   UNL A   1      39.122  30.543  30.684  1.00  0.00    -0.354 N 
ATOM     43  C   UNL A   1      38.988  32.854  34.336  1.00  0.00     0.074 A 
ATOM     44  C   UNL A   1      37.930  33.838  34.295  1.00  0.00     0.031 C 
ATOM     45  C   UNL A   1      38.503  29.961  28.617  1.00  0.00     0.029 A 
ATOM     46  C   UNL A   1      39.468  29.678  29.674  1.00  0.00     0.049 A 
ATOM     47  H   UNL A   1      39.596  30.581  31.546  1.00  0.00     0.167 HD
ATOM     48  C   UNL A   1      39.816  32.664  35.391  1.00  0.00     0.037 A 
ATOM     49  C   UNL A   1      40.455  28.764  29.607  1.00  0.00     0.037 A 
ATOM     50  C   UNL A   1      40.846  31.663  35.439  1.00  0.00     0.049 A 
ATOM     51  C   UNL A   1      41.367  28.581  30.789  1.00  0.00     0.074 A 
ATOM     52  C   UNL A   1      41.700  31.359  36.484  1.00  0.00     0.029 A 
ATOM     53  N   UNL A   1      41.162  30.802  34.399  1.00  0.00    -0.354 N 
ATOM     54  N   UNL A   1      41.361  29.205  31.941  1.00  0.00    -0.248 NA
ATOM     55  C   UNL A   1      42.422  27.564  30.665  1.00  0.00     0.031 C 
ATOM     56  C   UNL A   1      42.564  30.344  36.061  1.00  0.00     0.029 A 
ATOM     57  C   UNL A   1      42.213  29.979  34.771  1.00  0.00     0.049 A 
ATOM     58  H   UNL A   1      40.707  30.778  33.526  1.00  0.00     0.167 HD
ATOM     59  C   UNL A   1      42.390  28.646  32.687  1.00  0.00     0.074 A 
ATOM     60  C   UNL A   1      42.993  27.620  31.862  1.00  0.00     0.031 C 
ATOM     61  C   UNL A   1      42.796  28.956  33.941  1.00  0.00     0.037 A 
BRANCH  48  62
ATOM     62  C   UNL A   1      39.631  33.543  36.592  1.00  0.00     0.064 A 
ATOM     63  C   UNL A   1      38.790  33.148  37.642  1.00  0.00     0.173 A 
ATOM     64  C   UNL A   1      40.227  34.811  36.670  1.00  0.00     0.173 A 
ATOM     65  F   UNL A   1      38.192  31.947  37.616  1.00  0.00    -0.203 F 
ATOM     66  C   UNL A   1      38.539  33.996  38.718  1.00  0.00     0.198 A 
ATOM     67  C   UNL A   1      39.998  35.645  37.761  1.00  0.00     0.198 A 
ATOM     68  F   UNL A   1      41.050  35.231  35.697  1.00  0.00    -0.203 F 
ATOM     69  F   UNL A   1      37.704  33.612  39.693  1.00  0.00    -0.200 F 
ATOM     70  C   UNL A   1      39.146  35.242  38.778  1.00  0.00     0.200 A 
ATOM     71  F   UNL A   1      40.604  36.838  37.828  1.00  0.00    -0.200 F 
ATOM     72  F   UNL A   1      38.909  36.054  39.817  1.00  0.00    -0.200 F 
ENDBRANCH  48  62
BRANCH  49  73
ATOM     73  C   UNL A   1      40.603  27.932  28.385  1.00  0.00     0.064 A 
ATOM     74  C   UNL A   1      40.011  26.663  28.287  1.00  0.00     0.173 A 
ATOM     75  C   UNL A   1      41.367  28.380  27.299  1.00  0.00     0.173 A 
ATOM     76  F   UNL A   1      39.274  26.186  29.301  1.00  0.00    -0.203 F 
ATOM     77  C   UNL A   1      40.196  25.869  27.159  1.00  0.00     0.198 A 
ATOM     78  C   UNL A   1      41.529  27.595  26.159  1.00  0.00     0.198 A 
ATOM     79  F   UNL A   1      41.936  29.593  27.337  1.00  0.00    -0.203 F 
ATOM     80  F   UNL A   1      39.649  24.647  27.105  1.00  0.00    -0.200 F 
ATOM     81  C   UNL A   1      40.951  26.337  26.093  1.00  0.00     0.200 A 
ATOM     82  F   UNL A   1      42.239  28.062  25.123  1.00  0.00    -0.200 F 
ATOM     83  F   UNL A   1      41.118  25.577  25.003  1.00  0.00    -0.200 F 
ENDBRANCH  49  73
BRANCH  61  84
ATOM     84  C   UNL A   1      43.935  28.169  34.522  1.00  0.00     0.064 A 
ATOM     85  C   UNL A   1      45.256  28.614  34.365  1.00  0.00     0.173 A 
ATOM     86  C   UNL A   1      43.726  26.933  35.148  1.00  0.00     0.173 A 
ATOM     87  F   UNL A   1      45.509  29.786  33.762  1.00  0.00    -0.203 F 
ATOM     88  C   UNL A   1      46.330  27.839  34.796  1.00  0.00     0.198 A 
ATOM     89  C   UNL A   1      44.801  26.174  35.606  1.00  0.00     0.198 A 
ATOM     90  F   UNL A   1      42.481  26.470  35.332  1.00  0.00    -0.203 F 
ATOM     91  F   UNL A   1      47.584  28.265  34.598  1.00  0.00    -0.200 F 
ATOM     92  C   UNL A   1      46.100  26.621  35.418  1.00  0.00     0.200 A 
ATOM     93  F   UNL A   1      44.578  25.007  36.227  1.00  0.00    -0.200 F 
ATOM     94  F   UNL A   1      47.133  25.878  35.838  1.00  0.00    -0.200 F 
ENDBRANCH  61  84
ENDBRANCH  35  36
ENDBRANCH  27  30
ENDBRANCH  25  26
ENDBRANCH  24  25
ENDBRANCH  23  24
ENDBRANCH   1  23
TORSDOF 15
ENDMDL
MODEL 3
REMARK VINA RESULT:     -12.4      0.318      1.633
REMARK SMILES C[C@H](NC(=O)NCCc1ccccc1F)C(=O)NCCCCNC(=O)c1ccc(-c2c3nc(c(-c4c(F)c(F)c(F)c(F)c4F)c4ccc([nH]4)c(-c4c(F)c(F)c(F)c(F)c4F)c4nc(c(-c5c(F)c(F)c(F)c(F)c5F)c5ccc2[nH]5)C=C4)C=C3)cc1
REMARK SMILES IDX 19 1 18 2 16 3 17 4 2 6 1 7 3 8 4 9 5 11 6 12 7 14 8 15 9 16
REMARK SMILES IDX 10 17 14 18 11 19 13 20 15 21 12 22 20 23 21 24 22 25 23 26
REMARK SMILES IDX 24 27 25 29 26 30 27 31 88 32 28 33 87 34 29 35 30 36 31 37
REMARK SMILES IDX 81 38 32 39 86 40 80 41 82 42 33 43 85 44 79 45 78 46 34 48
REMARK SMILES IDX 66 49 46 50 65 51 47 52 50 53 64 54 83 55 48 56 49 57 63 59
REMARK SMILES IDX 84 60 51 61 35 62 36 63 44 64 37 65 38 66 42 67 45 68 39 69
REMARK SMILES IDX 40 70 43 71 41 72 67 73 68 74 76 75 69 76 70 77 74 78 77 79
REMARK SMILES IDX 71 80 72 81 75 82 73 83 52 84 53 85 61 86 54 87 55 88 59 89
REMARK SMILES IDX 62 90 56 91 57 92 60 93 58 94
REMARK H PARENT 18 5 3 10 6 13 23 28 82 47 50 58
REMARK Flexibility Score: inf
ROOT
ATOM      1  C   UNL A   1      31.466  29.871  25.407  1.00  0.00     0.116 C 
ENDROOT
BRANCH   1   2
ATOM      2  N   UNL A   1      32.595  29.672  24.509  1.00  0.00    -0.354 N 
ATOM      3  C   UNL A   1      33.304  28.529  24.253  1.00  0.00     0.242 C 
ATOM      4  O   UNL A   1      34.196  28.569  23.403  1.00  0.00    -0.273 OA
ATOM      5  H   UNL A   1      32.889  30.471  24.016  1.00  0.00     0.163 HD
BRANCH   3   6
ATOM      6  C   UNL A   1      32.900  27.208  24.943  1.00  0.00     0.170 C 
ATOM      7  C   UNL A   1      33.921  26.987  26.057  1.00  0.00     0.041 C 
BRANCH   6   8
ATOM      8  N   UNL A   1      32.740  26.219  23.863  1.00  0.00    -0.327 N 
ATOM      9  C   UNL A   1      31.849  25.347  23.400  1.00  0.00     0.315 C 
ATOM     10  H   UNL A   1      33.551  26.197  23.305  1.00  0.00     0.166 HD
ATOM     11  O   UNL A   1      32.244  24.519  22.577  1.00  0.00    -0.249 OA
ATOM     12  N   UNL A   1      30.576  25.285  23.788  1.00  0.00    -0.338 N 
ATOM     13  H   UNL A   1      30.115  24.456  23.524  1.00  0.00     0.165 HD
BRANCH  12  14
ATOM     14  C   UNL A   1      29.746  26.211  24.523  1.00  0.00     0.122 C 
BRANCH  14  15
ATOM     15  C   UNL A   1      28.491  26.640  23.769  1.00  0.00     0.060 C 
BRANCH  15  16
ATOM     16  C   UNL A   1      28.584  28.003  23.139  1.00  0.00    -0.010 A 
ATOM     17  C   UNL A   1      29.790  28.457  22.590  1.00  0.00     0.007 A 
ATOM     18  C   UNL A   1      27.473  28.851  23.111  1.00  0.00     0.126 A 
ATOM     19  C   UNL A   1      29.877  29.743  22.050  1.00  0.00     0.000 A 
ATOM     20  C   UNL A   1      27.556  30.136  22.584  1.00  0.00     0.039 A 
ATOM     21  F   UNL A   1      26.302  28.431  23.613  1.00  0.00    -0.207 F 
ATOM     22  C   UNL A   1      28.765  30.585  22.056  1.00  0.00     0.003 A 
ENDBRANCH  15  16
ENDBRANCH  14  15
ENDBRANCH  12  14
ENDBRANCH   6   8
ENDBRANCH   3   6
ENDBRANCH   1   2
BRANCH   1  23
ATOM     23  C   UNL A   1      31.906  30.489  26.727  1.00  0.00     0.023 C 
BRANCH  23  24
ATOM     24  C   UNL A   1      31.628  31.987  26.824  1.00  0.00     0.023 C 
BRANCH  24  25
ATOM     25  C   UNL A   1      32.809  32.817  27.312  1.00  0.00     0.116 C 
BRANCH  25  26
ATOM     26  N   UNL A   1      32.447  34.194  27.615  1.00  0.00    -0.352 N 
ATOM     27  C   UNL A   1      32.974  35.017  28.579  1.00  0.00     0.251 C 
ATOM     28  H   UNL A   1      31.734  34.583  27.059  1.00  0.00     0.163 HD
ATOM     29  O   UNL A   1      32.473  36.109  28.822  1.00  0.00    -0.269 OA
BRANCH  27  30
ATOM     30  C   UNL A   1      34.144  34.548  29.346  1.00  0.00     0.039 A 
ATOM     31  C   UNL A   1      33.940  33.948  30.589  1.00  0.00     0.014 A 
ATOM     32  C   UNL A   1      35.428  34.646  28.802  1.00  0.00     0.014 A 
ATOM     33  C   UNL A   1      35.024  33.382  31.261  1.00  0.00     0.010 A 
ATOM     34  C   UNL A   1      36.491  34.015  29.436  1.00  0.00     0.010 A 
ATOM     35  C   UNL A   1      36.300  33.377  30.671  1.00  0.00    -0.014 A 
BRANCH  35  36
ATOM     36  C   UNL A   1      37.448  32.709  31.330  1.00  0.00     0.031 A 
ATOM     37  C   UNL A   1      38.145  31.567  30.647  1.00  0.00     0.074 A 
ATOM     38  C   UNL A   1      37.824  33.092  32.565  1.00  0.00     0.049 A 
ATOM     39  N   UNL A   1      39.120  30.812  31.087  1.00  0.00    -0.248 NA
ATOM     40  C   UNL A   1      37.668  31.206  29.302  1.00  0.00     0.031 C 
ATOM     41  C   UNL A   1      37.196  34.158  33.347  1.00  0.00     0.029 A 
ATOM     42  N   UNL A   1      38.822  32.625  33.384  1.00  0.00    -0.354 N 
ATOM     43  C   UNL A   1      39.363  29.888  30.081  1.00  0.00     0.074 A 
ATOM     44  C   UNL A   1      38.399  30.136  29.032  1.00  0.00     0.031 C 
ATOM     45  C   UNL A   1      37.841  34.283  34.518  1.00  0.00     0.029 A 
ATOM     46  C   UNL A   1      38.900  33.282  34.588  1.00  0.00     0.049 A 
ATOM     47  H   UNL A   1      39.426  31.889  33.132  1.00  0.00     0.167 HD
ATOM     48  C   UNL A   1      40.324  28.936  30.027  1.00  0.00     0.037 A 
ATOM     49  C   UNL A   1      39.730  33.094  35.634  1.00  0.00     0.037 A 
ATOM     50  C   UNL A   1      41.300  28.715  31.059  1.00  0.00     0.049 A 
ATOM     51  C   UNL A   1      40.783  32.023  35.551  1.00  0.00     0.074 A 
ATOM     52  C   UNL A   1      42.347  27.810  31.072  1.00  0.00     0.029 A 
ATOM     53  N   UNL A   1      41.350  29.404  32.262  1.00  0.00    -0.354 N 
ATOM     54  N   UNL A   1      41.038  31.190  34.572  1.00  0.00    -0.248 NA
ATOM     55  C   UNL A   1      41.666  31.867  36.716  1.00  0.00     0.031 C 
ATOM     56  C   UNL A   1      43.004  27.921  32.301  1.00  0.00     0.029 A 
ATOM     57  C   UNL A   1      42.400  28.931  33.032  1.00  0.00     0.049 A 
ATOM     58  H   UNL A   1      40.733  30.123  32.528  1.00  0.00     0.167 HD
ATOM     59  C   UNL A   1      42.121  30.428  34.990  1.00  0.00     0.074 A 
ATOM     60  C   UNL A   1      42.485  30.907  36.307  1.00  0.00     0.031 C 
ATOM     61  C   UNL A   1      42.755  29.423  34.339  1.00  0.00     0.037 A 
BRANCH  48  62
ATOM     62  C   UNL A   1      40.387  28.073  28.802  1.00  0.00     0.064 A 
ATOM     63  C   UNL A   1      39.733  26.832  28.771  1.00  0.00     0.173 A 
ATOM     64  C   UNL A   1      41.157  28.437  27.688  1.00  0.00     0.173 A 
ATOM     65  F   UNL A   1      38.987  26.433  29.812  1.00  0.00    -0.203 F 
ATOM     66  C   UNL A   1      39.862  25.982  27.676  1.00  0.00     0.198 A 
ATOM     67  C   UNL A   1      41.259  27.598  26.581  1.00  0.00     0.198 A 
ATOM     68  F   UNL A   1      41.792  29.619  27.663  1.00  0.00    -0.203 F 
ATOM     69  F   UNL A   1      39.257  24.786  27.682  1.00  0.00    -0.200 F 
ATOM     70  C   UNL A   1      40.620  26.367  26.581  1.00  0.00     0.200 A 
ATOM     71  F   UNL A   1      41.973  27.983  25.515  1.00  0.00    -0.200 F 
ATOM     72  F   UNL A   1      40.737  25.551  25.524  1.00  0.00    -0.200 F 
ENDBRANCH  48  62
BRANCH  49  73
ATOM     73  C   UNL A   1      39.613  33.968  36.830  1.00  0.00     0.064 A 
ATOM     74  C   UNL A   1      40.266  35.208  36.897  1.00  0.00     0.173 A 
ATOM     75  C   UNL A   1      38.865  33.563  37.944  1.00  0.00     0.173 A 
ATOM     76  F   UNL A   1      40.997  35.639  35.859  1.00  0.00    -0.203 F 
ATOM     77  C   UNL A   1      40.191  35.998  38.041  1.00  0.00     0.198 A 
ATOM     78  C   UNL A   1      38.770  34.367  39.078  1.00  0.00     0.198 A 
ATOM     79  F   UNL A   1      38.207  32.395  37.920  1.00  0.00    -0.203 F 
ATOM     80  F   UNL A   1      40.853  37.162  38.093  1.00  0.00    -0.200 F 
ATOM     81  C   UNL A   1      39.440  35.580  39.129  1.00  0.00     0.200 A 
ATOM     82  F   UNL A   1      38.023  33.969  40.117  1.00  0.00    -0.200 F 
ATOM     83  F   UNL A   1      39.359  36.346  40.225  1.00  0.00    -0.200 F 
ENDBRANCH  49  73
BRANCH  61  84
ATOM     84  C   UNL A   1      43.925  28.777  35.020  1.00  0.00     0.064 A 
ATOM     85  C   UNL A   1      45.231  29.217  34.756  1.00  0.00     0.173 A 
ATOM     86  C   UNL A   1      43.762  27.665  35.858  1.00  0.00     0.173 A 
ATOM     87  F   UNL A   1      45.440  30.271  33.953  1.00  0.00    -0.203 F 
ATOM     88  C   UNL A   1      46.333  28.555  35.291  1.00  0.00     0.198 A 
ATOM     89  C   UNL A   1      44.866  27.022  36.415  1.00  0.00     0.198 A 
ATOM     90  F   UNL A   1      42.534  27.213  36.149  1.00  0.00    -0.203 F 
ATOM     91  F   UNL A   1      47.572  28.968  34.990  1.00  0.00    -0.200 F 
ATOM     92  C   UNL A   1      46.148  27.460  36.121  1.00  0.00     0.200 A 
ATOM     93  F   UNL A   1      44.686  25.978  37.235  1.00  0.00    -0.200 F 
ATOM     94  F   UNL A   1      47.209  26.826  36.639  1.00  0.00    -0.200 F 
ENDBRANCH  61  84
ENDBRANCH  35  36
ENDBRANCH  27  30
ENDBRANCH  25  26
ENDBRANCH  24  25
ENDBRANCH  23  24
ENDBRANCH   1  23
TORSDOF 15
ENDMDL
