MODEL 1
REMARK VINA RESULT:     -13.1      0.000      0.000
REMARK SMILES Cc1cc(C)c2c(c1)C=C(C(=O)NCCCCNC(=O)c1ccc(-c3c4nc(c(-c5c(F)c(F)c(F)c(F)c5F)c5ccc([nH]5)c(-c5c(F)c(F)c(F)c(F)c5F)c5nc(c(-c6c(F)c(F)c(F)c(F)c6F)c6ccc3[nH]6)C=C5)C=C4)cc1)[C@@H](C(F)(F)F)O2
REMARK SMILES IDX 16 1 15 2 14 3 13 4 11 5 12 6 10 8 1 9 2 10 3 11 8 12 4 13
REMARK SMILES IDX 7 14 5 15 6 16 9 17 89 18 84 19 85 20 86 21 87 22 88 23
REMARK SMILES IDX 17 24 18 25 19 26 20 28 21 29 22 30 83 31 23 32 82 33 24 34
REMARK SMILES IDX 25 35 26 36 76 37 27 38 81 39 75 40 77 41 28 42 80 43 74 44
REMARK SMILES IDX 73 45 29 47 61 48 41 49 60 50 42 51 45 52 59 53 78 54 43 55
REMARK SMILES IDX 44 56 58 58 79 59 46 60 30 61 31 62 39 63 32 64 33 65 37 66
REMARK SMILES IDX 40 67 34 68 35 69 38 70 36 71 62 72 63 73 71 74 64 75 65 76
REMARK SMILES IDX 69 77 72 78 66 79 67 80 70 81 68 82 47 83 48 84 56 85 49 86
REMARK SMILES IDX 50 87 54 88 57 89 51 90 52 91 55 92 53 93
REMARK H PARENT 13 7 18 27 77 46 45 57
REMARK Flexibility Score: inf
ROOT
ATOM      1  C   UNL A   1      31.480  32.107  26.686  1.00  0.00     0.023 C 
ENDROOT
BRANCH   1   2
ATOM      2  C   UNL A   1      31.677  30.602  26.488  1.00  0.00     0.023 C 
BRANCH   2   3
ATOM      3  C   UNL A   1      33.133  30.149  26.557  1.00  0.00     0.116 C 
BRANCH   3   4
ATOM      4  N   UNL A   1      33.619  29.691  25.267  1.00  0.00    -0.352 N 
ATOM      5  C   UNL A   1      33.625  28.530  24.569  1.00  0.00     0.251 C 
ATOM      6  O   UNL A   1      34.176  28.591  23.464  1.00  0.00    -0.270 OA
ATOM      7  H   UNL A   1      34.061  30.416  24.769  1.00  0.00     0.163 HD
BRANCH   5   8
ATOM      8  C   UNL A   1      33.037  27.239  25.032  1.00  0.00     0.067 C 
ATOM      9  C   UNL A   1      34.726  21.559  26.827  1.00  0.00     0.044 C 
ATOM     10  C   UNL A   1      33.801  22.717  26.590  1.00  0.00    -0.050 A 
ATOM     11  C   UNL A   1      32.424  22.563  26.801  1.00  0.00     0.010 A 
ATOM     12  C   UNL A   1      34.291  23.945  26.127  1.00  0.00     0.015 A 
ATOM     13  C   UNL A   1      31.538  23.624  26.573  1.00  0.00    -0.008 A 
ATOM     14  C   UNL A   1      33.419  25.012  25.889  1.00  0.00     0.018 A 
ATOM     15  C   UNL A   1      30.065  23.448  26.806  1.00  0.00     0.048 C 
ATOM     16  C   UNL A   1      32.050  24.842  26.109  1.00  0.00     0.130 A 
ATOM     17  C   UNL A   1      33.918  26.310  25.448  1.00  0.00     0.025 C 
ATOM     18  O   UNL A   1      31.160  25.864  25.927  1.00  0.00    -0.475 OA
ATOM     19  C   UNL A   1      31.570  26.919  25.016  1.00  0.00     0.314 C 
BRANCH  19  20
ATOM     20  C   UNL A   1      31.043  26.608  23.604  1.00  0.00     0.429 C 
ATOM     21  F   UNL A   1      30.696  27.755  22.966  1.00  0.00    -0.167 F 
ATOM     22  F   UNL A   1      31.975  26.009  22.824  1.00  0.00    -0.167 F 
ATOM     23  F   UNL A   1      29.959  25.803  23.609  1.00  0.00    -0.167 F 
ENDBRANCH  19  20
ENDBRANCH   5   8
ENDBRANCH   3   4
ENDBRANCH   2   3
ENDBRANCH   1   2
BRANCH   1  24
ATOM     24  C   UNL A   1      32.666  32.848  27.303  1.00  0.00     0.116 C 
BRANCH  24  25
ATOM     25  N   UNL A   1      32.382  34.235  27.644  1.00  0.00    -0.352 N 
ATOM     26  C   UNL A   1      33.009  35.019  28.582  1.00  0.00     0.251 C 
ATOM     27  H   UNL A   1      31.652  34.663  27.141  1.00  0.00     0.163 HD
ATOM     28  O   UNL A   1      32.613  36.155  28.821  1.00  0.00    -0.269 OA
BRANCH  26  29
ATOM     29  C   UNL A   1      34.144  34.454  29.335  1.00  0.00     0.039 A 
ATOM     30  C   UNL A   1      33.885  33.756  30.518  1.00  0.00     0.014 A 
ATOM     31  C   UNL A   1      35.444  34.563  28.839  1.00  0.00     0.014 A 
ATOM     32  C   UNL A   1      34.929  33.096  31.166  1.00  0.00     0.010 A 
ATOM     33  C   UNL A   1      36.473  33.860  29.455  1.00  0.00     0.010 A 
ATOM     34  C   UNL A   1      36.221  33.112  30.616  1.00  0.00    -0.014 A 
BRANCH  34  35
ATOM     35  C   UNL A   1      37.332  32.350  31.231  1.00  0.00     0.031 A 
ATOM     36  C   UNL A   1      37.827  32.725  32.596  1.00  0.00     0.074 A 
ATOM     37  C   UNL A   1      37.943  31.378  30.527  1.00  0.00     0.049 A 
ATOM     38  N   UNL A   1      38.870  32.282  33.250  1.00  0.00    -0.248 NA
ATOM     39  C   UNL A   1      37.057  33.754  33.313  1.00  0.00     0.031 C 
ATOM     40  C   UNL A   1      37.563  30.940  29.184  1.00  0.00     0.029 A 
ATOM     41  N   UNL A   1      39.024  30.593  30.840  1.00  0.00    -0.354 N 
ATOM     42  C   UNL A   1      38.890  32.987  34.444  1.00  0.00     0.074 A 
ATOM     43  C   UNL A   1      37.781  33.915  34.411  1.00  0.00     0.031 C 
ATOM     44  C   UNL A   1      38.387  29.953  28.794  1.00  0.00     0.029 A 
ATOM     45  C   UNL A   1      39.375  29.719  29.842  1.00  0.00     0.049 A 
ATOM     46  H   UNL A   1      39.502  30.651  31.700  1.00  0.00     0.167 HD
ATOM     47  C   UNL A   1      39.749  32.858  35.483  1.00  0.00     0.037 A 
ATOM     48  C   UNL A   1      40.389  28.834  29.779  1.00  0.00     0.037 A 
ATOM     49  C   UNL A   1      40.841  31.921  35.518  1.00  0.00     0.049 A 
ATOM     50  C   UNL A   1      41.333  28.715  30.943  1.00  0.00     0.074 A 
ATOM     51  C   UNL A   1      41.763  31.707  36.528  1.00  0.00     0.029 A 
ATOM     52  N   UNL A   1      41.152  31.035  34.497  1.00  0.00    -0.354 N 
ATOM     53  N   UNL A   1      41.342  29.382  32.071  1.00  0.00    -0.248 NA
ATOM     54  C   UNL A   1      42.409  27.721  30.825  1.00  0.00     0.031 C 
ATOM     55  C   UNL A   1      42.647  30.707  36.107  1.00  0.00     0.029 A 
ATOM     56  C   UNL A   1      42.252  30.271  34.853  1.00  0.00     0.049 A 
ATOM     57  H   UNL A   1      40.664  30.960  33.646  1.00  0.00     0.167 HD
ATOM     58  C   UNL A   1      42.401  28.872  32.808  1.00  0.00     0.074 A 
ATOM     59  C   UNL A   1      43.007  27.832  32.002  1.00  0.00     0.031 C 
ATOM     60  C   UNL A   1      42.831  29.231  34.042  1.00  0.00     0.037 A 
BRANCH  47  61
ATOM     61  C   UNL A   1      39.536  33.747  36.671  1.00  0.00     0.064 A 
ATOM     62  C   UNL A   1      38.779  33.322  37.773  1.00  0.00     0.173 A 
ATOM     63  C   UNL A   1      40.123  35.020  36.726  1.00  0.00     0.173 A 
ATOM     64  F   UNL A   1      38.184  32.121  37.760  1.00  0.00    -0.203 F 
ATOM     65  C   UNL A   1      38.603  34.148  38.880  1.00  0.00     0.198 A 
ATOM     66  C   UNL A   1      39.966  35.832  37.846  1.00  0.00     0.198 A 
ATOM     67  F   UNL A   1      40.856  35.472  35.699  1.00  0.00    -0.203 F 
ATOM     68  F   UNL A   1      37.842  33.738  39.905  1.00  0.00    -0.200 F 
ATOM     69  C   UNL A   1      39.202  35.398  38.920  1.00  0.00     0.200 A 
ATOM     70  F   UNL A   1      40.554  37.036  37.888  1.00  0.00    -0.200 F 
ATOM     71  F   UNL A   1      39.038  36.187  39.990  1.00  0.00    -0.200 F 
ENDBRANCH  47  61
BRANCH  48  72
ATOM     72  C   UNL A   1      40.536  27.965  28.584  1.00  0.00     0.064 A 
ATOM     73  C   UNL A   1      39.902  26.718  28.526  1.00  0.00     0.173 A 
ATOM     74  C   UNL A   1      41.293  28.367  27.474  1.00  0.00     0.173 A 
ATOM     75  F   UNL A   1      39.184  26.283  29.572  1.00  0.00    -0.203 F 
ATOM     76  C   UNL A   1      40.026  25.898  27.407  1.00  0.00     0.198 A 
ATOM     77  C   UNL A   1      41.398  27.557  26.345  1.00  0.00     0.198 A 
ATOM     78  F   UNL A   1      41.916  29.555  27.479  1.00  0.00    -0.203 F 
ATOM     79  F   UNL A   1      39.435  24.696  27.391  1.00  0.00    -0.200 F 
ATOM     80  C   UNL A   1      40.769  26.321  26.314  1.00  0.00     0.200 A 
ATOM     81  F   UNL A   1      42.106  27.974  25.286  1.00  0.00    -0.200 F 
ATOM     82  F   UNL A   1      40.881  25.535  25.234  1.00  0.00    -0.200 F 
ENDBRANCH  48  72
BRANCH  60  83
ATOM     83  C   UNL A   1      43.989  28.470  34.616  1.00  0.00     0.064 A 
ATOM     84  C   UNL A   1      45.310  28.911  34.457  1.00  0.00     0.173 A 
ATOM     85  C   UNL A   1      43.766  27.311  35.375  1.00  0.00     0.173 A 
ATOM     86  F   UNL A   1      45.574  30.005  33.728  1.00  0.00    -0.203 F 
ATOM     87  C   UNL A   1      46.370  28.206  35.022  1.00  0.00     0.198 A 
ATOM     88  C   UNL A   1      44.825  26.625  35.959  1.00  0.00     0.198 A 
ATOM     89  F   UNL A   1      42.518  26.855  35.560  1.00  0.00    -0.203 F 
ATOM     90  F   UNL A   1      47.629  28.622  34.825  1.00  0.00    -0.200 F 
ATOM     91  C   UNL A   1      46.127  27.069  35.778  1.00  0.00     0.200 A 
ATOM     92  F   UNL A   1      44.588  25.533  36.700  1.00  0.00    -0.200 F 
ATOM     93  F   UNL A   1      47.147  26.397  36.327  1.00  0.00    -0.200 F 
ENDBRANCH  60  83
ENDBRANCH  34  35
ENDBRANCH  26  29
ENDBRANCH  24  25
ENDBRANCH   1  24
TORSDOF 12
ENDMDL
MODEL 2
REMARK VINA RESULT:     -13.1      0.282      1.659
REMARK SMILES Cc1cc(C)c2c(c1)C=C(C(=O)NCCCCNC(=O)c1ccc(-c3c4nc(c(-c5c(F)c(F)c(F)c(F)c5F)c5ccc([nH]5)c(-c5c(F)c(F)c(F)c(F)c5F)c5nc(c(-c6c(F)c(F)c(F)c(F)c6F)c6ccc3[nH]6)C=C5)C=C4)cc1)[C@@H](C(F)(F)F)O2
REMARK SMILES IDX 16 1 15 2 14 3 13 4 11 5 12 6 10 8 1 9 2 10 3 11 8 12 4 13
REMARK SMILES IDX 7 14 5 15 6 16 9 17 89 18 84 19 85 20 86 21 87 22 88 23
REMARK SMILES IDX 17 24 18 25 19 26 20 28 21 29 22 30 83 31 23 32 82 33 24 34
REMARK SMILES IDX 25 35 26 36 76 37 27 38 81 39 75 40 77 41 28 42 80 43 74 44
REMARK SMILES IDX 73 45 29 47 61 48 41 49 60 50 42 51 45 52 59 53 78 54 43 55
REMARK SMILES IDX 44 56 58 58 79 59 46 60 30 61 31 62 39 63 32 64 33 65 37 66
REMARK SMILES IDX 40 67 34 68 35 69 38 70 36 71 62 72 63 73 71 74 64 75 65 76
REMARK SMILES IDX 69 77 72 78 66 79 67 80 70 81 68 82 47 83 48 84 56 85 49 86
REMARK SMILES IDX 50 87 54 88 57 89 51 90 52 91 55 92 53 93
REMARK H PARENT 13 7 18 27 77 46 45 57
REMARK Flexibility Score: inf
ROOT
ATOM      1  C   UNL A   1      31.540  32.053  26.815  1.00  0.00     0.023 C 
ENDROOT
BRANCH   1   2
ATOM      2  C   UNL A   1      31.777  30.542  26.747  1.00  0.00     0.023 C 
BRANCH   2   3
ATOM      3  C   UNL A   1      33.177  30.151  26.284  1.00  0.00     0.116 C 
BRANCH   3   4
ATOM      4  N   UNL A   1      33.201  29.787  24.878  1.00  0.00    -0.352 N 
ATOM      5  C   UNL A   1      32.980  28.671  24.142  1.00  0.00     0.251 C 
ATOM      6  O   UNL A   1      33.122  28.816  22.923  1.00  0.00    -0.270 OA
ATOM      7  H   UNL A   1      33.440  30.554  24.310  1.00  0.00     0.163 HD
BRANCH   5   8
ATOM      8  C   UNL A   1      32.595  27.337  24.688  1.00  0.00     0.067 C 
ATOM      9  C   UNL A   1      35.116  21.980  26.500  1.00  0.00     0.044 C 
ATOM     10  C   UNL A   1      34.038  23.006  26.307  1.00  0.00    -0.050 A 
ATOM     11  C   UNL A   1      32.712  22.692  26.635  1.00  0.00     0.010 A 
ATOM     12  C   UNL A   1      34.333  24.266  25.771  1.00  0.00     0.015 A 
ATOM     13  C   UNL A   1      31.684  23.627  26.450  1.00  0.00    -0.008 A 
ATOM     14  C   UNL A   1      33.319  25.208  25.574  1.00  0.00     0.018 A 
ATOM     15  C   UNL A   1      30.268  23.282  26.808  1.00  0.00     0.048 C 
ATOM     16  C   UNL A   1      32.003  24.880  25.912  1.00  0.00     0.130 A 
ATOM     17  C   UNL A   1      33.616  26.539  25.057  1.00  0.00     0.025 C 
ATOM     18  O   UNL A   1      30.980  25.778  25.773  1.00  0.00    -0.475 OA
ATOM     19  C   UNL A   1      31.183  26.839  24.803  1.00  0.00     0.314 C 
BRANCH  19  20
ATOM     20  C   UNL A   1      30.591  26.412  23.448  1.00  0.00     0.429 C 
ATOM     21  F   UNL A   1      31.571  25.952  22.627  1.00  0.00    -0.167 F 
ATOM     22  F   UNL A   1      29.695  25.403  23.569  1.00  0.00    -0.167 F 
ATOM     23  F   UNL A   1      29.963  27.419  22.803  1.00  0.00    -0.167 F 
ENDBRANCH  19  20
ENDBRANCH   5   8
ENDBRANCH   3   4
ENDBRANCH   2   3
ENDBRANCH   1   2
BRANCH   1  24
ATOM     24  C   UNL A   1      32.750  32.889  27.228  1.00  0.00     0.116 C 
BRANCH  24  25
ATOM     25  N   UNL A   1      32.419  34.247  27.635  1.00  0.00    -0.352 N 
ATOM     26  C   UNL A   1      33.005  35.000  28.623  1.00  0.00     0.251 C 
ATOM     27  H   UNL A   1      31.685  34.679  27.141  1.00  0.00     0.163 HD
ATOM     28  O   UNL A   1      32.571  36.110  28.913  1.00  0.00    -0.269 OA
BRANCH  26  29
ATOM     29  C   UNL A   1      34.144  34.430  29.367  1.00  0.00     0.039 A 
ATOM     30  C   UNL A   1      33.887  33.673  30.513  1.00  0.00     0.014 A 
ATOM     31  C   UNL A   1      35.448  34.595  28.896  1.00  0.00     0.014 A 
ATOM     32  C   UNL A   1      34.939  33.011  31.146  1.00  0.00     0.010 A 
ATOM     33  C   UNL A   1      36.486  33.892  29.495  1.00  0.00     0.010 A 
ATOM     34  C   UNL A   1      36.237  33.085  30.618  1.00  0.00    -0.014 A 
BRANCH  34  35
ATOM     35  C   UNL A   1      37.360  32.325  31.214  1.00  0.00     0.031 A 
ATOM     36  C   UNL A   1      37.877  32.702  32.569  1.00  0.00     0.074 A 
ATOM     37  C   UNL A   1      37.959  31.353  30.500  1.00  0.00     0.049 A 
ATOM     38  N   UNL A   1      38.932  32.260  33.206  1.00  0.00    -0.248 NA
ATOM     39  C   UNL A   1      37.120  33.731  33.298  1.00  0.00     0.031 C 
ATOM     40  C   UNL A   1      37.556  30.913  29.165  1.00  0.00     0.029 A 
ATOM     41  N   UNL A   1      39.046  30.569  30.796  1.00  0.00    -0.354 N 
ATOM     42  C   UNL A   1      38.973  32.967  34.399  1.00  0.00     0.074 A 
ATOM     43  C   UNL A   1      37.862  33.895  34.383  1.00  0.00     0.031 C 
ATOM     44  C   UNL A   1      38.374  29.926  28.762  1.00  0.00     0.029 A 
ATOM     45  C   UNL A   1      39.380  29.693  29.793  1.00  0.00     0.049 A 
ATOM     46  H   UNL A   1      39.538  30.628  31.647  1.00  0.00     0.167 HD
ATOM     47  C   UNL A   1      39.850  32.839  35.423  1.00  0.00     0.037 A 
ATOM     48  C   UNL A   1      40.393  28.809  29.714  1.00  0.00     0.037 A 
ATOM     49  C   UNL A   1      40.942  31.904  35.440  1.00  0.00     0.049 A 
ATOM     50  C   UNL A   1      41.358  28.693  30.861  1.00  0.00     0.074 A 
ATOM     51  C   UNL A   1      41.882  31.691  36.434  1.00  0.00     0.029 A 
ATOM     52  N   UNL A   1      41.237  31.016  34.415  1.00  0.00    -0.354 N 
ATOM     53  N   UNL A   1      41.385  29.360  31.988  1.00  0.00    -0.248 NA
ATOM     54  C   UNL A   1      42.432  27.699  30.726  1.00  0.00     0.031 C 
ATOM     55  C   UNL A   1      42.760  30.692  36.000  1.00  0.00     0.029 A 
ATOM     56  C   UNL A   1      42.343  30.254  34.753  1.00  0.00     0.049 A 
ATOM     57  H   UNL A   1      40.734  30.940  33.572  1.00  0.00     0.167 HD
ATOM     58  C   UNL A   1      42.457  28.852  32.707  1.00  0.00     0.074 A 
ATOM     59  C   UNL A   1      43.050  27.812  31.892  1.00  0.00     0.031 C 
ATOM     60  C   UNL A   1      42.909  29.213  33.933  1.00  0.00     0.037 A 
BRANCH  47  61
ATOM     61  C   UNL A   1      39.656  33.730  36.613  1.00  0.00     0.064 A 
ATOM     62  C   UNL A   1      40.241  35.002  36.675  1.00  0.00     0.173 A 
ATOM     63  C   UNL A   1      38.847  33.324  37.686  1.00  0.00     0.173 A 
ATOM     64  F   UNL A   1      41.036  35.428  35.682  1.00  0.00    -0.203 F 
ATOM     65  C   UNL A   1      40.039  35.830  37.776  1.00  0.00     0.198 A 
ATOM     66  C   UNL A   1      38.626  34.165  38.772  1.00  0.00     0.198 A 
ATOM     67  F   UNL A   1      38.264  32.117  37.674  1.00  0.00    -0.203 F 
ATOM     68  F   UNL A   1      40.642  37.026  37.832  1.00  0.00    -0.200 F 
ATOM     69  C   UNL A   1      39.226  35.415  38.820  1.00  0.00     0.200 A 
ATOM     70  F   UNL A   1      37.832  33.767  39.776  1.00  0.00    -0.200 F 
ATOM     71  F   UNL A   1      39.026  36.217  39.874  1.00  0.00    -0.200 F 
ENDBRANCH  47  61
BRANCH  48  72
ATOM     72  C   UNL A   1      40.521  27.939  28.517  1.00  0.00     0.064 A 
ATOM     73  C   UNL A   1      41.274  28.353  27.411  1.00  0.00     0.173 A 
ATOM     74  C   UNL A   1      39.913  26.677  28.459  1.00  0.00     0.173 A 
ATOM     75  F   UNL A   1      41.856  29.561  27.414  1.00  0.00    -0.203 F 
ATOM     76  C   UNL A   1      41.407  27.543  26.286  1.00  0.00     0.198 A 
ATOM     77  C   UNL A   1      40.065  25.857  27.343  1.00  0.00     0.198 A 
ATOM     78  F   UNL A   1      39.185  26.233  29.494  1.00  0.00    -0.203 F 
ATOM     79  F   UNL A   1      42.107  27.977  25.230  1.00  0.00    -0.200 F 
ATOM     80  C   UNL A   1      40.808  26.292  26.256  1.00  0.00     0.200 A 
ATOM     81  F   UNL A   1      39.496  24.644  27.322  1.00  0.00    -0.200 F 
ATOM     82  F   UNL A   1      40.945  25.509  25.177  1.00  0.00    -0.200 F 
ENDBRANCH  48  72
BRANCH  60  83
ATOM     83  C   UNL A   1      44.077  28.453  34.488  1.00  0.00     0.064 A 
ATOM     84  C   UNL A   1      45.394  28.896  34.306  1.00  0.00     0.173 A 
ATOM     85  C   UNL A   1      43.867  27.295  35.251  1.00  0.00     0.173 A 
ATOM     86  F   UNL A   1      45.645  29.990  33.573  1.00  0.00    -0.203 F 
ATOM     87  C   UNL A   1      46.465  28.193  34.854  1.00  0.00     0.198 A 
ATOM     88  C   UNL A   1      44.937  26.610  35.818  1.00  0.00     0.198 A 
ATOM     89  F   UNL A   1      42.624  26.837  35.458  1.00  0.00    -0.203 F 
ATOM     90  F   UNL A   1      47.720  28.609  34.636  1.00  0.00    -0.200 F 
ATOM     91  C   UNL A   1      46.235  27.056  35.614  1.00  0.00     0.200 A 
ATOM     92  F   UNL A   1      44.714  25.518  36.563  1.00  0.00    -0.200 F 
ATOM     93  F   UNL A   1      47.266  26.385  36.147  1.00  0.00    -0.200 F 
ENDBRANCH  60  83
ENDBRANCH  34  35
ENDBRANCH  26  29
ENDBRANCH  24  25
ENDBRANCH   1  24
TORSDOF 12
ENDMDL
MODEL 3
REMARK VINA RESULT:     -13.1      0.572      7.420
REMARK SMILES Cc1cc(C)c2c(c1)C=C(C(=O)NCCCCNC(=O)c1ccc(-c3c4nc(c(-c5c(F)c(F)c(F)c(F)c5F)c5ccc([nH]5)c(-c5c(F)c(F)c(F)c(F)c5F)c5nc(c(-c6c(F)c(F)c(F)c(F)c6F)c6ccc3[nH]6)C=C5)C=C4)cc1)[C@@H](C(F)(F)F)O2
REMARK SMILES IDX 16 1 15 2 14 3 13 4 11 5 12 6 10 8 1 9 2 10 3 11 8 12 4 13
REMARK SMILES IDX 7 14 5 15 6 16 9 17 89 18 84 19 85 20 86 21 87 22 88 23
REMARK SMILES IDX 17 24 18 25 19 26 20 28 21 29 22 30 83 31 23 32 82 33 24 34
REMARK SMILES IDX 25 35 26 36 76 37 27 38 81 39 75 40 77 41 28 42 80 43 74 44
REMARK SMILES IDX 73 45 29 47 61 48 41 49 60 50 42 51 45 52 59 53 78 54 43 55
REMARK SMILES IDX 44 56 58 58 79 59 46 60 30 61 31 62 39 63 32 64 33 65 37 66
REMARK SMILES IDX 40 67 34 68 35 69 38 70 36 71 62 72 63 73 71 74 64 75 65 76
REMARK SMILES IDX 69 77 72 78 66 79 67 80 70 81 68 82 47 83 48 84 56 85 49 86
REMARK SMILES IDX 50 87 54 88 57 89 51 90 52 91 55 92 53 93
REMARK H PARENT 13 7 18 27 77 46 45 57
REMARK Flexibility Score: inf
ROOT
ATOM      1  C   UNL A   1      31.763  31.752  26.769  1.00  0.00     0.023 C 
ENDROOT
BRANCH   1   2
ATOM      2  C   UNL A   1      31.963  30.243  26.932  1.00  0.00     0.023 C 
BRANCH   2   3
ATOM      3  C   UNL A   1      33.421  29.796  26.863  1.00  0.00     0.116 C 
BRANCH   3   4
ATOM      4  N   UNL A   1      33.824  29.470  25.507  1.00  0.00    -0.352 N 
ATOM      5  C   UNL A   1      33.751  28.395  24.685  1.00  0.00     0.251 C 
ATOM      6  O   UNL A   1      34.247  28.561  23.565  1.00  0.00    -0.270 OA
ATOM      7  H   UNL A   1      34.266  30.232  25.068  1.00  0.00     0.163 HD
BRANCH   5   8
ATOM      8  C   UNL A   1      33.138  27.079  25.034  1.00  0.00     0.067 C 
ATOM      9  C   UNL A   1      34.367  21.013  24.873  1.00  0.00     0.044 C 
ATOM     10  C   UNL A   1      33.615  22.263  25.224  1.00  0.00    -0.050 A 
ATOM     11  C   UNL A   1      32.369  22.170  25.859  1.00  0.00     0.010 A 
ATOM     12  C   UNL A   1      34.125  23.525  24.896  1.00  0.00     0.015 A 
ATOM     13  C   UNL A   1      31.639  23.321  26.185  1.00  0.00    -0.008 A 
ATOM     14  C   UNL A   1      33.407  24.684  25.208  1.00  0.00     0.018 A 
ATOM     15  C   UNL A   1      30.306  23.210  26.868  1.00  0.00     0.048 C 
ATOM     16  C   UNL A   1      32.168  24.573  25.845  1.00  0.00     0.130 A 
ATOM     17  C   UNL A   1      33.944  26.007  24.911  1.00  0.00     0.025 C 
ATOM     18  O   UNL A   1      31.443  25.676  26.205  1.00  0.00    -0.475 OA
ATOM     19  C   UNL A   1      31.710  26.892  25.458  1.00  0.00     0.314 C 
BRANCH  19  20
ATOM     20  C   UNL A   1      30.722  26.996  24.282  1.00  0.00     0.429 C 
ATOM     21  F   UNL A   1      30.413  28.296  24.038  1.00  0.00    -0.167 F 
ATOM     22  F   UNL A   1      31.236  26.506  23.129  1.00  0.00    -0.167 F 
ATOM     23  F   UNL A   1      29.563  26.340  24.505  1.00  0.00    -0.167 F 
ENDBRANCH  19  20
ENDBRANCH   5   8
ENDBRANCH   3   4
ENDBRANCH   2   3
ENDBRANCH   1   2
BRANCH   1  24
ATOM     24  C   UNL A   1      32.865  32.628  27.364  1.00  0.00     0.116 C 
BRANCH  24  25
ATOM     25  N   UNL A   1      32.444  33.991  27.655  1.00  0.00    -0.352 N 
ATOM     26  C   UNL A   1      32.986  34.867  28.563  1.00  0.00     0.251 C 
ATOM     27  H   UNL A   1      31.677  34.325  27.136  1.00  0.00     0.163 HD
ATOM     28  O   UNL A   1      32.479  35.966  28.760  1.00  0.00    -0.269 OA
BRANCH  26  29
ATOM     29  C   UNL A   1      34.169  34.445  29.336  1.00  0.00     0.039 A 
ATOM     30  C   UNL A   1      33.977  33.816  30.568  1.00  0.00     0.014 A 
ATOM     31  C   UNL A   1      35.453  34.618  28.813  1.00  0.00     0.014 A 
ATOM     32  C   UNL A   1      35.075  33.285  31.245  1.00  0.00     0.010 A 
ATOM     33  C   UNL A   1      36.539  34.041  29.461  1.00  0.00     0.010 A 
ATOM     34  C   UNL A   1      36.357  33.361  30.676  1.00  0.00    -0.014 A 
BRANCH  34  35
ATOM     35  C   UNL A   1      37.529  32.731  31.325  1.00  0.00     0.031 A 
ATOM     36  C   UNL A   1      38.242  31.603  30.643  1.00  0.00     0.074 A 
ATOM     37  C   UNL A   1      37.898  33.124  32.560  1.00  0.00     0.049 A 
ATOM     38  N   UNL A   1      39.194  30.828  31.097  1.00  0.00    -0.248 NA
ATOM     39  C   UNL A   1      37.809  31.287  29.272  1.00  0.00     0.031 C 
ATOM     40  C   UNL A   1      37.268  34.197  33.329  1.00  0.00     0.029 A 
ATOM     41  N   UNL A   1      38.885  32.654  33.389  1.00  0.00    -0.354 N 
ATOM     42  C   UNL A   1      39.463  29.927  30.077  1.00  0.00     0.074 A 
ATOM     43  C   UNL A   1      38.548  30.223  28.995  1.00  0.00     0.031 C 
ATOM     44  C   UNL A   1      37.893  34.314  34.513  1.00  0.00     0.029 A 
ATOM     45  C   UNL A   1      38.940  33.300  34.599  1.00  0.00     0.049 A 
ATOM     46  H   UNL A   1      39.496  31.923  33.140  1.00  0.00     0.167 HD
ATOM     47  C   UNL A   1      40.402  28.952  30.042  1.00  0.00     0.037 A 
ATOM     48  C   UNL A   1      39.741  33.090  35.661  1.00  0.00     0.037 A 
ATOM     49  C   UNL A   1      41.320  28.673  31.114  1.00  0.00     0.049 A 
ATOM     50  C   UNL A   1      40.770  31.995  35.599  1.00  0.00     0.074 A 
ATOM     51  C   UNL A   1      42.314  27.713  31.172  1.00  0.00     0.029 A 
ATOM     52  N   UNL A   1      41.361  29.365  32.316  1.00  0.00    -0.354 N 
ATOM     53  N   UNL A   1      41.021  31.152  34.628  1.00  0.00    -0.248 NA
ATOM     54  C   UNL A   1      41.627  31.824  36.780  1.00  0.00     0.031 C 
ATOM     55  C   UNL A   1      42.940  27.807  32.420  1.00  0.00     0.029 A 
ATOM     56  C   UNL A   1      42.363  28.853  33.123  1.00  0.00     0.049 A 
ATOM     57  H   UNL A   1      40.765  30.110  32.560  1.00  0.00     0.167 HD
ATOM     58  C   UNL A   1      42.080  30.369  35.067  1.00  0.00     0.074 A 
ATOM     59  C   UNL A   1      42.430  30.845  36.389  1.00  0.00     0.031 C 
ATOM     60  C   UNL A   1      42.706  29.350  34.430  1.00  0.00     0.037 A 
BRANCH  47  61
ATOM     61  C   UNL A   1      40.486  28.120  28.798  1.00  0.00     0.064 A 
ATOM     62  C   UNL A   1      41.281  28.511  27.711  1.00  0.00     0.173 A 
ATOM     63  C   UNL A   1      39.797  26.901  28.705  1.00  0.00     0.173 A 
ATOM     64  F   UNL A   1      41.945  29.676  27.746  1.00  0.00    -0.203 F 
ATOM     65  C   UNL A   1      41.369  27.722  26.568  1.00  0.00     0.198 A 
ATOM     66  C   UNL A   1      39.909  26.102  27.570  1.00  0.00     0.198 A 
ATOM     67  F   UNL A   1      39.025  26.482  29.717  1.00  0.00    -0.203 F 
ATOM     68  F   UNL A   1      42.103  28.136  25.525  1.00  0.00    -0.200 F 
ATOM     69  C   UNL A   1      40.690  26.514  26.501  1.00  0.00     0.200 A 
ATOM     70  F   UNL A   1      39.260  24.930  27.511  1.00  0.00    -0.200 F 
ATOM     71  F   UNL A   1      40.783  25.752  25.403  1.00  0.00    -0.200 F 
ENDBRANCH  47  61
BRANCH  48  72
ATOM     72  C   UNL A   1      39.623  33.962  36.857  1.00  0.00     0.064 A 
ATOM     73  C   UNL A   1      40.292  35.191  36.913  1.00  0.00     0.173 A 
ATOM     74  C   UNL A   1      38.832  33.597  37.956  1.00  0.00     0.173 A 
ATOM     75  F   UNL A   1      41.077  35.572  35.894  1.00  0.00    -0.203 F 
ATOM     76  C   UNL A   1      40.184  36.021  38.026  1.00  0.00     0.198 A 
ATOM     77  C   UNL A   1      38.705  34.438  39.060  1.00  0.00     0.198 A 
ATOM     78  F   UNL A   1      38.168  32.432  37.949  1.00  0.00    -0.203 F 
ATOM     79  F   UNL A   1      40.860  37.177  38.066  1.00  0.00    -0.200 F 
ATOM     80  C   UNL A   1      39.384  35.646  39.096  1.00  0.00     0.200 A 
ATOM     81  F   UNL A   1      37.922  34.079  40.086  1.00  0.00    -0.200 F 
ATOM     82  F   UNL A   1      39.273  36.450  40.163  1.00  0.00    -0.200 F 
ENDBRANCH  48  72
BRANCH  60  83
ATOM     83  C   UNL A   1      43.861  28.704  35.137  1.00  0.00     0.064 A 
ATOM     84  C   UNL A   1      45.170  29.182  34.992  1.00  0.00     0.173 A 
ATOM     85  C   UNL A   1      43.642  27.624  36.005  1.00  0.00     0.173 A 
ATOM     86  F   UNL A   1      45.430  30.203  34.162  1.00  0.00    -0.203 F 
ATOM     87  C   UNL A   1      46.226  28.588  35.679  1.00  0.00     0.198 A 
ATOM     88  C   UNL A   1      44.696  27.050  36.710  1.00  0.00     0.198 A 
ATOM     89  F   UNL A   1      42.405  27.137  36.181  1.00  0.00    -0.203 F 
ATOM     90  F   UNL A   1      47.477  29.033  35.498  1.00  0.00    -0.200 F 
ATOM     91  C   UNL A   1      45.987  27.528  36.542  1.00  0.00     0.200 A 
ATOM     92  F   UNL A   1      44.462  26.034  37.552  1.00  0.00    -0.200 F 
ATOM     93  F   UNL A   1      47.003  26.963  37.208  1.00  0.00    -0.200 F 
ENDBRANCH  60  83
ENDBRANCH  34  35
ENDBRANCH  26  29
ENDBRANCH  24  25
ENDBRANCH   1  24
TORSDOF 12
ENDMDL
