MODEL 1
REMARK VINA RESULT:     -13.3      0.000      0.000
REMARK SMILES COc1ccc(-c2ccc3n(c2=O)C[C@H]2C[C@@H]3CN(C(=O)CCCC(=O)NCCCCNC(=O)c3ccc(-c4c5nc(c(-c6c(F)c(F)c(F)c(F)c6F)c6ccc([nH]6)c(-c6c(F)c(F)c(F)c(F)c6F)c6nc(c(-c7c(F)c(F)c(F)c(F)c7F)c7ccc4[nH]7)C=C6)C=C5)cc3)C2)cc1
REMARK SMILES IDX 25 1 26 2 27 3 24 5 23 6 22 7 20 8 21 9 19 10 7 11 8 12
REMARK SMILES IDX 12 13 9 14 11 15 13 16 10 17 14 18 17 19 15 20 16 21 18 22
REMARK SMILES IDX 98 23 6 24 3 25 4 26 100 27 5 28 99 29 2 30 1 31 28 32 29 33
REMARK SMILES IDX 30 34 31 35 32 36 33 37 34 39 35 40 36 41 97 42 37 43 96 44
REMARK SMILES IDX 38 45 39 46 40 47 90 48 41 49 95 50 89 51 91 52 42 53 94 54
REMARK SMILES IDX 88 55 87 56 43 58 75 59 55 60 74 61 56 62 59 63 73 64 92 65
REMARK SMILES IDX 57 66 58 67 72 69 93 70 60 71 44 72 45 73 53 74 46 75 47 76
REMARK SMILES IDX 51 77 54 78 48 79 49 80 52 81 50 82 76 83 77 84 85 85 78 86
REMARK SMILES IDX 79 87 83 88 86 89 80 90 81 91 84 92 82 93 61 94 62 95 70 96
REMARK SMILES IDX 63 97 64 98 68 99 71 100 65 101 66 102 69 103 67 104
REMARK H PARENT 27 4 32 38 91 57 59 68
REMARK Flexibility Score: inf
ROOT
ATOM      1  C   UNL A   1      33.792  28.425  24.186  1.00  0.00     0.220 C 
ATOM      2  O   UNL A   1      33.707  28.945  23.067  1.00  0.00    -0.275 OA
ATOM      3  N   UNL A   1      33.924  29.291  25.220  1.00  0.00    -0.356 N 
ATOM      4  H   UNL A   1      34.109  30.214  24.934  1.00  0.00     0.163 HD
ENDROOT
BRANCH   1   5
ATOM      5  C   UNL A   1      33.665  26.909  24.317  1.00  0.00     0.100 C 
BRANCH   5   6
ATOM      6  C   UNL A   1      33.667  26.028  23.071  1.00  0.00     0.020 C 
BRANCH   6   7
ATOM      7  C   UNL A   1      34.177  24.589  23.115  1.00  0.00     0.101 C 
BRANCH   7   8
ATOM      8  C   UNL A   1      34.735  23.985  24.405  1.00  0.00     0.222 C 
ATOM      9  O   UNL A   1      35.810  24.432  24.823  1.00  0.00    -0.275 OA
BRANCH   8  10
ATOM     10  N   UNL A   1      33.990  23.095  25.170  1.00  0.00    -0.342 N 
ATOM     11  C   UNL A   1      30.091  25.983  23.865  1.00  0.00     0.047 A 
ATOM     12  C   UNL A   1      30.132  24.976  22.977  1.00  0.00     0.016 A 
ATOM     13  C   UNL A   1      30.631  25.751  25.249  1.00  0.00     0.258 A 
ATOM     14  C   UNL A   1      30.654  23.688  23.332  1.00  0.00     0.023 A 
ATOM     15  N   UNL A   1      31.123  24.466  25.521  1.00  0.00    -0.311 N 
ATOM     16  O   UNL A   1      30.616  26.650  26.089  1.00  0.00    -0.269 OA
ATOM     17  C   UNL A   1      31.123  23.447  24.566  1.00  0.00     0.026 A 
ATOM     18  C   UNL A   1      31.573  24.227  26.891  1.00  0.00     0.131 C 
ATOM     19  C   UNL A   1      31.727  22.095  24.906  1.00  0.00     0.056 C 
ATOM     20  C   UNL A   1      32.378  22.943  27.113  1.00  0.00     0.029 C 
ATOM     21  C   UNL A   1      31.658  21.806  26.406  1.00  0.00     0.019 C 
ATOM     22  C   UNL A   1      33.202  22.079  24.465  1.00  0.00     0.129 C 
ATOM     23  C   UNL A   1      33.837  23.050  26.621  1.00  0.00     0.125 C 
BRANCH  11  24
ATOM     24  C   UNL A   1      29.480  27.268  23.489  1.00  0.00    -0.013 A 
ATOM     25  C   UNL A   1      28.343  29.688  22.645  1.00  0.00     0.118 A 
ATOM     26  C   UNL A   1      27.530  28.665  23.133  1.00  0.00     0.047 A 
ATOM     27  C   UNL A   1      29.728  29.526  22.625  1.00  0.00     0.047 A 
ATOM     28  C   UNL A   1      28.094  27.454  23.543  1.00  0.00     0.013 A 
ATOM     29  C   UNL A   1      30.292  28.320  23.040  1.00  0.00     0.013 A 
BRANCH  25  30
ATOM     30  O   UNL A   1      27.708  30.830  22.239  1.00  0.00    -0.497 OA
ATOM     31  C   UNL A   1      28.596  31.928  22.036  1.00  0.00     0.278 C 
ENDBRANCH  25  30
ENDBRANCH  11  24
ENDBRANCH   8  10
ENDBRANCH   7   8
ENDBRANCH   6   7
ENDBRANCH   5   6
ENDBRANCH   1   5
BRANCH   3  32
ATOM     32  C   UNL A   1      33.849  29.139  26.652  1.00  0.00     0.116 C 
BRANCH  32  33
ATOM     33  C   UNL A   1      32.562  29.697  27.257  1.00  0.00     0.023 C 
BRANCH  33  34
ATOM     34  C   UNL A   1      32.305  31.148  26.865  1.00  0.00     0.023 C 
BRANCH  34  35
ATOM     35  C   UNL A   1      33.179  32.167  27.595  1.00  0.00     0.116 C 
BRANCH  35  36
ATOM     36  N   UNL A   1      32.610  33.508  27.653  1.00  0.00    -0.352 N 
ATOM     37  C   UNL A   1      33.041  34.583  28.400  1.00  0.00     0.251 C 
ATOM     38  H   UNL A   1      31.820  33.666  27.086  1.00  0.00     0.163 HD
ATOM     39  O   UNL A   1      32.442  35.652  28.387  1.00  0.00    -0.269 OA
BRANCH  37  40
ATOM     40  C   UNL A   1      34.220  34.400  29.269  1.00  0.00     0.039 A 
ATOM     41  C   UNL A   1      34.031  33.898  30.558  1.00  0.00     0.014 A 
ATOM     42  C   UNL A   1      35.504  34.568  28.745  1.00  0.00     0.014 A 
ATOM     43  C   UNL A   1      35.135  33.447  31.283  1.00  0.00     0.010 A 
ATOM     44  C   UNL A   1      36.591  34.050  29.438  1.00  0.00     0.010 A 
ATOM     45  C   UNL A   1      36.413  33.454  30.699  1.00  0.00    -0.014 A 
BRANCH  45  46
ATOM     46  C   UNL A   1      37.569  32.790  31.354  1.00  0.00     0.031 A 
ATOM     47  C   UNL A   1      38.251  31.635  30.683  1.00  0.00     0.074 A 
ATOM     48  C   UNL A   1      37.930  33.157  32.600  1.00  0.00     0.049 A 
ATOM     49  N   UNL A   1      39.181  30.840  31.147  1.00  0.00    -0.248 NA
ATOM     50  C   UNL A   1      37.807  31.312  29.318  1.00  0.00     0.031 C 
ATOM     51  C   UNL A   1      37.310  34.230  33.381  1.00  0.00     0.029 A 
ATOM     52  N   UNL A   1      38.894  32.653  33.439  1.00  0.00    -0.354 N 
ATOM     53  C   UNL A   1      39.416  29.911  30.143  1.00  0.00     0.074 A 
ATOM     54  C   UNL A   1      38.502  30.213  29.062  1.00  0.00     0.031 C 
ATOM     55  C   UNL A   1      37.919  34.313  34.576  1.00  0.00     0.029 A 
ATOM     56  C   UNL A   1      38.939  33.274  34.664  1.00  0.00     0.049 A 
ATOM     57  H   UNL A   1      39.496  31.917  33.186  1.00  0.00     0.167 HD
ATOM     58  C   UNL A   1      40.328  28.911  30.117  1.00  0.00     0.037 A 
ATOM     59  C   UNL A   1      39.705  33.023  35.744  1.00  0.00     0.037 A 
ATOM     60  C   UNL A   1      41.262  28.637  31.177  1.00  0.00     0.049 A 
ATOM     61  C   UNL A   1      40.701  31.897  35.693  1.00  0.00     0.074 A 
ATOM     62  C   UNL A   1      42.285  27.706  31.205  1.00  0.00     0.029 A 
ATOM     63  N   UNL A   1      41.283  29.294  32.398  1.00  0.00    -0.354 N 
ATOM     64  N   UNL A   1      40.965  31.073  34.710  1.00  0.00    -0.248 NA
ATOM     65  C   UNL A   1      41.499  31.661  36.905  1.00  0.00     0.031 C 
ATOM     66  C   UNL A   1      42.899  27.771  32.460  1.00  0.00     0.029 A 
ATOM     67  C   UNL A   1      42.282  28.767  33.199  1.00  0.00     0.049 A 
ATOM     68  H   UNL A   1      40.677  30.026  32.658  1.00  0.00     0.167 HD
ATOM     69  C   UNL A   1      41.967  30.232  35.175  1.00  0.00     0.074 A 
ATOM     70  C   UNL A   1      42.277  30.657  36.525  1.00  0.00     0.031 C 
ATOM     71  C   UNL A   1      42.574  29.199  34.541  1.00  0.00     0.037 A 
BRANCH  58  72
ATOM     72  C   UNL A   1      40.366  28.041  28.898  1.00  0.00     0.064 A 
ATOM     73  C   UNL A   1      41.144  28.378  27.780  1.00  0.00     0.173 A 
ATOM     74  C   UNL A   1      39.644  26.838  28.859  1.00  0.00     0.173 A 
ATOM     75  F   UNL A   1      41.840  29.523  27.763  1.00  0.00    -0.203 F 
ATOM     76  C   UNL A   1      41.176  27.555  26.657  1.00  0.00     0.198 A 
ATOM     77  C   UNL A   1      39.701  26.006  27.745  1.00  0.00     0.198 A 
ATOM     78  F   UNL A   1      38.888  26.470  29.903  1.00  0.00    -0.203 F 
ATOM     79  F   UNL A   1      41.890  27.921  25.582  1.00  0.00    -0.200 F 
ATOM     80  C   UNL A   1      40.460  26.368  26.643  1.00  0.00     0.200 A 
ATOM     81  F   UNL A   1      39.015  24.853  27.736  1.00  0.00    -0.200 F 
ATOM     82  F   UNL A   1      40.496  25.575  25.562  1.00  0.00    -0.200 F 
ENDBRANCH  58  72
BRANCH  59  83
ATOM     83  C   UNL A   1      39.563  33.854  36.967  1.00  0.00     0.064 A 
ATOM     84  C   UNL A   1      38.745  33.437  38.026  1.00  0.00     0.173 A 
ATOM     85  C   UNL A   1      40.232  35.079  37.102  1.00  0.00     0.173 A 
ATOM     86  F   UNL A   1      38.066  32.285  37.933  1.00  0.00    -0.203 F 
ATOM     87  C   UNL A   1      38.591  34.221  39.168  1.00  0.00     0.198 A 
ATOM     88  C   UNL A   1      40.097  35.850  38.255  1.00  0.00     0.198 A 
ATOM     89  F   UNL A   1      41.029  35.521  36.117  1.00  0.00    -0.203 F 
ATOM     90  F   UNL A   1      37.772  33.817  40.149  1.00  0.00    -0.200 F 
ATOM     91  C   UNL A   1      39.272  35.424  39.284  1.00  0.00     0.200 A 
ATOM     92  F   UNL A   1      40.766  37.006  38.367  1.00  0.00    -0.200 F 
ATOM     93  F   UNL A   1      39.126  36.175  40.384  1.00  0.00    -0.200 F 
ENDBRANCH  59  83
BRANCH  71  94
ATOM     94  C   UNL A   1      43.638  28.460  35.295  1.00  0.00     0.064 A 
ATOM     95  C   UNL A   1      44.987  28.831  35.201  1.00  0.00     0.173 A 
ATOM     96  C   UNL A   1      43.301  27.413  36.165  1.00  0.00     0.173 A 
ATOM     97  F   UNL A   1      45.360  29.815  34.369  1.00  0.00    -0.203 F 
ATOM     98  C   UNL A   1      45.962  28.171  35.944  1.00  0.00     0.198 A 
ATOM     99  C   UNL A   1      44.275  26.772  36.924  1.00  0.00     0.198 A 
ATOM    100  F   UNL A   1      42.022  27.026  36.291  1.00  0.00    -0.203 F 
ATOM    101  F   UNL A   1      47.249  28.520  35.815  1.00  0.00    -0.200 F 
ATOM    102  C   UNL A   1      45.605  27.149  36.811  1.00  0.00     0.200 A 
ATOM    103  F   UNL A   1      43.926  25.792  37.769  1.00  0.00    -0.200 F 
ATOM    104  F   UNL A   1      46.543  26.524  37.534  1.00  0.00    -0.200 F 
ENDBRANCH  71  94
ENDBRANCH  45  46
ENDBRANCH  37  40
ENDBRANCH  35  36
ENDBRANCH  34  35
ENDBRANCH  33  34
ENDBRANCH  32  33
ENDBRANCH   3  32
TORSDOF 17
ENDMDL
MODEL 2
REMARK VINA RESULT:     -13.1      5.382     10.949
REMARK SMILES COc1ccc(-c2ccc3n(c2=O)C[C@H]2C[C@@H]3CN(C(=O)CCCC(=O)NCCCCNC(=O)c3ccc(-c4c5nc(c(-c6c(F)c(F)c(F)c(F)c6F)c6ccc([nH]6)c(-c6c(F)c(F)c(F)c(F)c6F)c6nc(c(-c7c(F)c(F)c(F)c(F)c7F)c7ccc4[nH]7)C=C6)C=C5)cc3)C2)cc1
REMARK SMILES IDX 25 1 26 2 27 3 24 5 23 6 22 7 20 8 21 9 19 10 7 11 8 12
REMARK SMILES IDX 12 13 9 14 11 15 13 16 10 17 14 18 17 19 15 20 16 21 18 22
REMARK SMILES IDX 98 23 6 24 3 25 4 26 100 27 5 28 99 29 2 30 1 31 28 32 29 33
REMARK SMILES IDX 30 34 31 35 32 36 33 37 34 39 35 40 36 41 97 42 37 43 96 44
REMARK SMILES IDX 38 45 39 46 40 47 90 48 41 49 95 50 89 51 91 52 42 53 94 54
REMARK SMILES IDX 88 55 87 56 43 58 75 59 55 60 74 61 56 62 59 63 73 64 92 65
REMARK SMILES IDX 57 66 58 67 72 69 93 70 60 71 44 72 45 73 53 74 46 75 47 76
REMARK SMILES IDX 51 77 54 78 48 79 49 80 52 81 50 82 76 83 77 84 85 85 78 86
REMARK SMILES IDX 79 87 83 88 86 89 80 90 81 91 84 92 82 93 61 94 62 95 70 96
REMARK SMILES IDX 63 97 64 98 68 99 71 100 65 101 66 102 69 103 67 104
REMARK H PARENT 27 4 32 38 91 57 59 68
REMARK Flexibility Score: inf
ROOT
ATOM      1  C   UNL A   1      34.648  23.108  26.860  1.00  0.00     0.220 C 
ATOM      2  O   UNL A   1      34.067  22.294  27.586  1.00  0.00    -0.275 OA
ATOM      3  N   UNL A   1      35.974  22.887  26.686  1.00  0.00    -0.356 N 
ATOM      4  H   UNL A   1      36.340  22.208  27.297  1.00  0.00     0.163 HD
ENDROOT
BRANCH   1   5
ATOM      5  C   UNL A   1      33.841  24.209  26.175  1.00  0.00     0.100 C 
BRANCH   5   6
ATOM      6  C   UNL A   1      32.381  24.436  26.551  1.00  0.00     0.020 C 
BRANCH   6   7
ATOM      7  C   UNL A   1      31.768  25.835  26.556  1.00  0.00     0.101 C 
BRANCH   7   8
ATOM      8  C   UNL A   1      32.582  27.058  26.131  1.00  0.00     0.222 C 
ATOM      9  O   UNL A   1      33.504  27.415  26.874  1.00  0.00    -0.275 OA
BRANCH   8  10
ATOM     10  N   UNL A   1      32.411  27.644  24.881  1.00  0.00    -0.342 N 
ATOM     11  C   UNL A   1      31.974  22.910  23.253  1.00  0.00     0.047 A 
ATOM     12  C   UNL A   1      30.726  23.351  23.482  1.00  0.00     0.016 A 
ATOM     13  C   UNL A   1      33.037  23.908  22.884  1.00  0.00     0.258 A 
ATOM     14  C   UNL A   1      30.388  24.739  23.355  1.00  0.00     0.023 A 
ATOM     15  N   UNL A   1      32.631  25.246  22.778  1.00  0.00    -0.311 N 
ATOM     16  O   UNL A   1      34.194  23.544  22.672  1.00  0.00    -0.269 OA
ATOM     17  C   UNL A   1      31.313  25.647  23.006  1.00  0.00     0.026 A 
ATOM     18  C   UNL A   1      33.653  26.195  22.343  1.00  0.00     0.131 C 
ATOM     19  C   UNL A   1      30.951  27.121  22.936  1.00  0.00     0.056 C 
ATOM     20  C   UNL A   1      33.302  27.677  22.514  1.00  0.00     0.029 C 
ATOM     21  C   UNL A   1      31.887  27.889  22.002  1.00  0.00     0.019 C 
ATOM     22  C   UNL A   1      31.048  27.730  24.346  1.00  0.00     0.129 C 
ATOM     23  C   UNL A   1      33.429  28.164  23.973  1.00  0.00     0.125 C 
BRANCH  11  24
ATOM     24  C   UNL A   1      32.266  21.470  23.320  1.00  0.00    -0.013 A 
ATOM     25  C   UNL A   1      32.724  18.712  23.531  1.00  0.00     0.118 A 
ATOM     26  C   UNL A   1      32.198  19.246  22.355  1.00  0.00     0.047 A 
ATOM     27  C   UNL A   1      33.071  19.556  24.584  1.00  0.00     0.047 A 
ATOM     28  C   UNL A   1      31.958  20.619  22.252  1.00  0.00     0.013 A 
ATOM     29  C   UNL A   1      32.838  20.928  24.480  1.00  0.00     0.013 A 
BRANCH  25  30
ATOM     30  O   UNL A   1      32.902  17.355  23.558  1.00  0.00    -0.497 OA
ATOM     31  C   UNL A   1      33.246  16.857  24.850  1.00  0.00     0.278 C 
ENDBRANCH  25  30
ENDBRANCH  11  24
ENDBRANCH   8  10
ENDBRANCH   7   8
ENDBRANCH   6   7
ENDBRANCH   5   6
ENDBRANCH   1   5
BRANCH   3  32
ATOM     32  C   UNL A   1      36.959  23.440  25.790  1.00  0.00     0.116 C 
BRANCH  32  33
ATOM     33  C   UNL A   1      37.432  22.454  24.722  1.00  0.00     0.023 C 
BRANCH  33  34
ATOM     34  C   UNL A   1      37.847  21.107  25.304  1.00  0.00     0.023 C 
BRANCH  34  35
ATOM     35  C   UNL A   1      39.226  21.098  25.962  1.00  0.00     0.116 C 
BRANCH  35  36
ATOM     36  N   UNL A   1      39.905  19.809  25.907  1.00  0.00    -0.352 N 
ATOM     37  C   UNL A   1      41.241  19.542  26.112  1.00  0.00     0.251 C 
ATOM     38  H   UNL A   1      39.337  19.031  25.699  1.00  0.00     0.163 HD
ATOM     39  O   UNL A   1      41.692  18.409  25.994  1.00  0.00    -0.269 OA
BRANCH  37  40
ATOM     40  C   UNL A   1      42.138  20.672  26.425  1.00  0.00     0.039 A 
ATOM     41  C   UNL A   1      42.642  21.440  25.373  1.00  0.00     0.014 A 
ATOM     42  C   UNL A   1      42.334  21.058  27.753  1.00  0.00     0.014 A 
ATOM     43  C   UNL A   1      43.242  22.668  25.651  1.00  0.00     0.010 A 
ATOM     44  C   UNL A   1      42.865  22.314  28.022  1.00  0.00     0.010 A 
ATOM     45  C   UNL A   1      43.293  23.145  26.971  1.00  0.00    -0.014 A 
BRANCH  45  46
ATOM     46  C   UNL A   1      43.728  24.531  27.279  1.00  0.00     0.031 A 
ATOM     47  C   UNL A   1      42.731  25.543  27.759  1.00  0.00     0.074 A 
ATOM     48  C   UNL A   1      44.998  24.904  27.020  1.00  0.00     0.049 A 
ATOM     49  N   UNL A   1      42.882  26.829  27.949  1.00  0.00    -0.248 NA
ATOM     50  C   UNL A   1      41.373  25.049  28.034  1.00  0.00     0.031 C 
ATOM     51  C   UNL A   1      46.050  24.027  26.500  1.00  0.00     0.029 A 
ATOM     52  N   UNL A   1      45.616  26.125  27.137  1.00  0.00    -0.354 N 
ATOM     53  C   UNL A   1      41.638  27.300  28.342  1.00  0.00     0.074 A 
ATOM     54  C   UNL A   1      40.731  26.172  28.321  1.00  0.00     0.031 C 
ATOM     55  C   UNL A   1      47.184  24.734  26.359  1.00  0.00     0.029 A 
ATOM     56  C   UNL A   1      46.930  26.121  26.735  1.00  0.00     0.049 A 
ATOM     57  H   UNL A   1      45.160  26.928  27.478  1.00  0.00     0.167 HD
ATOM     58  C   UNL A   1      41.289  28.556  28.708  1.00  0.00     0.037 A 
ATOM     59  C   UNL A   1      47.824  27.125  26.659  1.00  0.00     0.037 A 
ATOM     60  C   UNL A   1      42.201  29.667  28.765  1.00  0.00     0.049 A 
ATOM     61  C   UNL A   1      47.407  28.514  27.060  1.00  0.00     0.074 A 
ATOM     62  C   UNL A   1      41.964  30.954  29.212  1.00  0.00     0.029 A 
ATOM     63  N   UNL A   1      43.526  29.620  28.358  1.00  0.00    -0.354 N 
ATOM     64  N   UNL A   1      46.246  28.931  27.500  1.00  0.00    -0.248 NA
ATOM     65  C   UNL A   1      48.421  29.571  26.944  1.00  0.00     0.031 C 
ATOM     66  C   UNL A   1      43.135  31.699  29.037  1.00  0.00     0.029 A 
ATOM     67  C   UNL A   1      44.111  30.866  28.515  1.00  0.00     0.049 A 
ATOM     68  H   UNL A   1      43.983  28.821  28.009  1.00  0.00     0.167 HD
ATOM     69  C   UNL A   1      46.392  30.293  27.729  1.00  0.00     0.074 A 
ATOM     70  C   UNL A   1      47.761  30.629  27.395  1.00  0.00     0.031 C 
ATOM     71  C   UNL A   1      45.473  31.184  28.174  1.00  0.00     0.037 A 
BRANCH  58  72
ATOM     72  C   UNL A   1      39.858  28.794  29.084  1.00  0.00     0.064 A 
ATOM     73  C   UNL A   1      39.408  28.622  30.402  1.00  0.00     0.173 A 
ATOM     74  C   UNL A   1      38.934  29.234  28.125  1.00  0.00     0.173 A 
ATOM     75  F   UNL A   1      40.250  28.189  31.351  1.00  0.00    -0.203 F 
ATOM     76  C   UNL A   1      38.077  28.855  30.739  1.00  0.00     0.198 A 
ATOM     77  C   UNL A   1      37.611  29.493  28.472  1.00  0.00     0.198 A 
ATOM     78  F   UNL A   1      39.316  29.418  26.852  1.00  0.00    -0.203 F 
ATOM     79  F   UNL A   1      37.659  28.639  31.994  1.00  0.00    -0.200 F 
ATOM     80  C   UNL A   1      37.182  29.296  29.776  1.00  0.00     0.200 A 
ATOM     81  F   UNL A   1      36.748  29.928  27.543  1.00  0.00    -0.200 F 
ATOM     82  F   UNL A   1      35.903  29.525  30.104  1.00  0.00    -0.200 F 
ENDBRANCH  58  72
BRANCH  59  83
ATOM     83  C   UNL A   1      49.207  26.856  26.187  1.00  0.00     0.064 A 
ATOM     84  C   UNL A   1      49.542  26.994  24.833  1.00  0.00     0.173 A 
ATOM     85  C   UNL A   1      50.218  26.453  27.071  1.00  0.00     0.173 A 
ATOM     86  F   UNL A   1      48.604  27.355  23.946  1.00  0.00    -0.203 F 
ATOM     87  C   UNL A   1      50.832  26.725  24.379  1.00  0.00     0.198 A 
ATOM     88  C   UNL A   1      51.513  26.208  26.621  1.00  0.00     0.198 A 
ATOM     89  F   UNL A   1      49.949  26.309  28.378  1.00  0.00    -0.203 F 
ATOM     90  F   UNL A   1      51.115  26.827  23.073  1.00  0.00    -0.200 F 
ATOM     91  C   UNL A   1      51.818  26.337  25.274  1.00  0.00     0.200 A 
ATOM     92  F   UNL A   1      52.466  25.845  27.491  1.00  0.00    -0.200 F 
ATOM     93  F   UNL A   1      53.059  26.082  24.838  1.00  0.00    -0.200 F 
ENDBRANCH  59  83
BRANCH  71  94
ATOM     94  C   UNL A   1      45.916  32.607  28.332  1.00  0.00     0.064 A 
ATOM     95  C   UNL A   1      46.518  33.054  29.517  1.00  0.00     0.173 A 
ATOM     96  C   UNL A   1      45.795  33.515  27.270  1.00  0.00     0.173 A 
ATOM     97  F   UNL A   1      46.640  32.227  30.566  1.00  0.00    -0.203 F 
ATOM     98  C   UNL A   1      46.973  34.365  29.636  1.00  0.00     0.198 A 
ATOM     99  C   UNL A   1      46.273  34.817  27.384  1.00  0.00     0.198 A 
ATOM    100  F   UNL A   1      45.229  33.132  26.115  1.00  0.00    -0.203 F 
ATOM    101  F   UNL A   1      47.517  34.781  30.788  1.00  0.00    -0.200 F 
ATOM    102  C   UNL A   1      46.858  35.242  28.567  1.00  0.00     0.200 A 
ATOM    103  F   UNL A   1      46.171  35.660  26.347  1.00  0.00    -0.200 F 
ATOM    104  F   UNL A   1      47.308  36.499  28.680  1.00  0.00    -0.200 F 
ENDBRANCH  71  94
ENDBRANCH  45  46
ENDBRANCH  37  40
ENDBRANCH  35  36
ENDBRANCH  34  35
ENDBRANCH  33  34
ENDBRANCH  32  33
ENDBRANCH   3  32
TORSDOF 17
ENDMDL
MODEL 3
REMARK VINA RESULT:     -13.1      1.457      7.088
REMARK SMILES COc1ccc(-c2ccc3n(c2=O)C[C@H]2C[C@@H]3CN(C(=O)CCCC(=O)NCCCCNC(=O)c3ccc(-c4c5nc(c(-c6c(F)c(F)c(F)c(F)c6F)c6ccc([nH]6)c(-c6c(F)c(F)c(F)c(F)c6F)c6nc(c(-c7c(F)c(F)c(F)c(F)c7F)c7ccc4[nH]7)C=C6)C=C5)cc3)C2)cc1
REMARK SMILES IDX 25 1 26 2 27 3 24 5 23 6 22 7 20 8 21 9 19 10 7 11 8 12
REMARK SMILES IDX 12 13 9 14 11 15 13 16 10 17 14 18 17 19 15 20 16 21 18 22
REMARK SMILES IDX 98 23 6 24 3 25 4 26 100 27 5 28 99 29 2 30 1 31 28 32 29 33
REMARK SMILES IDX 30 34 31 35 32 36 33 37 34 39 35 40 36 41 97 42 37 43 96 44
REMARK SMILES IDX 38 45 39 46 40 47 90 48 41 49 95 50 89 51 91 52 42 53 94 54
REMARK SMILES IDX 88 55 87 56 43 58 75 59 55 60 74 61 56 62 59 63 73 64 92 65
REMARK SMILES IDX 57 66 58 67 72 69 93 70 60 71 44 72 45 73 53 74 46 75 47 76
REMARK SMILES IDX 51 77 54 78 48 79 49 80 52 81 50 82 76 83 77 84 85 85 78 86
REMARK SMILES IDX 79 87 83 88 86 89 80 90 81 91 84 92 82 93 61 94 62 95 70 96
REMARK SMILES IDX 63 97 64 98 68 99 71 100 65 101 66 102 69 103 67 104
REMARK H PARENT 27 4 32 38 91 57 59 68
REMARK Flexibility Score: inf
ROOT
ATOM      1  C   UNL A   1      33.875  28.439  23.620  1.00  0.00     0.220 C 
ATOM      2  O   UNL A   1      34.307  28.818  22.526  1.00  0.00    -0.275 OA
ATOM      3  N   UNL A   1      33.510  29.428  24.474  1.00  0.00    -0.356 N 
ATOM      4  H   UNL A   1      33.797  30.322  24.179  1.00  0.00     0.163 HD
ENDROOT
BRANCH   1   5
ATOM      5  C   UNL A   1      33.716  26.944  23.885  1.00  0.00     0.100 C 
BRANCH   5   6
ATOM      6  C   UNL A   1      34.035  25.933  22.788  1.00  0.00     0.020 C 
BRANCH   6   7
ATOM      7  C   UNL A   1      34.225  24.451  23.103  1.00  0.00     0.101 C 
BRANCH   7   8
ATOM      8  C   UNL A   1      34.698  23.988  24.483  1.00  0.00     0.222 C 
ATOM      9  O   UNL A   1      35.708  24.529  24.948  1.00  0.00    -0.275 OA
BRANCH   8  10
ATOM     10  N   UNL A   1      33.934  23.123  25.259  1.00  0.00    -0.342 N 
ATOM     11  C   UNL A   1      30.080  26.014  23.832  1.00  0.00     0.047 A 
ATOM     12  C   UNL A   1      30.125  24.986  22.968  1.00  0.00     0.016 A 
ATOM     13  C   UNL A   1      30.600  25.810  25.228  1.00  0.00     0.258 A 
ATOM     14  C   UNL A   1      30.629  23.702  23.361  1.00  0.00     0.023 A 
ATOM     15  N   UNL A   1      31.076  24.528  25.537  1.00  0.00    -0.311 N 
ATOM     16  O   UNL A   1      30.582  26.729  26.047  1.00  0.00    -0.269 OA
ATOM     17  C   UNL A   1      31.079  23.487  24.607  1.00  0.00     0.026 A 
ATOM     18  C   UNL A   1      31.505  24.318  26.918  1.00  0.00     0.131 C 
ATOM     19  C   UNL A   1      31.666  22.138  24.987  1.00  0.00     0.056 C 
ATOM     20  C   UNL A   1      32.295  23.032  27.182  1.00  0.00     0.029 C 
ATOM     21  C   UNL A   1      31.574  21.885  26.492  1.00  0.00     0.019 C 
ATOM     22  C   UNL A   1      33.147  22.098  24.567  1.00  0.00     0.129 C 
ATOM     23  C   UNL A   1      33.762  23.114  26.708  1.00  0.00     0.125 C 
BRANCH  11  24
ATOM     24  C   UNL A   1      29.487  27.295  23.416  1.00  0.00    -0.013 A 
ATOM     25  C   UNL A   1      28.373  29.699  22.500  1.00  0.00     0.118 A 
ATOM     26  C   UNL A   1      27.562  28.735  23.099  1.00  0.00     0.047 A 
ATOM     27  C   UNL A   1      29.748  29.489  22.402  1.00  0.00     0.047 A 
ATOM     28  C   UNL A   1      28.113  27.532  23.545  1.00  0.00     0.013 A 
ATOM     29  C   UNL A   1      30.300  28.290  22.854  1.00  0.00     0.013 A 
BRANCH  25  30
ATOM     30  O   UNL A   1      27.749  30.837  22.065  1.00  0.00    -0.497 OA
ATOM     31  C   UNL A   1      27.919  31.076  20.669  1.00  0.00     0.278 C 
ENDBRANCH  25  30
ENDBRANCH  11  24
ENDBRANCH   8  10
ENDBRANCH   7   8
ENDBRANCH   6   7
ENDBRANCH   5   6
ENDBRANCH   1   5
BRANCH   3  32
ATOM     32  C   UNL A   1      32.789  29.440  25.721  1.00  0.00     0.116 C 
BRANCH  32  33
ATOM     33  C   UNL A   1      31.426  30.124  25.630  1.00  0.00     0.023 C 
BRANCH  33  34
ATOM     34  C   UNL A   1      31.443  31.550  26.173  1.00  0.00     0.023 C 
BRANCH  34  35
ATOM     35  C   UNL A   1      32.481  31.800  27.266  1.00  0.00     0.116 C 
BRANCH  35  36
ATOM     36  N   UNL A   1      32.756  33.209  27.516  1.00  0.00    -0.352 N 
ATOM     37  C   UNL A   1      33.929  33.782  27.959  1.00  0.00     0.251 C 
ATOM     38  H   UNL A   1      32.010  33.831  27.346  1.00  0.00     0.163 HD
ATOM     39  O   UNL A   1      34.013  34.986  28.168  1.00  0.00    -0.269 OA
BRANCH  37  40
ATOM     40  C   UNL A   1      35.077  32.895  28.231  1.00  0.00     0.039 A 
ATOM     41  C   UNL A   1      36.360  33.446  28.252  1.00  0.00     0.014 A 
ATOM     42  C   UNL A   1      34.858  31.572  28.624  1.00  0.00     0.014 A 
ATOM     43  C   UNL A   1      37.413  32.703  28.786  1.00  0.00     0.010 A 
ATOM     44  C   UNL A   1      35.892  30.863  29.224  1.00  0.00     0.010 A 
ATOM     45  C   UNL A   1      37.171  31.435  29.340  1.00  0.00    -0.014 A 
BRANCH  45  46
ATOM     46  C   UNL A   1      38.218  30.710  30.104  1.00  0.00     0.031 A 
ATOM     47  C   UNL A   1      38.473  31.052  31.542  1.00  0.00     0.074 A 
ATOM     48  C   UNL A   1      39.011  29.822  29.471  1.00  0.00     0.049 A 
ATOM     49  N   UNL A   1      39.425  30.635  32.336  1.00  0.00    -0.248 NA
ATOM     50  C   UNL A   1      37.551  32.017  32.161  1.00  0.00     0.031 C 
ATOM     51  C   UNL A   1      38.900  29.441  28.060  1.00  0.00     0.029 A 
ATOM     52  N   UNL A   1      40.084  29.094  29.924  1.00  0.00    -0.354 N 
ATOM     53  C   UNL A   1      39.232  31.301  33.538  1.00  0.00     0.074 A 
ATOM     54  C   UNL A   1      38.098  32.183  33.356  1.00  0.00     0.031 C 
ATOM     55  C   UNL A   1      39.854  28.540  27.770  1.00  0.00     0.029 A 
ATOM     56  C   UNL A   1      40.670  28.312  28.957  1.00  0.00     0.049 A 
ATOM     57  H   UNL A   1      40.402  29.128  30.855  1.00  0.00     0.167 HD
ATOM     58  C   UNL A   1      39.923  31.171  34.694  1.00  0.00     0.037 A 
ATOM     59  C   UNL A   1      41.755  27.516  29.016  1.00  0.00     0.037 A 
ATOM     60  C   UNL A   1      41.025  30.266  34.884  1.00  0.00     0.049 A 
ATOM     61  C   UNL A   1      42.513  27.401  30.311  1.00  0.00     0.074 A 
ATOM     62  C   UNL A   1      41.729  29.995  36.043  1.00  0.00     0.029 A 
ATOM     63  N   UNL A   1      41.584  29.485  33.883  1.00  0.00    -0.354 N 
ATOM     64  N   UNL A   1      42.275  27.980  31.461  1.00  0.00    -0.248 NA
ATOM     65  C   UNL A   1      43.696  26.527  30.312  1.00  0.00     0.031 C 
ATOM     66  C   UNL A   1      42.741  29.081  35.736  1.00  0.00     0.029 A 
ATOM     67  C   UNL A   1      42.644  28.754  34.393  1.00  0.00     0.049 A 
ATOM     68  H   UNL A   1      41.273  29.454  32.949  1.00  0.00     0.167 HD
ATOM     69  C   UNL A   1      43.264  27.532  32.326  1.00  0.00     0.074 A 
ATOM     70  C   UNL A   1      44.097  26.618  31.572  1.00  0.00     0.031 C 
ATOM     71  C   UNL A   1      43.465  27.852  33.627  1.00  0.00     0.037 A 
BRANCH  58  72
ATOM     72  C   UNL A   1      39.502  32.026  35.851  1.00  0.00     0.064 A 
ATOM     73  C   UNL A   1      40.072  33.289  36.076  1.00  0.00     0.173 A 
ATOM     74  C   UNL A   1      38.494  31.594  36.725  1.00  0.00     0.173 A 
ATOM     75  F   UNL A   1      41.049  33.740  35.276  1.00  0.00    -0.203 F 
ATOM     76  C   UNL A   1      39.665  34.077  37.149  1.00  0.00     0.198 A 
ATOM     77  C   UNL A   1      38.070  32.396  37.781  1.00  0.00     0.198 A 
ATOM     78  F   UNL A   1      37.916  30.397  36.551  1.00  0.00    -0.203 F 
ATOM     79  F   UNL A   1      40.256  35.259  37.372  1.00  0.00    -0.200 F 
ATOM     80  C   UNL A   1      38.661  33.633  37.997  1.00  0.00     0.200 A 
ATOM     81  F   UNL A   1      37.093  31.971  38.595  1.00  0.00    -0.200 F 
ATOM     82  F   UNL A   1      38.268  34.394  39.027  1.00  0.00    -0.200 F 
ENDBRANCH  58  72
BRANCH  59  83
ATOM     83  C   UNL A   1      42.191  26.762  27.813  1.00  0.00     0.064 A 
ATOM     84  C   UNL A   1      41.649  25.502  27.521  1.00  0.00     0.173 A 
ATOM     85  C   UNL A   1      43.157  27.276  26.936  1.00  0.00     0.173 A 
ATOM     86  F   UNL A   1      40.739  24.960  28.343  1.00  0.00    -0.203 F 
ATOM     87  C   UNL A   1      42.067  24.780  26.405  1.00  0.00     0.198 A 
ATOM     88  C   UNL A   1      43.557  26.563  25.807  1.00  0.00     0.198 A 
ATOM     89  F   UNL A   1      43.705  28.478  27.171  1.00  0.00    -0.203 F 
ATOM     90  F   UNL A   1      41.560  23.562  26.171  1.00  0.00    -0.200 F 
ATOM     91  C   UNL A   1      43.017  25.313  25.546  1.00  0.00     0.200 A 
ATOM     92  F   UNL A   1      44.465  27.088  24.974  1.00  0.00    -0.200 F 
ATOM     93  F   UNL A   1      43.416  24.620  24.472  1.00  0.00    -0.200 F 
ENDBRANCH  59  83
BRANCH  71  94
ATOM     94  C   UNL A   1      44.625  27.206  34.323  1.00  0.00     0.064 A 
ATOM     95  C   UNL A   1      44.505  25.942  34.916  1.00  0.00     0.173 A 
ATOM     96  C   UNL A   1      45.882  27.829  34.343  1.00  0.00     0.173 A 
ATOM     97  F   UNL A   1      43.319  25.315  34.937  1.00  0.00    -0.203 F 
ATOM     98  C   UNL A   1      45.602  25.328  35.515  1.00  0.00     0.198 A 
ATOM     99  C   UNL A   1      46.981  27.201  34.921  1.00  0.00     0.198 A 
ATOM    100  F   UNL A   1      46.046  29.038  33.784  1.00  0.00    -0.203 F 
ATOM    101  F   UNL A   1      45.459  24.133  36.105  1.00  0.00    -0.200 F 
ATOM    102  C   UNL A   1      46.840  25.953  35.510  1.00  0.00     0.200 A 
ATOM    103  F   UNL A   1      48.179  27.802  34.905  1.00  0.00    -0.200 F 
ATOM    104  F   UNL A   1      47.897  25.355  36.075  1.00  0.00    -0.200 F 
ENDBRANCH  71  94
ENDBRANCH  45  46
ENDBRANCH  37  40
ENDBRANCH  35  36
ENDBRANCH  34  35
ENDBRANCH  33  34
ENDBRANCH  32  33
ENDBRANCH   3  32
TORSDOF 17
ENDMDL
