MODEL 1
REMARK VINA RESULT:     -14.0      0.000      0.000
REMARK SMILES Cc1cc(C)n(-c2ccccc2NS(=O)(=O)c2cc(C)c(C(=O)NCCCCNC(=O)c3ccc(-c4c5nc(c(-c6c(F)c(F)c(F)c(F)c6F)c6ccc([nH]6)c(-c6c(F)c(F)c(F)c(F)c6F)c6nc(c(-c7c(F)c(F)c(F)c(F)c7F)c7ccc4[nH]7)C=C6)C=C5)cc3)s2)n1
REMARK SMILES IDX 25 1 24 2 22 3 23 4 21 6 17 7 18 8 95 9 19 10 20 11 14 12
REMARK SMILES IDX 15 13 16 14 13 15 12 17 7 18 8 19 9 20 11 21 10 22 6 23 1 24
REMARK SMILES IDX 2 25 3 26 96 27 4 28 5 29 26 30 27 31 28 32 29 33 30 34
REMARK SMILES IDX 31 36 32 37 33 38 94 39 34 40 93 41 35 42 36 43 37 44 87 45
REMARK SMILES IDX 38 46 92 47 86 48 88 49 39 50 91 51 85 52 84 53 40 55 72 56
REMARK SMILES IDX 52 57 71 58 53 59 56 60 70 61 89 62 54 63 55 64 69 66 90 67
REMARK SMILES IDX 57 68 41 69 42 70 50 71 43 72 44 73 48 74 51 75 45 76 46 77
REMARK SMILES IDX 49 78 47 79 73 80 74 81 82 82 75 83 76 84 80 85 83 86 77 87
REMARK SMILES IDX 78 88 81 89 79 90 58 91 59 92 67 93 60 94 61 95 65 96 68 97
REMARK SMILES IDX 62 98 63 99 66 100 64 101
REMARK H PARENT 24 5 13 16 29 35 88 54 56 65
REMARK Flexibility Score: inf
ROOT
ATOM      1  C   UNL A   1      31.488  29.169  24.977  1.00  0.00     0.116 C 
ENDROOT
BRANCH   1   2
ATOM      2  N   UNL A   1      30.886  29.368  23.666  1.00  0.00    -0.351 N 
ATOM      3  C   UNL A   1      30.489  28.509  22.663  1.00  0.00     0.261 C 
ATOM      4  O   UNL A   1      29.926  29.063  21.714  1.00  0.00    -0.268 OA
ATOM      5  H   UNL A   1      30.730  30.317  23.450  1.00  0.00     0.163 HD
BRANCH   3   6
ATOM      6  C   UNL A   1      30.625  27.054  22.738  1.00  0.00     0.096 A 
ATOM      7  C   UNL A   1      31.683  24.859  22.926  1.00  0.00     0.141 A 
ATOM      8  C   UNL A   1      30.431  24.843  23.511  1.00  0.00     0.038 A 
ATOM      9  S   UNL A   1      31.775  26.162  21.838  1.00  0.00    -0.116 S 
ATOM     10  C   UNL A   1      29.831  26.159  23.468  1.00  0.00    -0.026 A 
ATOM     11  C   UNL A   1      28.607  26.527  24.249  1.00  0.00     0.046 C 
BRANCH   7  12
ATOM     12  S   UNL A   1      33.176  23.917  23.130  1.00  0.00     0.271 S 
ATOM     13  O   UNL A   1      34.047  24.310  22.046  1.00  0.00    -0.200 OA
ATOM     14  O   UNL A   1      32.728  22.550  23.288  1.00  0.00    -0.200 OA
BRANCH  12  15
ATOM     15  N   UNL A   1      33.929  24.359  24.561  1.00  0.00    -0.277 N 
ATOM     16  H   UNL A   1      34.673  24.999  24.495  1.00  0.00     0.180 HD
BRANCH  15  17
ATOM     17  C   UNL A   1      33.584  23.883  25.883  1.00  0.00     0.075 A 
ATOM     18  C   UNL A   1      34.460  22.957  26.481  1.00  0.00     0.089 A 
ATOM     19  C   UNL A   1      34.031  22.121  27.527  1.00  0.00     0.030 A 
ATOM     20  C   UNL A   1      32.724  22.210  27.997  1.00  0.00     0.002 A 
ATOM     21  C   UNL A   1      32.309  24.013  26.437  1.00  0.00     0.029 A 
ATOM     22  C   UNL A   1      31.872  23.172  27.468  1.00  0.00     0.002 A 
BRANCH  18  23
ATOM     23  N   UNL A   1      35.820  22.917  26.086  1.00  0.00    -0.236 N 
ATOM     24  C   UNL A   1      39.007  24.450  26.433  1.00  0.00     0.069 C 
ATOM     25  C   UNL A   1      37.848  23.577  26.122  1.00  0.00     0.060 A 
ATOM     26  C   UNL A   1      37.873  22.249  25.649  1.00  0.00     0.048 A 
ATOM     27  N   UNL A   1      36.593  24.026  26.245  1.00  0.00    -0.173 NA
ATOM     28  C   UNL A   1      36.552  21.863  25.572  1.00  0.00     0.041 A 
ATOM     29  C   UNL A   1      35.947  20.643  24.985  1.00  0.00     0.067 C 
ENDBRANCH  18  23
ENDBRANCH  15  17
ENDBRANCH  12  15
ENDBRANCH   7  12
ENDBRANCH   3   6
ENDBRANCH   1   2
BRANCH   1  30
ATOM     30  C   UNL A   1      32.710  28.244  24.926  1.00  0.00     0.023 C 
BRANCH  30  31
ATOM     31  C   UNL A   1      34.006  28.821  25.516  1.00  0.00     0.023 C 
BRANCH  31  32
ATOM     32  C   UNL A   1      33.889  29.383  26.928  1.00  0.00     0.116 C 
BRANCH  32  33
ATOM     33  N   UNL A   1      34.142  30.824  27.003  1.00  0.00    -0.352 N 
ATOM     34  C   UNL A   1      35.084  31.501  27.757  1.00  0.00     0.251 C 
ATOM     35  H   UNL A   1      33.563  31.388  26.439  1.00  0.00     0.163 HD
ATOM     36  O   UNL A   1      34.955  32.690  28.022  1.00  0.00    -0.269 OA
BRANCH  34  37
ATOM     37  C   UNL A   1      36.268  30.765  28.229  1.00  0.00     0.039 A 
ATOM     38  C   UNL A   1      36.434  29.393  28.008  1.00  0.00     0.014 A 
ATOM     39  C   UNL A   1      37.247  31.504  28.877  1.00  0.00     0.014 A 
ATOM     40  C   UNL A   1      37.641  28.795  28.368  1.00  0.00     0.010 A 
ATOM     41  C   UNL A   1      38.490  30.963  29.053  1.00  0.00     0.010 A 
ATOM     42  C   UNL A   1      38.672  29.594  28.878  1.00  0.00    -0.014 A 
BRANCH  42  43
ATOM     43  C   UNL A   1      39.991  29.054  29.195  1.00  0.00     0.031 A 
ATOM     44  C   UNL A   1      40.298  28.879  30.643  1.00  0.00     0.074 A 
ATOM     45  C   UNL A   1      40.732  28.456  28.235  1.00  0.00     0.049 A 
ATOM     46  N   UNL A   1      41.301  29.344  31.315  1.00  0.00    -0.248 NA
ATOM     47  C   UNL A   1      39.324  28.145  31.469  1.00  0.00     0.031 C 
ATOM     48  C   UNL A   1      40.376  28.228  26.826  1.00  0.00     0.029 A 
ATOM     49  N   UNL A   1      41.903  27.777  28.353  1.00  0.00    -0.354 N 
ATOM     50  C   UNL A   1      41.183  28.824  32.606  1.00  0.00     0.074 A 
ATOM     51  C   UNL A   1      39.872  28.234  32.683  1.00  0.00     0.031 C 
ATOM     52  C   UNL A   1      41.164  27.264  26.309  1.00  0.00     0.029 A 
ATOM     53  C   UNL A   1      42.192  26.945  27.281  1.00  0.00     0.049 A 
ATOM     54  H   UNL A   1      42.497  27.868  29.133  1.00  0.00     0.167 HD
ATOM     55  C   UNL A   1      42.260  28.721  33.435  1.00  0.00     0.037 A 
ATOM     56  C   UNL A   1      43.183  26.025  27.210  1.00  0.00     0.037 A 
ATOM     57  C   UNL A   1      43.342  29.558  32.983  1.00  0.00     0.049 A 
ATOM     58  C   UNL A   1      44.159  26.346  28.280  1.00  0.00     0.074 A 
ATOM     59  C   UNL A   1      43.491  30.912  32.756  1.00  0.00     0.029 A 
ATOM     60  N   UNL A   1      44.399  28.963  32.339  1.00  0.00    -0.354 N 
ATOM     61  N   UNL A   1      44.903  27.418  28.291  1.00  0.00    -0.248 NA
ATOM     62  C   UNL A   1      43.978  25.698  29.571  1.00  0.00     0.031 C 
ATOM     63  C   UNL A   1      44.304  31.000  31.586  1.00  0.00     0.029 A 
ATOM     64  C   UNL A   1      44.652  29.701  31.214  1.00  0.00     0.049 A 
ATOM     65  H   UNL A   1      44.883  28.156  32.632  1.00  0.00     0.167 HD
ATOM     66  C   UNL A   1      44.931  27.816  29.620  1.00  0.00     0.074 A 
ATOM     67  C   UNL A   1      44.428  26.669  30.371  1.00  0.00     0.031 C 
ATOM     68  C   UNL A   1      45.080  29.129  29.959  1.00  0.00     0.037 A 
BRANCH  55  69
ATOM     69  C   UNL A   1      42.480  27.610  34.441  1.00  0.00     0.064 A 
ATOM     70  C   UNL A   1      43.040  26.390  34.001  1.00  0.00     0.173 A 
ATOM     71  C   UNL A   1      41.893  27.572  35.724  1.00  0.00     0.173 A 
ATOM     72  F   UNL A   1      43.623  26.298  32.796  1.00  0.00    -0.203 F 
ATOM     73  C   UNL A   1      42.927  25.210  34.744  1.00  0.00     0.198 A 
ATOM     74  C   UNL A   1      41.833  26.405  36.486  1.00  0.00     0.198 A 
ATOM     75  F   UNL A   1      41.255  28.622  36.250  1.00  0.00    -0.203 F 
ATOM     76  F   UNL A   1      43.348  24.051  34.219  1.00  0.00    -0.200 F 
ATOM     77  C   UNL A   1      42.314  25.217  35.981  1.00  0.00     0.200 A 
ATOM     78  F   UNL A   1      41.223  26.430  37.679  1.00  0.00    -0.200 F 
ATOM     79  F   UNL A   1      42.141  24.078  36.663  1.00  0.00    -0.200 F 
ENDBRANCH  55  69
BRANCH  56  80
ATOM     80  C   UNL A   1      43.192  24.744  26.470  1.00  0.00     0.064 A 
ATOM     81  C   UNL A   1      44.028  24.554  25.359  1.00  0.00     0.173 A 
ATOM     82  C   UNL A   1      42.566  23.593  26.989  1.00  0.00     0.173 A 
ATOM     83  F   UNL A   1      44.693  25.592  24.832  1.00  0.00    -0.203 F 
ATOM     84  C   UNL A   1      44.242  23.284  24.813  1.00  0.00     0.198 A 
ATOM     85  C   UNL A   1      42.773  22.328  26.438  1.00  0.00     0.198 A 
ATOM     86  F   UNL A   1      41.814  23.661  28.098  1.00  0.00    -0.203 F 
ATOM     87  F   UNL A   1      45.092  23.132  23.788  1.00  0.00    -0.200 F 
ATOM     88  C   UNL A   1      43.622  22.172  25.358  1.00  0.00     0.200 A 
ATOM     89  F   UNL A   1      42.193  21.255  26.996  1.00  0.00    -0.200 F 
ATOM     90  F   UNL A   1      43.870  20.949  24.870  1.00  0.00    -0.200 F 
ENDBRANCH  56  80
BRANCH  68  91
ATOM     91  C   UNL A   1      45.475  30.100  28.882  1.00  0.00     0.064 A 
ATOM     92  C   UNL A   1      44.556  30.788  28.069  1.00  0.00     0.173 A 
ATOM     93  C   UNL A   1      46.821  30.476  28.788  1.00  0.00     0.173 A 
ATOM     94  F   UNL A   1      43.243  30.562  28.170  1.00  0.00    -0.203 F 
ATOM     95  C   UNL A   1      44.973  31.776  27.179  1.00  0.00     0.198 A 
ATOM     96  C   UNL A   1      47.230  31.488  27.925  1.00  0.00     0.198 A 
ATOM     97  F   UNL A   1      47.736  29.895  29.579  1.00  0.00    -0.203 F 
ATOM     98  F   UNL A   1      44.074  32.410  26.412  1.00  0.00    -0.200 F 
ATOM     99  C   UNL A   1      46.308  32.131  27.114  1.00  0.00     0.200 A 
ATOM    100  F   UNL A   1      48.516  31.863  27.901  1.00  0.00    -0.200 F 
ATOM    101  F   UNL A   1      46.703  33.115  26.293  1.00  0.00    -0.200 F 
ENDBRANCH  68  91
ENDBRANCH  42  43
ENDBRANCH  34  37
ENDBRANCH  32  33
ENDBRANCH  31  32
ENDBRANCH  30  31
ENDBRANCH   1  30
TORSDOF 15
ENDMDL
MODEL 2
REMARK VINA RESULT:     -13.9      3.168      8.594
REMARK SMILES Cc1cc(C)n(-c2ccccc2NS(=O)(=O)c2cc(C)c(C(=O)NCCCCNC(=O)c3ccc(-c4c5nc(c(-c6c(F)c(F)c(F)c(F)c6F)c6ccc([nH]6)c(-c6c(F)c(F)c(F)c(F)c6F)c6nc(c(-c7c(F)c(F)c(F)c(F)c7F)c7ccc4[nH]7)C=C6)C=C5)cc3)s2)n1
REMARK SMILES IDX 25 1 24 2 22 3 23 4 21 6 17 7 18 8 95 9 19 10 20 11 14 12
REMARK SMILES IDX 15 13 16 14 13 15 12 17 7 18 8 19 9 20 11 21 10 22 6 23 1 24
REMARK SMILES IDX 2 25 3 26 96 27 4 28 5 29 26 30 27 31 28 32 29 33 30 34
REMARK SMILES IDX 31 36 32 37 33 38 94 39 34 40 93 41 35 42 36 43 37 44 87 45
REMARK SMILES IDX 38 46 92 47 86 48 88 49 39 50 91 51 85 52 84 53 40 55 72 56
REMARK SMILES IDX 52 57 71 58 53 59 56 60 70 61 89 62 54 63 55 64 69 66 90 67
REMARK SMILES IDX 57 68 41 69 42 70 50 71 43 72 44 73 48 74 51 75 45 76 46 77
REMARK SMILES IDX 49 78 47 79 73 80 74 81 82 82 75 83 76 84 80 85 83 86 77 87
REMARK SMILES IDX 78 88 81 89 79 90 58 91 59 92 67 93 60 94 61 95 65 96 68 97
REMARK SMILES IDX 62 98 63 99 66 100 64 101
REMARK H PARENT 24 5 13 16 29 35 88 54 56 65
REMARK Flexibility Score: inf
ROOT
ATOM      1  C   UNL A   1      34.911  21.557  25.780  1.00  0.00     0.116 C 
ENDROOT
BRANCH   1   2
ATOM      2  N   UNL A   1      33.951  20.465  25.706  1.00  0.00    -0.351 N 
ATOM      3  C   UNL A   1      32.610  20.400  25.391  1.00  0.00     0.261 C 
ATOM      4  O   UNL A   1      32.153  19.253  25.349  1.00  0.00    -0.268 OA
ATOM      5  H   UNL A   1      34.341  19.587  25.926  1.00  0.00     0.163 HD
BRANCH   3   6
ATOM      6  C   UNL A   1      31.799  21.567  25.038  1.00  0.00     0.096 A 
ATOM      7  C   UNL A   1      30.770  23.777  25.210  1.00  0.00     0.141 A 
ATOM      8  C   UNL A   1      31.018  23.460  23.888  1.00  0.00     0.038 A 
ATOM      9  S   UNL A   1      30.736  22.346  26.129  1.00  0.00    -0.116 S 
ATOM     10  C   UNL A   1      31.695  22.186  23.785  1.00  0.00    -0.026 A 
ATOM     11  C   UNL A   1      32.335  21.696  22.523  1.00  0.00     0.046 C 
BRANCH   7  12
ATOM     12  S   UNL A   1      30.586  25.287  26.127  1.00  0.00     0.271 S 
ATOM     13  O   UNL A   1      31.786  25.421  26.920  1.00  0.00    -0.200 OA
ATOM     14  O   UNL A   1      29.277  25.188  26.738  1.00  0.00    -0.200 OA
BRANCH  12  15
ATOM     15  N   UNL A   1      30.540  26.586  25.069  1.00  0.00    -0.277 N 
ATOM     16  H   UNL A   1      29.839  26.575  24.378  1.00  0.00     0.180 HD
BRANCH  15  17
ATOM     17  C   UNL A   1      31.436  27.721  25.080  1.00  0.00     0.075 A 
ATOM     18  C   UNL A   1      32.723  27.529  24.540  1.00  0.00     0.089 A 
ATOM     19  C   UNL A   1      33.787  28.383  24.877  1.00  0.00     0.030 A 
ATOM     20  C   UNL A   1      33.575  29.449  25.746  1.00  0.00     0.002 A 
ATOM     21  C   UNL A   1      31.235  28.852  25.874  1.00  0.00     0.029 A 
ATOM     22  C   UNL A   1      32.295  29.697  26.225  1.00  0.00     0.002 A 
BRANCH  18  23
ATOM     23  N   UNL A   1      32.939  26.512  23.579  1.00  0.00    -0.236 N 
ATOM     24  C   UNL A   1      32.529  25.577  20.175  1.00  0.00     0.069 C 
ATOM     25  C   UNL A   1      32.881  25.687  21.613  1.00  0.00     0.060 A 
ATOM     26  C   UNL A   1      33.863  24.962  22.316  1.00  0.00     0.048 A 
ATOM     27  N   UNL A   1      32.221  26.524  22.422  1.00  0.00    -0.173 NA
ATOM     28  C   UNL A   1      33.841  25.464  23.600  1.00  0.00     0.041 A 
ATOM     29  C   UNL A   1      34.525  24.984  24.825  1.00  0.00     0.067 C 
ENDBRANCH  18  23
ENDBRANCH  15  17
ENDBRANCH  12  15
ENDBRANCH   7  12
ENDBRANCH   3   6
ENDBRANCH   1   2
BRANCH   1  30
ATOM     30  C   UNL A   1      36.239  21.217  25.093  1.00  0.00     0.023 C 
BRANCH  30  31
ATOM     31  C   UNL A   1      37.200  22.396  24.879  1.00  0.00     0.023 C 
BRANCH  31  32
ATOM     32  C   UNL A   1      37.947  22.864  26.123  1.00  0.00     0.116 C 
BRANCH  32  33
ATOM     33  N   UNL A   1      39.161  22.090  26.397  1.00  0.00    -0.352 N 
ATOM     34  C   UNL A   1      40.456  22.542  26.571  1.00  0.00     0.251 C 
ATOM     35  H   UNL A   1      39.037  21.115  26.468  1.00  0.00     0.163 HD
ATOM     36  O   UNL A   1      41.418  21.798  26.419  1.00  0.00    -0.269 OA
BRANCH  34  37
ATOM     37  C   UNL A   1      40.666  23.945  26.962  1.00  0.00     0.039 A 
ATOM     38  C   UNL A   1      39.870  24.986  26.470  1.00  0.00     0.014 A 
ATOM     39  C   UNL A   1      41.671  24.195  27.884  1.00  0.00     0.014 A 
ATOM     40  C   UNL A   1      40.044  26.269  26.988  1.00  0.00     0.010 A 
ATOM     41  C   UNL A   1      41.711  25.402  28.524  1.00  0.00     0.010 A 
ATOM     42  C   UNL A   1      40.960  26.464  28.030  1.00  0.00    -0.014 A 
BRANCH  42  43
ATOM     43  C   UNL A   1      41.132  27.759  28.681  1.00  0.00     0.031 A 
ATOM     44  C   UNL A   1      42.216  28.628  28.138  1.00  0.00     0.074 A 
ATOM     45  C   UNL A   1      40.166  28.251  29.488  1.00  0.00     0.049 A 
ATOM     46  N   UNL A   1      43.205  29.170  28.771  1.00  0.00    -0.248 NA
ATOM     47  C   UNL A   1      42.239  28.872  26.686  1.00  0.00     0.031 C 
ATOM     48  C   UNL A   1      38.863  27.648  29.814  1.00  0.00     0.029 A 
ATOM     49  N   UNL A   1      40.073  29.477  30.068  1.00  0.00    -0.354 N 
ATOM     50  C   UNL A   1      43.880  29.961  27.838  1.00  0.00     0.074 A 
ATOM     51  C   UNL A   1      43.342  29.611  26.550  1.00  0.00     0.031 C 
ATOM     52  C   UNL A   1      38.033  28.596  30.295  1.00  0.00     0.029 A 
ATOM     53  C   UNL A   1      38.794  29.815  30.487  1.00  0.00     0.049 A 
ATOM     54  H   UNL A   1      40.847  30.074  30.181  1.00  0.00     0.167 HD
ATOM     55  C   UNL A   1      44.667  31.005  28.224  1.00  0.00     0.037 A 
ATOM     56  C   UNL A   1      38.376  31.027  30.923  1.00  0.00     0.037 A 
ATOM     57  C   UNL A   1      45.018  30.900  29.618  1.00  0.00     0.049 A 
ATOM     58  C   UNL A   1      39.586  31.807  31.282  1.00  0.00     0.074 A 
ATOM     59  C   UNL A   1      45.677  29.958  30.384  1.00  0.00     0.029 A 
ATOM     60  N   UNL A   1      44.359  31.703  30.516  1.00  0.00    -0.354 N 
ATOM     61  N   UNL A   1      40.374  31.513  32.280  1.00  0.00    -0.248 NA
ATOM     62  C   UNL A   1      40.172  32.650  30.250  1.00  0.00     0.031 C 
ATOM     63  C   UNL A   1      44.970  29.934  31.624  1.00  0.00     0.029 A 
ATOM     64  C   UNL A   1      43.969  30.904  31.559  1.00  0.00     0.049 A 
ATOM     65  H   UNL A   1      44.197  32.670  30.427  1.00  0.00     0.167 HD
ATOM     66  C   UNL A   1      41.653  31.769  31.807  1.00  0.00     0.074 A 
ATOM     67  C   UNL A   1      41.460  32.555  30.592  1.00  0.00     0.031 C 
ATOM     68  C   UNL A   1      42.730  31.075  32.279  1.00  0.00     0.037 A 
BRANCH  55  69
ATOM     69  C   UNL A   1      44.830  32.302  27.459  1.00  0.00     0.064 A 
ATOM     70  C   UNL A   1      46.018  32.521  26.727  1.00  0.00     0.173 A 
ATOM     71  C   UNL A   1      44.029  33.447  27.657  1.00  0.00     0.173 A 
ATOM     72  F   UNL A   1      46.866  31.510  26.478  1.00  0.00    -0.203 F 
ATOM     73  C   UNL A   1      46.417  33.798  26.321  1.00  0.00     0.198 A 
ATOM     74  C   UNL A   1      44.403  34.711  27.200  1.00  0.00     0.198 A 
ATOM     75  F   UNL A   1      42.913  33.421  28.393  1.00  0.00    -0.203 F 
ATOM     76  F   UNL A   1      47.620  33.972  25.757  1.00  0.00    -0.200 F 
ATOM     77  C   UNL A   1      45.613  34.894  26.568  1.00  0.00     0.200 A 
ATOM     78  F   UNL A   1      43.615  35.764  27.460  1.00  0.00    -0.200 F 
ATOM     79  F   UNL A   1      46.022  36.127  26.243  1.00  0.00    -0.200 F 
ENDBRANCH  55  69
BRANCH  56  80
ATOM     80  C   UNL A   1      37.036  31.638  30.784  1.00  0.00     0.064 A 
ATOM     81  C   UNL A   1      36.224  31.870  31.905  1.00  0.00     0.173 A 
ATOM     82  C   UNL A   1      36.626  32.239  29.577  1.00  0.00     0.173 A 
ATOM     83  F   UNL A   1      36.568  31.368  33.100  1.00  0.00    -0.203 F 
ATOM     84  C   UNL A   1      35.082  32.673  31.828  1.00  0.00     0.198 A 
ATOM     85  C   UNL A   1      35.481  33.032  29.499  1.00  0.00     0.198 A 
ATOM     86  F   UNL A   1      37.379  32.141  28.471  1.00  0.00    -0.203 F 
ATOM     87  F   UNL A   1      34.362  32.919  32.931  1.00  0.00    -0.200 F 
ATOM     88  C   UNL A   1      34.716  33.260  30.627  1.00  0.00     0.200 A 
ATOM     89  F   UNL A   1      35.157  33.621  28.338  1.00  0.00    -0.200 F 
ATOM     90  F   UNL A   1      33.653  34.074  30.566  1.00  0.00    -0.200 F 
ENDBRANCH  56  80
BRANCH  68  91
ATOM     91  C   UNL A   1      42.543  30.219  33.501  1.00  0.00     0.064 A 
ATOM     92  C   UNL A   1      42.582  30.711  34.817  1.00  0.00     0.173 A 
ATOM     93  C   UNL A   1      42.140  28.889  33.324  1.00  0.00     0.173 A 
ATOM     94  F   UNL A   1      42.858  31.995  35.066  1.00  0.00    -0.203 F 
ATOM     95  C   UNL A   1      42.268  29.898  35.905  1.00  0.00     0.198 A 
ATOM     96  C   UNL A   1      41.792  28.090  34.409  1.00  0.00     0.198 A 
ATOM     97  F   UNL A   1      42.029  28.381  32.087  1.00  0.00    -0.203 F 
ATOM     98  F   UNL A   1      42.320  30.394  37.150  1.00  0.00    -0.200 F 
ATOM     99  C   UNL A   1      41.865  28.591  35.699  1.00  0.00     0.200 A 
ATOM    100  F   UNL A   1      41.355  26.840  34.202  1.00  0.00    -0.200 F 
ATOM    101  F   UNL A   1      41.517  27.822  36.741  1.00  0.00    -0.200 F 
ENDBRANCH  68  91
ENDBRANCH  42  43
ENDBRANCH  34  37
ENDBRANCH  32  33
ENDBRANCH  31  32
ENDBRANCH  30  31
ENDBRANCH   1  30
TORSDOF 15
ENDMDL
MODEL 3
REMARK VINA RESULT:     -13.9      2.923      8.376
REMARK SMILES Cc1cc(C)n(-c2ccccc2NS(=O)(=O)c2cc(C)c(C(=O)NCCCCNC(=O)c3ccc(-c4c5nc(c(-c6c(F)c(F)c(F)c(F)c6F)c6ccc([nH]6)c(-c6c(F)c(F)c(F)c(F)c6F)c6nc(c(-c7c(F)c(F)c(F)c(F)c7F)c7ccc4[nH]7)C=C6)C=C5)cc3)s2)n1
REMARK SMILES IDX 25 1 24 2 22 3 23 4 21 6 17 7 18 8 95 9 19 10 20 11 14 12
REMARK SMILES IDX 15 13 16 14 13 15 12 17 7 18 8 19 9 20 11 21 10 22 6 23 1 24
REMARK SMILES IDX 2 25 3 26 96 27 4 28 5 29 26 30 27 31 28 32 29 33 30 34
REMARK SMILES IDX 31 36 32 37 33 38 94 39 34 40 93 41 35 42 36 43 37 44 87 45
REMARK SMILES IDX 38 46 92 47 86 48 88 49 39 50 91 51 85 52 84 53 40 55 72 56
REMARK SMILES IDX 52 57 71 58 53 59 56 60 70 61 89 62 54 63 55 64 69 66 90 67
REMARK SMILES IDX 57 68 41 69 42 70 50 71 43 72 44 73 48 74 51 75 45 76 46 77
REMARK SMILES IDX 49 78 47 79 73 80 74 81 82 82 75 83 76 84 80 85 83 86 77 87
REMARK SMILES IDX 78 88 81 89 79 90 58 91 59 92 67 93 60 94 61 95 65 96 68 97
REMARK SMILES IDX 62 98 63 99 66 100 64 101
REMARK H PARENT 24 5 13 16 29 35 88 54 56 65
REMARK Flexibility Score: inf
ROOT
ATOM      1  C   UNL A   1      35.182  21.061  24.857  1.00  0.00     0.116 C 
ENDROOT
BRANCH   1   2
ATOM      2  N   UNL A   1      34.106  20.117  25.122  1.00  0.00    -0.351 N 
ATOM      3  C   UNL A   1      32.730  20.217  25.108  1.00  0.00     0.261 C 
ATOM      4  O   UNL A   1      32.142  19.150  25.305  1.00  0.00    -0.268 OA
ATOM      5  H   UNL A   1      34.428  19.217  25.361  1.00  0.00     0.163 HD
BRANCH   3   6
ATOM      6  C   UNL A   1      32.008  21.450  24.793  1.00  0.00     0.096 A 
ATOM      7  C   UNL A   1      31.262  23.773  24.953  1.00  0.00     0.141 A 
ATOM      8  C   UNL A   1      31.271  23.358  23.635  1.00  0.00     0.038 A 
ATOM      9  S   UNL A   1      31.214  22.408  25.967  1.00  0.00    -0.116 S 
ATOM     10  C   UNL A   1      31.782  22.008  23.528  1.00  0.00    -0.026 A 
ATOM     11  C   UNL A   1      32.165  21.378  22.224  1.00  0.00     0.046 C 
BRANCH   7  12
ATOM     12  S   UNL A   1      31.386  25.342  25.776  1.00  0.00     0.271 S 
ATOM     13  O   UNL A   1      31.182  25.074  27.181  1.00  0.00    -0.200 OA
ATOM     14  O   UNL A   1      30.502  26.216  25.033  1.00  0.00    -0.200 OA
BRANCH  12  15
ATOM     15  N   UNL A   1      32.938  25.948  25.603  1.00  0.00    -0.277 N 
ATOM     16  H   UNL A   1      33.536  25.876  26.382  1.00  0.00     0.180 HD
BRANCH  15  17
ATOM     17  C   UNL A   1      33.480  26.567  24.413  1.00  0.00     0.075 A 
ATOM     18  C   UNL A   1      33.568  27.972  24.402  1.00  0.00     0.089 A 
ATOM     19  C   UNL A   1      33.658  28.686  23.195  1.00  0.00     0.030 A 
ATOM     20  C   UNL A   1      33.676  28.003  21.983  1.00  0.00     0.002 A 
ATOM     21  C   UNL A   1      33.593  25.907  23.188  1.00  0.00     0.029 A 
ATOM     22  C   UNL A   1      33.667  26.614  21.981  1.00  0.00     0.002 A 
BRANCH  18  23
ATOM     23  N   UNL A   1      33.650  28.682  25.626  1.00  0.00    -0.236 N 
ATOM     24  C   UNL A   1      35.748  29.560  28.355  1.00  0.00     0.069 C 
ATOM     25  C   UNL A   1      34.663  29.413  27.354  1.00  0.00     0.060 A 
ATOM     26  C   UNL A   1      33.546  30.252  27.167  1.00  0.00     0.048 A 
ATOM     27  N   UNL A   1      34.640  28.376  26.508  1.00  0.00    -0.173 NA
ATOM     28  C   UNL A   1      32.870  29.726  26.086  1.00  0.00     0.041 A 
ATOM     29  C   UNL A   1      31.540  30.075  25.531  1.00  0.00     0.067 C 
ENDBRANCH  18  23
ENDBRANCH  15  17
ENDBRANCH  12  15
ENDBRANCH   7  12
ENDBRANCH   3   6
ENDBRANCH   1   2
BRANCH   1  30
ATOM     30  C   UNL A   1      35.363  22.076  25.992  1.00  0.00     0.023 C 
BRANCH  30  31
ATOM     31  C   UNL A   1      35.799  23.485  25.563  1.00  0.00     0.023 C 
BRANCH  31  32
ATOM     32  C   UNL A   1      37.304  23.694  25.433  1.00  0.00     0.116 C 
BRANCH  32  33
ATOM     33  N   UNL A   1      38.085  22.492  25.736  1.00  0.00    -0.352 N 
ATOM     34  C   UNL A   1      39.332  22.395  26.326  1.00  0.00     0.251 C 
ATOM     35  H   UNL A   1      37.665  21.637  25.485  1.00  0.00     0.163 HD
ATOM     36  O   UNL A   1      40.029  21.397  26.185  1.00  0.00    -0.269 OA
BRANCH  34  37
ATOM     37  C   UNL A   1      39.809  23.517  27.150  1.00  0.00     0.039 A 
ATOM     38  C   UNL A   1      41.057  23.502  27.784  1.00  0.00     0.014 A 
ATOM     39  C   UNL A   1      38.979  24.624  27.243  1.00  0.00     0.014 A 
ATOM     40  C   UNL A   1      41.494  24.655  28.437  1.00  0.00     0.010 A 
ATOM     41  C   UNL A   1      39.482  25.804  27.713  1.00  0.00     0.010 A 
ATOM     42  C   UNL A   1      40.703  25.809  28.383  1.00  0.00    -0.014 A 
BRANCH  42  43
ATOM     43  C   UNL A   1      41.134  27.076  28.967  1.00  0.00     0.031 A 
ATOM     44  C   UNL A   1      42.328  27.714  28.341  1.00  0.00     0.074 A 
ATOM     45  C   UNL A   1      40.311  27.764  29.789  1.00  0.00     0.049 A 
ATOM     46  N   UNL A   1      43.427  28.093  28.907  1.00  0.00    -0.248 NA
ATOM     47  C   UNL A   1      42.323  27.895  26.879  1.00  0.00     0.031 C 
ATOM     48  C   UNL A   1      38.939  27.418  30.195  1.00  0.00     0.029 A 
ATOM     49  N   UNL A   1      40.466  29.007  30.316  1.00  0.00    -0.354 N 
ATOM     50  C   UNL A   1      44.186  28.714  27.912  1.00  0.00     0.074 A 
ATOM     51  C   UNL A   1      43.532  28.418  26.665  1.00  0.00     0.031 C 
ATOM     52  C   UNL A   1      38.315  28.517  30.666  1.00  0.00     0.029 A 
ATOM     53  C   UNL A   1      39.289  29.585  30.770  1.00  0.00     0.049 A 
ATOM     54  H   UNL A   1      41.338  29.459  30.369  1.00  0.00     0.167 HD
ATOM     55  C   UNL A   1      45.164  29.613  28.218  1.00  0.00     0.037 A 
ATOM     56  C   UNL A   1      39.115  30.868  31.167  1.00  0.00     0.037 A 
ATOM     57  C   UNL A   1      45.557  29.499  29.600  1.00  0.00     0.049 A 
ATOM     58  C   UNL A   1      40.461  31.431  31.440  1.00  0.00     0.074 A 
ATOM     59  C   UNL A   1      46.074  28.484  30.381  1.00  0.00     0.029 A 
ATOM     60  N   UNL A   1      45.096  30.441  30.486  1.00  0.00    -0.354 N 
ATOM     61  N   UNL A   1      41.231  31.038  32.418  1.00  0.00    -0.248 NA
ATOM     62  C   UNL A   1      41.137  32.115  30.348  1.00  0.00     0.031 C 
ATOM     63  C   UNL A   1      45.435  28.634  31.648  1.00  0.00     0.029 A 
ATOM     64  C   UNL A   1      44.621  29.766  31.579  1.00  0.00     0.049 A 
ATOM     65  H   UNL A   1      45.105  31.418  30.359  1.00  0.00     0.167 HD
ATOM     66  C   UNL A   1      42.510  31.041  31.882  1.00  0.00     0.074 A 
ATOM     67  C   UNL A   1      42.402  31.804  30.641  1.00  0.00     0.031 C 
ATOM     68  C   UNL A   1      43.468  30.184  32.341  1.00  0.00     0.037 A 
BRANCH  55  69
ATOM     69  C   UNL A   1      45.518  30.830  27.388  1.00  0.00     0.064 A 
ATOM     70  C   UNL A   1      46.872  31.070  27.067  1.00  0.00     0.173 A 
ATOM     71  C   UNL A   1      44.646  31.917  27.160  1.00  0.00     0.173 A 
ATOM     72  F   UNL A   1      47.798  30.114  27.245  1.00  0.00    -0.203 F 
ATOM     73  C   UNL A   1      47.327  32.326  26.653  1.00  0.00     0.198 A 
ATOM     74  C   UNL A   1      45.096  33.152  26.693  1.00  0.00     0.198 A 
ATOM     75  F   UNL A   1      43.350  31.875  27.484  1.00  0.00    -0.203 F 
ATOM     76  F   UNL A   1      48.641  32.540  26.500  1.00  0.00    -0.200 F 
ATOM     77  C   UNL A   1      46.439  33.369  26.477  1.00  0.00     0.200 A 
ATOM     78  F   UNL A   1      44.220  34.155  26.539  1.00  0.00    -0.200 F 
ATOM     79  F   UNL A   1      46.878  34.590  26.149  1.00  0.00    -0.200 F 
ENDBRANCH  55  69
BRANCH  56  80
ATOM     80  C   UNL A   1      37.900  31.705  31.055  1.00  0.00     0.064 A 
ATOM     81  C   UNL A   1      37.510  32.258  29.826  1.00  0.00     0.173 A 
ATOM     82  C   UNL A   1      36.957  31.770  32.101  1.00  0.00     0.173 A 
ATOM     83  F   UNL A   1      38.334  32.198  28.771  1.00  0.00    -0.203 F 
ATOM     84  C   UNL A   1      36.244  32.825  29.647  1.00  0.00     0.198 A 
ATOM     85  C   UNL A   1      35.697  32.344  31.923  1.00  0.00     0.198 A 
ATOM     86  F   UNL A   1      37.206  31.197  33.288  1.00  0.00    -0.203 F 
ATOM     87  F   UNL A   1      35.886  33.293  28.444  1.00  0.00    -0.200 F 
ATOM     88  C   UNL A   1      35.336  32.859  30.693  1.00  0.00     0.200 A 
ATOM     89  F   UNL A   1      34.816  32.341  32.935  1.00  0.00    -0.200 F 
ATOM     90  F   UNL A   1      34.104  33.352  30.506  1.00  0.00    -0.200 F 
ENDBRANCH  56  80
BRANCH  68  91
ATOM     91  C   UNL A   1      43.191  29.422  33.607  1.00  0.00     0.064 A 
ATOM     92  C   UNL A   1      43.399  29.942  34.897  1.00  0.00     0.173 A 
ATOM     93  C   UNL A   1      42.532  28.190  33.509  1.00  0.00     0.173 A 
ATOM     94  F   UNL A   1      43.929  31.156  35.074  1.00  0.00    -0.203 F 
ATOM     95  C   UNL A   1      42.998  29.243  36.033  1.00  0.00     0.198 A 
ATOM     96  C   UNL A   1      42.101  27.510  34.645  1.00  0.00     0.198 A 
ATOM     97  F   UNL A   1      42.256  27.671  32.304  1.00  0.00    -0.203 F 
ATOM     98  F   UNL A   1      43.215  29.761  37.252  1.00  0.00    -0.200 F 
ATOM     99  C   UNL A   1      42.342  28.032  35.906  1.00  0.00     0.200 A 
ATOM    100  F   UNL A   1      41.421  26.363  34.515  1.00  0.00    -0.200 F 
ATOM    101  F   UNL A   1      41.913  27.381  36.997  1.00  0.00    -0.200 F 
ENDBRANCH  68  91
ENDBRANCH  42  43
ENDBRANCH  34  37
ENDBRANCH  32  33
ENDBRANCH  31  32
ENDBRANCH  30  31
ENDBRANCH   1  30
TORSDOF 15
ENDMDL
