MODEL 1
REMARK VINA RESULT:     -13.3      0.000      0.000
REMARK SMILES Cc1ccc(C(=O)N2CCC3(CCC(=O)N(CC(=O)NCCCCNC(=O)c4ccc(-c5c6nc(c(-c7c(F)c(F)c(F)c(F)c7F)c7ccc([nH]7)c(-c7c(F)c(F)c(F)c(F)c7F)c7nc(c(-c8c(F)c(F)c(F)c(F)c8F)c8ccc5[nH]8)C=C7)C=C6)cc4)C3)CC2)cc1O
REMARK SMILES IDX 22 1 21 2 20 3 18 4 19 5 17 7 16 8 6 9 7 10 8 11 9 12 93 13
REMARK SMILES IDX 10 14 92 15 11 16 12 17 91 18 13 19 14 20 15 21 5 22 1 23
REMARK SMILES IDX 2 24 3 25 95 26 4 27 94 28 96 29 23 31 24 32 25 33 26 34
REMARK SMILES IDX 27 36 28 37 29 38 90 39 30 40 89 41 31 42 32 43 33 44 83 45
REMARK SMILES IDX 34 46 88 47 82 48 84 49 35 50 87 51 81 52 80 53 36 55 68 56
REMARK SMILES IDX 48 57 67 58 49 59 52 60 66 61 85 62 50 63 51 64 65 66 86 67
REMARK SMILES IDX 53 68 37 69 38 70 46 71 39 72 40 73 44 74 47 75 41 76 42 77
REMARK SMILES IDX 45 78 43 79 69 80 70 81 78 82 71 83 72 84 76 85 79 86 73 87
REMARK SMILES IDX 74 88 77 89 75 90 54 91 55 92 63 93 56 94 57 95 61 96 64 97
REMARK SMILES IDX 58 98 59 99 62 100 60 101
REMARK H PARENT 20 6 96 30 25 35 84 54 52 65
REMARK Flexibility Score: inf
ROOT
ATOM      1  C   UNL A   1      34.545  31.145  28.031  1.00  0.00     0.023 C 
ENDROOT
BRANCH   1   2
ATOM      2  C   UNL A   1      34.380  29.859  27.228  1.00  0.00     0.116 C 
BRANCH   2   3
ATOM      3  N   UNL A   1      33.195  29.134  27.613  1.00  0.00    -0.355 N 
ATOM      4  C   UNL A   1      31.986  29.068  26.984  1.00  0.00     0.239 C 
ATOM      5  O   UNL A   1      31.198  28.203  27.376  1.00  0.00    -0.273 OA
ATOM      6  H   UNL A   1      33.269  28.612  28.444  1.00  0.00     0.163 HD
BRANCH   4   7
ATOM      7  C   UNL A   1      31.712  29.883  25.713  1.00  0.00     0.219 C 
BRANCH   7   8
ATOM      8  N   UNL A   1      31.714  29.193  24.417  1.00  0.00    -0.333 N 
ATOM      9  C   UNL A   1      33.529  23.033  24.586  1.00  0.00     0.253 C 
ATOM     10  O   UNL A   1      32.747  22.219  25.076  1.00  0.00    -0.269 OA
ATOM     11  N   UNL A   1      33.073  24.192  23.964  1.00  0.00    -0.339 N 
ATOM     12  C   UNL A   1      31.783  24.721  24.377  1.00  0.00     0.120 C 
ATOM     13  C   UNL A   1      33.648  24.810  22.775  1.00  0.00     0.120 C 
ATOM     14  C   UNL A   1      31.946  26.201  24.697  1.00  0.00     0.030 C 
ATOM     15  C   UNL A   1      33.794  26.325  22.958  1.00  0.00     0.030 C 
ATOM     16  C   UNL A   1      32.513  27.014  23.505  1.00  0.00    -0.008 C 
ATOM     17  C   UNL A   1      31.495  27.206  22.363  1.00  0.00     0.019 C 
ATOM     18  C   UNL A   1      32.877  28.423  23.996  1.00  0.00     0.127 C 
ATOM     19  C   UNL A   1      30.277  28.014  22.782  1.00  0.00     0.101 C 
ATOM     20  C   UNL A   1      30.538  29.203  23.689  1.00  0.00     0.223 C 
ATOM     21  O   UNL A   1      29.661  30.046  23.869  1.00  0.00    -0.275 OA
BRANCH   9  22
ATOM     22  C   UNL A   1      34.990  22.826  24.816  1.00  0.00     0.043 A 
ATOM     23  C   UNL A   1      39.049  21.961  26.055  1.00  0.00     0.048 C 
ATOM     24  C   UNL A   1      37.651  22.242  25.588  1.00  0.00    -0.009 A 
ATOM     25  C   UNL A   1      37.134  23.536  25.719  1.00  0.00     0.008 A 
ATOM     26  C   UNL A   1      36.815  21.247  25.069  1.00  0.00     0.119 A 
ATOM     27  C   UNL A   1      35.813  23.817  25.360  1.00  0.00     0.014 A 
ATOM     28  C   UNL A   1      35.507  21.533  24.674  1.00  0.00     0.060 A 
BRANCH  26  29
ATOM     29  O   UNL A   1      37.206  19.944  24.951  1.00  0.00    -0.508 OA
ATOM     30  H   UNL A   1      36.662  19.259  25.289  1.00  0.00     0.293 HD
ENDBRANCH  26  29
ENDBRANCH   9  22
ENDBRANCH   7   8
ENDBRANCH   4   7
ENDBRANCH   2   3
ENDBRANCH   1   2
BRANCH   1  31
ATOM     31  C   UNL A   1      34.019  32.401  27.333  1.00  0.00     0.023 C 
BRANCH  31  32
ATOM     32  C   UNL A   1      32.614  32.832  27.738  1.00  0.00     0.116 C 
BRANCH  32  33
ATOM     33  N   UNL A   1      32.477  34.274  27.878  1.00  0.00    -0.352 N 
ATOM     34  C   UNL A   1      33.196  35.136  28.669  1.00  0.00     0.251 C 
ATOM     35  H   UNL A   1      31.772  34.689  27.330  1.00  0.00     0.163 HD
ATOM     36  O   UNL A   1      32.868  36.315  28.755  1.00  0.00    -0.269 OA
BRANCH  34  37
ATOM     37  C   UNL A   1      34.345  34.628  29.447  1.00  0.00     0.039 A 
ATOM     38  C   UNL A   1      34.100  33.966  30.653  1.00  0.00     0.014 A 
ATOM     39  C   UNL A   1      35.653  34.775  28.976  1.00  0.00     0.014 A 
ATOM     40  C   UNL A   1      35.161  33.390  31.353  1.00  0.00     0.010 A 
ATOM     41  C   UNL A   1      36.699  34.136  29.636  1.00  0.00     0.010 A 
ATOM     42  C   UNL A   1      36.464  33.436  30.828  1.00  0.00    -0.014 A 
BRANCH  42  43
ATOM     43  C   UNL A   1      37.584  32.735  31.504  1.00  0.00     0.031 A 
ATOM     44  C   UNL A   1      38.240  31.547  30.858  1.00  0.00     0.074 A 
ATOM     45  C   UNL A   1      37.962  33.125  32.736  1.00  0.00     0.049 A 
ATOM     46  N   UNL A   1      39.198  30.780  31.314  1.00  0.00    -0.248 NA
ATOM     47  C   UNL A   1      37.729  31.148  29.539  1.00  0.00     0.031 C 
ATOM     48  C   UNL A   1      37.357  34.219  33.497  1.00  0.00     0.029 A 
ATOM     49  N   UNL A   1      38.935  32.636  33.573  1.00  0.00    -0.354 N 
ATOM     50  C   UNL A   1      39.392  29.803  30.348  1.00  0.00     0.074 A 
ATOM     51  C   UNL A   1      38.417  30.040  29.307  1.00  0.00     0.031 C 
ATOM     52  C   UNL A   1      37.983  34.332  34.679  1.00  0.00     0.029 A 
ATOM     53  C   UNL A   1      39.009  33.297  34.775  1.00  0.00     0.049 A 
ATOM     54  H   UNL A   1      39.523  31.884  33.333  1.00  0.00     0.167 HD
ATOM     55  C   UNL A   1      40.314  28.810  30.324  1.00  0.00     0.037 A 
ATOM     56  C   UNL A   1      39.807  33.088  35.838  1.00  0.00     0.037 A 
ATOM     57  C   UNL A   1      41.297  28.594  31.353  1.00  0.00     0.049 A 
ATOM     58  C   UNL A   1      40.834  31.991  35.781  1.00  0.00     0.074 A 
ATOM     59  C   UNL A   1      42.331  27.675  31.380  1.00  0.00     0.029 A 
ATOM     60  N   UNL A   1      41.361  29.300  32.546  1.00  0.00    -0.354 N 
ATOM     61  N   UNL A   1      41.075  31.133  34.820  1.00  0.00    -0.248 NA
ATOM     62  C   UNL A   1      41.709  31.841  36.952  1.00  0.00     0.031 C 
ATOM     63  C   UNL A   1      42.984  27.786  32.613  1.00  0.00     0.029 A 
ATOM     64  C   UNL A   1      42.396  28.815  33.330  1.00  0.00     0.049 A 
ATOM     65  H   UNL A   1      40.760  30.038  32.798  1.00  0.00     0.167 HD
ATOM     66  C   UNL A   1      42.137  30.354  35.259  1.00  0.00     0.074 A 
ATOM     67  C   UNL A   1      42.507  30.856  36.566  1.00  0.00     0.031 C 
ATOM     68  C   UNL A   1      42.749  29.318  34.635  1.00  0.00     0.037 A 
BRANCH  55  69
ATOM     69  C   UNL A   1      40.297  27.878  29.146  1.00  0.00     0.064 A 
ATOM     70  C   UNL A   1      41.031  28.143  27.980  1.00  0.00     0.173 A 
ATOM     71  C   UNL A   1      39.552  26.689  29.194  1.00  0.00     0.173 A 
ATOM     72  F   UNL A   1      41.752  29.270  27.878  1.00  0.00    -0.203 F 
ATOM     73  C   UNL A   1      40.989  27.275  26.893  1.00  0.00     0.198 A 
ATOM     74  C   UNL A   1      39.539  25.806  28.116  1.00  0.00     0.198 A 
ATOM     75  F   UNL A   1      38.837  26.381  30.286  1.00  0.00    -0.203 F 
ATOM     76  F   UNL A   1      41.652  27.580  25.768  1.00  0.00    -0.200 F 
ATOM     77  C   UNL A   1      40.249  26.104  26.963  1.00  0.00     0.200 A 
ATOM     78  F   UNL A   1      38.835  24.668  28.193  1.00  0.00    -0.200 F 
ATOM     79  F   UNL A   1      40.213  25.268  25.917  1.00  0.00    -0.200 F 
ENDBRANCH  55  69
BRANCH  56  80
ATOM     80  C   UNL A   1      39.677  33.957  37.036  1.00  0.00     0.064 A 
ATOM     81  C   UNL A   1      40.325  35.198  37.101  1.00  0.00     0.173 A 
ATOM     82  C   UNL A   1      38.884  33.576  38.128  1.00  0.00     0.173 A 
ATOM     83  F   UNL A   1      41.109  35.597  36.088  1.00  0.00    -0.203 F 
ATOM     84  C   UNL A   1      40.194  36.020  38.218  1.00  0.00     0.198 A 
ATOM     85  C   UNL A   1      38.731  34.412  39.233  1.00  0.00     0.198 A 
ATOM     86  F   UNL A   1      38.237  32.401  38.111  1.00  0.00    -0.203 F 
ATOM     87  F   UNL A   1      40.853  37.186  38.270  1.00  0.00    -0.200 F 
ATOM     88  C   UNL A   1      39.391  35.630  39.279  1.00  0.00     0.200 A 
ATOM     89  F   UNL A   1      37.941  34.038  40.248  1.00  0.00    -0.200 F 
ATOM     90  F   UNL A   1      39.256  36.427  40.348  1.00  0.00    -0.200 F 
ENDBRANCH  56  80
BRANCH  68  91
ATOM     91  C   UNL A   1      43.897  28.665  35.350  1.00  0.00     0.064 A 
ATOM     92  C   UNL A   1      45.220  29.091  35.163  1.00  0.00     0.173 A 
ATOM     93  C   UNL A   1      43.667  27.624  36.262  1.00  0.00     0.173 A 
ATOM     94  F   UNL A   1      45.496  30.073  34.290  1.00  0.00    -0.203 F 
ATOM     95  C   UNL A   1      46.272  28.482  35.842  1.00  0.00     0.198 A 
ATOM     96  C   UNL A   1      44.717  27.038  36.963  1.00  0.00     0.198 A 
ATOM     97  F   UNL A   1      42.419  27.181  36.483  1.00  0.00    -0.203 F 
ATOM     98  F   UNL A   1      47.533  28.872  35.610  1.00  0.00    -0.200 F 
ATOM     99  C   UNL A   1      46.019  27.462  36.747  1.00  0.00     0.200 A 
ATOM    100  F   UNL A   1      44.469  26.062  37.848  1.00  0.00    -0.200 F 
ATOM    101  F   UNL A   1      47.032  26.882  37.405  1.00  0.00    -0.200 F 
ENDBRANCH  68  91
ENDBRANCH  42  43
ENDBRANCH  34  37
ENDBRANCH  32  33
ENDBRANCH  31  32
ENDBRANCH   1  31
TORSDOF 14
ENDMDL
MODEL 2
REMARK VINA RESULT:     -13.2      1.069      2.078
REMARK SMILES Cc1ccc(C(=O)N2CCC3(CCC(=O)N(CC(=O)NCCCCNC(=O)c4ccc(-c5c6nc(c(-c7c(F)c(F)c(F)c(F)c7F)c7ccc([nH]7)c(-c7c(F)c(F)c(F)c(F)c7F)c7nc(c(-c8c(F)c(F)c(F)c(F)c8F)c8ccc5[nH]8)C=C7)C=C6)cc4)C3)CC2)cc1O
REMARK SMILES IDX 22 1 21 2 20 3 18 4 19 5 17 7 16 8 6 9 7 10 8 11 9 12 93 13
REMARK SMILES IDX 10 14 92 15 11 16 12 17 91 18 13 19 14 20 15 21 5 22 1 23
REMARK SMILES IDX 2 24 3 25 95 26 4 27 94 28 96 29 23 31 24 32 25 33 26 34
REMARK SMILES IDX 27 36 28 37 29 38 90 39 30 40 89 41 31 42 32 43 33 44 83 45
REMARK SMILES IDX 34 46 88 47 82 48 84 49 35 50 87 51 81 52 80 53 36 55 68 56
REMARK SMILES IDX 48 57 67 58 49 59 52 60 66 61 85 62 50 63 51 64 65 66 86 67
REMARK SMILES IDX 53 68 37 69 38 70 46 71 39 72 40 73 44 74 47 75 41 76 42 77
REMARK SMILES IDX 45 78 43 79 69 80 70 81 78 82 71 83 72 84 76 85 79 86 73 87
REMARK SMILES IDX 74 88 77 89 75 90 54 91 55 92 63 93 56 94 57 95 61 96 64 97
REMARK SMILES IDX 58 98 59 99 62 100 60 101
REMARK H PARENT 20 6 96 30 25 35 84 54 52 65
REMARK Flexibility Score: inf
ROOT
ATOM      1  C   UNL A   1      31.885  30.515  26.794  1.00  0.00     0.023 C 
ENDROOT
BRANCH   1   2
ATOM      2  C   UNL A   1      31.579  29.867  25.448  1.00  0.00     0.116 C 
BRANCH   2   3
ATOM      3  N   UNL A   1      32.781  29.486  24.749  1.00  0.00    -0.355 N 
ATOM      4  C   UNL A   1      32.934  29.112  23.446  1.00  0.00     0.239 C 
ATOM      5  O   UNL A   1      34.088  29.053  23.013  1.00  0.00    -0.273 OA
ATOM      6  H   UNL A   1      33.606  29.500  25.286  1.00  0.00     0.163 HD
BRANCH   4   7
ATOM      7  C   UNL A   1      31.722  28.985  22.513  1.00  0.00     0.219 C 
BRANCH   7   8
ATOM      8  N   UNL A   1      30.888  27.780  22.598  1.00  0.00    -0.333 N 
ATOM      9  C   UNL A   1      33.182  23.108  26.363  1.00  0.00     0.253 C 
ATOM     10  O   UNL A   1      33.143  23.282  27.580  1.00  0.00    -0.269 OA
ATOM     11  N   UNL A   1      32.244  23.693  25.516  1.00  0.00    -0.339 N 
ATOM     12  C   UNL A   1      31.601  24.919  25.960  1.00  0.00     0.120 C 
ATOM     13  C   UNL A   1      31.667  23.084  24.323  1.00  0.00     0.120 C 
ATOM     14  C   UNL A   1      31.712  25.955  24.850  1.00  0.00     0.030 C 
ATOM     15  C   UNL A   1      31.662  24.068  23.149  1.00  0.00     0.030 C 
ATOM     16  C   UNL A   1      31.096  25.470  23.512  1.00  0.00    -0.008 C 
ATOM     17  C   UNL A   1      29.556  25.422  23.535  1.00  0.00     0.019 C 
ATOM     18  C   UNL A   1      31.478  26.463  22.404  1.00  0.00     0.127 C 
ATOM     19  C   UNL A   1      28.921  26.790  23.729  1.00  0.00     0.101 C 
ATOM     20  C   UNL A   1      29.571  27.944  22.988  1.00  0.00     0.223 C 
ATOM     21  O   UNL A   1      28.984  29.021  22.886  1.00  0.00    -0.275 OA
BRANCH   9  22
ATOM     22  C   UNL A   1      34.357  22.380  25.797  1.00  0.00     0.043 A 
ATOM     23  C   UNL A   1      37.806  19.981  24.743  1.00  0.00     0.048 C 
ATOM     24  C   UNL A   1      36.592  20.799  25.073  1.00  0.00    -0.009 A 
ATOM     25  C   UNL A   1      36.750  22.144  25.429  1.00  0.00     0.008 A 
ATOM     26  C   UNL A   1      35.301  20.260  25.089  1.00  0.00     0.119 A 
ATOM     27  C   UNL A   1      35.649  22.916  25.809  1.00  0.00     0.014 A 
ATOM     28  C   UNL A   1      34.194  21.039  25.431  1.00  0.00     0.060 A 
BRANCH  26  29
ATOM     29  O   UNL A   1      35.047  18.947  24.810  1.00  0.00    -0.508 OA
ATOM     30  H   UNL A   1      35.667  18.444  24.318  1.00  0.00     0.293 HD
ENDBRANCH  26  29
ENDBRANCH   9  22
ENDBRANCH   7   8
ENDBRANCH   4   7
ENDBRANCH   2   3
ENDBRANCH   1   2
BRANCH   1  31
ATOM     31  C   UNL A   1      31.627  32.022  26.845  1.00  0.00     0.023 C 
BRANCH  31  32
ATOM     32  C   UNL A   1      32.828  32.876  27.234  1.00  0.00     0.116 C 
BRANCH  32  33
ATOM     33  N   UNL A   1      32.466  34.233  27.614  1.00  0.00    -0.352 N 
ATOM     34  C   UNL A   1      33.001  35.025  28.600  1.00  0.00     0.251 C 
ATOM     35  H   UNL A   1      31.736  34.641  27.092  1.00  0.00     0.163 HD
ATOM     36  O   UNL A   1      32.493  36.110  28.865  1.00  0.00    -0.269 OA
BRANCH  34  37
ATOM     37  C   UNL A   1      34.171  34.547  29.367  1.00  0.00     0.039 A 
ATOM     38  C   UNL A   1      33.960  33.967  30.621  1.00  0.00     0.014 A 
ATOM     39  C   UNL A   1      35.462  34.642  28.841  1.00  0.00     0.014 A 
ATOM     40  C   UNL A   1      35.038  33.417  31.316  1.00  0.00     0.010 A 
ATOM     41  C   UNL A   1      36.522  34.027  29.502  1.00  0.00     0.010 A 
ATOM     42  C   UNL A   1      36.321  33.407  30.744  1.00  0.00    -0.014 A 
BRANCH  42  43
ATOM     43  C   UNL A   1      37.455  32.731  31.421  1.00  0.00     0.031 A 
ATOM     44  C   UNL A   1      38.141  31.561  30.774  1.00  0.00     0.074 A 
ATOM     45  C   UNL A   1      37.818  33.125  32.657  1.00  0.00     0.049 A 
ATOM     46  N   UNL A   1      39.116  30.816  31.231  1.00  0.00    -0.248 NA
ATOM     47  C   UNL A   1      37.645  31.155  29.451  1.00  0.00     0.031 C 
ATOM     48  C   UNL A   1      37.184  34.201  33.419  1.00  0.00     0.029 A 
ATOM     49  N   UNL A   1      38.799  32.656  33.496  1.00  0.00    -0.354 N 
ATOM     50  C   UNL A   1      39.337  29.847  30.263  1.00  0.00     0.074 A 
ATOM     51  C   UNL A   1      38.361  30.065  29.218  1.00  0.00     0.031 C 
ATOM     52  C   UNL A   1      37.802  34.325  34.604  1.00  0.00     0.029 A 
ATOM     53  C   UNL A   1      38.852  33.314  34.700  1.00  0.00     0.049 A 
ATOM     54  H   UNL A   1      39.406  31.920  33.256  1.00  0.00     0.167 HD
ATOM     55  C   UNL A   1      40.283  28.877  30.239  1.00  0.00     0.037 A 
ATOM     56  C   UNL A   1      39.650  33.120  35.766  1.00  0.00     0.037 A 
ATOM     57  C   UNL A   1      41.266  28.681  31.271  1.00  0.00     0.049 A 
ATOM     58  C   UNL A   1      40.704  32.048  35.709  1.00  0.00     0.074 A 
ATOM     59  C   UNL A   1      42.322  27.786  31.299  1.00  0.00     0.029 A 
ATOM     60  N   UNL A   1      41.308  29.384  32.467  1.00  0.00    -0.354 N 
ATOM     61  N   UNL A   1      40.969  31.200  34.746  1.00  0.00    -0.248 NA
ATOM     62  C   UNL A   1      41.577  31.915  36.884  1.00  0.00     0.031 C 
ATOM     63  C   UNL A   1      42.966  27.908  32.535  1.00  0.00     0.029 A 
ATOM     64  C   UNL A   1      42.351  28.920  33.254  1.00  0.00     0.049 A 
ATOM     65  H   UNL A   1      40.689  30.106  32.720  1.00  0.00     0.167 HD
ATOM     66  C   UNL A   1      42.047  30.445  35.187  1.00  0.00     0.074 A 
ATOM     67  C   UNL A   1      42.400  30.951  36.498  1.00  0.00     0.031 C 
ATOM     68  C   UNL A   1      42.687  29.426  34.562  1.00  0.00     0.037 A 
BRANCH  55  69
ATOM     69  C   UNL A   1      40.293  27.949  29.057  1.00  0.00     0.064 A 
ATOM     70  C   UNL A   1      41.036  28.229  27.901  1.00  0.00     0.173 A 
ATOM     71  C   UNL A   1      39.565  26.749  29.092  1.00  0.00     0.173 A 
ATOM     72  F   UNL A   1      41.742  29.367  27.811  1.00  0.00    -0.203 F 
ATOM     73  C   UNL A   1      41.020  27.365  26.810  1.00  0.00     0.198 A 
ATOM     74  C   UNL A   1      39.578  25.870  28.011  1.00  0.00     0.198 A 
ATOM     75  F   UNL A   1      38.842  26.427  30.175  1.00  0.00    -0.203 F 
ATOM     76  F   UNL A   1      41.690  27.684  25.693  1.00  0.00    -0.200 F 
ATOM     77  C   UNL A   1      40.296  26.183  26.868  1.00  0.00     0.200 A 
ATOM     78  F   UNL A   1      38.889  24.721  28.076  1.00  0.00    -0.200 F 
ATOM     79  F   UNL A   1      40.284  25.351  25.818  1.00  0.00    -0.200 F 
ENDBRANCH  55  69
BRANCH  56  80
ATOM     80  C   UNL A   1      39.495  33.982  36.966  1.00  0.00     0.064 A 
ATOM     81  C   UNL A   1      38.739  33.557  38.067  1.00  0.00     0.173 A 
ATOM     82  C   UNL A   1      40.118  35.236  37.047  1.00  0.00     0.173 A 
ATOM     83  F   UNL A   1      38.109  32.373  38.030  1.00  0.00    -0.203 F 
ATOM     84  C   UNL A   1      38.602  34.359  39.199  1.00  0.00     0.198 A 
ATOM     85  C   UNL A   1      40.003  36.024  38.190  1.00  0.00     0.198 A 
ATOM     86  F   UNL A   1      40.859  35.685  36.023  1.00  0.00    -0.203 F 
ATOM     87  F   UNL A   1      37.844  33.944  40.223  1.00  0.00    -0.200 F 
ATOM     88  C   UNL A   1      39.240  35.588  39.262  1.00  0.00     0.200 A 
ATOM     89  F   UNL A   1      40.636  37.204  38.254  1.00  0.00    -0.200 F 
ATOM     90  F   UNL A   1      39.119  36.352  40.355  1.00  0.00    -0.200 F 
ENDBRANCH  56  80
BRANCH  68  91
ATOM     91  C   UNL A   1      43.847  28.798  35.280  1.00  0.00     0.064 A 
ATOM     92  C   UNL A   1      43.672  27.731  36.172  1.00  0.00     0.173 A 
ATOM     93  C   UNL A   1      45.155  29.247  35.044  1.00  0.00     0.173 A 
ATOM     94  F   UNL A   1      42.439  27.275  36.445  1.00  0.00    -0.203 F 
ATOM     95  C   UNL A   1      44.759  27.154  36.821  1.00  0.00     0.198 A 
ATOM     96  C   UNL A   1      46.244  28.647  35.670  1.00  0.00     0.198 A 
ATOM     97  F   UNL A   1      45.380  30.261  34.194  1.00  0.00    -0.203 F 
ATOM     98  F   UNL A   1      44.563  26.169  37.708  1.00  0.00    -0.200 F 
ATOM     99  C   UNL A   1      46.045  27.607  36.564  1.00  0.00     0.200 A 
ATOM    100  F   UNL A   1      47.487  29.077  35.409  1.00  0.00    -0.200 F 
ATOM    101  F   UNL A   1      47.091  27.045  37.185  1.00  0.00    -0.200 F 
ENDBRANCH  68  91
ENDBRANCH  42  43
ENDBRANCH  34  37
ENDBRANCH  32  33
ENDBRANCH  31  32
ENDBRANCH   1  31
TORSDOF 14
ENDMDL
MODEL 3
REMARK VINA RESULT:     -13.2      5.382     11.235
REMARK SMILES Cc1ccc(C(=O)N2CCC3(CCC(=O)N(CC(=O)NCCCCNC(=O)c4ccc(-c5c6nc(c(-c7c(F)c(F)c(F)c(F)c7F)c7ccc([nH]7)c(-c7c(F)c(F)c(F)c(F)c7F)c7nc(c(-c8c(F)c(F)c(F)c(F)c8F)c8ccc5[nH]8)C=C7)C=C6)cc4)C3)CC2)cc1O
REMARK SMILES IDX 22 1 21 2 20 3 18 4 19 5 17 7 16 8 6 9 7 10 8 11 9 12 93 13
REMARK SMILES IDX 10 14 92 15 11 16 12 17 91 18 13 19 14 20 15 21 5 22 1 23
REMARK SMILES IDX 2 24 3 25 95 26 4 27 94 28 96 29 23 31 24 32 25 33 26 34
REMARK SMILES IDX 27 36 28 37 29 38 90 39 30 40 89 41 31 42 32 43 33 44 83 45
REMARK SMILES IDX 34 46 88 47 82 48 84 49 35 50 87 51 81 52 80 53 36 55 68 56
REMARK SMILES IDX 48 57 67 58 49 59 52 60 66 61 85 62 50 63 51 64 65 66 86 67
REMARK SMILES IDX 53 68 37 69 38 70 46 71 39 72 40 73 44 74 47 75 41 76 42 77
REMARK SMILES IDX 45 78 43 79 69 80 70 81 78 82 71 83 72 84 76 85 79 86 73 87
REMARK SMILES IDX 74 88 77 89 75 90 54 91 55 92 63 93 56 94 57 95 61 96 64 97
REMARK SMILES IDX 58 98 59 99 62 100 60 101
REMARK H PARENT 20 6 96 30 25 35 84 54 52 65
REMARK Flexibility Score: inf
ROOT
ATOM      1  C   UNL A   1      39.330  22.584  26.279  1.00  0.00     0.023 C 
ENDROOT
BRANCH   1   2
ATOM      2  C   UNL A   1      37.911  23.119  26.125  1.00  0.00     0.116 C 
BRANCH   2   3
ATOM      3  N   UNL A   1      37.477  23.106  24.751  1.00  0.00    -0.355 N 
ATOM      4  C   UNL A   1      36.600  22.261  24.136  1.00  0.00     0.239 C 
ATOM      5  O   UNL A   1      36.209  22.582  23.011  1.00  0.00    -0.273 OA
ATOM      6  H   UNL A   1      37.866  23.804  24.177  1.00  0.00     0.163 HD
BRANCH   4   7
ATOM      7  C   UNL A   1      35.969  21.087  24.897  1.00  0.00     0.219 C 
BRANCH   7   8
ATOM      8  N   UNL A   1      34.557  21.176  25.288  1.00  0.00    -0.333 N 
ATOM      9  C   UNL A   1      31.813  26.915  24.388  1.00  0.00     0.253 C 
ATOM     10  O   UNL A   1      31.567  27.257  23.232  1.00  0.00    -0.269 OA
ATOM     11  N   UNL A   1      31.828  25.573  24.759  1.00  0.00    -0.339 N 
ATOM     12  C   UNL A   1      32.119  24.587  23.731  1.00  0.00     0.120 C 
ATOM     13  C   UNL A   1      31.355  25.029  26.027  1.00  0.00     0.120 C 
ATOM     14  C   UNL A   1      33.219  23.665  24.240  1.00  0.00     0.030 C 
ATOM     15  C   UNL A   1      32.358  24.025  26.604  1.00  0.00     0.030 C 
ATOM     16  C   UNL A   1      32.847  22.968  25.574  1.00  0.00    -0.008 C 
ATOM     17  C   UNL A   1      31.778  21.869  25.408  1.00  0.00     0.019 C 
ATOM     18  C   UNL A   1      34.096  22.270  26.133  1.00  0.00     0.127 C 
ATOM     19  C   UNL A   1      32.244  20.714  24.534  1.00  0.00     0.101 C 
ATOM     20  C   UNL A   1      33.681  20.265  24.724  1.00  0.00     0.223 C 
ATOM     21  O   UNL A   1      34.061  19.195  24.252  1.00  0.00    -0.275 OA
BRANCH   9  22
ATOM     22  C   UNL A   1      32.254  27.968  25.350  1.00  0.00     0.043 A 
ATOM     23  C   UNL A   1      33.816  31.306  27.625  1.00  0.00     0.048 C 
ATOM     24  C   UNL A   1      33.237  30.156  26.854  1.00  0.00    -0.009 A 
ATOM     25  C   UNL A   1      33.894  28.920  26.873  1.00  0.00     0.008 A 
ATOM     26  C   UNL A   1      32.085  30.279  26.070  1.00  0.00     0.119 A 
ATOM     27  C   UNL A   1      33.421  27.849  26.111  1.00  0.00     0.014 A 
ATOM     28  C   UNL A   1      31.588  29.199  25.338  1.00  0.00     0.060 A 
BRANCH  26  29
ATOM     29  O   UNL A   1      31.402  31.455  25.942  1.00  0.00    -0.508 OA
ATOM     30  H   UNL A   1      31.779  32.252  26.261  1.00  0.00     0.293 HD
ENDBRANCH  26  29
ENDBRANCH   9  22
ENDBRANCH   7   8
ENDBRANCH   4   7
ENDBRANCH   2   3
ENDBRANCH   1   2
BRANCH   1  31
ATOM     31  C   UNL A   1      39.574  21.232  25.606  1.00  0.00     0.023 C 
BRANCH  31  32
ATOM     32  C   UNL A   1      39.678  20.041  26.552  1.00  0.00     0.116 C 
BRANCH  32  33
ATOM     33  N   UNL A   1      40.700  19.084  26.156  1.00  0.00    -0.352 N 
ATOM     34  C   UNL A   1      42.048  19.283  25.982  1.00  0.00     0.251 C 
ATOM     35  H   UNL A   1      40.382  18.167  25.988  1.00  0.00     0.163 HD
ATOM     36  O   UNL A   1      42.751  18.386  25.527  1.00  0.00    -0.269 OA
BRANCH  34  37
ATOM     37  C   UNL A   1      42.641  20.596  26.312  1.00  0.00     0.039 A 
ATOM     38  C   UNL A   1      43.165  21.375  25.277  1.00  0.00     0.014 A 
ATOM     39  C   UNL A   1      42.653  21.069  27.626  1.00  0.00     0.014 A 
ATOM     40  C   UNL A   1      43.638  22.659  25.551  1.00  0.00     0.010 A 
ATOM     41  C   UNL A   1      43.055  22.376  27.885  1.00  0.00     0.010 A 
ATOM     42  C   UNL A   1      43.548  23.185  26.851  1.00  0.00    -0.014 A 
BRANCH  42  43
ATOM     43  C   UNL A   1      43.945  24.586  27.137  1.00  0.00     0.031 A 
ATOM     44  C   UNL A   1      42.919  25.594  27.571  1.00  0.00     0.074 A 
ATOM     45  C   UNL A   1      45.220  24.968  26.933  1.00  0.00     0.049 A 
ATOM     46  N   UNL A   1      43.067  26.871  27.821  1.00  0.00    -0.248 NA
ATOM     47  C   UNL A   1      41.538  25.112  27.713  1.00  0.00     0.031 C 
ATOM     48  C   UNL A   1      46.293  24.100  26.446  1.00  0.00     0.029 A 
ATOM     49  N   UNL A   1      45.827  26.189  27.094  1.00  0.00    -0.354 N 
ATOM     50  C   UNL A   1      41.800  27.345  28.132  1.00  0.00     0.074 A 
ATOM     51  C   UNL A   1      40.887  26.232  27.987  1.00  0.00     0.031 C 
ATOM     52  C   UNL A   1      47.430  24.808  26.366  1.00  0.00     0.029 A 
ATOM     53  C   UNL A   1      47.160  26.188  26.761  1.00  0.00     0.049 A 
ATOM     54  H   UNL A   1      45.353  26.988  27.417  1.00  0.00     0.167 HD
ATOM     55  C   UNL A   1      41.436  28.590  28.522  1.00  0.00     0.037 A 
ATOM     56  C   UNL A   1      48.062  27.187  26.765  1.00  0.00     0.037 A 
ATOM     57  C   UNL A   1      42.353  29.687  28.686  1.00  0.00     0.049 A 
ATOM     58  C   UNL A   1      47.638  28.557  27.219  1.00  0.00     0.074 A 
ATOM     59  C   UNL A   1      42.100  30.961  29.163  1.00  0.00     0.029 A 
ATOM     60  N   UNL A   1      43.703  29.643  28.366  1.00  0.00    -0.354 N 
ATOM     61  N   UNL A   1      46.456  28.971  27.605  1.00  0.00    -0.248 NA
ATOM     62  C   UNL A   1      48.676  29.596  27.248  1.00  0.00     0.031 C 
ATOM     63  C   UNL A   1      43.282  31.704  29.077  1.00  0.00     0.029 A 
ATOM     64  C   UNL A   1      44.287  30.878  28.604  1.00  0.00     0.049 A 
ATOM     65  H   UNL A   1      44.176  28.852  28.021  1.00  0.00     0.167 HD
ATOM     66  C   UNL A   1      46.609  30.309  27.940  1.00  0.00     0.074 A 
ATOM     67  C   UNL A   1      48.006  30.632  27.730  1.00  0.00     0.031 C 
ATOM     68  C   UNL A   1      45.678  31.189  28.382  1.00  0.00     0.037 A 
BRANCH  55  69
ATOM     69  C   UNL A   1      39.978  28.832  28.792  1.00  0.00     0.064 A 
ATOM     70  C   UNL A   1      39.417  28.634  30.063  1.00  0.00     0.173 A 
ATOM     71  C   UNL A   1      39.134  29.291  27.769  1.00  0.00     0.173 A 
ATOM     72  F   UNL A   1      40.177  28.187  31.075  1.00  0.00    -0.203 F 
ATOM     73  C   UNL A   1      38.061  28.848  30.290  1.00  0.00     0.198 A 
ATOM     74  C   UNL A   1      37.783  29.537  28.008  1.00  0.00     0.198 A 
ATOM     75  F   UNL A   1      39.617  29.505  26.536  1.00  0.00    -0.203 F 
ATOM     76  F   UNL A   1      37.536  28.595  31.498  1.00  0.00    -0.200 F 
ATOM     77  C   UNL A   1      37.246  29.305  29.265  1.00  0.00     0.200 A 
ATOM     78  F   UNL A   1      37.001  29.993  27.019  1.00  0.00    -0.200 F 
ATOM     79  F   UNL A   1      35.941  29.514  29.486  1.00  0.00    -0.200 F 
ENDBRANCH  55  69
BRANCH  56  80
ATOM     80  C   UNL A   1      49.461  26.915  26.347  1.00  0.00     0.064 A 
ATOM     81  C   UNL A   1      50.434  26.542  27.284  1.00  0.00     0.173 A 
ATOM     82  C   UNL A   1      49.847  26.998  25.002  1.00  0.00     0.173 A 
ATOM     83  F   UNL A   1      50.117  26.467  28.585  1.00  0.00    -0.203 F 
ATOM     84  C   UNL A   1      51.745  26.274  26.892  1.00  0.00     0.198 A 
ATOM     85  C   UNL A   1      51.151  26.704  24.607  1.00  0.00     0.198 A 
ATOM     86  F   UNL A   1      48.951  27.344  24.065  1.00  0.00    -0.203 F 
ATOM     87  F   UNL A   1      52.664  25.955  27.812  1.00  0.00    -0.200 F 
ATOM     88  C   UNL A   1      52.100  26.348  25.554  1.00  0.00     0.200 A 
ATOM     89  F   UNL A   1      51.485  26.759  23.311  1.00  0.00    -0.200 F 
ATOM     90  F   UNL A   1      53.356  26.077  25.176  1.00  0.00    -0.200 F 
ENDBRANCH  56  80
BRANCH  68  91
ATOM     91  C   UNL A   1      46.140  32.586  28.686  1.00  0.00     0.064 A 
ATOM     92  C   UNL A   1      46.628  32.942  29.952  1.00  0.00     0.173 A 
ATOM     93  C   UNL A   1      46.129  33.571  27.688  1.00  0.00     0.173 A 
ATOM     94  F   UNL A   1      46.645  32.040  30.947  1.00  0.00    -0.203 F 
ATOM     95  C   UNL A   1      47.062  34.238  30.214  1.00  0.00     0.198 A 
ATOM     96  C   UNL A   1      46.594  34.858  27.943  1.00  0.00     0.198 A 
ATOM     97  F   UNL A   1      45.678  33.282  26.457  1.00  0.00    -0.203 F 
ATOM     98  F   UNL A   1      47.477  34.568  31.445  1.00  0.00    -0.200 F 
ATOM     99  C   UNL A   1      47.053  35.192  29.208  1.00  0.00     0.200 A 
ATOM    100  F   UNL A   1      46.597  35.775  26.965  1.00  0.00    -0.200 F 
ATOM    101  F   UNL A   1      47.478  36.438  29.461  1.00  0.00    -0.200 F 
ENDBRANCH  68  91
ENDBRANCH  42  43
ENDBRANCH  34  37
ENDBRANCH  32  33
ENDBRANCH  31  32
ENDBRANCH   1  31
TORSDOF 14
ENDMDL
