MODEL 1
REMARK VINA RESULT:     -12.4      0.000      0.000
REMARK SMILES CCCCCCNC(=O)Oc1cccc(-c2ccc([C@@H](C)C(=O)NCCCCNC(=O)c3ccc(-c4c5nc(c(-c6c(F)c(F)c(F)c(F)c6F)c6ccc([nH]6)c(-c6c(F)c(F)c(F)c(F)c6F)c6nc(c(-c7c(F)c(F)c(F)c(F)c7F)c7ccc4[nH]7)C=C6)C=C5)cc3)cc2F)c1
REMARK SMILES IDX 20 1 21 2 19 3 16 4 17 5 96 6 18 7 95 8 97 9 15 10 11 11
REMARK SMILES IDX 12 12 98 13 13 14 14 15 10 16 8 17 7 18 9 20 6 21 5 22 4 23
REMARK SMILES IDX 3 24 2 25 1 26 22 27 23 28 24 29 25 31 26 32 27 33 28 34
REMARK SMILES IDX 29 35 30 36 31 38 32 39 33 40 94 41 34 42 93 43 35 44 36 45
REMARK SMILES IDX 37 46 87 47 38 48 92 49 86 50 88 51 39 52 91 53 85 54 84 55
REMARK SMILES IDX 40 57 72 58 52 59 71 60 53 61 56 62 70 63 89 64 54 65 55 66
REMARK SMILES IDX 69 68 90 69 57 70 41 71 42 72 50 73 43 74 44 75 48 76 51 77
REMARK SMILES IDX 45 78 46 79 49 80 47 81 73 82 74 83 82 84 75 85 76 86 80 87
REMARK SMILES IDX 83 88 77 89 78 90 81 91 79 92 58 93 59 94 67 95 60 96 61 97
REMARK SMILES IDX 65 98 68 99 62 100 63 101 66 102 64 103
REMARK H PARENT 7 19 24 30 29 37 88 56 56 67
REMARK Flexibility Score: inf
ROOT
ATOM      1  C   UNL A   1      30.865  28.136  22.650  1.00  0.00     0.105 C 
ATOM      2  C   UNL A   1      29.520  28.661  23.153  1.00  0.00     0.023 C 
ENDROOT
BRANCH   1   3
ATOM      3  C   UNL A   1      31.099  26.644  22.824  1.00  0.00    -0.033 A 
ATOM      4  C   UNL A   1      31.716  23.865  23.199  1.00  0.00     0.018 A 
ATOM      5  C   UNL A   1      30.740  24.523  23.968  1.00  0.00     0.012 A 
ATOM      6  C   UNL A   1      32.346  24.639  22.212  1.00  0.00     0.131 A 
ATOM      7  C   UNL A   1      30.409  25.867  23.755  1.00  0.00     0.005 A 
ATOM      8  C   UNL A   1      32.066  26.000  22.040  1.00  0.00     0.044 A 
ATOM      9  F   UNL A   1      33.244  24.090  21.378  1.00  0.00    -0.206 F 
BRANCH   4  10
ATOM     10  C   UNL A   1      32.040  22.437  23.444  1.00  0.00    -0.012 A 
ATOM     11  C   UNL A   1      32.805  20.630  24.888  1.00  0.00     0.133 A 
ATOM     12  C   UNL A   1      32.640  19.693  23.875  1.00  0.00     0.047 A 
ATOM     13  C   UNL A   1      32.510  21.981  24.688  1.00  0.00     0.056 A 
ATOM     14  C   UNL A   1      32.166  20.114  22.640  1.00  0.00     0.004 A 
ATOM     15  C   UNL A   1      31.884  21.468  22.428  1.00  0.00     0.009 A 
BRANCH  11  16
ATOM     16  O   UNL A   1      33.423  20.183  26.066  1.00  0.00    -0.410 OA
BRANCH  16  17
ATOM     17  C   UNL A   1      33.988  21.116  26.919  1.00  0.00     0.412 C 
ATOM     18  N   UNL A   1      35.282  21.416  26.588  1.00  0.00    -0.321 N 
ATOM     19  H   UNL A   1      35.751  22.058  27.168  1.00  0.00     0.167 HD
ATOM     20  O   UNL A   1      33.444  21.635  27.885  1.00  0.00    -0.224 OA
BRANCH  18  21
ATOM     21  C   UNL A   1      36.031  20.882  25.467  1.00  0.00     0.119 C 
BRANCH  21  22
ATOM     22  C   UNL A   1      37.060  21.882  24.939  1.00  0.00     0.021 C 
BRANCH  22  23
ATOM     23  C   UNL A   1      36.658  22.593  23.642  1.00  0.00     0.002 C 
BRANCH  23  24
ATOM     24  C   UNL A   1      35.498  23.587  23.767  1.00  0.00    -0.000 C 
BRANCH  24  25
ATOM     25  C   UNL A   1      35.426  24.352  25.091  1.00  0.00    -0.003 C 
ATOM     26  C   UNL A   1      34.356  25.432  25.103  1.00  0.00     0.004 C 
ENDBRANCH  24  25
ENDBRANCH  23  24
ENDBRANCH  22  23
ENDBRANCH  21  22
ENDBRANCH  18  21
ENDBRANCH  16  17
ENDBRANCH  11  16
ENDBRANCH   4  10
ENDBRANCH   1   3
BRANCH   1  27
ATOM     27  C   UNL A   1      32.065  29.003  23.063  1.00  0.00     0.227 C 
ATOM     28  O   UNL A   1      32.935  29.287  22.229  1.00  0.00    -0.274 OA
ATOM     29  N   UNL A   1      32.241  29.513  24.313  1.00  0.00    -0.356 N 
ATOM     30  H   UNL A   1      33.019  30.110  24.400  1.00  0.00     0.163 HD
BRANCH  29  31
ATOM     31  C   UNL A   1      31.489  29.334  25.536  1.00  0.00     0.116 C 
BRANCH  31  32
ATOM     32  C   UNL A   1      32.094  30.114  26.703  1.00  0.00     0.023 C 
BRANCH  32  33
ATOM     33  C   UNL A   1      31.789  31.610  26.705  1.00  0.00     0.023 C 
BRANCH  33  34
ATOM     34  C   UNL A   1      32.849  32.487  27.361  1.00  0.00     0.116 C 
BRANCH  34  35
ATOM     35  N   UNL A   1      32.425  33.860  27.598  1.00  0.00    -0.352 N 
ATOM     36  C   UNL A   1      32.971  34.777  28.467  1.00  0.00     0.251 C 
ATOM     37  H   UNL A   1      31.654  34.171  27.070  1.00  0.00     0.163 HD
ATOM     38  O   UNL A   1      32.463  35.882  28.616  1.00  0.00    -0.269 OA
BRANCH  36  39
ATOM     39  C   UNL A   1      34.152  34.387  29.264  1.00  0.00     0.039 A 
ATOM     40  C   UNL A   1      33.959  33.800  30.516  1.00  0.00     0.014 A 
ATOM     41  C   UNL A   1      35.438  34.529  28.737  1.00  0.00     0.014 A 
ATOM     42  C   UNL A   1      35.055  33.279  31.206  1.00  0.00     0.010 A 
ATOM     43  C   UNL A   1      36.515  33.937  29.386  1.00  0.00     0.010 A 
ATOM     44  C   UNL A   1      36.334  33.304  30.625  1.00  0.00    -0.014 A 
BRANCH  44  45
ATOM     45  C   UNL A   1      37.497  32.665  31.289  1.00  0.00     0.031 A 
ATOM     46  C   UNL A   1      38.188  31.502  30.636  1.00  0.00     0.074 A 
ATOM     47  C   UNL A   1      37.867  33.068  32.519  1.00  0.00     0.049 A 
ATOM     48  N   UNL A   1      39.160  30.753  31.091  1.00  0.00    -0.248 NA
ATOM     49  C   UNL A   1      37.695  31.104  29.307  1.00  0.00     0.031 C 
ATOM     50  C   UNL A   1      37.225  34.135  33.289  1.00  0.00     0.029 A 
ATOM     51  N   UNL A   1      38.862  32.613  33.348  1.00  0.00    -0.354 N 
ATOM     52  C   UNL A   1      39.373  29.782  30.122  1.00  0.00     0.074 A 
ATOM     53  C   UNL A   1      38.396  30.004  29.077  1.00  0.00     0.031 C 
ATOM     54  C   UNL A   1      37.851  34.264  34.470  1.00  0.00     0.029 A 
ATOM     55  C   UNL A   1      38.916  33.269  34.554  1.00  0.00     0.049 A 
ATOM     56  H   UNL A   1      39.478  31.886  33.102  1.00  0.00     0.167 HD
ATOM     57  C   UNL A   1      40.313  28.809  30.094  1.00  0.00     0.037 A 
ATOM     58  C   UNL A   1      39.730  33.084  35.611  1.00  0.00     0.037 A 
ATOM     59  C   UNL A   1      41.309  28.621  31.115  1.00  0.00     0.049 A 
ATOM     60  C   UNL A   1      40.796  32.025  35.539  1.00  0.00     0.074 A 
ATOM     61  C   UNL A   1      42.366  27.729  31.136  1.00  0.00     0.029 A 
ATOM     62  N   UNL A   1      41.368  29.340  32.301  1.00  0.00    -0.354 N 
ATOM     63  N   UNL A   1      41.051  31.172  34.576  1.00  0.00    -0.248 NA
ATOM     64  C   UNL A   1      41.696  31.909  36.694  1.00  0.00     0.031 C 
ATOM     65  C   UNL A   1      43.038  27.877  32.355  1.00  0.00     0.029 A 
ATOM     66  C   UNL A   1      42.429  28.894  33.071  1.00  0.00     0.049 A 
ATOM     67  H   UNL A   1      40.746  30.060  32.556  1.00  0.00     0.167 HD
ATOM     68  C   UNL A   1      42.148  30.435  34.997  1.00  0.00     0.074 A 
ATOM     69  C   UNL A   1      42.523  30.952  36.297  1.00  0.00     0.031 C 
ATOM     70  C   UNL A   1      42.788  29.422  34.363  1.00  0.00     0.037 A 
BRANCH  57  71
ATOM     71  C   UNL A   1      40.310  27.876  28.919  1.00  0.00     0.064 A 
ATOM     72  C   UNL A   1      41.040  28.154  27.752  1.00  0.00     0.173 A 
ATOM     73  C   UNL A   1      39.580  26.679  28.964  1.00  0.00     0.173 A 
ATOM     74  F   UNL A   1      41.744  29.292  27.653  1.00  0.00    -0.203 F 
ATOM     75  C   UNL A   1      41.010  27.287  26.663  1.00  0.00     0.198 A 
ATOM     76  C   UNL A   1      39.579  25.798  27.885  1.00  0.00     0.198 A 
ATOM     77  F   UNL A   1      38.869  26.361  30.056  1.00  0.00    -0.203 F 
ATOM     78  F   UNL A   1      41.668  27.602  25.540  1.00  0.00    -0.200 F 
ATOM     79  C   UNL A   1      40.285  26.108  26.734  1.00  0.00     0.200 A 
ATOM     80  F   UNL A   1      38.887  24.653  27.959  1.00  0.00    -0.200 F 
ATOM     81  F   UNL A   1      40.258  25.272  25.685  1.00  0.00    -0.200 F 
ENDBRANCH  57  71
BRANCH  58  82
ATOM     82  C   UNL A   1      39.584  33.943  36.813  1.00  0.00     0.064 A 
ATOM     83  C   UNL A   1      38.824  33.519  37.913  1.00  0.00     0.173 A 
ATOM     84  C   UNL A   1      40.213  35.194  36.896  1.00  0.00     0.173 A 
ATOM     85  F   UNL A   1      38.189  32.339  37.872  1.00  0.00    -0.203 F 
ATOM     86  C   UNL A   1      38.687  34.322  39.044  1.00  0.00     0.198 A 
ATOM     87  C   UNL A   1      40.095  35.984  38.038  1.00  0.00     0.198 A 
ATOM     88  F   UNL A   1      40.956  35.641  35.873  1.00  0.00    -0.203 F 
ATOM     89  F   UNL A   1      37.924  33.908  40.066  1.00  0.00    -0.200 F 
ATOM     90  C   UNL A   1      39.326  35.550  39.109  1.00  0.00     0.200 A 
ATOM     91  F   UNL A   1      40.726  37.164  38.102  1.00  0.00    -0.200 F 
ATOM     92  F   UNL A   1      39.201  36.317  40.199  1.00  0.00    -0.200 F 
ENDBRANCH  58  82
BRANCH  70  93
ATOM     93  C   UNL A   1      43.975  28.818  35.056  1.00  0.00     0.064 A 
ATOM     94  C   UNL A   1      45.255  29.379  34.943  1.00  0.00     0.173 A 
ATOM     95  C   UNL A   1      43.819  27.693  35.879  1.00  0.00     0.173 A 
ATOM     96  F   UNL A   1      45.457  30.447  34.155  1.00  0.00    -0.203 F 
ATOM     97  C   UNL A   1      46.341  28.823  35.613  1.00  0.00     0.198 A 
ATOM     98  C   UNL A   1      44.902  27.156  36.571  1.00  0.00     0.198 A 
ATOM     99  F   UNL A   1      42.614  27.123  36.025  1.00  0.00    -0.203 F 
ATOM    100  F   UNL A   1      47.563  29.350  35.458  1.00  0.00    -0.200 F 
ATOM    101  C   UNL A   1      46.162  27.718  36.432  1.00  0.00     0.200 A 
ATOM    102  F   UNL A   1      44.725  26.097  37.372  1.00  0.00    -0.200 F 
ATOM    103  F   UNL A   1      47.207  27.190  37.085  1.00  0.00    -0.200 F 
ENDBRANCH  70  93
ENDBRANCH  44  45
ENDBRANCH  36  39
ENDBRANCH  34  35
ENDBRANCH  33  34
ENDBRANCH  32  33
ENDBRANCH  31  32
ENDBRANCH  29  31
ENDBRANCH   1  27
TORSDOF 20
ENDMDL
MODEL 2
REMARK VINA RESULT:     -12.0      0.605      2.051
REMARK SMILES CCCCCCNC(=O)Oc1cccc(-c2ccc([C@@H](C)C(=O)NCCCCNC(=O)c3ccc(-c4c5nc(c(-c6c(F)c(F)c(F)c(F)c6F)c6ccc([nH]6)c(-c6c(F)c(F)c(F)c(F)c6F)c6nc(c(-c7c(F)c(F)c(F)c(F)c7F)c7ccc4[nH]7)C=C6)C=C5)cc3)cc2F)c1
REMARK SMILES IDX 20 1 21 2 19 3 16 4 17 5 96 6 18 7 95 8 97 9 15 10 11 11
REMARK SMILES IDX 12 12 98 13 13 14 14 15 10 16 8 17 7 18 9 20 6 21 5 22 4 23
REMARK SMILES IDX 3 24 2 25 1 26 22 27 23 28 24 29 25 31 26 32 27 33 28 34
REMARK SMILES IDX 29 35 30 36 31 38 32 39 33 40 94 41 34 42 93 43 35 44 36 45
REMARK SMILES IDX 37 46 87 47 38 48 92 49 86 50 88 51 39 52 91 53 85 54 84 55
REMARK SMILES IDX 40 57 72 58 52 59 71 60 53 61 56 62 70 63 89 64 54 65 55 66
REMARK SMILES IDX 69 68 90 69 57 70 41 71 42 72 50 73 43 74 44 75 48 76 51 77
REMARK SMILES IDX 45 78 46 79 49 80 47 81 73 82 74 83 82 84 75 85 76 86 80 87
REMARK SMILES IDX 83 88 77 89 78 90 81 91 79 92 58 93 59 94 67 95 60 96 61 97
REMARK SMILES IDX 65 98 68 99 62 100 63 101 66 102 64 103
REMARK H PARENT 7 19 24 30 29 37 88 56 56 67
REMARK Flexibility Score: inf
ROOT
ATOM      1  C   UNL A   1      30.692  28.129  22.607  1.00  0.00     0.105 C 
ATOM      2  C   UNL A   1      29.383  28.617  23.229  1.00  0.00     0.023 C 
ENDROOT
BRANCH   1   3
ATOM      3  C   UNL A   1      30.957  26.635  22.712  1.00  0.00    -0.033 A 
ATOM      4  C   UNL A   1      31.634  23.856  22.954  1.00  0.00     0.018 A 
ATOM      5  C   UNL A   1      30.668  24.462  23.775  1.00  0.00     0.012 A 
ATOM      6  C   UNL A   1      32.223  24.682  21.983  1.00  0.00     0.131 A 
ATOM      7  C   UNL A   1      30.307  25.808  23.627  1.00  0.00     0.005 A 
ATOM      8  C   UNL A   1      31.914  26.044  21.876  1.00  0.00     0.044 A 
ATOM      9  F   UNL A   1      33.107  24.186  21.103  1.00  0.00    -0.206 F 
BRANCH   4  10
ATOM     10  C   UNL A   1      31.991  22.425  23.130  1.00  0.00    -0.012 A 
ATOM     11  C   UNL A   1      32.941  20.598  24.432  1.00  0.00     0.133 A 
ATOM     12  C   UNL A   1      32.648  19.677  23.433  1.00  0.00     0.047 A 
ATOM     13  C   UNL A   1      32.619  21.951  24.295  1.00  0.00     0.056 A 
ATOM     14  C   UNL A   1      32.017  20.117  22.277  1.00  0.00     0.004 A 
ATOM     15  C   UNL A   1      31.706  21.473  22.126  1.00  0.00     0.009 A 
BRANCH  11  16
ATOM     16  O   UNL A   1      33.708  20.134  25.512  1.00  0.00    -0.410 OA
BRANCH  16  17
ATOM     17  C   UNL A   1      35.052  20.463  25.566  1.00  0.00     0.412 C 
ATOM     18  N   UNL A   1      35.325  21.405  26.522  1.00  0.00    -0.321 N 
ATOM     19  H   UNL A   1      36.260  21.701  26.599  1.00  0.00     0.167 HD
ATOM     20  O   UNL A   1      35.937  20.007  24.855  1.00  0.00    -0.224 OA
BRANCH  18  21
ATOM     21  C   UNL A   1      34.372  22.010  27.432  1.00  0.00     0.119 C 
BRANCH  21  22
ATOM     22  C   UNL A   1      33.882  23.368  26.927  1.00  0.00     0.021 C 
BRANCH  22  23
ATOM     23  C   UNL A   1      34.968  24.252  26.304  1.00  0.00     0.002 C 
BRANCH  23  24
ATOM     24  C   UNL A   1      34.627  24.851  24.935  1.00  0.00    -0.000 C 
BRANCH  24  25
ATOM     25  C   UNL A   1      33.785  26.128  24.968  1.00  0.00    -0.003 C 
ATOM     26  C   UNL A   1      34.042  26.986  26.196  1.00  0.00     0.004 C 
ENDBRANCH  24  25
ENDBRANCH  23  24
ENDBRANCH  22  23
ENDBRANCH  21  22
ENDBRANCH  18  21
ENDBRANCH  16  17
ENDBRANCH  11  16
ENDBRANCH   4  10
ENDBRANCH   1   3
BRANCH   1  27
ATOM     27  C   UNL A   1      31.909  29.000  22.954  1.00  0.00     0.227 C 
ATOM     28  O   UNL A   1      32.760  29.242  22.089  1.00  0.00    -0.274 OA
ATOM     29  N   UNL A   1      32.121  29.558  24.178  1.00  0.00    -0.356 N 
ATOM     30  H   UNL A   1      32.906  30.150  24.223  1.00  0.00     0.163 HD
BRANCH  29  31
ATOM     31  C   UNL A   1      31.398  29.435  25.425  1.00  0.00     0.116 C 
BRANCH  31  32
ATOM     32  C   UNL A   1      32.101  30.162  26.572  1.00  0.00     0.023 C 
BRANCH  32  33
ATOM     33  C   UNL A   1      31.729  31.635  26.726  1.00  0.00     0.023 C 
BRANCH  33  34
ATOM     34  C   UNL A   1      32.784  32.503  27.401  1.00  0.00     0.116 C 
BRANCH  34  35
ATOM     35  N   UNL A   1      32.370  33.881  27.624  1.00  0.00    -0.352 N 
ATOM     36  C   UNL A   1      32.926  34.805  28.479  1.00  0.00     0.251 C 
ATOM     37  H   UNL A   1      31.598  34.191  27.097  1.00  0.00     0.163 HD
ATOM     38  O   UNL A   1      32.427  35.916  28.617  1.00  0.00    -0.269 OA
BRANCH  36  39
ATOM     39  C   UNL A   1      34.110  34.418  29.273  1.00  0.00     0.039 A 
ATOM     40  C   UNL A   1      33.921  33.872  30.545  1.00  0.00     0.014 A 
ATOM     41  C   UNL A   1      35.392  34.521  28.729  1.00  0.00     0.014 A 
ATOM     42  C   UNL A   1      35.015  33.351  31.238  1.00  0.00     0.010 A 
ATOM     43  C   UNL A   1      36.465  33.930  29.383  1.00  0.00     0.010 A 
ATOM     44  C   UNL A   1      36.287  33.336  30.642  1.00  0.00    -0.014 A 
BRANCH  44  45
ATOM     45  C   UNL A   1      37.447  32.696  31.312  1.00  0.00     0.031 A 
ATOM     46  C   UNL A   1      38.144  31.537  30.659  1.00  0.00     0.074 A 
ATOM     47  C   UNL A   1      37.807  33.094  32.547  1.00  0.00     0.049 A 
ATOM     48  N   UNL A   1      39.114  30.788  31.118  1.00  0.00    -0.248 NA
ATOM     49  C   UNL A   1      37.662  31.144  29.325  1.00  0.00     0.031 C 
ATOM     50  C   UNL A   1      37.157  34.156  33.316  1.00  0.00     0.029 A 
ATOM     51  N   UNL A   1      38.796  32.637  33.381  1.00  0.00    -0.354 N 
ATOM     52  C   UNL A   1      39.336  29.822  30.146  1.00  0.00     0.074 A 
ATOM     53  C   UNL A   1      38.367  30.047  29.095  1.00  0.00     0.031 C 
ATOM     54  C   UNL A   1      37.774  34.281  34.502  1.00  0.00     0.029 A 
ATOM     55  C   UNL A   1      38.841  33.288  34.590  1.00  0.00     0.049 A 
ATOM     56  H   UNL A   1      39.415  31.912  33.136  1.00  0.00     0.167 HD
ATOM     57  C   UNL A   1      40.278  28.850  30.120  1.00  0.00     0.037 A 
ATOM     58  C   UNL A   1      39.647  33.099  35.652  1.00  0.00     0.037 A 
ATOM     59  C   UNL A   1      41.267  28.660  31.148  1.00  0.00     0.049 A 
ATOM     60  C   UNL A   1      40.715  32.042  35.583  1.00  0.00     0.074 A 
ATOM     61  C   UNL A   1      42.325  27.769  31.173  1.00  0.00     0.029 A 
ATOM     62  N   UNL A   1      41.315  29.373  32.337  1.00  0.00    -0.354 N 
ATOM     63  N   UNL A   1      40.979  31.194  34.618  1.00  0.00    -0.248 NA
ATOM     64  C   UNL A   1      41.607  31.923  36.745  1.00  0.00     0.031 C 
ATOM     65  C   UNL A   1      42.987  27.912  32.397  1.00  0.00     0.029 A 
ATOM     66  C   UNL A   1      42.372  28.926  33.114  1.00  0.00     0.049 A 
ATOM     67  H   UNL A   1      40.691  30.091  32.591  1.00  0.00     0.167 HD
ATOM     68  C   UNL A   1      42.074  30.457  35.044  1.00  0.00     0.074 A 
ATOM     69  C   UNL A   1      42.439  30.969  36.349  1.00  0.00     0.031 C 
ATOM     70  C   UNL A   1      42.720  29.448  34.411  1.00  0.00     0.037 A 
BRANCH  57  71
ATOM     71  C   UNL A   1      40.285  27.922  28.941  1.00  0.00     0.064 A 
ATOM     72  C   UNL A   1      39.567  26.716  28.946  1.00  0.00     0.173 A 
ATOM     73  C   UNL A   1      41.006  28.250  27.783  1.00  0.00     0.173 A 
ATOM     74  F   UNL A   1      38.872  26.350  30.033  1.00  0.00    -0.203 F 
ATOM     75  C   UNL A   1      39.601  25.857  27.851  1.00  0.00     0.198 A 
ATOM     76  C   UNL A   1      41.011  27.404  26.677  1.00  0.00     0.198 A 
ATOM     77  F   UNL A   1      41.706  29.393  27.723  1.00  0.00    -0.203 F 
ATOM     78  F   UNL A   1      38.954  24.684  27.901  1.00  0.00    -0.200 F 
ATOM     79  C   UNL A   1      40.317  26.205  26.716  1.00  0.00     0.200 A 
ATOM     80  F   UNL A   1      41.695  27.747  25.577  1.00  0.00    -0.200 F 
ATOM     81  F   UNL A   1      40.347  25.378  25.661  1.00  0.00    -0.200 F 
ENDBRANCH  57  71
BRANCH  58  82
ATOM     82  C   UNL A   1      39.491  33.953  36.857  1.00  0.00     0.064 A 
ATOM     83  C   UNL A   1      40.088  35.220  36.924  1.00  0.00     0.173 A 
ATOM     84  C   UNL A   1      38.729  33.531  37.956  1.00  0.00     0.173 A 
ATOM     85  F   UNL A   1      40.842  35.658  35.905  1.00  0.00    -0.203 F 
ATOM     86  C   UNL A   1      39.942  36.025  38.052  1.00  0.00     0.198 A 
ATOM     87  C   UNL A   1      38.563  34.348  39.072  1.00  0.00     0.198 A 
ATOM     88  F   UNL A   1      38.132  32.330  37.938  1.00  0.00    -0.203 F 
ATOM     89  F   UNL A   1      40.555  37.216  38.105  1.00  0.00    -0.200 F 
ATOM     90  C   UNL A   1      39.175  35.592  39.122  1.00  0.00     0.200 A 
ATOM     91  F   UNL A   1      37.809  33.931  40.099  1.00  0.00    -0.200 F 
ATOM     92  F   UNL A   1      39.027  36.370  40.202  1.00  0.00    -0.200 F 
ENDBRANCH  58  82
BRANCH  70  93
ATOM     93  C   UNL A   1      43.903  28.843  35.109  1.00  0.00     0.064 A 
ATOM     94  C   UNL A   1      43.756  27.799  36.033  1.00  0.00     0.173 A 
ATOM     95  C   UNL A   1      45.202  29.283  34.814  1.00  0.00     0.173 A 
ATOM     96  F   UNL A   1      42.533  27.354  36.361  1.00  0.00    -0.203 F 
ATOM     97  C   UNL A   1      44.865  27.231  36.653  1.00  0.00     0.198 A 
ATOM     98  C   UNL A   1      46.312  28.693  35.413  1.00  0.00     0.198 A 
ATOM     99  F   UNL A   1      45.397  30.274  33.932  1.00  0.00    -0.203 F 
ATOM    100  F   UNL A   1      44.700  26.263  37.564  1.00  0.00    -0.200 F 
ATOM    101  C   UNL A   1      46.142  27.672  36.336  1.00  0.00     0.200 A 
ATOM    102  F   UNL A   1      47.545  29.112  35.096  1.00  0.00    -0.200 F 
ATOM    103  F   UNL A   1      47.210  27.117  36.925  1.00  0.00    -0.200 F 
ENDBRANCH  70  93
ENDBRANCH  44  45
ENDBRANCH  36  39
ENDBRANCH  34  35
ENDBRANCH  33  34
ENDBRANCH  32  33
ENDBRANCH  31  32
ENDBRANCH  29  31
ENDBRANCH   1  27
TORSDOF 20
ENDMDL
MODEL 3
REMARK VINA RESULT:     -11.9      5.140     11.397
REMARK SMILES CCCCCCNC(=O)Oc1cccc(-c2ccc([C@@H](C)C(=O)NCCCCNC(=O)c3ccc(-c4c5nc(c(-c6c(F)c(F)c(F)c(F)c6F)c6ccc([nH]6)c(-c6c(F)c(F)c(F)c(F)c6F)c6nc(c(-c7c(F)c(F)c(F)c(F)c7F)c7ccc4[nH]7)C=C6)C=C5)cc3)cc2F)c1
REMARK SMILES IDX 20 1 21 2 19 3 16 4 17 5 96 6 18 7 95 8 97 9 15 10 11 11
REMARK SMILES IDX 12 12 98 13 13 14 14 15 10 16 8 17 7 18 9 20 6 21 5 22 4 23
REMARK SMILES IDX 3 24 2 25 1 26 22 27 23 28 24 29 25 31 26 32 27 33 28 34
REMARK SMILES IDX 29 35 30 36 31 38 32 39 33 40 94 41 34 42 93 43 35 44 36 45
REMARK SMILES IDX 37 46 87 47 38 48 92 49 86 50 88 51 39 52 91 53 85 54 84 55
REMARK SMILES IDX 40 57 72 58 52 59 71 60 53 61 56 62 70 63 89 64 54 65 55 66
REMARK SMILES IDX 69 68 90 69 57 70 41 71 42 72 50 73 43 74 44 75 48 76 51 77
REMARK SMILES IDX 45 78 46 79 49 80 47 81 73 82 74 83 82 84 75 85 76 86 80 87
REMARK SMILES IDX 83 88 77 89 78 90 81 91 79 92 58 93 59 94 67 95 60 96 61 97
REMARK SMILES IDX 65 98 68 99 62 100 63 101 66 102 64 103
REMARK H PARENT 7 19 24 30 29 37 88 56 56 67
REMARK Flexibility Score: inf
ROOT
ATOM      1  C   UNL A   1      37.624  32.342  33.153  1.00  0.00     0.105 C 
ATOM      2  C   UNL A   1      36.880  32.787  34.413  1.00  0.00     0.023 C 
ENDROOT
BRANCH   1   3
ATOM      3  C   UNL A   1      38.679  31.266  33.354  1.00  0.00    -0.033 A 
ATOM      4  C   UNL A   1      40.688  29.225  33.546  1.00  0.00     0.018 A 
ATOM      5  C   UNL A   1      40.878  30.511  34.081  1.00  0.00     0.012 A 
ATOM      6  C   UNL A   1      39.443  28.987  32.942  1.00  0.00     0.131 A 
ATOM      7  C   UNL A   1      39.880  31.492  34.026  1.00  0.00     0.005 A 
ATOM      8  C   UNL A   1      38.469  29.986  32.825  1.00  0.00     0.044 A 
ATOM      9  F   UNL A   1      39.134  27.772  32.461  1.00  0.00    -0.206 F 
BRANCH   4  10
ATOM     10  C   UNL A   1      41.762  28.202  33.627  1.00  0.00    -0.012 A 
ATOM     11  C   UNL A   1      42.852  26.322  34.727  1.00  0.00     0.133 A 
ATOM     12  C   UNL A   1      43.829  26.255  33.740  1.00  0.00     0.047 A 
ATOM     13  C   UNL A   1      41.829  27.273  34.680  1.00  0.00     0.056 A 
ATOM     14  C   UNL A   1      43.779  27.153  32.683  1.00  0.00     0.004 A 
ATOM     15  C   UNL A   1      42.767  28.119  32.638  1.00  0.00     0.009 A 
BRANCH  11  16
ATOM     16  O   UNL A   1      43.029  25.493  35.846  1.00  0.00    -0.410 OA
BRANCH  16  17
ATOM     17  C   UNL A   1      42.693  24.153  35.744  1.00  0.00     0.412 C 
ATOM     18  N   UNL A   1      43.765  23.325  35.942  1.00  0.00    -0.321 N 
ATOM     19  H   UNL A   1      43.599  22.358  35.862  1.00  0.00     0.167 HD
ATOM     20  O   UNL A   1      41.583  23.704  35.491  1.00  0.00    -0.224 OA
BRANCH  18  21
ATOM     21  C   UNL A   1      45.120  23.730  36.259  1.00  0.00     0.119 C 
BRANCH  21  22
ATOM     22  C   UNL A   1      46.071  23.521  35.080  1.00  0.00     0.021 C 
BRANCH  22  23
ATOM     23  C   UNL A   1      45.822  22.241  34.274  1.00  0.00     0.002 C 
BRANCH  23  24
ATOM     24  C   UNL A   1      46.341  20.948  34.912  1.00  0.00    -0.000 C 
BRANCH  24  25
ATOM     25  C   UNL A   1      47.801  20.605  34.607  1.00  0.00    -0.003 C 
ATOM     26  C   UNL A   1      47.958  19.585  33.490  1.00  0.00     0.004 C 
ENDBRANCH  24  25
ENDBRANCH  23  24
ENDBRANCH  22  23
ENDBRANCH  21  22
ENDBRANCH  18  21
ENDBRANCH  16  17
ENDBRANCH  11  16
ENDBRANCH   4  10
ENDBRANCH   1   3
BRANCH   1  27
ATOM     27  C   UNL A   1      38.085  33.505  32.260  1.00  0.00     0.227 C 
ATOM     28  O   UNL A   1      38.760  34.423  32.744  1.00  0.00    -0.274 OA
ATOM     29  N   UNL A   1      37.813  33.596  30.929  1.00  0.00    -0.356 N 
ATOM     30  H   UNL A   1      38.240  34.360  30.480  1.00  0.00     0.163 HD
BRANCH  29  31
ATOM     31  C   UNL A   1      37.007  32.769  30.057  1.00  0.00     0.116 C 
BRANCH  31  32
ATOM     32  C   UNL A   1      36.726  33.449  28.717  1.00  0.00     0.023 C 
BRANCH  32  33
ATOM     33  C   UNL A   1      35.384  33.092  28.081  1.00  0.00     0.023 C 
BRANCH  33  34
ATOM     34  C   UNL A   1      34.502  32.164  28.907  1.00  0.00     0.116 C 
BRANCH  34  35
ATOM     35  N   UNL A   1      34.008  31.004  28.179  1.00  0.00    -0.352 N 
ATOM     36  C   UNL A   1      34.707  29.882  27.797  1.00  0.00     0.251 C 
ATOM     37  H   UNL A   1      33.055  31.024  27.930  1.00  0.00     0.163 HD
ATOM     38  O   UNL A   1      34.175  29.008  27.122  1.00  0.00    -0.269 OA
BRANCH  36  39
ATOM     39  C   UNL A   1      36.132  29.770  28.170  1.00  0.00     0.039 A 
ATOM     40  C   UNL A   1      36.464  29.271  29.431  1.00  0.00     0.014 A 
ATOM     41  C   UNL A   1      37.131  30.082  27.245  1.00  0.00     0.014 A 
ATOM     42  C   UNL A   1      37.800  29.007  29.735  1.00  0.00     0.010 A 
ATOM     43  C   UNL A   1      38.450  29.741  27.518  1.00  0.00     0.010 A 
ATOM     44  C   UNL A   1      38.798  29.197  28.764  1.00  0.00    -0.014 A 
BRANCH  44  45
ATOM     45  C   UNL A   1      40.211  28.826  29.025  1.00  0.00     0.031 A 
ATOM     46  C   UNL A   1      41.139  29.817  29.667  1.00  0.00     0.074 A 
ATOM     47  C   UNL A   1      40.679  27.639  28.596  1.00  0.00     0.049 A 
ATOM     48  N   UNL A   1      42.424  29.720  29.898  1.00  0.00    -0.248 NA
ATOM     49  C   UNL A   1      40.552  31.104  30.072  1.00  0.00     0.031 C 
ATOM     50  C   UNL A   1      39.894  26.625  27.890  1.00  0.00     0.029 A 
ATOM     51  N   UNL A   1      41.936  27.093  28.672  1.00  0.00    -0.354 N 
ATOM     52  C   UNL A   1      42.802  30.938  30.444  1.00  0.00     0.074 A 
ATOM     53  C   UNL A   1      41.623  31.778  30.465  1.00  0.00     0.031 C 
ATOM     54  C   UNL A   1      40.681  25.573  27.613  1.00  0.00     0.029 A 
ATOM     55  C   UNL A   1      42.032  25.852  28.091  1.00  0.00     0.049 A 
ATOM     56  H   UNL A   1      42.695  27.546  29.103  1.00  0.00     0.167 HD
ATOM     57  C   UNL A   1      44.015  31.315  30.910  1.00  0.00     0.037 A 
ATOM     58  C   UNL A   1      43.094  25.034  27.954  1.00  0.00     0.037 A 
ATOM     59  C   UNL A   1      45.173  30.460  30.927  1.00  0.00     0.049 A 
ATOM     60  C   UNL A   1      44.422  25.456  28.518  1.00  0.00     0.074 A 
ATOM     61  C   UNL A   1      46.423  30.711  31.465  1.00  0.00     0.029 A 
ATOM     62  N   UNL A   1      45.221  29.188  30.377  1.00  0.00    -0.354 N 
ATOM     63  N   UNL A   1      44.747  26.575  29.120  1.00  0.00    -0.248 NA
ATOM     64  C   UNL A   1      45.529  24.497  28.397  1.00  0.00     0.031 C 
ATOM     65  C   UNL A   1      47.240  29.607  31.201  1.00  0.00     0.029 A 
ATOM     66  C   UNL A   1      46.486  28.649  30.542  1.00  0.00     0.049 A 
ATOM     67  H   UNL A   1      44.467  28.735  29.935  1.00  0.00     0.167 HD
ATOM     68  C   UNL A   1      46.085  26.449  29.466  1.00  0.00     0.074 A 
ATOM     69  C   UNL A   1      46.508  25.137  29.023  1.00  0.00     0.031 C 
ATOM     70  C   UNL A   1      46.890  27.340  30.095  1.00  0.00     0.037 A 
BRANCH  57  71
ATOM     71  C   UNL A   1      44.151  32.712  31.442  1.00  0.00     0.064 A 
ATOM     72  C   UNL A   1      44.453  33.796  30.603  1.00  0.00     0.173 A 
ATOM     73  C   UNL A   1      43.960  32.974  32.807  1.00  0.00     0.173 A 
ATOM     74  F   UNL A   1      44.658  33.597  29.292  1.00  0.00    -0.203 F 
ATOM     75  C   UNL A   1      44.595  35.083  31.116  1.00  0.00     0.198 A 
ATOM     76  C   UNL A   1      44.070  34.268  33.311  1.00  0.00     0.198 A 
ATOM     77  F   UNL A   1      43.664  31.976  33.653  1.00  0.00    -0.203 F 
ATOM     78  F   UNL A   1      44.941  36.091  30.304  1.00  0.00    -0.200 F 
ATOM     79  C   UNL A   1      44.397  35.318  32.467  1.00  0.00     0.200 A 
ATOM     80  F   UNL A   1      43.868  34.495  34.616  1.00  0.00    -0.200 F 
ATOM     81  F   UNL A   1      44.532  36.557  32.960  1.00  0.00    -0.200 F 
ENDBRANCH  57  71
BRANCH  58  82
ATOM     82  C   UNL A   1      42.930  23.721  27.279  1.00  0.00     0.064 A 
ATOM     83  C   UNL A   1      43.318  23.546  25.942  1.00  0.00     0.173 A 
ATOM     84  C   UNL A   1      42.402  22.613  27.957  1.00  0.00     0.173 A 
ATOM     85  F   UNL A   1      43.810  24.582  25.248  1.00  0.00    -0.203 F 
ATOM     86  C   UNL A   1      43.168  22.315  25.306  1.00  0.00     0.198 A 
ATOM     87  C   UNL A   1      42.276  21.377  27.326  1.00  0.00     0.198 A 
ATOM     88  F   UNL A   1      42.022  22.728  29.237  1.00  0.00    -0.203 F 
ATOM     89  F   UNL A   1      43.512  22.185  24.017  1.00  0.00    -0.200 F 
ATOM     90  C   UNL A   1      42.654  21.231  25.999  1.00  0.00     0.200 A 
ATOM     91  F   UNL A   1      41.792  20.327  28.004  1.00  0.00    -0.200 F 
ATOM     92  F   UNL A   1      42.518  20.046  25.389  1.00  0.00    -0.200 F 
ENDBRANCH  58  82
BRANCH  70  93
ATOM     93  C   UNL A   1      48.305  26.919  30.363  1.00  0.00     0.064 A 
ATOM     94  C   UNL A   1      48.644  26.159  31.491  1.00  0.00     0.173 A 
ATOM     95  C   UNL A   1      49.325  27.241  29.455  1.00  0.00     0.173 A 
ATOM     96  F   UNL A   1      47.707  25.839  32.397  1.00  0.00    -0.203 F 
ATOM     97  C   UNL A   1      49.957  25.753  31.712  1.00  0.00     0.198 A 
ATOM     98  C   UNL A   1      50.632  26.809  29.663  1.00  0.00     0.198 A 
ATOM     99  F   UNL A   1      49.051  27.960  28.356  1.00  0.00    -0.203 F 
ATOM    100  F   UNL A   1      50.267  25.064  32.818  1.00  0.00    -0.200 F 
ATOM    101  C   UNL A   1      50.948  26.072  30.794  1.00  0.00     0.200 A 
ATOM    102  F   UNL A   1      51.585  27.105  28.769  1.00  0.00    -0.200 F 
ATOM    103  F   UNL A   1      52.210  25.671  31.003  1.00  0.00    -0.200 F 
ENDBRANCH  70  93
ENDBRANCH  44  45
ENDBRANCH  36  39
ENDBRANCH  34  35
ENDBRANCH  33  34
ENDBRANCH  32  33
ENDBRANCH  31  32
ENDBRANCH  29  31
ENDBRANCH   1  27
TORSDOF 20
ENDMDL
