MODEL 1
REMARK VINA RESULT:     -13.1      0.000      0.000
REMARK SMILES O=C(NCCCCNC(=O)c1ccc2c(=O)n(CCC[NH+]3CCOCC3)c(=O)[nH]c2c1)c1ccc(-c2c3nc(c(-c4c(F)c(F)c(F)c(F)c4F)c4ccc([nH]4)c(-c4c(F)c(F)c(F)c(F)c4F)c4nc(c(-c5c(F)c(F)c(F)c(F)c5F)c5ccc2[nH]5)C=C4)C=C3)cc1
REMARK SMILES IDX 6 1 5 2 4 3 3 4 1 5 2 6 32 8 33 9 94 10 34 11 93 12 35 13
REMARK SMILES IDX 36 14 37 15 87 16 38 17 92 18 86 19 88 20 39 21 91 22 85 23
REMARK SMILES IDX 84 24 40 26 72 27 52 28 71 29 53 30 56 31 70 32 89 33 54 34
REMARK SMILES IDX 55 35 69 37 90 38 57 39 41 40 42 41 50 42 43 43 44 44 48 45
REMARK SMILES IDX 51 46 45 47 46 48 49 49 47 50 73 51 74 52 82 53 75 54 76 55
REMARK SMILES IDX 80 56 83 57 77 58 78 59 81 60 79 61 58 62 59 63 67 64 60 65
REMARK SMILES IDX 61 66 65 67 68 68 62 69 63 70 66 71 64 72 7 73 8 74 9 75
REMARK SMILES IDX 10 77 11 78 12 79 31 80 13 81 30 82 14 83 29 84 15 85 27 86
REMARK SMILES IDX 16 88 17 89 28 90 18 91 19 92 20 93 21 94 22 95 26 96 23 98
REMARK SMILES IDX 25 99 24 100
REMARK H PARENT 3 7 88 25 56 36 8 76 29 87 21 97
REMARK Flexibility Score: inf
ROOT
ATOM      1  C   UNL A   1      31.645  30.217  26.602  1.00  0.00     0.023 C 
ENDROOT
BRANCH   1   2
ATOM      2  C   UNL A   1      31.496  31.732  26.512  1.00  0.00     0.023 C 
BRANCH   2   3
ATOM      3  C   UNL A   1      32.745  32.518  26.875  1.00  0.00     0.116 C 
BRANCH   3   4
ATOM      4  N   UNL A   1      32.453  33.829  27.426  1.00  0.00    -0.352 N 
ATOM      5  O   UNL A   1      32.605  35.523  28.910  1.00  0.00    -0.269 OA
ATOM      6  C   UNL A   1      33.065  34.473  28.476  1.00  0.00     0.251 C 
ATOM      7  H   UNL A   1      31.721  34.323  26.991  1.00  0.00     0.163 HD
BRANCH   6   8
ATOM      8  C   UNL A   1      34.263  33.872  29.103  1.00  0.00     0.039 A 
ATOM      9  C   UNL A   1      34.094  32.853  30.041  1.00  0.00     0.014 A 
ATOM     10  C   UNL A   1      35.548  34.301  28.757  1.00  0.00     0.014 A 
ATOM     11  C   UNL A   1      35.216  32.240  30.602  1.00  0.00     0.010 A 
ATOM     12  C   UNL A   1      36.661  33.618  29.234  1.00  0.00     0.010 A 
ATOM     13  C   UNL A   1      36.510  32.601  30.188  1.00  0.00    -0.014 A 
BRANCH  13  14
ATOM     14  C   UNL A   1      37.709  31.968  30.795  1.00  0.00     0.031 A 
ATOM     15  C   UNL A   1      38.138  32.358  32.185  1.00  0.00     0.074 A 
ATOM     16  C   UNL A   1      38.413  31.050  30.101  1.00  0.00     0.049 A 
ATOM     17  N   UNL A   1      39.146  31.914  32.893  1.00  0.00    -0.248 NA
ATOM     18  C   UNL A   1      37.351  33.401  32.865  1.00  0.00     0.031 C 
ATOM     19  C   UNL A   1      38.126  30.624  28.730  1.00  0.00     0.029 A 
ATOM     20  N   UNL A   1      39.506  30.298  30.458  1.00  0.00    -0.354 N 
ATOM     21  C   UNL A   1      39.111  32.625  34.086  1.00  0.00     0.074 A 
ATOM     22  C   UNL A   1      38.035  33.581  33.984  1.00  0.00     0.031 C 
ATOM     23  C   UNL A   1      38.985  29.653  28.382  1.00  0.00     0.029 A 
ATOM     24  C   UNL A   1      39.909  29.412  29.487  1.00  0.00     0.049 A 
ATOM     25  H   UNL A   1      39.958  30.386  31.328  1.00  0.00     0.167 HD
ATOM     26  C   UNL A   1      39.878  32.463  35.187  1.00  0.00     0.037 A 
ATOM     27  C   UNL A   1      40.904  28.503  29.493  1.00  0.00     0.037 A 
ATOM     28  C   UNL A   1      40.916  31.476  35.305  1.00  0.00     0.049 A 
ATOM     29  C   UNL A   1      41.753  28.354  30.729  1.00  0.00     0.074 A 
ATOM     30  C   UNL A   1      41.712  31.198  36.402  1.00  0.00     0.029 A 
ATOM     31  N   UNL A   1      41.292  30.602  34.298  1.00  0.00    -0.354 N 
ATOM     32  N   UNL A   1      41.660  28.983  31.874  1.00  0.00    -0.248 NA
ATOM     33  C   UNL A   1      42.842  27.366  30.677  1.00  0.00     0.031 C 
ATOM     34  C   UNL A   1      42.605  30.188  36.042  1.00  0.00     0.029 A 
ATOM     35  C   UNL A   1      42.327  29.798  34.742  1.00  0.00     0.049 A 
ATOM     36  H   UNL A   1      40.886  30.561  33.402  1.00  0.00     0.167 HD
ATOM     37  C   UNL A   1      42.650  28.447  32.687  1.00  0.00     0.074 A 
ATOM     38  C   UNL A   1      43.330  27.435  31.909  1.00  0.00     0.031 C 
ATOM     39  C   UNL A   1      42.968  28.770  33.963  1.00  0.00     0.037 A 
BRANCH  26  40
ATOM     40  C   UNL A   1      39.609  33.336  36.376  1.00  0.00     0.064 A 
ATOM     41  C   UNL A   1      40.186  34.610  36.488  1.00  0.00     0.173 A 
ATOM     42  C   UNL A   1      38.683  32.945  37.355  1.00  0.00     0.173 A 
ATOM     43  F   UNL A   1      41.086  35.027  35.584  1.00  0.00    -0.203 F 
ATOM     44  C   UNL A   1      39.849  35.458  37.539  1.00  0.00     0.198 A 
ATOM     45  C   UNL A   1      38.327  33.807  38.387  1.00  0.00     0.198 A 
ATOM     46  F   UNL A   1      38.099  31.740  37.289  1.00  0.00    -0.203 F 
ATOM     47  F   UNL A   1      40.431  36.662  37.639  1.00  0.00    -0.200 F 
ATOM     48  C   UNL A   1      38.909  35.062  38.479  1.00  0.00     0.200 A 
ATOM     49  F   UNL A   1      37.406  33.431  39.285  1.00  0.00    -0.200 F 
ATOM     50  F   UNL A   1      38.563  35.893  39.472  1.00  0.00    -0.200 F 
ENDBRANCH  26  40
BRANCH  27  51
ATOM     51  C   UNL A   1      41.126  27.634  28.305  1.00  0.00     0.064 A 
ATOM     52  C   UNL A   1      40.460  26.407  28.176  1.00  0.00     0.173 A 
ATOM     53  C   UNL A   1      42.001  28.009  27.274  1.00  0.00     0.173 A 
ATOM     54  F   UNL A   1      39.626  25.992  29.142  1.00  0.00    -0.203 F 
ATOM     55  C   UNL A   1      40.676  25.580  27.074  1.00  0.00     0.198 A 
ATOM     56  C   UNL A   1      42.192  27.197  26.158  1.00  0.00     0.198 A 
ATOM     57  F   UNL A   1      42.660  29.175  27.344  1.00  0.00    -0.203 F 
ATOM     58  F   UNL A   1      40.060  24.392  26.999  1.00  0.00    -0.200 F 
ATOM     59  C   UNL A   1      41.535  25.979  26.062  1.00  0.00     0.200 A 
ATOM     60  F   UNL A   1      43.010  27.595  25.175  1.00  0.00    -0.200 F 
ATOM     61  F   UNL A   1      41.735  25.189  24.999  1.00  0.00    -0.200 F 
ENDBRANCH  27  51
BRANCH  39  62
ATOM     62  C   UNL A   1      44.072  28.012  34.636  1.00  0.00     0.064 A 
ATOM     63  C   UNL A   1      45.388  28.495  34.647  1.00  0.00     0.173 A 
ATOM     64  C   UNL A   1      43.780  26.871  35.401  1.00  0.00     0.173 A 
ATOM     65  F   UNL A   1      45.716  29.576  33.925  1.00  0.00    -0.203 F 
ATOM     66  C   UNL A   1      46.370  27.867  35.407  1.00  0.00     0.198 A 
ATOM     67  C   UNL A   1      44.758  26.264  36.181  1.00  0.00     0.198 A 
ATOM     68  F   UNL A   1      42.532  26.379  35.432  1.00  0.00    -0.203 F 
ATOM     69  F   UNL A   1      47.624  28.340  35.398  1.00  0.00    -0.200 F 
ATOM     70  C   UNL A   1      46.051  26.764  36.185  1.00  0.00     0.200 A 
ATOM     71  F   UNL A   1      44.443  25.213  36.950  1.00  0.00    -0.200 F 
ATOM     72  F   UNL A   1      46.991  26.186  36.946  1.00  0.00    -0.200 F 
ENDBRANCH  39  62
ENDBRANCH  13  14
ENDBRANCH   6   8
ENDBRANCH   3   4
ENDBRANCH   2   3
ENDBRANCH   1   2
BRANCH   1  73
ATOM     73  C   UNL A   1      32.041  29.541  25.293  1.00  0.00     0.116 C 
BRANCH  73  74
ATOM     74  N   UNL A   1      31.155  29.894  24.188  1.00  0.00    -0.352 N 
ATOM     75  C   UNL A   1      30.560  29.063  23.270  1.00  0.00     0.251 C 
ATOM     76  H   UNL A   1      30.959  30.854  24.088  1.00  0.00     0.163 HD
ATOM     77  O   UNL A   1      29.928  29.491  22.318  1.00  0.00    -0.269 OA
BRANCH  75  78
ATOM     78  C   UNL A   1      30.749  27.619  23.456  1.00  0.00     0.041 A 
ATOM     79  C   UNL A   1      29.924  26.939  24.360  1.00  0.00     0.015 A 
ATOM     80  C   UNL A   1      31.868  27.018  22.873  1.00  0.00     0.040 A 
ATOM     81  C   UNL A   1      30.289  25.665  24.768  1.00  0.00     0.017 A 
ATOM     82  C   UNL A   1      32.226  25.748  23.303  1.00  0.00     0.056 A 
ATOM     83  C   UNL A   1      31.459  25.094  24.256  1.00  0.00     0.064 A 
ATOM     84  N   UNL A   1      33.370  25.131  22.815  1.00  0.00    -0.307 N 
ATOM     85  C   UNL A   1      31.904  23.778  24.722  1.00  0.00     0.264 A 
ATOM     86  C   UNL A   1      33.860  23.949  23.297  1.00  0.00     0.328 A 
ATOM     87  H   UNL A   1      33.855  25.569  22.080  1.00  0.00     0.171 HD
ATOM     88  O   UNL A   1      31.089  23.135  25.365  1.00  0.00    -0.268 OA
ATOM     89  N   UNL A   1      33.178  23.362  24.360  1.00  0.00    -0.260 N 
ATOM     90  O   UNL A   1      34.852  23.466  22.752  1.00  0.00    -0.248 OA
BRANCH  89  91
ATOM     91  C   UNL A   1      33.692  22.070  24.820  1.00  0.00     0.137 C 
BRANCH  91  92
ATOM     92  C   UNL A   1      33.133  20.751  24.256  1.00  0.00     0.083 C 
BRANCH  92  93
ATOM     93  C   UNL A   1      33.007  19.455  25.080  1.00  0.00     0.264 C 
BRANCH  93  94
ATOM     94  N   UNL A   1      32.451  18.199  24.576  1.00  0.00    -0.331 N 
ATOM     95  C   UNL A   1      32.526  17.056  25.494  1.00  0.00     0.291 C 
ATOM     96  C   UNL A   1      32.757  17.754  23.215  1.00  0.00     0.291 C 
ATOM     97  H   UNL A   1      31.490  18.534  24.515  1.00  0.00     0.348 HD
ATOM     98  C   UNL A   1      33.847  16.288  25.369  1.00  0.00     0.221 C 
ATOM     99  C   UNL A   1      34.056  16.934  23.116  1.00  0.00     0.221 C 
ATOM    100  O   UNL A   1      34.053  15.828  24.026  1.00  0.00    -0.370 OA
ENDBRANCH  93  94
ENDBRANCH  92  93
ENDBRANCH  91  92
ENDBRANCH  89  91
ENDBRANCH  75  78
ENDBRANCH  73  74
ENDBRANCH   1  73
TORSDOF 15
ENDMDL
MODEL 2
REMARK VINA RESULT:     -13.1      3.867      9.400
REMARK SMILES O=C(NCCCCNC(=O)c1ccc2c(=O)n(CCC[NH+]3CCOCC3)c(=O)[nH]c2c1)c1ccc(-c2c3nc(c(-c4c(F)c(F)c(F)c(F)c4F)c4ccc([nH]4)c(-c4c(F)c(F)c(F)c(F)c4F)c4nc(c(-c5c(F)c(F)c(F)c(F)c5F)c5ccc2[nH]5)C=C4)C=C3)cc1
REMARK SMILES IDX 6 1 5 2 4 3 3 4 1 5 2 6 32 8 33 9 94 10 34 11 93 12 35 13
REMARK SMILES IDX 36 14 37 15 87 16 38 17 92 18 86 19 88 20 39 21 91 22 85 23
REMARK SMILES IDX 84 24 40 26 72 27 52 28 71 29 53 30 56 31 70 32 89 33 54 34
REMARK SMILES IDX 55 35 69 37 90 38 57 39 41 40 42 41 50 42 43 43 44 44 48 45
REMARK SMILES IDX 51 46 45 47 46 48 49 49 47 50 73 51 74 52 82 53 75 54 76 55
REMARK SMILES IDX 80 56 83 57 77 58 78 59 81 60 79 61 58 62 59 63 67 64 60 65
REMARK SMILES IDX 61 66 65 67 68 68 62 69 63 70 66 71 64 72 7 73 8 74 9 75
REMARK SMILES IDX 10 77 11 78 12 79 31 80 13 81 30 82 14 83 29 84 15 85 27 86
REMARK SMILES IDX 16 88 17 89 28 90 18 91 19 92 20 93 21 94 22 95 26 96 23 98
REMARK SMILES IDX 25 99 24 100
REMARK H PARENT 3 7 88 25 56 36 8 76 29 87 21 97
REMARK Flexibility Score: inf
ROOT
ATOM      1  C   UNL A   1      35.108  21.981  26.524  1.00  0.00     0.023 C 
ENDROOT
BRANCH   1   2
ATOM      2  C   UNL A   1      35.196  23.430  26.058  1.00  0.00     0.023 C 
BRANCH   2   3
ATOM      3  C   UNL A   1      36.564  23.852  25.543  1.00  0.00     0.116 C 
BRANCH   3   4
ATOM      4  N   UNL A   1      37.558  22.798  25.639  1.00  0.00    -0.352 N 
ATOM      5  O   UNL A   1      39.604  21.921  26.008  1.00  0.00    -0.269 OA
ATOM      6  C   UNL A   1      38.841  22.873  26.127  1.00  0.00     0.251 C 
ATOM      7  H   UNL A   1      37.276  21.913  25.313  1.00  0.00     0.163 HD
BRANCH   6   8
ATOM      8  C   UNL A   1      39.308  24.123  26.766  1.00  0.00     0.039 A 
ATOM      9  C   UNL A   1      40.000  25.057  25.994  1.00  0.00     0.014 A 
ATOM     10  C   UNL A   1      39.051  24.381  28.116  1.00  0.00     0.014 A 
ATOM     11  C   UNL A   1      40.401  26.265  26.570  1.00  0.00     0.010 A 
ATOM     12  C   UNL A   1      39.355  25.625  28.656  1.00  0.00     0.010 A 
ATOM     13  C   UNL A   1      40.062  26.570  27.899  1.00  0.00    -0.014 A 
BRANCH  13  14
ATOM     14  C   UNL A   1      40.503  27.844  28.525  1.00  0.00     0.031 A 
ATOM     15  C   UNL A   1      41.961  28.058  28.838  1.00  0.00     0.074 A 
ATOM     16  C   UNL A   1      39.599  28.802  28.815  1.00  0.00     0.049 A 
ATOM     17  N   UNL A   1      42.545  29.102  29.371  1.00  0.00    -0.248 NA
ATOM     18  C   UNL A   1      42.884  26.951  28.538  1.00  0.00     0.031 C 
ATOM     19  C   UNL A   1      38.155  28.693  28.604  1.00  0.00     0.029 A 
ATOM     20  N   UNL A   1      39.762  30.062  29.336  1.00  0.00    -0.354 N 
ATOM     21  C   UNL A   1      43.891  28.770  29.471  1.00  0.00     0.074 A 
ATOM     22  C   UNL A   1      44.031  27.408  29.017  1.00  0.00     0.031 C 
ATOM     23  C   UNL A   1      37.571  29.854  28.942  1.00  0.00     0.029 A 
ATOM     24  C   UNL A   1      38.592  30.778  29.430  1.00  0.00     0.049 A 
ATOM     25  H   UNL A   1      40.636  30.420  29.616  1.00  0.00     0.167 HD
ATOM     26  C   UNL A   1      44.924  29.549  29.863  1.00  0.00     0.037 A 
ATOM     27  C   UNL A   1      38.370  32.038  29.854  1.00  0.00     0.037 A 
ATOM     28  C   UNL A   1      44.789  30.921  30.266  1.00  0.00     0.049 A 
ATOM     29  C   UNL A   1      39.539  32.878  30.298  1.00  0.00     0.074 A 
ATOM     30  C   UNL A   1      45.785  31.809  30.627  1.00  0.00     0.029 A 
ATOM     31  N   UNL A   1      43.586  31.604  30.349  1.00  0.00    -0.354 N 
ATOM     32  N   UNL A   1      40.813  32.574  30.317  1.00  0.00    -0.248 NA
ATOM     33  C   UNL A   1      39.243  34.238  30.774  1.00  0.00     0.031 C 
ATOM     34  C   UNL A   1      45.181  33.017  30.979  1.00  0.00     0.029 A 
ATOM     35  C   UNL A   1      43.815  32.899  30.780  1.00  0.00     0.049 A 
ATOM     36  H   UNL A   1      42.703  31.225  30.135  1.00  0.00     0.167 HD
ATOM     37  C   UNL A   1      41.471  33.708  30.773  1.00  0.00     0.074 A 
ATOM     38  C   UNL A   1      40.459  34.714  31.012  1.00  0.00     0.031 C 
ATOM     39  C   UNL A   1      42.796  33.897  30.978  1.00  0.00     0.037 A 
BRANCH  26  40
ATOM     40  C   UNL A   1      46.304  28.962  29.840  1.00  0.00     0.064 A 
ATOM     41  C   UNL A   1      47.114  29.054  28.698  1.00  0.00     0.173 A 
ATOM     42  C   UNL A   1      46.863  28.404  30.999  1.00  0.00     0.173 A 
ATOM     43  F   UNL A   1      46.623  29.570  27.561  1.00  0.00    -0.203 F 
ATOM     44  C   UNL A   1      48.431  28.603  28.717  1.00  0.00     0.198 A 
ATOM     45  C   UNL A   1      48.188  27.981  31.023  1.00  0.00     0.198 A 
ATOM     46  F   UNL A   1      46.131  28.299  32.118  1.00  0.00    -0.203 F 
ATOM     47  F   UNL A   1      49.179  28.679  27.607  1.00  0.00    -0.200 F 
ATOM     48  C   UNL A   1      48.971  28.082  29.883  1.00  0.00     0.200 A 
ATOM     49  F   UNL A   1      48.714  27.494  32.155  1.00  0.00    -0.200 F 
ATOM     50  F   UNL A   1      50.249  27.677  29.908  1.00  0.00    -0.200 F 
ENDBRANCH  26  40
BRANCH  27  51
ATOM     51  C   UNL A   1      36.990  32.597  29.838  1.00  0.00     0.064 A 
ATOM     52  C   UNL A   1      36.499  33.272  28.711  1.00  0.00     0.173 A 
ATOM     53  C   UNL A   1      36.133  32.468  30.941  1.00  0.00     0.173 A 
ATOM     54  F   UNL A   1      37.284  33.440  27.636  1.00  0.00    -0.203 F 
ATOM     55  C   UNL A   1      35.214  33.812  28.696  1.00  0.00     0.198 A 
ATOM     56  C   UNL A   1      34.838  32.981  30.913  1.00  0.00     0.198 A 
ATOM     57  F   UNL A   1      36.550  31.827  32.043  1.00  0.00    -0.203 F 
ATOM     58  F   UNL A   1      34.788  34.491  27.621  1.00  0.00    -0.200 F 
ATOM     59  C   UNL A   1      34.382  33.659  29.793  1.00  0.00     0.200 A 
ATOM     60  F   UNL A   1      34.031  32.815  31.970  1.00  0.00    -0.200 F 
ATOM     61  F   UNL A   1      33.144  34.171  29.775  1.00  0.00    -0.200 F 
ENDBRANCH  27  51
BRANCH  39  62
ATOM     62  C   UNL A   1      43.260  35.242  31.451  1.00  0.00     0.064 A 
ATOM     63  C   UNL A   1      43.637  36.242  30.545  1.00  0.00     0.173 A 
ATOM     64  C   UNL A   1      43.182  35.577  32.812  1.00  0.00     0.173 A 
ATOM     65  F   UNL A   1      43.733  35.967  29.236  1.00  0.00    -0.203 F 
ATOM     66  C   UNL A   1      43.912  37.534  30.985  1.00  0.00     0.198 A 
ATOM     67  C   UNL A   1      43.430  36.875  33.243  1.00  0.00     0.198 A 
ATOM     68  F   UNL A   1      42.813  34.656  33.715  1.00  0.00    -0.203 F 
ATOM     69  F   UNL A   1      44.279  38.475  30.104  1.00  0.00    -0.200 F 
ATOM     70  C   UNL A   1      43.792  37.853  32.330  1.00  0.00     0.200 A 
ATOM     71  F   UNL A   1      43.292  37.187  34.540  1.00  0.00    -0.200 F 
ATOM     72  F   UNL A   1      44.021  39.107  32.744  1.00  0.00    -0.200 F 
ENDBRANCH  39  62
ENDBRANCH  13  14
ENDBRANCH   6   8
ENDBRANCH   3   4
ENDBRANCH   2   3
ENDBRANCH   1   2
BRANCH   1  73
ATOM     73  C   UNL A   1      33.738  21.568  27.052  1.00  0.00     0.116 C 
BRANCH  73  74
ATOM     74  N   UNL A   1      33.290  20.289  26.511  1.00  0.00    -0.352 N 
ATOM     75  C   UNL A   1      32.568  20.050  25.366  1.00  0.00     0.251 C 
ATOM     76  H   UNL A   1      33.537  19.493  27.035  1.00  0.00     0.163 HD
ATOM     77  O   UNL A   1      32.154  18.940  25.078  1.00  0.00    -0.269 OA
BRANCH  75  78
ATOM     78  C   UNL A   1      32.274  21.205  24.510  1.00  0.00     0.041 A 
ATOM     79  C   UNL A   1      33.119  21.479  23.428  1.00  0.00     0.015 A 
ATOM     80  C   UNL A   1      31.279  22.097  24.920  1.00  0.00     0.040 A 
ATOM     81  C   UNL A   1      33.036  22.719  22.812  1.00  0.00     0.017 A 
ATOM     82  C   UNL A   1      31.219  23.338  24.302  1.00  0.00     0.056 A 
ATOM     83  C   UNL A   1      32.102  23.651  23.279  1.00  0.00     0.064 A 
ATOM     84  N   UNL A   1      30.301  24.293  24.718  1.00  0.00    -0.307 N 
ATOM     85  C   UNL A   1      32.039  24.991  22.692  1.00  0.00     0.264 A 
ATOM     86  C   UNL A   1      30.280  25.579  24.255  1.00  0.00     0.328 A 
ATOM     87  H   UNL A   1      29.627  24.029  25.383  1.00  0.00     0.171 HD
ATOM     88  O   UNL A   1      32.653  25.146  21.648  1.00  0.00    -0.268 OA
ATOM     89  N   UNL A   1      31.264  25.943  23.338  1.00  0.00    -0.260 N 
ATOM     90  O   UNL A   1      29.387  26.327  24.654  1.00  0.00    -0.248 OA
BRANCH  89  91
ATOM     91  C   UNL A   1      31.184  27.310  22.818  1.00  0.00     0.137 C 
BRANCH  91  92
ATOM     92  C   UNL A   1      32.021  28.442  23.440  1.00  0.00     0.083 C 
BRANCH  92  93
ATOM     93  C   UNL A   1      31.535  29.317  24.612  1.00  0.00     0.264 C 
BRANCH  93  94
ATOM     94  N   UNL A   1      31.745  29.005  26.027  1.00  0.00    -0.331 N 
ATOM     95  C   UNL A   1      32.133  30.136  26.877  1.00  0.00     0.291 C 
ATOM     96  C   UNL A   1      32.512  27.819  26.411  1.00  0.00     0.291 C 
ATOM     97  H   UNL A   1      30.777  28.744  26.214  1.00  0.00     0.348 HD
ATOM     98  C   UNL A   1      33.650  30.355  26.909  1.00  0.00     0.221 C 
ATOM     99  C   UNL A   1      34.028  28.070  26.495  1.00  0.00     0.221 C 
ATOM    100  O   UNL A   1      34.334  29.175  27.353  1.00  0.00    -0.370 OA
ENDBRANCH  93  94
ENDBRANCH  92  93
ENDBRANCH  91  92
ENDBRANCH  89  91
ENDBRANCH  75  78
ENDBRANCH  73  74
ENDBRANCH   1  73
TORSDOF 15
ENDMDL
MODEL 3
REMARK VINA RESULT:     -13.1      2.689      4.045
REMARK SMILES O=C(NCCCCNC(=O)c1ccc2c(=O)n(CCC[NH+]3CCOCC3)c(=O)[nH]c2c1)c1ccc(-c2c3nc(c(-c4c(F)c(F)c(F)c(F)c4F)c4ccc([nH]4)c(-c4c(F)c(F)c(F)c(F)c4F)c4nc(c(-c5c(F)c(F)c(F)c(F)c5F)c5ccc2[nH]5)C=C4)C=C3)cc1
REMARK SMILES IDX 6 1 5 2 4 3 3 4 1 5 2 6 32 8 33 9 94 10 34 11 93 12 35 13
REMARK SMILES IDX 36 14 37 15 87 16 38 17 92 18 86 19 88 20 39 21 91 22 85 23
REMARK SMILES IDX 84 24 40 26 72 27 52 28 71 29 53 30 56 31 70 32 89 33 54 34
REMARK SMILES IDX 55 35 69 37 90 38 57 39 41 40 42 41 50 42 43 43 44 44 48 45
REMARK SMILES IDX 51 46 45 47 46 48 49 49 47 50 73 51 74 52 82 53 75 54 76 55
REMARK SMILES IDX 80 56 83 57 77 58 78 59 81 60 79 61 58 62 59 63 67 64 60 65
REMARK SMILES IDX 61 66 65 67 68 68 62 69 63 70 66 71 64 72 7 73 8 74 9 75
REMARK SMILES IDX 10 77 11 78 12 79 31 80 13 81 30 82 14 83 29 84 15 85 27 86
REMARK SMILES IDX 16 88 17 89 28 90 18 91 19 92 20 93 21 94 22 95 26 96 23 98
REMARK SMILES IDX 25 99 24 100
REMARK H PARENT 3 7 88 25 56 36 8 76 29 87 21 97
REMARK Flexibility Score: inf
ROOT
ATOM      1  C   UNL A   1      32.835  29.324  24.592  1.00  0.00     0.023 C 
ENDROOT
BRANCH   1   2
ATOM      2  C   UNL A   1      33.447  28.148  25.344  1.00  0.00     0.023 C 
BRANCH   2   3
ATOM      3  C   UNL A   1      34.067  28.502  26.687  1.00  0.00     0.116 C 
BRANCH   3   4
ATOM      4  N   UNL A   1      33.738  29.845  27.129  1.00  0.00    -0.352 N 
ATOM      5  O   UNL A   1      33.985  31.739  28.331  1.00  0.00    -0.269 OA
ATOM      6  C   UNL A   1      34.470  30.686  27.935  1.00  0.00     0.251 C 
ATOM      7  H   UNL A   1      32.878  30.202  26.810  1.00  0.00     0.163 HD
BRANCH   6   8
ATOM      8  C   UNL A   1      35.835  30.294  28.349  1.00  0.00     0.039 A 
ATOM      9  C   UNL A   1      36.013  29.676  29.587  1.00  0.00     0.014 A 
ATOM     10  C   UNL A   1      36.934  30.522  27.514  1.00  0.00     0.014 A 
ATOM     11  C   UNL A   1      37.287  29.253  29.970  1.00  0.00     0.010 A 
ATOM     12  C   UNL A   1      38.180  30.004  27.849  1.00  0.00     0.010 A 
ATOM     13  C   UNL A   1      38.379  29.393  29.095  1.00  0.00    -0.014 A 
BRANCH  13  14
ATOM     14  C   UNL A   1      39.742  28.964  29.503  1.00  0.00     0.031 A 
ATOM     15  C   UNL A   1      40.513  29.780  30.508  1.00  0.00     0.074 A 
ATOM     16  C   UNL A   1      40.287  27.851  28.971  1.00  0.00     0.049 A 
ATOM     17  N   UNL A   1      41.708  29.567  31.000  1.00  0.00    -0.248 NA
ATOM     18  C   UNL A   1      39.875  31.008  31.011  1.00  0.00     0.031 C 
ATOM     19  C   UNL A   1      39.660  27.005  27.955  1.00  0.00     0.029 A 
ATOM     20  N   UNL A   1      41.487  27.231  29.222  1.00  0.00    -0.354 N 
ATOM     21  C   UNL A   1      41.957  30.632  31.858  1.00  0.00     0.074 A 
ATOM     22  C   UNL A   1      40.830  31.528  31.766  1.00  0.00     0.031 C 
ATOM     23  C   UNL A   1      40.455  25.952  27.707  1.00  0.00     0.029 A 
ATOM     24  C   UNL A   1      41.665  26.064  28.517  1.00  0.00     0.049 A 
ATOM     25  H   UNL A   1      42.157  27.589  29.849  1.00  0.00     0.167 HD
ATOM     26  C   UNL A   1      43.010  30.822  32.683  1.00  0.00     0.037 A 
ATOM     27  C   UNL A   1      42.685  25.183  28.529  1.00  0.00     0.037 A 
ATOM     28  C   UNL A   1      44.107  29.903  32.810  1.00  0.00     0.049 A 
ATOM     29  C   UNL A   1      43.853  25.426  29.449  1.00  0.00     0.074 A 
ATOM     30  C   UNL A   1      45.195  29.980  33.660  1.00  0.00     0.029 A 
ATOM     31  N   UNL A   1      44.248  28.736  32.075  1.00  0.00    -0.354 N 
ATOM     32  N   UNL A   1      44.039  26.400  30.306  1.00  0.00    -0.248 NA
ATOM     33  C   UNL A   1      44.952  24.449  29.409  1.00  0.00     0.031 C 
ATOM     34  C   UNL A   1      46.022  28.885  33.405  1.00  0.00     0.029 A 
ATOM     35  C   UNL A   1      45.420  28.097  32.438  1.00  0.00     0.049 A 
ATOM     36  H   UNL A   1      43.612  28.412  31.397  1.00  0.00     0.167 HD
ATOM     37  C   UNL A   1      45.252  26.137  30.927  1.00  0.00     0.074 A 
ATOM     38  C   UNL A   1      45.758  24.907  30.358  1.00  0.00     0.031 C 
ATOM     39  C   UNL A   1      45.890  26.853  31.883  1.00  0.00     0.037 A 
BRANCH  26  40
ATOM     40  C   UNL A   1      43.022  32.045  33.551  1.00  0.00     0.064 A 
ATOM     41  C   UNL A   1      42.416  32.045  34.816  1.00  0.00     0.173 A 
ATOM     42  C   UNL A   1      43.738  33.188  33.165  1.00  0.00     0.173 A 
ATOM     43  F   UNL A   1      41.711  30.980  35.227  1.00  0.00    -0.203 F 
ATOM     44  C   UNL A   1      42.523  33.146  35.660  1.00  0.00     0.198 A 
ATOM     45  C   UNL A   1      43.867  34.275  34.023  1.00  0.00     0.198 A 
ATOM     46  F   UNL A   1      44.341  33.235  31.967  1.00  0.00    -0.203 F 
ATOM     47  F   UNL A   1      41.916  33.133  36.855  1.00  0.00    -0.200 F 
ATOM     48  C   UNL A   1      43.260  34.254  35.270  1.00  0.00     0.200 A 
ATOM     49  F   UNL A   1      44.594  35.337  33.652  1.00  0.00    -0.200 F 
ATOM     50  F   UNL A   1      43.387  35.300  36.097  1.00  0.00    -0.200 F 
ENDBRANCH  26  40
BRANCH  27  51
ATOM     51  C   UNL A   1      42.627  23.966  27.674  1.00  0.00     0.064 A 
ATOM     52  C   UNL A   1      42.236  22.729  28.207  1.00  0.00     0.173 A 
ATOM     53  C   UNL A   1      42.957  24.010  26.312  1.00  0.00     0.173 A 
ATOM     54  F   UNL A   1      41.928  22.627  29.509  1.00  0.00    -0.203 F 
ATOM     55  C   UNL A   1      42.196  21.582  27.416  1.00  0.00     0.198 A 
ATOM     56  C   UNL A   1      42.886  22.869  25.514  1.00  0.00     0.198 A 
ATOM     57  F   UNL A   1      43.333  25.168  25.749  1.00  0.00    -0.203 F 
ATOM     58  F   UNL A   1      41.861  20.404  27.963  1.00  0.00    -0.200 F 
ATOM     59  C   UNL A   1      42.513  21.654  26.069  1.00  0.00     0.200 A 
ATOM     60  F   UNL A   1      43.177  22.947  24.209  1.00  0.00    -0.200 F 
ATOM     61  F   UNL A   1      42.466  20.553  25.307  1.00  0.00    -0.200 F 
ENDBRANCH  27  51
BRANCH  39  62
ATOM     62  C   UNL A   1      47.189  26.330  32.418  1.00  0.00     0.064 A 
ATOM     63  C   UNL A   1      47.226  25.425  33.487  1.00  0.00     0.173 A 
ATOM     64  C   UNL A   1      48.393  26.624  31.758  1.00  0.00     0.173 A 
ATOM     65  F   UNL A   1      46.103  25.120  34.152  1.00  0.00    -0.203 F 
ATOM     66  C   UNL A   1      48.422  24.824  33.870  1.00  0.00     0.198 A 
ATOM     67  C   UNL A   1      49.580  26.001  32.126  1.00  0.00     0.198 A 
ATOM     68  F   UNL A   1      48.405  27.475  30.721  1.00  0.00    -0.203 F 
ATOM     69  F   UNL A   1      48.437  23.967  34.900  1.00  0.00    -0.200 F 
ATOM     70  C   UNL A   1      49.593  25.100  33.180  1.00  0.00     0.200 A 
ATOM     71  F   UNL A   1      50.706  26.250  31.444  1.00  0.00    -0.200 F 
ATOM     72  F   UNL A   1      50.735  24.491  33.527  1.00  0.00    -0.200 F 
ENDBRANCH  39  62
ENDBRANCH  13  14
ENDBRANCH   6   8
ENDBRANCH   3   4
ENDBRANCH   2   3
ENDBRANCH   1   2
BRANCH   1  73
ATOM     73  C   UNL A   1      31.334  29.496  24.798  1.00  0.00     0.116 C 
BRANCH  73  74
ATOM     74  N   UNL A   1      30.628  29.799  23.557  1.00  0.00    -0.352 N 
ATOM     75  C   UNL A   1      30.198  28.930  22.583  1.00  0.00     0.251 C 
ATOM     76  H   UNL A   1      30.435  30.751  23.397  1.00  0.00     0.163 HD
ATOM     77  O   UNL A   1      29.718  29.317  21.531  1.00  0.00    -0.269 OA
BRANCH  75  78
ATOM     78  C   UNL A   1      30.378  27.496  22.842  1.00  0.00     0.041 A 
ATOM     79  C   UNL A   1      29.574  26.876  23.806  1.00  0.00     0.015 A 
ATOM     80  C   UNL A   1      31.473  26.851  22.260  1.00  0.00     0.040 A 
ATOM     81  C   UNL A   1      29.938  25.621  24.273  1.00  0.00     0.017 A 
ATOM     82  C   UNL A   1      31.831  25.602  22.749  1.00  0.00     0.056 A 
ATOM     83  C   UNL A   1      31.087  25.010  23.758  1.00  0.00     0.064 A 
ATOM     84  N   UNL A   1      32.953  24.946  22.262  1.00  0.00    -0.307 N 
ATOM     85  C   UNL A   1      31.532  23.716  24.282  1.00  0.00     0.264 A 
ATOM     86  C   UNL A   1      33.446  23.787  22.793  1.00  0.00     0.328 A 
ATOM     87  H   UNL A   1      33.421  25.338  21.490  1.00  0.00     0.171 HD
ATOM     88  O   UNL A   1      30.730  23.119  24.983  1.00  0.00    -0.268 OA
ATOM     89  N   UNL A   1      32.790  23.266  23.906  1.00  0.00    -0.260 N 
ATOM     90  O   UNL A   1      34.417  23.263  22.247  1.00  0.00    -0.248 OA
BRANCH  89  91
ATOM     91  C   UNL A   1      33.304  21.995  24.420  1.00  0.00     0.137 C 
BRANCH  91  92
ATOM     92  C   UNL A   1      32.699  20.656  23.965  1.00  0.00     0.083 C 
BRANCH  92  93
ATOM     93  C   UNL A   1      32.774  19.359  24.794  1.00  0.00     0.264 C 
BRANCH  93  94
ATOM     94  N   UNL A   1      32.348  18.041  24.319  1.00  0.00    -0.331 N 
ATOM     95  C   UNL A   1      32.416  16.957  25.306  1.00  0.00     0.291 C 
ATOM     96  C   UNL A   1      32.803  17.547  23.018  1.00  0.00     0.291 C 
ATOM     97  H   UNL A   1      31.376  18.305  24.156  1.00  0.00     0.348 HD
ATOM     98  C   UNL A   1      33.789  16.278  25.340  1.00  0.00     0.221 C 
ATOM     99  C   UNL A   1      34.157  16.817  23.080  1.00  0.00     0.221 C 
ATOM    100  O   UNL A   1      34.144  15.763  24.049  1.00  0.00    -0.370 OA
ENDBRANCH  93  94
ENDBRANCH  92  93
ENDBRANCH  91  92
ENDBRANCH  89  91
ENDBRANCH  75  78
ENDBRANCH  73  74
ENDBRANCH   1  73
TORSDOF 15
ENDMDL
