MODEL 1
REMARK VINA RESULT:      -9.2      0.000      0.000
REMARK SMILES Cc1ccccc1C#CC(=O)NCCCCNC(=O)c1ccc(-c2c3nc(c(-c4c(F)c(F)c(F)c(F)c4F)c4ccc([nH]4)c(-c4c(F)c(F)c(F)c(F)c4F)c4nc(c(-c5c(F)c(F)c(F)c(F)c5F)c5ccc2[nH]5)C=C4)C=C3)cc1
REMARK SMILES IDX 15 1 14 2 13 3 12 4 10 5 11 6 9 8 8 9 7 10 1 11 2 12 3 13
REMARK SMILES IDX 4 14 6 15 5 16 16 17 17 18 18 19 19 21 20 22 21 23 82 24
REMARK SMILES IDX 22 25 81 26 23 27 24 28 25 29 75 30 26 31 80 32 74 33 76 34
REMARK SMILES IDX 27 35 79 36 73 37 72 38 28 40 60 41 40 42 59 43 41 44 44 45
REMARK SMILES IDX 58 46 77 47 42 48 43 49 57 51 78 52 45 53 29 54 30 55 38 56
REMARK SMILES IDX 31 57 32 58 36 59 39 60 33 61 34 62 37 63 35 64 61 65 62 66
REMARK SMILES IDX 70 67 63 68 64 69 68 70 71 71 65 72 66 73 69 74 67 75 46 76
REMARK SMILES IDX 47 77 55 78 48 79 49 80 53 81 56 82 50 83 51 84 54 85 52 86
REMARK H PARENT 12 7 17 20 76 39 44 50
REMARK Flexibility Score: inf
ROOT
ATOM      1  C   UNL A   1      33.768  35.193  32.549  1.00  0.00     0.023 C 
ENDROOT
BRANCH   1   2
ATOM      2  C   UNL A   1      35.156  34.983  33.152  1.00  0.00     0.023 C 
BRANCH   2   3
ATOM      3  C   UNL A   1      35.237  33.865  34.190  1.00  0.00     0.117 C 
BRANCH   3   4
ATOM      4  N   UNL A   1      36.116  34.210  35.293  1.00  0.00    -0.345 N 
ATOM      5  C   UNL A   1      37.186  33.492  35.753  1.00  0.00     0.296 C 
ATOM      6  O   UNL A   1      37.858  33.894  36.696  1.00  0.00    -0.260 OA
ATOM      7  H   UNL A   1      35.920  35.053  35.761  1.00  0.00     0.164 HD
BRANCH   5   8
ATOM      8  C   UNL A   1      37.531  32.256  35.102  1.00  0.00     0.000 C 
ATOM      9  C   UNL A   1      37.865  31.257  34.520  1.00  0.00    -0.056 C 
BRANCH   9  10
ATOM     10  C   UNL A   1      38.297  30.105  33.790  1.00  0.00     0.028 A 
ATOM     11  C   UNL A   1      40.539  30.068  35.012  1.00  0.00     0.045 C 
ATOM     12  C   UNL A   1      39.557  29.521  34.012  1.00  0.00    -0.035 A 
ATOM     13  C   UNL A   1      39.939  28.423  33.225  1.00  0.00     0.005 A 
ATOM     14  C   UNL A   1      39.079  27.905  32.253  1.00  0.00     0.000 A 
ATOM     15  C   UNL A   1      37.440  29.580  32.816  1.00  0.00     0.017 A 
ATOM     16  C   UNL A   1      37.829  28.481  32.050  1.00  0.00     0.001 A 
ENDBRANCH   9  10
ENDBRANCH   5   8
ENDBRANCH   3   4
ENDBRANCH   2   3
ENDBRANCH   1   2
BRANCH   1  17
ATOM     17  C   UNL A   1      33.720  36.113  31.337  1.00  0.00     0.116 C 
BRANCH  17  18
ATOM     18  N   UNL A   1      32.923  35.587  30.237  1.00  0.00    -0.352 N 
ATOM     19  C   UNL A   1      33.243  34.618  29.310  1.00  0.00     0.251 C 
ATOM     20  H   UNL A   1      32.027  35.981  30.141  1.00  0.00     0.163 HD
ATOM     21  O   UNL A   1      32.486  34.383  28.373  1.00  0.00    -0.269 OA
BRANCH  19  22
ATOM     22  C   UNL A   1      34.528  33.893  29.423  1.00  0.00     0.039 A 
ATOM     23  C   UNL A   1      34.633  32.762  30.230  1.00  0.00     0.014 A 
ATOM     24  C   UNL A   1      35.657  34.386  28.760  1.00  0.00     0.014 A 
ATOM     25  C   UNL A   1      35.889  32.263  30.550  1.00  0.00     0.010 A 
ATOM     26  C   UNL A   1      36.908  33.804  28.993  1.00  0.00     0.010 A 
ATOM     27  C   UNL A   1      37.046  32.776  29.939  1.00  0.00    -0.014 A 
BRANCH  27  28
ATOM     28  C   UNL A   1      38.375  32.218  30.315  1.00  0.00     0.031 A 
ATOM     29  C   UNL A   1      39.197  32.839  31.416  1.00  0.00     0.074 A 
ATOM     30  C   UNL A   1      38.804  31.089  29.712  1.00  0.00     0.049 A 
ATOM     31  N   UNL A   1      40.352  32.452  31.899  1.00  0.00    -0.248 NA
ATOM     32  C   UNL A   1      38.659  34.047  32.065  1.00  0.00     0.031 C 
ATOM     33  C   UNL A   1      38.089  30.382  28.647  1.00  0.00     0.029 A 
ATOM     34  N   UNL A   1      39.919  30.317  29.928  1.00  0.00    -0.354 N 
ATOM     35  C   UNL A   1      40.675  33.360  32.900  1.00  0.00     0.074 A 
ATOM     36  C   UNL A   1      39.620  34.349  32.928  1.00  0.00     0.031 C 
ATOM     37  C   UNL A   1      38.744  29.250  28.352  1.00  0.00     0.029 A 
ATOM     38  C   UNL A   1      39.965  29.188  29.145  1.00  0.00     0.049 A 
ATOM     39  H   UNL A   1      40.617  30.551  30.581  1.00  0.00     0.167 HD
ATOM     40  C   UNL A   1      41.740  33.354  33.736  1.00  0.00     0.037 A 
ATOM     41  C   UNL A   1      40.895  28.217  29.062  1.00  0.00     0.037 A 
ATOM     42  C   UNL A   1      42.780  32.359  33.720  1.00  0.00     0.049 A 
ATOM     43  C   UNL A   1      42.113  28.294  29.943  1.00  0.00     0.074 A 
ATOM     44  C   UNL A   1      43.902  32.276  34.527  1.00  0.00     0.029 A 
ATOM     45  N   UNL A   1      42.824  31.271  32.861  1.00  0.00    -0.354 N 
ATOM     46  N   UNL A   1      42.392  29.152  30.892  1.00  0.00    -0.248 NA
ATOM     47  C   UNL A   1      43.147  27.270  29.738  1.00  0.00     0.031 C 
ATOM     48  C   UNL A   1      44.651  31.170  34.125  1.00  0.00     0.029 A 
ATOM     49  C   UNL A   1      43.965  30.523  33.110  1.00  0.00     0.049 A 
ATOM     50  H   UNL A   1      42.148  31.061  32.178  1.00  0.00     0.167 HD
ATOM     51  C   UNL A   1      43.610  28.748  31.423  1.00  0.00     0.074 A 
ATOM     52  C   UNL A   1      44.010  27.561  30.700  1.00  0.00     0.031 C 
ATOM     53  C   UNL A   1      44.332  29.318  32.416  1.00  0.00     0.037 A 
BRANCH  40  54
ATOM     54  C   UNL A   1      41.846  34.434  34.775  1.00  0.00     0.064 A 
ATOM     55  C   UNL A   1      42.343  35.705  34.453  1.00  0.00     0.173 A 
ATOM     56  C   UNL A   1      41.308  34.245  36.059  1.00  0.00     0.173 A 
ATOM     57  F   UNL A   1      42.874  35.935  33.242  1.00  0.00    -0.203 F 
ATOM     58  C   UNL A   1      42.293  36.748  35.373  1.00  0.00     0.198 A 
ATOM     59  C   UNL A   1      41.233  35.299  36.966  1.00  0.00     0.198 A 
ATOM     60  F   UNL A   1      40.807  33.052  36.414  1.00  0.00    -0.203 F 
ATOM     61  F   UNL A   1      42.783  37.952  35.046  1.00  0.00    -0.200 F 
ATOM     62  C   UNL A   1      41.724  36.550  36.622  1.00  0.00     0.200 A 
ATOM     63  F   UNL A   1      40.661  35.111  38.164  1.00  0.00    -0.200 F 
ATOM     64  F   UNL A   1      41.640  37.566  37.492  1.00  0.00    -0.200 F 
ENDBRANCH  40  54
BRANCH  41  65
ATOM     65  C   UNL A   1      40.718  27.086  28.111  1.00  0.00     0.064 A 
ATOM     66  C   UNL A   1      39.844  26.028  28.404  1.00  0.00     0.173 A 
ATOM     67  C   UNL A   1      41.438  27.017  26.908  1.00  0.00     0.173 A 
ATOM     68  F   UNL A   1      39.143  26.036  29.548  1.00  0.00    -0.203 F 
ATOM     69  C   UNL A   1      39.721  24.936  27.547  1.00  0.00     0.198 A 
ATOM     70  C   UNL A   1      41.285  25.944  26.035  1.00  0.00     0.198 A 
ATOM     71  F   UNL A   1      42.287  28.001  26.575  1.00  0.00    -0.203 F 
ATOM     72  F   UNL A   1      38.928  23.910  27.885  1.00  0.00    -0.200 F 
ATOM     73  C   UNL A   1      40.437  24.897  26.361  1.00  0.00     0.200 A 
ATOM     74  F   UNL A   1      41.962  25.921  24.879  1.00  0.00    -0.200 F 
ATOM     75  F   UNL A   1      40.319  23.845  25.539  1.00  0.00    -0.200 F 
ENDBRANCH  41  65
BRANCH  53  76
ATOM     76  C   UNL A   1      45.607  28.645  32.837  1.00  0.00     0.064 A 
ATOM     77  C   UNL A   1      45.620  27.633  33.807  1.00  0.00     0.173 A 
ATOM     78  C   UNL A   1      46.813  28.949  32.186  1.00  0.00     0.173 A 
ATOM     79  F   UNL A   1      44.498  27.315  34.468  1.00  0.00    -0.203 F 
ATOM     80  C   UNL A   1      46.797  26.954  34.114  1.00  0.00     0.198 A 
ATOM     81  C   UNL A   1      47.978  28.243  32.470  1.00  0.00     0.198 A 
ATOM     82  F   UNL A   1      46.851  29.904  31.244  1.00  0.00    -0.203 F 
ATOM     83  F   UNL A   1      46.793  26.010  35.066  1.00  0.00    -0.200 F 
ATOM     84  C   UNL A   1      47.970  27.250  33.436  1.00  0.00     0.200 A 
ATOM     85  F   UNL A   1      49.105  28.516  31.799  1.00  0.00    -0.200 F 
ATOM     86  F   UNL A   1      49.093  26.572  33.711  1.00  0.00    -0.200 F 
ENDBRANCH  53  76
ENDBRANCH  27  28
ENDBRANCH  19  22
ENDBRANCH  17  18
ENDBRANCH   1  17
TORSDOF 12
ENDMDL
MODEL 2
REMARK VINA RESULT:      -9.1      4.899     10.858
REMARK SMILES Cc1ccccc1C#CC(=O)NCCCCNC(=O)c1ccc(-c2c3nc(c(-c4c(F)c(F)c(F)c(F)c4F)c4ccc([nH]4)c(-c4c(F)c(F)c(F)c(F)c4F)c4nc(c(-c5c(F)c(F)c(F)c(F)c5F)c5ccc2[nH]5)C=C4)C=C3)cc1
REMARK SMILES IDX 15 1 14 2 13 3 12 4 10 5 11 6 9 8 8 9 7 10 1 11 2 12 3 13
REMARK SMILES IDX 4 14 6 15 5 16 16 17 17 18 18 19 19 21 20 22 21 23 82 24
REMARK SMILES IDX 22 25 81 26 23 27 24 28 25 29 75 30 26 31 80 32 74 33 76 34
REMARK SMILES IDX 27 35 79 36 73 37 72 38 28 40 60 41 40 42 59 43 41 44 44 45
REMARK SMILES IDX 58 46 77 47 42 48 43 49 57 51 78 52 45 53 29 54 30 55 38 56
REMARK SMILES IDX 31 57 32 58 36 59 39 60 33 61 34 62 37 63 35 64 61 65 62 66
REMARK SMILES IDX 70 67 63 68 64 69 68 70 71 71 65 72 66 73 69 74 67 75 46 76
REMARK SMILES IDX 47 77 55 78 48 79 49 80 53 81 56 82 50 83 51 84 54 85 52 86
REMARK H PARENT 12 7 17 20 76 39 44 50
REMARK Flexibility Score: inf
ROOT
ATOM      1  C   UNL A   1      44.439  20.848  24.720  1.00  0.00     0.023 C 
ENDROOT
BRANCH   1   2
ATOM      2  C   UNL A   1      45.194  21.940  25.475  1.00  0.00     0.023 C 
BRANCH   2   3
ATOM      3  C   UNL A   1      45.342  23.256  24.714  1.00  0.00     0.117 C 
BRANCH   3   4
ATOM      4  N   UNL A   1      46.719  23.714  24.681  1.00  0.00    -0.345 N 
ATOM      5  C   UNL A   1      47.172  24.989  24.888  1.00  0.00     0.296 C 
ATOM      6  O   UNL A   1      48.368  25.251  24.839  1.00  0.00    -0.260 OA
ATOM      7  H   UNL A   1      47.403  23.033  24.490  1.00  0.00     0.164 HD
BRANCH   5   8
ATOM      8  C   UNL A   1      46.222  26.028  25.185  1.00  0.00     0.000 C 
ATOM      9  C   UNL A   1      45.406  26.859  25.486  1.00  0.00    -0.056 C 
BRANCH   9  10
ATOM     10  C   UNL A   1      44.410  27.806  25.884  1.00  0.00     0.028 A 
ATOM     11  C   UNL A   1      42.534  26.361  24.932  1.00  0.00     0.045 C 
ATOM     12  C   UNL A   1      43.043  27.587  25.638  1.00  0.00    -0.035 A 
ATOM     13  C   UNL A   1      42.124  28.582  26.009  1.00  0.00     0.005 A 
ATOM     14  C   UNL A   1      42.552  29.758  26.629  1.00  0.00     0.000 A 
ATOM     15  C   UNL A   1      44.833  28.987  26.507  1.00  0.00     0.017 A 
ATOM     16  C   UNL A   1      43.906  29.960  26.881  1.00  0.00     0.001 A 
ENDBRANCH   9  10
ENDBRANCH   5   8
ENDBRANCH   3   4
ENDBRANCH   2   3
ENDBRANCH   1   2
BRANCH   1  17
ATOM     17  C   UNL A   1      44.105  19.608  25.537  1.00  0.00     0.116 C 
BRANCH  17  18
ATOM     18  N   UNL A   1      42.715  19.187  25.416  1.00  0.00    -0.352 N 
ATOM     19  C   UNL A   1      41.574  19.790  25.899  1.00  0.00     0.251 C 
ATOM     20  H   UNL A   1      42.571  18.351  24.918  1.00  0.00     0.163 HD
ATOM     21  O   UNL A   1      40.488  19.227  25.802  1.00  0.00    -0.269 OA
BRANCH  19  22
ATOM     22  C   UNL A   1      41.670  21.101  26.578  1.00  0.00     0.039 A 
ATOM     23  C   UNL A   1      41.550  22.285  25.852  1.00  0.00     0.014 A 
ATOM     24  C   UNL A   1      41.942  21.147  27.949  1.00  0.00     0.014 A 
ATOM     25  C   UNL A   1      41.919  23.489  26.437  1.00  0.00     0.010 A 
ATOM     26  C   UNL A   1      42.198  22.378  28.565  1.00  0.00     0.010 A 
ATOM     27  C   UNL A   1      42.250  23.555  27.802  1.00  0.00    -0.014 A 
BRANCH  27  28
ATOM     28  C   UNL A   1      42.647  24.864  28.390  1.00  0.00     0.031 A 
ATOM     29  C   UNL A   1      44.098  25.209  28.615  1.00  0.00     0.074 A 
ATOM     30  C   UNL A   1      41.692  25.783  28.644  1.00  0.00     0.049 A 
ATOM     31  N   UNL A   1      44.618  26.321  29.075  1.00  0.00    -0.248 NA
ATOM     32  C   UNL A   1      45.098  24.181  28.282  1.00  0.00     0.031 C 
ATOM     33  C   UNL A   1      40.255  25.577  28.449  1.00  0.00     0.029 A 
ATOM     34  N   UNL A   1      41.780  27.081  29.085  1.00  0.00    -0.354 N 
ATOM     35  C   UNL A   1      45.994  26.127  29.084  1.00  0.00     0.074 A 
ATOM     36  C   UNL A   1      46.233  24.775  28.630  1.00  0.00     0.031 C 
ATOM     37  C   UNL A   1      39.606  26.723  28.701  1.00  0.00     0.029 A 
ATOM     38  C   UNL A   1      40.566  27.722  29.153  1.00  0.00     0.049 A 
ATOM     39  H   UNL A   1      42.632  27.510  29.329  1.00  0.00     0.167 HD
ATOM     40  C   UNL A   1      46.969  27.006  29.415  1.00  0.00     0.037 A 
ATOM     41  C   UNL A   1      40.256  28.971  29.550  1.00  0.00     0.037 A 
ATOM     42  C   UNL A   1      46.732  28.358  29.849  1.00  0.00     0.049 A 
ATOM     43  C   UNL A   1      41.360  29.890  30.000  1.00  0.00     0.074 A 
ATOM     44  C   UNL A   1      47.661  29.319  30.212  1.00  0.00     0.029 A 
ATOM     45  N   UNL A   1      45.482  28.944  29.972  1.00  0.00    -0.354 N 
ATOM     46  N   UNL A   1      42.655  29.693  29.988  1.00  0.00    -0.248 NA
ATOM     47  C   UNL A   1      40.959  31.203  30.525  1.00  0.00     0.031 C 
ATOM     48  C   UNL A   1      46.973  30.468  30.603  1.00  0.00     0.029 A 
ATOM     49  C   UNL A   1      45.617  30.248  30.422  1.00  0.00     0.049 A 
ATOM     50  H   UNL A   1      44.626  28.502  29.770  1.00  0.00     0.167 HD
ATOM     51  C   UNL A   1      43.222  30.869  30.462  1.00  0.00     0.074 A 
ATOM     52  C   UNL A   1      42.132  31.778  30.740  1.00  0.00     0.031 C 
ATOM     53  C   UNL A   1      44.530  31.161  30.654  1.00  0.00     0.037 A 
BRANCH  40  54
ATOM     54  C   UNL A   1      48.402  26.568  29.301  1.00  0.00     0.064 A 
ATOM     55  C   UNL A   1      49.172  26.886  28.173  1.00  0.00     0.173 A 
ATOM     56  C   UNL A   1      49.051  25.959  30.388  1.00  0.00     0.173 A 
ATOM     57  F   UNL A   1      48.598  27.462  27.106  1.00  0.00    -0.203 F 
ATOM     58  C   UNL A   1      50.537  26.619  28.139  1.00  0.00     0.198 A 
ATOM     59  C   UNL A   1      50.423  25.720  30.361  1.00  0.00     0.198 A 
ATOM     60  F   UNL A   1      48.364  25.645  31.498  1.00  0.00    -0.203 F 
ATOM     61  F   UNL A   1      51.250  26.923  27.046  1.00  0.00    -0.200 F 
ATOM     62  C   UNL A   1      51.165  26.051  29.238  1.00  0.00     0.200 A 
ATOM     63  F   UNL A   1      51.031  25.193  31.433  1.00  0.00    -0.200 F 
ATOM     64  F   UNL A   1      52.487  25.831  29.217  1.00  0.00    -0.200 F 
ENDBRANCH  40  54
BRANCH  41  65
ATOM     65  C   UNL A   1      38.841  29.433  29.543  1.00  0.00     0.064 A 
ATOM     66  C   UNL A   1      38.212  29.810  28.347  1.00  0.00     0.173 A 
ATOM     67  C   UNL A   1      38.097  29.539  30.728  1.00  0.00     0.173 A 
ATOM     68  F   UNL A   1      38.884  29.743  27.188  1.00  0.00    -0.203 F 
ATOM     69  C   UNL A   1      36.909  30.303  28.342  1.00  0.00     0.198 A 
ATOM     70  C   UNL A   1      36.781  29.994  30.716  1.00  0.00     0.198 A 
ATOM     71  F   UNL A   1      38.646  29.190  31.901  1.00  0.00    -0.203 F 
ATOM     72  F   UNL A   1      36.358  30.717  27.193  1.00  0.00    -0.200 F 
ATOM     73  C   UNL A   1      36.192  30.389  29.525  1.00  0.00     0.200 A 
ATOM     74  F   UNL A   1      36.085  30.055  31.859  1.00  0.00    -0.200 F 
ATOM     75  F   UNL A   1      34.939  30.864  29.519  1.00  0.00    -0.200 F 
ENDBRANCH  41  65
BRANCH  53  76
ATOM     76  C   UNL A   1      44.882  32.539  31.135  1.00  0.00     0.064 A 
ATOM     77  C   UNL A   1      45.088  32.815  32.494  1.00  0.00     0.173 A 
ATOM     78  C   UNL A   1      45.114  33.571  30.212  1.00  0.00     0.173 A 
ATOM     79  F   UNL A   1      44.867  31.867  33.417  1.00  0.00    -0.203 F 
ATOM     80  C   UNL A   1      45.510  34.075  32.911  1.00  0.00     0.198 A 
ATOM     81  C   UNL A   1      45.569  34.818  30.629  1.00  0.00     0.198 A 
ATOM     82  F   UNL A   1      44.939  33.356  28.899  1.00  0.00    -0.203 F 
ATOM     83  F   UNL A   1      45.673  34.325  34.218  1.00  0.00    -0.200 F 
ATOM     84  C   UNL A   1      45.763  35.069  31.978  1.00  0.00     0.200 A 
ATOM     85  F   UNL A   1      45.834  35.770  29.725  1.00  0.00    -0.200 F 
ATOM     86  F   UNL A   1      46.199  36.271  32.380  1.00  0.00    -0.200 F 
ENDBRANCH  53  76
ENDBRANCH  27  28
ENDBRANCH  19  22
ENDBRANCH  17  18
ENDBRANCH   1  17
TORSDOF 12
ENDMDL
MODEL 3
REMARK VINA RESULT:      -8.9      4.640     10.530
REMARK SMILES Cc1ccccc1C#CC(=O)NCCCCNC(=O)c1ccc(-c2c3nc(c(-c4c(F)c(F)c(F)c(F)c4F)c4ccc([nH]4)c(-c4c(F)c(F)c(F)c(F)c4F)c4nc(c(-c5c(F)c(F)c(F)c(F)c5F)c5ccc2[nH]5)C=C4)C=C3)cc1
REMARK SMILES IDX 15 1 14 2 13 3 12 4 10 5 11 6 9 8 8 9 7 10 1 11 2 12 3 13
REMARK SMILES IDX 4 14 6 15 5 16 16 17 17 18 18 19 19 21 20 22 21 23 82 24
REMARK SMILES IDX 22 25 81 26 23 27 24 28 25 29 75 30 26 31 80 32 74 33 76 34
REMARK SMILES IDX 27 35 79 36 73 37 72 38 28 40 60 41 40 42 59 43 41 44 44 45
REMARK SMILES IDX 58 46 77 47 42 48 43 49 57 51 78 52 45 53 29 54 30 55 38 56
REMARK SMILES IDX 31 57 32 58 36 59 39 60 33 61 34 62 37 63 35 64 61 65 62 66
REMARK SMILES IDX 70 67 63 68 64 69 68 70 71 71 65 72 66 73 69 74 67 75 46 76
REMARK SMILES IDX 47 77 55 78 48 79 49 80 53 81 56 82 50 83 51 84 54 85 52 86
REMARK H PARENT 12 7 17 20 76 39 44 50
REMARK Flexibility Score: inf
ROOT
ATOM      1  C   UNL A   1      44.783  20.526  24.057  1.00  0.00     0.023 C 
ENDROOT
BRANCH   1   2
ATOM      2  C   UNL A   1      44.817  22.054  24.044  1.00  0.00     0.023 C 
BRANCH   2   3
ATOM      3  C   UNL A   1      45.505  22.686  25.252  1.00  0.00     0.117 C 
BRANCH   3   4
ATOM      4  N   UNL A   1      46.736  23.362  24.886  1.00  0.00    -0.345 N 
ATOM      5  C   UNL A   1      46.953  24.712  24.829  1.00  0.00     0.296 C 
ATOM      6  O   UNL A   1      48.046  25.163  24.508  1.00  0.00    -0.260 OA
ATOM      7  H   UNL A   1      47.499  22.786  24.652  1.00  0.00     0.164 HD
BRANCH   5   8
ATOM      8  C   UNL A   1      45.880  25.608  25.171  1.00  0.00     0.000 C 
ATOM      9  C   UNL A   1      45.019  26.406  25.429  1.00  0.00    -0.056 C 
BRANCH   9  10
ATOM     10  C   UNL A   1      44.033  27.402  25.718  1.00  0.00     0.028 A 
ATOM     11  C   UNL A   1      45.706  28.789  27.059  1.00  0.00     0.045 C 
ATOM     12  C   UNL A   1      44.338  28.543  26.482  1.00  0.00    -0.035 A 
ATOM     13  C   UNL A   1      43.311  29.454  26.772  1.00  0.00     0.005 A 
ATOM     14  C   UNL A   1      42.015  29.248  26.296  1.00  0.00     0.000 A 
ATOM     15  C   UNL A   1      42.731  27.202  25.243  1.00  0.00     0.017 A 
ATOM     16  C   UNL A   1      41.725  28.123  25.529  1.00  0.00     0.001 A 
ENDBRANCH   9  10
ENDBRANCH   5   8
ENDBRANCH   3   4
ENDBRANCH   2   3
ENDBRANCH   1   2
BRANCH   1  17
ATOM     17  C   UNL A   1      44.333  19.900  25.369  1.00  0.00     0.116 C 
BRANCH  17  18
ATOM     18  N   UNL A   1      42.964  19.400  25.337  1.00  0.00    -0.352 N 
ATOM     19  C   UNL A   1      41.821  19.946  25.877  1.00  0.00     0.251 C 
ATOM     20  H   UNL A   1      42.839  18.548  24.860  1.00  0.00     0.163 HD
ATOM     21  O   UNL A   1      40.765  19.322  25.854  1.00  0.00    -0.269 OA
BRANCH  19  22
ATOM     22  C   UNL A   1      41.881  21.272  26.531  1.00  0.00     0.039 A 
ATOM     23  C   UNL A   1      41.872  22.439  25.767  1.00  0.00     0.014 A 
ATOM     24  C   UNL A   1      42.010  21.349  27.922  1.00  0.00     0.014 A 
ATOM     25  C   UNL A   1      42.211  23.648  26.358  1.00  0.00     0.010 A 
ATOM     26  C   UNL A   1      42.234  22.590  28.530  1.00  0.00     0.010 A 
ATOM     27  C   UNL A   1      42.399  23.743  27.748  1.00  0.00    -0.014 A 
BRANCH  27  28
ATOM     28  C   UNL A   1      42.769  25.058  28.343  1.00  0.00     0.031 A 
ATOM     29  C   UNL A   1      41.724  26.113  28.610  1.00  0.00     0.074 A 
ATOM     30  C   UNL A   1      44.047  25.268  28.722  1.00  0.00     0.049 A 
ATOM     31  N   UNL A   1      41.868  27.293  29.163  1.00  0.00    -0.248 NA
ATOM     32  C   UNL A   1      40.339  25.812  28.211  1.00  0.00     0.031 C 
ATOM     33  C   UNL A   1      45.145  24.317  28.536  1.00  0.00     0.029 A 
ATOM     34  N   UNL A   1      44.635  26.326  29.371  1.00  0.00    -0.354 N 
ATOM     35  C   UNL A   1      40.603  27.867  29.179  1.00  0.00     0.074 A 
ATOM     36  C   UNL A   1      39.707  26.931  28.538  1.00  0.00     0.031 C 
ATOM     37  C   UNL A   1      46.252  24.801  29.117  1.00  0.00     0.029 A 
ATOM     38  C   UNL A   1      45.968  26.130  29.646  1.00  0.00     0.049 A 
ATOM     39  H   UNL A   1      44.148  27.145  29.616  1.00  0.00     0.167 HD
ATOM     40  C   UNL A   1      40.221  29.055  29.705  1.00  0.00     0.037 A 
ATOM     41  C   UNL A   1      46.867  26.935  30.242  1.00  0.00     0.037 A 
ATOM     42  C   UNL A   1      41.111  29.978  30.360  1.00  0.00     0.049 A 
ATOM     43  C   UNL A   1      46.424  28.289  30.731  1.00  0.00     0.074 A 
ATOM     44  C   UNL A   1      40.812  31.210  30.917  1.00  0.00     0.029 A 
ATOM     45  N   UNL A   1      42.468  29.771  30.553  1.00  0.00    -0.354 N 
ATOM     46  N   UNL A   1      45.222  28.807  30.750  1.00  0.00    -0.248 NA
ATOM     47  C   UNL A   1      47.466  29.170  31.277  1.00  0.00     0.031 C 
ATOM     48  C   UNL A   1      41.994  31.771  31.402  1.00  0.00     0.029 A 
ATOM     49  C   UNL A   1      43.021  30.862  31.205  1.00  0.00     0.049 A 
ATOM     50  H   UNL A   1      42.965  28.970  30.269  1.00  0.00     0.167 HD
ATOM     51  C   UNL A   1      45.356  30.055  31.345  1.00  0.00     0.074 A 
ATOM     52  C   UNL A   1      46.753  30.210  31.685  1.00  0.00     0.031 C 
ATOM     53  C   UNL A   1      44.404  30.988  31.580  1.00  0.00     0.037 A 
BRANCH  40  54
ATOM     54  C   UNL A   1      38.770  29.440  29.634  1.00  0.00     0.064 A 
ATOM     55  C   UNL A   1      37.978  29.501  30.789  1.00  0.00     0.173 A 
ATOM     56  C   UNL A   1      38.210  29.895  28.429  1.00  0.00     0.173 A 
ATOM     57  F   UNL A   1      38.464  29.072  31.964  1.00  0.00    -0.203 F 
ATOM     58  C   UNL A   1      36.683  30.009  30.744  1.00  0.00     0.198 A 
ATOM     59  C   UNL A   1      36.925  30.429  28.393  1.00  0.00     0.198 A 
ATOM     60  F   UNL A   1      38.929  29.870  27.296  1.00  0.00    -0.203 F 
ATOM     61  F   UNL A   1      35.941  30.049  31.859  1.00  0.00    -0.200 F 
ATOM     62  C   UNL A   1      36.163  30.487  29.550  1.00  0.00     0.200 A 
ATOM     63  F   UNL A   1      36.433  30.913  27.244  1.00  0.00    -0.200 F 
ATOM     64  F   UNL A   1      34.930  31.012  29.517  1.00  0.00    -0.200 F 
ENDBRANCH  40  54
BRANCH  41  65
ATOM     65  C   UNL A   1      48.277  26.491  30.415  1.00  0.00     0.064 A 
ATOM     66  C   UNL A   1      48.682  25.810  31.572  1.00  0.00     0.173 A 
ATOM     67  C   UNL A   1      49.257  26.762  29.446  1.00  0.00     0.173 A 
ATOM     68  F   UNL A   1      47.789  25.540  32.536  1.00  0.00    -0.203 F 
ATOM     69  C   UNL A   1      50.013  25.447  31.768  1.00  0.00     0.198 A 
ATOM     70  C   UNL A   1      50.578  26.364  29.625  1.00  0.00     0.198 A 
ATOM     71  F   UNL A   1      48.926  27.408  28.318  1.00  0.00    -0.203 F 
ATOM     72  F   UNL A   1      50.382  24.857  32.913  1.00  0.00    -0.200 F 
ATOM     73  C   UNL A   1      50.959  25.719  30.792  1.00  0.00     0.200 A 
ATOM     74  F   UNL A   1      51.485  26.609  28.670  1.00  0.00    -0.200 F 
ATOM     75  F   UNL A   1      52.239  25.371  30.981  1.00  0.00    -0.200 F 
ENDBRANCH  41  65
BRANCH  53  76
ATOM     76  C   UNL A   1      44.810  32.247  32.291  1.00  0.00     0.064 A 
ATOM     77  C   UNL A   1      45.214  33.391  31.590  1.00  0.00     0.173 A 
ATOM     78  C   UNL A   1      44.694  32.337  33.687  1.00  0.00     0.173 A 
ATOM     79  F   UNL A   1      45.354  33.353  30.257  1.00  0.00    -0.203 F 
ATOM     80  C   UNL A   1      45.492  34.579  32.262  1.00  0.00     0.198 A 
ATOM     81  C   UNL A   1      44.938  33.535  34.351  1.00  0.00     0.198 A 
ATOM     82  F   UNL A   1      44.303  31.272  34.404  1.00  0.00    -0.203 F 
ATOM     83  F   UNL A   1      45.905  35.653  31.575  1.00  0.00    -0.200 F 
ATOM     84  C   UNL A   1      45.340  34.653  33.638  1.00  0.00     0.200 A 
ATOM     85  F   UNL A   1      44.770  33.610  35.678  1.00  0.00    -0.200 F 
ATOM     86  F   UNL A   1      45.578  35.807  34.278  1.00  0.00    -0.200 F 
ENDBRANCH  53  76
ENDBRANCH  27  28
ENDBRANCH  19  22
ENDBRANCH  17  18
ENDBRANCH   1  17
TORSDOF 12
ENDMDL
