MODEL 1
REMARK VINA RESULT:     -11.6      0.000      0.000
REMARK SMILES O=C(NCCCCNC(=O)[C@@]12CCC[C@@H](C[NH2+]1)C2)c1ccc(-c2c3nc(c(-c4c(F)c(F)c(F)c(F)c4F)c4ccc([nH]4)c(-c4c(F)c(F)c(F)c(F)c4F)c4nc(c(-c5c(F)c(F)c(F)c(F)c5F)c5ccc2[nH]5)C=C4)C=C3)cc1
REMARK SMILES IDX 4 1 3 2 1 3 2 4 19 6 20 7 81 8 21 9 80 10 22 11 23 12 24 13
REMARK SMILES IDX 74 14 25 15 79 16 73 17 75 18 26 19 78 20 72 21 71 22 27 24
REMARK SMILES IDX 59 25 39 26 58 27 40 28 43 29 57 30 76 31 41 32 42 33 56 35
REMARK SMILES IDX 77 36 44 37 28 38 29 39 37 40 30 41 31 42 35 43 38 44 32 45
REMARK SMILES IDX 33 46 36 47 34 48 60 49 61 50 69 51 62 52 63 53 67 54 70 55
REMARK SMILES IDX 64 56 65 57 68 58 66 59 45 60 46 61 54 62 47 63 48 64 52 65
REMARK SMILES IDX 55 66 49 67 50 68 53 69 51 70 5 71 6 72 7 73 8 74 9 75 10 77
REMARK SMILES IDX 11 78 12 79 17 80 18 81 13 82 16 83 15 86 14 87
REMARK H PARENT 3 5 75 23 43 34 8 76 17 84 17 85
REMARK Flexibility Score: inf
ROOT
ATOM      1  C   UNL A   1      32.558  32.587  27.190  1.00  0.00     0.116 C 
ENDROOT
BRANCH   1   2
ATOM      2  N   UNL A   1      32.401  33.977  27.590  1.00  0.00    -0.352 N 
ATOM      3  O   UNL A   1      32.755  35.844  28.806  1.00  0.00    -0.269 OA
ATOM      4  C   UNL A   1      33.103  34.701  28.523  1.00  0.00     0.251 C 
ATOM      5  H   UNL A   1      31.688  34.470  27.123  1.00  0.00     0.163 HD
BRANCH   4   6
ATOM      6  C   UNL A   1      34.258  34.090  29.213  1.00  0.00     0.039 A 
ATOM      7  C   UNL A   1      35.563  34.456  28.879  1.00  0.00     0.014 A 
ATOM      8  C   UNL A   1      34.029  33.130  30.202  1.00  0.00     0.014 A 
ATOM      9  C   UNL A   1      36.635  33.757  29.421  1.00  0.00     0.010 A 
ATOM     10  C   UNL A   1      35.111  32.491  30.813  1.00  0.00     0.010 A 
ATOM     11  C   UNL A   1      36.422  32.776  30.403  1.00  0.00    -0.014 A 
BRANCH  11  12
ATOM     12  C   UNL A   1      37.592  32.114  31.032  1.00  0.00     0.031 A 
ATOM     13  C   UNL A   1      38.038  32.473  32.420  1.00  0.00     0.074 A 
ATOM     14  C   UNL A   1      38.237  31.158  30.338  1.00  0.00     0.049 A 
ATOM     15  N   UNL A   1      39.034  31.982  33.119  1.00  0.00    -0.248 NA
ATOM     16  C   UNL A   1      37.279  33.522  33.117  1.00  0.00     0.031 C 
ATOM     17  C   UNL A   1      37.898  30.736  28.977  1.00  0.00     0.029 A 
ATOM     18  N   UNL A   1      39.297  30.358  30.679  1.00  0.00    -0.354 N 
ATOM     19  C   UNL A   1      39.030  32.672  34.324  1.00  0.00     0.074 A 
ATOM     20  C   UNL A   1      37.950  33.634  34.256  1.00  0.00     0.031 C 
ATOM     21  C   UNL A   1      38.703  29.727  28.615  1.00  0.00     0.029 A 
ATOM     22  C   UNL A   1      39.656  29.476  29.691  1.00  0.00     0.049 A 
ATOM     23  H   UNL A   1      39.757  30.412  31.548  1.00  0.00     0.167 HD
ATOM     24  C   UNL A   1      39.850  32.508  35.391  1.00  0.00     0.037 A 
ATOM     25  C   UNL A   1      40.653  28.574  29.646  1.00  0.00     0.037 A 
ATOM     26  C   UNL A   1      40.913  31.537  35.456  1.00  0.00     0.049 A 
ATOM     27  C   UNL A   1      41.560  28.432  30.834  1.00  0.00     0.074 A 
ATOM     28  C   UNL A   1      41.775  31.268  36.506  1.00  0.00     0.029 A 
ATOM     29  N   UNL A   1      41.263  30.677  34.424  1.00  0.00    -0.354 N 
ATOM     30  N   UNL A   1      41.524  29.065  31.980  1.00  0.00    -0.248 NA
ATOM     31  C   UNL A   1      42.647  27.452  30.719  1.00  0.00     0.031 C 
ATOM     32  C   UNL A   1      42.675  30.279  36.094  1.00  0.00     0.029 A 
ATOM     33  C   UNL A   1      42.343  29.895  34.805  1.00  0.00     0.049 A 
ATOM     34  H   UNL A   1      40.811  30.628  33.551  1.00  0.00     0.167 HD
ATOM     35  C   UNL A   1      42.569  28.550  32.732  1.00  0.00     0.074 A 
ATOM     36  C   UNL A   1      43.208  27.536  31.917  1.00  0.00     0.031 C 
ATOM     37  C   UNL A   1      42.966  28.889  33.982  1.00  0.00     0.037 A 
BRANCH  24  38
ATOM     38  C   UNL A   1      39.646  33.407  36.577  1.00  0.00     0.064 A 
ATOM     39  C   UNL A   1      40.259  34.665  36.663  1.00  0.00     0.173 A 
ATOM     40  C   UNL A   1      38.779  33.028  37.614  1.00  0.00     0.173 A 
ATOM     41  F   UNL A   1      41.104  35.072  35.703  1.00  0.00    -0.203 F 
ATOM     42  C   UNL A   1      40.028  35.503  37.752  1.00  0.00     0.198 A 
ATOM     43  C   UNL A   1      38.530  33.878  38.689  1.00  0.00     0.198 A 
ATOM     44  F   UNL A   1      38.161  31.838  37.579  1.00  0.00    -0.203 F 
ATOM     45  F   UNL A   1      40.655  36.685  37.832  1.00  0.00    -0.200 F 
ATOM     46  C   UNL A   1      39.159  35.112  38.760  1.00  0.00     0.200 A 
ATOM     47  F   UNL A   1      37.680  33.504  39.655  1.00  0.00    -0.200 F 
ATOM     48  F   UNL A   1      38.931  35.923  39.803  1.00  0.00    -0.200 F 
ENDBRANCH  24  38
BRANCH  25  49
ATOM     49  C   UNL A   1      40.840  27.745  28.428  1.00  0.00     0.064 A 
ATOM     50  C   UNL A   1      40.203  26.505  28.295  1.00  0.00     0.173 A 
ATOM     51  C   UNL A   1      41.643  28.187  27.365  1.00  0.00     0.173 A 
ATOM     52  F   UNL A   1      39.440  26.032  29.291  1.00  0.00    -0.203 F 
ATOM     53  C   UNL A   1      40.375  25.728  27.150  1.00  0.00     0.198 A 
ATOM     54  C   UNL A   1      41.788  27.425  26.209  1.00  0.00     0.198 A 
ATOM     55  F   UNL A   1      42.267  29.371  27.442  1.00  0.00    -0.203 F 
ATOM     56  F   UNL A   1      39.787  24.528  27.063  1.00  0.00    -0.200 F 
ATOM     57  C   UNL A   1      41.161  26.193  26.105  1.00  0.00     0.200 A 
ATOM     58  F   UNL A   1      42.532  27.886  25.195  1.00  0.00    -0.200 F 
ATOM     59  F   UNL A   1      41.316  25.452  25.000  1.00  0.00    -0.200 F 
ENDBRANCH  25  49
BRANCH  37  60
ATOM     60  C   UNL A   1      44.130  28.136  34.555  1.00  0.00     0.064 A 
ATOM     61  C   UNL A   1      43.956  26.924  35.241  1.00  0.00     0.173 A 
ATOM     62  C   UNL A   1      45.437  28.619  34.394  1.00  0.00     0.173 A 
ATOM     63  F   UNL A   1      42.723  26.431  35.436  1.00  0.00    -0.203 F 
ATOM     64  C   UNL A   1      45.046  26.238  35.769  1.00  0.00     0.198 A 
ATOM     65  C   UNL A   1      46.527  27.916  34.898  1.00  0.00     0.198 A 
ATOM     66  F   UNL A   1      45.657  29.770  33.743  1.00  0.00    -0.203 F 
ATOM     67  F   UNL A   1      44.851  25.108  36.463  1.00  0.00    -0.200 F 
ATOM     68  C   UNL A   1      46.331  26.731  35.591  1.00  0.00     0.200 A 
ATOM     69  F   UNL A   1      47.769  28.386  34.716  1.00  0.00    -0.200 F 
ATOM     70  F   UNL A   1      47.379  26.066  36.096  1.00  0.00    -0.200 F 
ENDBRANCH  37  60
ENDBRANCH  11  12
ENDBRANCH   4   6
ENDBRANCH   1   2
BRANCH   1  71
ATOM     71  C   UNL A   1      31.329  32.012  26.501  1.00  0.00     0.023 C 
BRANCH  71  72
ATOM     72  C   UNL A   1      31.454  30.567  26.030  1.00  0.00     0.023 C 
BRANCH  72  73
ATOM     73  C   UNL A   1      32.878  30.029  25.922  1.00  0.00     0.116 C 
BRANCH  73  74
ATOM     74  N   UNL A   1      33.278  29.703  24.567  1.00  0.00    -0.351 N 
ATOM     75  C   UNL A   1      33.252  28.537  23.856  1.00  0.00     0.281 C 
ATOM     76  H   UNL A   1      33.637  30.468  24.063  1.00  0.00     0.163 HD
ATOM     77  O   UNL A   1      33.528  28.636  22.656  1.00  0.00    -0.268 OA
BRANCH  75  78
ATOM     78  C   UNL A   1      32.946  27.167  24.521  1.00  0.00     0.176 C 
ATOM     79  C   UNL A   1      31.442  27.034  24.886  1.00  0.00     0.079 C 
ATOM     80  N   UNL A   1      33.237  26.061  23.555  1.00  0.00    -0.333 N 
ATOM     81  C   UNL A   1      33.747  26.826  25.782  1.00  0.00     0.088 C 
ATOM     82  C   UNL A   1      31.161  25.992  25.984  1.00  0.00     0.008 C 
ATOM     83  C   UNL A   1      33.963  25.024  24.287  1.00  0.00     0.265 C 
ATOM     84  H   UNL A   1      33.807  26.410  22.785  1.00  0.00     0.347 HD
ATOM     85  H   UNL A   1      32.371  25.688  23.162  1.00  0.00     0.347 HD
ATOM     86  C   UNL A   1      33.631  25.304  25.752  1.00  0.00     0.051 C 
ATOM     87  C   UNL A   1      32.187  24.856  26.068  1.00  0.00     0.010 C 
ENDBRANCH  75  78
ENDBRANCH  73  74
ENDBRANCH  72  73
ENDBRANCH  71  72
ENDBRANCH   1  71
TORSDOF 11
ENDMDL
MODEL 2
REMARK VINA RESULT:     -11.6      0.186      1.195
REMARK SMILES O=C(NCCCCNC(=O)[C@@]12CCC[C@@H](C[NH2+]1)C2)c1ccc(-c2c3nc(c(-c4c(F)c(F)c(F)c(F)c4F)c4ccc([nH]4)c(-c4c(F)c(F)c(F)c(F)c4F)c4nc(c(-c5c(F)c(F)c(F)c(F)c5F)c5ccc2[nH]5)C=C4)C=C3)cc1
REMARK SMILES IDX 4 1 3 2 1 3 2 4 19 6 20 7 81 8 21 9 80 10 22 11 23 12 24 13
REMARK SMILES IDX 74 14 25 15 79 16 73 17 75 18 26 19 78 20 72 21 71 22 27 24
REMARK SMILES IDX 59 25 39 26 58 27 40 28 43 29 57 30 76 31 41 32 42 33 56 35
REMARK SMILES IDX 77 36 44 37 28 38 29 39 37 40 30 41 31 42 35 43 38 44 32 45
REMARK SMILES IDX 33 46 36 47 34 48 60 49 61 50 69 51 62 52 63 53 67 54 70 55
REMARK SMILES IDX 64 56 65 57 68 58 66 59 45 60 46 61 54 62 47 63 48 64 52 65
REMARK SMILES IDX 55 66 49 67 50 68 53 69 51 70 5 71 6 72 7 73 8 74 9 75 10 77
REMARK SMILES IDX 11 78 12 79 17 80 18 81 13 82 16 83 15 86 14 87
REMARK H PARENT 3 5 75 23 43 34 8 76 17 84 17 85
REMARK Flexibility Score: inf
ROOT
ATOM      1  C   UNL A   1      32.634  32.712  27.167  1.00  0.00     0.116 C 
ENDROOT
BRANCH   1   2
ATOM      2  N   UNL A   1      32.412  34.072  27.630  1.00  0.00    -0.352 N 
ATOM      3  O   UNL A   1      32.669  35.891  28.939  1.00  0.00    -0.269 OA
ATOM      4  C   UNL A   1      33.069  34.779  28.608  1.00  0.00     0.251 C 
ATOM      5  H   UNL A   1      31.685  34.557  27.177  1.00  0.00     0.163 HD
BRANCH   4   6
ATOM      6  C   UNL A   1      34.240  34.184  29.286  1.00  0.00     0.039 A 
ATOM      7  C   UNL A   1      35.537  34.543  28.914  1.00  0.00     0.014 A 
ATOM      8  C   UNL A   1      34.033  33.248  30.302  1.00  0.00     0.014 A 
ATOM      9  C   UNL A   1      36.621  33.857  29.449  1.00  0.00     0.010 A 
ATOM     10  C   UNL A   1      35.129  32.624  30.904  1.00  0.00     0.010 A 
ATOM     11  C   UNL A   1      36.431  32.900  30.458  1.00  0.00    -0.014 A 
BRANCH  11  12
ATOM     12  C   UNL A   1      37.615  32.252  31.076  1.00  0.00     0.031 A 
ATOM     13  C   UNL A   1      38.076  32.626  32.455  1.00  0.00     0.074 A 
ATOM     14  C   UNL A   1      38.260  31.297  30.380  1.00  0.00     0.049 A 
ATOM     15  N   UNL A   1      39.085  32.149  33.144  1.00  0.00    -0.248 NA
ATOM     16  C   UNL A   1      37.317  33.673  33.155  1.00  0.00     0.031 C 
ATOM     17  C   UNL A   1      37.906  30.862  29.027  1.00  0.00     0.029 A 
ATOM     18  N   UNL A   1      39.332  30.510  30.713  1.00  0.00    -0.354 N 
ATOM     19  C   UNL A   1      39.091  32.846  34.345  1.00  0.00     0.074 A 
ATOM     20  C   UNL A   1      38.002  33.799  34.284  1.00  0.00     0.031 C 
ATOM     21  C   UNL A   1      38.716  29.859  28.662  1.00  0.00     0.029 A 
ATOM     22  C   UNL A   1      39.685  29.623  29.726  1.00  0.00     0.049 A 
ATOM     23  H   UNL A   1      39.802  30.574  31.575  1.00  0.00     0.167 HD
ATOM     24  C   UNL A   1      39.927  32.698  35.402  1.00  0.00     0.037 A 
ATOM     25  C   UNL A   1      40.690  28.730  29.674  1.00  0.00     0.037 A 
ATOM     26  C   UNL A   1      41.000  31.737  35.459  1.00  0.00     0.049 A 
ATOM     27  C   UNL A   1      41.613  28.605  30.851  1.00  0.00     0.074 A 
ATOM     28  C   UNL A   1      41.877  31.483  36.500  1.00  0.00     0.029 A 
ATOM     29  N   UNL A   1      41.343  30.873  34.429  1.00  0.00    -0.354 N 
ATOM     30  N   UNL A   1      41.587  29.245  31.993  1.00  0.00    -0.248 NA
ATOM     31  C   UNL A   1      42.708  27.634  30.729  1.00  0.00     0.031 C 
ATOM     32  C   UNL A   1      42.781  30.500  36.083  1.00  0.00     0.029 A 
ATOM     33  C   UNL A   1      42.436  30.103  34.801  1.00  0.00     0.049 A 
ATOM     34  H   UNL A   1      40.881  30.814  33.563  1.00  0.00     0.167 HD
ATOM     35  C   UNL A   1      42.647  28.746  32.735  1.00  0.00     0.074 A 
ATOM     36  C   UNL A   1      43.284  27.732  31.918  1.00  0.00     0.031 C 
ATOM     37  C   UNL A   1      43.057  29.097  33.977  1.00  0.00     0.037 A 
BRANCH  24  38
ATOM     38  C   UNL A   1      39.730  33.604  36.584  1.00  0.00     0.064 A 
ATOM     39  C   UNL A   1      40.330  34.869  36.651  1.00  0.00     0.173 A 
ATOM     40  C   UNL A   1      38.884  33.223  37.636  1.00  0.00     0.173 A 
ATOM     41  F   UNL A   1      41.155  35.278  35.675  1.00  0.00    -0.203 F 
ATOM     42  C   UNL A   1      40.106  35.712  37.738  1.00  0.00     0.198 A 
ATOM     43  C   UNL A   1      38.641  34.078  38.709  1.00  0.00     0.198 A 
ATOM     44  F   UNL A   1      38.279  32.025  37.620  1.00  0.00    -0.203 F 
ATOM     45  F   UNL A   1      40.720  36.902  37.799  1.00  0.00    -0.200 F 
ATOM     46  C   UNL A   1      39.257  35.320  38.762  1.00  0.00     0.200 A 
ATOM     47  F   UNL A   1      37.810  33.702  39.691  1.00  0.00    -0.200 F 
ATOM     48  F   UNL A   1      39.035  36.135  39.801  1.00  0.00    -0.200 F 
ENDBRANCH  24  38
BRANCH  25  49
ATOM     49  C   UNL A   1      40.868  27.894  28.459  1.00  0.00     0.064 A 
ATOM     50  C   UNL A   1      40.260  26.637  28.354  1.00  0.00     0.173 A 
ATOM     51  C   UNL A   1      41.634  28.346  27.374  1.00  0.00     0.173 A 
ATOM     52  F   UNL A   1      39.533  26.155  29.373  1.00  0.00    -0.203 F 
ATOM     53  C   UNL A   1      40.424  25.854  27.212  1.00  0.00     0.198 A 
ATOM     54  C   UNL A   1      41.770  27.576  26.222  1.00  0.00     0.198 A 
ATOM     55  F   UNL A   1      42.229  29.546  27.424  1.00  0.00    -0.203 F 
ATOM     56  F   UNL A   1      39.865  24.639  27.151  1.00  0.00    -0.200 F 
ATOM     57  C   UNL A   1      41.172  26.328  26.144  1.00  0.00     0.200 A 
ATOM     58  F   UNL A   1      42.477  28.046  25.185  1.00  0.00    -0.200 F 
ATOM     59  F   UNL A   1      41.319  25.580  25.043  1.00  0.00    -0.200 F 
ENDBRANCH  25  49
BRANCH  37  60
ATOM     60  C   UNL A   1      44.235  28.359  34.539  1.00  0.00     0.064 A 
ATOM     61  C   UNL A   1      45.545  28.841  34.392  1.00  0.00     0.173 A 
ATOM     62  C   UNL A   1      44.050  27.167  35.256  1.00  0.00     0.173 A 
ATOM     63  F   UNL A   1      45.774  29.967  33.699  1.00  0.00    -0.203 F 
ATOM     64  C   UNL A   1      46.627  28.142  34.918  1.00  0.00     0.198 A 
ATOM     65  C   UNL A   1      45.132  26.486  35.805  1.00  0.00     0.198 A 
ATOM     66  F   UNL A   1      42.818  26.666  35.427  1.00  0.00    -0.203 F 
ATOM     67  F   UNL A   1      47.874  28.595  34.722  1.00  0.00    -0.200 F 
ATOM     68  C   UNL A   1      46.420  26.969  35.629  1.00  0.00     0.200 A 
ATOM     69  F   UNL A   1      44.929  25.359  36.502  1.00  0.00    -0.200 F 
ATOM     70  F   UNL A   1      47.464  26.301  36.138  1.00  0.00    -0.200 F 
ENDBRANCH  37  60
ENDBRANCH  11  12
ENDBRANCH   4   6
ENDBRANCH   1   2
BRANCH   1  71
ATOM     71  C   UNL A   1      31.407  32.083  26.521  1.00  0.00     0.023 C 
BRANCH  71  72
ATOM     72  C   UNL A   1      31.512  30.592  26.221  1.00  0.00     0.023 C 
BRANCH  72  73
ATOM     73  C   UNL A   1      32.929  30.051  26.050  1.00  0.00     0.116 C 
BRANCH  73  74
ATOM     74  N   UNL A   1      33.281  29.759  24.674  1.00  0.00    -0.351 N 
ATOM     75  C   UNL A   1      33.247  28.607  23.941  1.00  0.00     0.281 C 
ATOM     76  H   UNL A   1      33.606  30.541  24.172  1.00  0.00     0.163 HD
ATOM     77  O   UNL A   1      33.473  28.735  22.734  1.00  0.00    -0.268 OA
BRANCH  75  78
ATOM     78  C   UNL A   1      32.992  27.219  24.590  1.00  0.00     0.176 C 
ATOM     79  C   UNL A   1      31.503  27.047  25.001  1.00  0.00     0.079 C 
ATOM     80  N   UNL A   1      33.272  26.137  23.594  1.00  0.00    -0.333 N 
ATOM     81  C   UNL A   1      33.841  26.872  25.817  1.00  0.00     0.088 C 
ATOM     82  C   UNL A   1      31.280  25.980  26.088  1.00  0.00     0.008 C 
ATOM     83  C   UNL A   1      34.043  25.103  24.282  1.00  0.00     0.265 C 
ATOM     84  H   UNL A   1      33.810  26.512  22.812  1.00  0.00     0.347 HD
ATOM     85  H   UNL A   1      32.402  25.753  23.222  1.00  0.00     0.347 HD
ATOM     86  C   UNL A   1      33.755  25.348  25.762  1.00  0.00     0.051 C 
ATOM     87  C   UNL A   1      32.332  24.865  26.117  1.00  0.00     0.010 C 
ENDBRANCH  75  78
ENDBRANCH  73  74
ENDBRANCH  72  73
ENDBRANCH  71  72
ENDBRANCH   1  71
TORSDOF 11
ENDMDL
MODEL 3
REMARK VINA RESULT:     -11.5      0.578      7.776
REMARK SMILES O=C(NCCCCNC(=O)[C@@]12CCC[C@@H](C[NH2+]1)C2)c1ccc(-c2c3nc(c(-c4c(F)c(F)c(F)c(F)c4F)c4ccc([nH]4)c(-c4c(F)c(F)c(F)c(F)c4F)c4nc(c(-c5c(F)c(F)c(F)c(F)c5F)c5ccc2[nH]5)C=C4)C=C3)cc1
REMARK SMILES IDX 4 1 3 2 1 3 2 4 19 6 20 7 81 8 21 9 80 10 22 11 23 12 24 13
REMARK SMILES IDX 74 14 25 15 79 16 73 17 75 18 26 19 78 20 72 21 71 22 27 24
REMARK SMILES IDX 59 25 39 26 58 27 40 28 43 29 57 30 76 31 41 32 42 33 56 35
REMARK SMILES IDX 77 36 44 37 28 38 29 39 37 40 30 41 31 42 35 43 38 44 32 45
REMARK SMILES IDX 33 46 36 47 34 48 60 49 61 50 69 51 62 52 63 53 67 54 70 55
REMARK SMILES IDX 64 56 65 57 68 58 66 59 45 60 46 61 54 62 47 63 48 64 52 65
REMARK SMILES IDX 55 66 49 67 50 68 53 69 51 70 5 71 6 72 7 73 8 74 9 75 10 77
REMARK SMILES IDX 11 78 12 79 17 80 18 81 13 82 16 83 15 86 14 87
REMARK H PARENT 3 5 75 23 43 34 8 76 17 84 17 85
REMARK Flexibility Score: inf
ROOT
ATOM      1  C   UNL A   1      32.591  32.859  27.164  1.00  0.00     0.116 C 
ENDROOT
BRANCH   1   2
ATOM      2  N   UNL A   1      32.358  34.218  27.626  1.00  0.00    -0.352 N 
ATOM      3  O   UNL A   1      32.573  36.028  28.955  1.00  0.00    -0.269 OA
ATOM      4  C   UNL A   1      32.980  34.916  28.633  1.00  0.00     0.251 C 
ATOM      5  H   UNL A   1      31.652  34.709  27.147  1.00  0.00     0.163 HD
BRANCH   4   6
ATOM      6  C   UNL A   1      34.120  34.311  29.353  1.00  0.00     0.039 A 
ATOM      7  C   UNL A   1      35.431  34.532  28.926  1.00  0.00     0.014 A 
ATOM      8  C   UNL A   1      33.870  33.504  30.466  1.00  0.00     0.014 A 
ATOM      9  C   UNL A   1      36.475  33.828  29.515  1.00  0.00     0.010 A 
ATOM     10  C   UNL A   1      34.931  32.867  31.114  1.00  0.00     0.010 A 
ATOM     11  C   UNL A   1      36.239  32.998  30.623  1.00  0.00    -0.014 A 
BRANCH  11  12
ATOM     12  C   UNL A   1      37.388  32.334  31.288  1.00  0.00     0.031 A 
ATOM     13  C   UNL A   1      38.160  31.243  30.605  1.00  0.00     0.074 A 
ATOM     14  C   UNL A   1      37.743  32.749  32.519  1.00  0.00     0.049 A 
ATOM     15  N   UNL A   1      39.195  30.567  31.043  1.00  0.00    -0.248 NA
ATOM     16  C   UNL A   1      37.715  30.849  29.260  1.00  0.00     0.031 C 
ATOM     17  C   UNL A   1      37.057  33.794  33.283  1.00  0.00     0.029 A 
ATOM     18  N   UNL A   1      38.772  32.361  33.337  1.00  0.00    -0.354 N 
ATOM     19  C   UNL A   1      39.512  29.662  30.039  1.00  0.00     0.074 A 
ATOM     20  C   UNL A   1      38.546  29.853  28.978  1.00  0.00     0.031 C 
ATOM     21  C   UNL A   1      37.707  33.994  34.437  1.00  0.00     0.029 A 
ATOM     22  C   UNL A   1      38.815  33.050  34.524  1.00  0.00     0.049 A 
ATOM     23  H   UNL A   1      39.416  31.657  33.098  1.00  0.00     0.167 HD
ATOM     24  C   UNL A   1      40.523  28.759  30.007  1.00  0.00     0.037 A 
ATOM     25  C   UNL A   1      39.645  32.925  35.576  1.00  0.00     0.037 A 
ATOM     26  C   UNL A   1      41.489  28.585  31.063  1.00  0.00     0.049 A 
ATOM     27  C   UNL A   1      40.740  31.900  35.521  1.00  0.00     0.074 A 
ATOM     28  C   UNL A   1      42.572  27.723  31.108  1.00  0.00     0.029 A 
ATOM     29  N   UNL A   1      41.485  29.284  32.261  1.00  0.00    -0.354 N 
ATOM     30  N   UNL A   1      41.051  31.074  34.552  1.00  0.00    -0.248 NA
ATOM     31  C   UNL A   1      41.598  31.788  36.707  1.00  0.00     0.031 C 
ATOM     32  C   UNL A   1      43.196  27.867  32.353  1.00  0.00     0.029 A 
ATOM     33  C   UNL A   1      42.533  28.855  33.063  1.00  0.00     0.049 A 
ATOM     34  H   UNL A   1      40.836  29.981  32.507  1.00  0.00     0.167 HD
ATOM     35  C   UNL A   1      42.149  30.357  35.001  1.00  0.00     0.074 A 
ATOM     36  C   UNL A   1      42.463  30.860  36.323  1.00  0.00     0.031 C 
ATOM     37  C   UNL A   1      42.833  29.368  34.376  1.00  0.00     0.037 A 
BRANCH  24  38
ATOM     38  C   UNL A   1      40.633  27.873  28.799  1.00  0.00     0.064 A 
ATOM     39  C   UNL A   1      39.929  26.665  28.703  1.00  0.00     0.173 A 
ATOM     40  C   UNL A   1      41.410  28.268  27.699  1.00  0.00     0.173 A 
ATOM     41  F   UNL A   1      39.179  26.237  29.731  1.00  0.00    -0.203 F 
ATOM     42  C   UNL A   1      40.013  25.874  27.559  1.00  0.00     0.198 A 
ATOM     43  C   UNL A   1      41.473  27.488  26.546  1.00  0.00     0.198 A 
ATOM     44  F   UNL A   1      42.100  29.418  27.735  1.00  0.00    -0.203 F 
ATOM     45  F   UNL A   1      39.362  24.704  27.505  1.00  0.00    -0.200 F 
ATOM     46  C   UNL A   1      40.779  26.289  26.480  1.00  0.00     0.200 A 
ATOM     47  F   UNL A   1      42.202  27.898  25.499  1.00  0.00    -0.200 F 
ATOM     48  F   UNL A   1      40.851  25.532  25.376  1.00  0.00    -0.200 F 
ENDBRANCH  24  38
BRANCH  25  49
ATOM     49  C   UNL A   1      39.458  33.793  36.766  1.00  0.00     0.064 A 
ATOM     50  C   UNL A   1      38.703  33.360  37.863  1.00  0.00     0.173 A 
ATOM     51  C   UNL A   1      40.048  35.064  36.837  1.00  0.00     0.173 A 
ATOM     52  F   UNL A   1      38.105  32.160  37.834  1.00  0.00    -0.203 F 
ATOM     53  C   UNL A   1      38.531  34.172  38.982  1.00  0.00     0.198 A 
ATOM     54  C   UNL A   1      39.902  35.862  37.969  1.00  0.00     0.198 A 
ATOM     55  F   UNL A   1      40.787  35.520  35.816  1.00  0.00    -0.203 F 
ATOM     56  F   UNL A   1      37.772  33.752  40.002  1.00  0.00    -0.200 F 
ATOM     57  C   UNL A   1      39.138  35.419  39.037  1.00  0.00     0.200 A 
ATOM     58  F   UNL A   1      40.505  37.057  38.026  1.00  0.00    -0.200 F 
ATOM     59  F   UNL A   1      38.982  36.195  40.118  1.00  0.00    -0.200 F 
ENDBRANCH  25  49
BRANCH  37  60
ATOM     60  C   UNL A   1      44.007  28.785  35.106  1.00  0.00     0.064 A 
ATOM     61  C   UNL A   1      45.294  29.328  34.979  1.00  0.00     0.173 A 
ATOM     62  C   UNL A   1      43.837  27.687  35.961  1.00  0.00     0.173 A 
ATOM     63  F   UNL A   1      45.510  30.368  34.158  1.00  0.00    -0.203 F 
ATOM     64  C   UNL A   1      46.374  28.775  35.661  1.00  0.00     0.198 A 
ATOM     65  C   UNL A   1      44.914  27.154  36.664  1.00  0.00     0.198 A 
ATOM     66  F   UNL A   1      42.626  27.134  36.120  1.00  0.00    -0.203 F 
ATOM     67  F   UNL A   1      47.604  29.279  35.486  1.00  0.00    -0.200 F 
ATOM     68  C   UNL A   1      46.182  27.693  36.508  1.00  0.00     0.200 A 
ATOM     69  F   UNL A   1      44.725  26.116  37.491  1.00  0.00    -0.200 F 
ATOM     70  F   UNL A   1      47.222  27.165  37.167  1.00  0.00    -0.200 F 
ENDBRANCH  37  60
ENDBRANCH  11  12
ENDBRANCH   4   6
ENDBRANCH   1   2
BRANCH   1  71
ATOM     71  C   UNL A   1      31.375  32.227  26.501  1.00  0.00     0.023 C 
BRANCH  71  72
ATOM     72  C   UNL A   1      31.451  30.719  26.287  1.00  0.00     0.023 C 
BRANCH  72  73
ATOM     73  C   UNL A   1      32.856  30.144  26.136  1.00  0.00     0.116 C 
BRANCH  73  74
ATOM     74  N   UNL A   1      33.230  29.869  24.762  1.00  0.00    -0.351 N 
ATOM     75  C   UNL A   1      33.168  28.735  24.002  1.00  0.00     0.281 C 
ATOM     76  H   UNL A   1      33.599  30.647  24.286  1.00  0.00     0.163 HD
ATOM     77  O   UNL A   1      33.429  28.880  22.804  1.00  0.00    -0.268 OA
BRANCH  75  78
ATOM     78  C   UNL A   1      32.842  27.345  24.612  1.00  0.00     0.176 C 
ATOM     79  C   UNL A   1      31.340  27.228  24.993  1.00  0.00     0.079 C 
ATOM     80  N   UNL A   1      33.094  26.276  23.595  1.00  0.00    -0.333 N 
ATOM     81  C   UNL A   1      33.653  26.933  25.845  1.00  0.00     0.088 C 
ATOM     82  C   UNL A   1      31.052  26.146  26.050  1.00  0.00     0.008 C 
ATOM     83  C   UNL A   1      33.807  25.193  24.270  1.00  0.00     0.265 C 
ATOM     84  H   UNL A   1      33.661  26.645  22.832  1.00  0.00     0.347 HD
ATOM     85  H   UNL A   1      32.215  25.939  23.200  1.00  0.00     0.347 HD
ATOM     86  C   UNL A   1      33.503  25.415  25.751  1.00  0.00     0.051 C 
ATOM     87  C   UNL A   1      32.054  24.986  26.070  1.00  0.00     0.010 C 
ENDBRANCH  75  78
ENDBRANCH  73  74
ENDBRANCH  72  73
ENDBRANCH  71  72
ENDBRANCH   1  71
TORSDOF 11
ENDMDL
