MODEL 1
REMARK VINA RESULT:     -12.8      0.000      0.000
REMARK SMILES O=C(NCCCCNC(=O)c1ccc(-c2c3nc(c(-c4c(F)c(F)c(F)c(F)c4F)c4ccc([nH]4)c(-c4c(F)c(F)c(F)c(F)c4F)c4nc(c(-c5c(F)c(F)c(F)c(F)c5F)c5ccc2[nH]5)C=C4)C=C3)cc1)C1=Cc2ccc(Cl)c(Cl)c2O[C@@H]1C(F)(F)F
REMARK SMILES IDX 6 1 5 2 4 3 3 4 1 5 2 6 74 8 75 9 85 10 76 11 84 12 77 13
REMARK SMILES IDX 83 14 78 15 81 16 79 17 82 18 80 19 86 20 87 21 88 22 89 23
REMARK SMILES IDX 7 24 8 25 9 26 10 28 11 29 12 30 73 31 13 32 72 33 14 34
REMARK SMILES IDX 15 35 16 36 66 37 17 38 71 39 65 40 67 41 18 42 70 43 64 44
REMARK SMILES IDX 63 45 19 47 51 48 31 49 50 50 32 51 35 52 49 53 68 54 33 55
REMARK SMILES IDX 34 56 48 58 69 59 36 60 20 61 21 62 29 63 22 64 23 65 27 66
REMARK SMILES IDX 30 67 24 68 25 69 28 70 26 71 52 72 53 73 61 74 54 75 55 76
REMARK SMILES IDX 59 77 62 78 56 79 57 80 60 81 58 82 37 83 38 84 46 85 39 86
REMARK SMILES IDX 40 87 44 88 47 89 41 90 42 91 45 92 43 93
REMARK H PARENT 3 7 8 27 67 46 35 57
REMARK Flexibility Score: inf
ROOT
ATOM      1  C   UNL A   1      31.776  28.248  25.892  1.00  0.00     0.023 C 
ENDROOT
BRANCH   1   2
ATOM      2  C   UNL A   1      32.303  26.934  26.465  1.00  0.00     0.023 C 
BRANCH   2   3
ATOM      3  C   UNL A   1      31.577  25.672  26.002  1.00  0.00     0.116 C 
BRANCH   3   4
ATOM      4  N   UNL A   1      31.800  24.500  26.846  1.00  0.00    -0.352 N 
ATOM      5  O   UNL A   1      32.932  22.713  27.651  1.00  0.00    -0.270 OA
ATOM      6  C   UNL A   1      32.745  23.504  26.733  1.00  0.00     0.251 C 
ATOM      7  H   UNL A   1      31.184  24.410  27.608  1.00  0.00     0.163 HD
BRANCH   6   8
ATOM      8  C   UNL A   1      33.651  23.521  25.561  1.00  0.00     0.067 C 
ATOM      9  C   UNL A   1      34.700  24.350  25.450  1.00  0.00     0.025 C 
ATOM     10  C   UNL A   1      33.529  22.369  24.610  1.00  0.00     0.314 C 
ATOM     11  C   UNL A   1      35.951  23.572  25.274  1.00  0.00     0.019 A 
ATOM     12  O   UNL A   1      34.719  21.553  24.641  1.00  0.00    -0.474 OA
ATOM     13  C   UNL A   1      37.144  24.117  25.770  1.00  0.00     0.013 A 
ATOM     14  C   UNL A   1      35.895  22.188  24.989  1.00  0.00     0.148 A 
ATOM     15  C   UNL A   1      38.249  23.293  26.012  1.00  0.00     0.023 A 
ATOM     16  C   UNL A   1      37.016  21.366  25.208  1.00  0.00     0.102 A 
ATOM     17  C   UNL A   1      38.186  21.923  25.738  1.00  0.00     0.063 A 
ATOM     18  Cl  UNL A   1      36.887  19.659  24.921  1.00  0.00    -0.079 Cl
ATOM     19  Cl  UNL A   1      39.564  20.965  26.148  1.00  0.00    -0.083 Cl
BRANCH  10  20
ATOM     20  C   UNL A   1      33.219  22.854  23.177  1.00  0.00     0.429 C 
ATOM     21  F   UNL A   1      32.571  24.042  23.191  1.00  0.00    -0.167 F 
ATOM     22  F   UNL A   1      34.348  23.029  22.450  1.00  0.00    -0.167 F 
ATOM     23  F   UNL A   1      32.437  21.983  22.493  1.00  0.00    -0.167 F 
ENDBRANCH  10  20
ENDBRANCH   6   8
ENDBRANCH   3   4
ENDBRANCH   2   3
ENDBRANCH   1   2
BRANCH   1  24
ATOM     24  C   UNL A   1      32.795  29.374  25.715  1.00  0.00     0.116 C 
BRANCH  24  25
ATOM     25  N   UNL A   1      32.421  30.642  26.328  1.00  0.00    -0.352 N 
ATOM     26  C   UNL A   1      33.151  31.441  27.182  1.00  0.00     0.251 C 
ATOM     27  H   UNL A   1      31.522  30.974  26.101  1.00  0.00     0.163 HD
ATOM     28  O   UNL A   1      32.656  32.462  27.655  1.00  0.00    -0.269 OA
BRANCH  26  29
ATOM     29  C   UNL A   1      34.511  31.024  27.584  1.00  0.00     0.039 A 
ATOM     30  C   UNL A   1      35.506  31.999  27.700  1.00  0.00     0.014 A 
ATOM     31  C   UNL A   1      34.777  29.701  27.944  1.00  0.00     0.014 A 
ATOM     32  C   UNL A   1      36.725  31.674  28.298  1.00  0.00     0.010 A 
ATOM     33  C   UNL A   1      35.958  29.397  28.614  1.00  0.00     0.010 A 
ATOM     34  C   UNL A   1      36.932  30.387  28.824  1.00  0.00    -0.014 A 
BRANCH  34  35
ATOM     35  C   UNL A   1      38.129  30.074  29.645  1.00  0.00     0.031 A 
ATOM     36  C   UNL A   1      39.181  29.136  29.130  1.00  0.00     0.074 A 
ATOM     37  C   UNL A   1      38.220  30.568  30.898  1.00  0.00     0.049 A 
ATOM     38  N   UNL A   1      40.250  28.679  29.732  1.00  0.00    -0.248 NA
ATOM     39  C   UNL A   1      38.992  28.618  27.766  1.00  0.00     0.031 C 
ATOM     40  C   UNL A   1      37.230  31.434  31.541  1.00  0.00     0.029 A 
ATOM     41  N   UNL A   1      39.185  30.400  31.861  1.00  0.00    -0.354 N 
ATOM     42  C   UNL A   1      40.848  27.809  28.831  1.00  0.00     0.074 A 
ATOM     43  C   UNL A   1      39.999  27.763  27.660  1.00  0.00     0.031 C 
ATOM     44  C   UNL A   1      37.649  31.743  32.778  1.00  0.00     0.029 A 
ATOM     45  C   UNL A   1      38.919  31.070  33.030  1.00  0.00     0.049 A 
ATOM     46  H   UNL A   1      39.991  29.852  31.725  1.00  0.00     0.167 HD
ATOM     47  C   UNL A   1      42.012  27.130  28.959  1.00  0.00     0.037 A 
ATOM     48  C   UNL A   1      39.620  31.132  34.179  1.00  0.00     0.037 A 
ATOM     49  C   UNL A   1      42.872  27.202  30.110  1.00  0.00     0.049 A 
ATOM     50  C   UNL A   1      40.923  30.386  34.285  1.00  0.00     0.074 A 
ATOM     51  C   UNL A   1      44.103  26.601  30.309  1.00  0.00     0.029 A 
ATOM     52  N   UNL A   1      42.589  27.923  31.261  1.00  0.00    -0.354 N 
ATOM     53  N   UNL A   1      41.513  29.625  33.397  1.00  0.00    -0.248 NA
ATOM     54  C   UNL A   1      41.658  30.514  35.552  1.00  0.00     0.031 C 
ATOM     55  C   UNL A   1      44.550  26.933  31.593  1.00  0.00     0.029 A 
ATOM     56  C   UNL A   1      43.615  27.772  32.179  1.00  0.00     0.049 A 
ATOM     57  H   UNL A   1      41.778  28.464  31.405  1.00  0.00     0.167 HD
ATOM     58  C   UNL A   1      42.698  29.203  33.984  1.00  0.00     0.074 A 
ATOM     59  C   UNL A   1      42.750  29.805  35.300  1.00  0.00     0.031 C 
ATOM     60  C   UNL A   1      43.655  28.388  33.479  1.00  0.00     0.037 A 
BRANCH  47  61
ATOM     61  C   UNL A   1      42.431  26.257  27.813  1.00  0.00     0.064 A 
ATOM     62  C   UNL A   1      43.284  26.731  26.805  1.00  0.00     0.173 A 
ATOM     63  C   UNL A   1      42.001  24.924  27.737  1.00  0.00     0.173 A 
ATOM     64  F   UNL A   1      43.712  28.002  26.826  1.00  0.00    -0.203 F 
ATOM     65  C   UNL A   1      43.668  25.912  25.747  1.00  0.00     0.198 A 
ATOM     66  C   UNL A   1      42.409  24.099  26.692  1.00  0.00     0.198 A 
ATOM     67  F   UNL A   1      41.189  24.420  28.678  1.00  0.00    -0.203 F 
ATOM     68  F   UNL A   1      44.445  26.401  24.772  1.00  0.00    -0.200 F 
ATOM     69  C   UNL A   1      43.235  24.596  25.695  1.00  0.00     0.200 A 
ATOM     70  F   UNL A   1      42.000  22.824  26.648  1.00  0.00    -0.200 F 
ATOM     71  F   UNL A   1      43.611  23.806  24.679  1.00  0.00    -0.200 F 
ENDBRANCH  47  61
BRANCH  48  72
ATOM     72  C   UNL A   1      39.123  31.956  35.312  1.00  0.00     0.064 A 
ATOM     73  C   UNL A   1      39.406  33.328  35.378  1.00  0.00     0.173 A 
ATOM     74  C   UNL A   1      38.367  31.395  36.350  1.00  0.00     0.173 A 
ATOM     75  F   UNL A   1      40.143  33.906  34.417  1.00  0.00    -0.203 F 
ATOM     76  C   UNL A   1      38.968  34.103  36.450  1.00  0.00     0.198 A 
ATOM     77  C   UNL A   1      37.908  32.176  37.409  1.00  0.00     0.198 A 
ATOM     78  F   UNL A   1      38.066  30.088  36.330  1.00  0.00    -0.203 F 
ATOM     79  F   UNL A   1      39.289  35.402  36.509  1.00  0.00    -0.200 F 
ATOM     80  C   UNL A   1      38.216  33.527  37.462  1.00  0.00     0.200 A 
ATOM     81  F   UNL A   1      37.171  31.618  38.379  1.00  0.00    -0.200 F 
ATOM     82  F   UNL A   1      37.793  34.273  38.492  1.00  0.00    -0.200 F 
ENDBRANCH  48  72
BRANCH  60  83
ATOM     83  C   UNL A   1      44.855  28.124  34.340  1.00  0.00     0.064 A 
ATOM     84  C   UNL A   1      45.978  28.963  34.310  1.00  0.00     0.173 A 
ATOM     85  C   UNL A   1      44.861  27.043  35.234  1.00  0.00     0.173 A 
ATOM     86  F   UNL A   1      46.024  29.999  33.459  1.00  0.00    -0.203 F 
ATOM     87  C   UNL A   1      47.075  28.717  35.131  1.00  0.00     0.198 A 
ATOM     88  C   UNL A   1      45.949  26.815  36.071  1.00  0.00     0.198 A 
ATOM     89  F   UNL A   1      43.808  26.215  35.303  1.00  0.00    -0.203 F 
ATOM     90  F   UNL A   1      48.155  29.507  35.057  1.00  0.00    -0.200 F 
ATOM     91  C   UNL A   1      47.056  27.649  36.015  1.00  0.00     0.200 A 
ATOM     92  F   UNL A   1      45.927  25.789  36.932  1.00  0.00    -0.200 F 
ATOM     93  F   UNL A   1      48.111  27.417  36.809  1.00  0.00    -0.200 F 
ENDBRANCH  60  83
ENDBRANCH  34  35
ENDBRANCH  26  29
ENDBRANCH  24  25
ENDBRANCH   1  24
TORSDOF 12
ENDMDL
MODEL 2
REMARK VINA RESULT:     -12.8      1.551      7.550
REMARK SMILES O=C(NCCCCNC(=O)c1ccc(-c2c3nc(c(-c4c(F)c(F)c(F)c(F)c4F)c4ccc([nH]4)c(-c4c(F)c(F)c(F)c(F)c4F)c4nc(c(-c5c(F)c(F)c(F)c(F)c5F)c5ccc2[nH]5)C=C4)C=C3)cc1)C1=Cc2ccc(Cl)c(Cl)c2O[C@@H]1C(F)(F)F
REMARK SMILES IDX 6 1 5 2 4 3 3 4 1 5 2 6 74 8 75 9 85 10 76 11 84 12 77 13
REMARK SMILES IDX 83 14 78 15 81 16 79 17 82 18 80 19 86 20 87 21 88 22 89 23
REMARK SMILES IDX 7 24 8 25 9 26 10 28 11 29 12 30 73 31 13 32 72 33 14 34
REMARK SMILES IDX 15 35 16 36 66 37 17 38 71 39 65 40 67 41 18 42 70 43 64 44
REMARK SMILES IDX 63 45 19 47 51 48 31 49 50 50 32 51 35 52 49 53 68 54 33 55
REMARK SMILES IDX 34 56 48 58 69 59 36 60 20 61 21 62 29 63 22 64 23 65 27 66
REMARK SMILES IDX 30 67 24 68 25 69 28 70 26 71 52 72 53 73 61 74 54 75 55 76
REMARK SMILES IDX 59 77 62 78 56 79 57 80 60 81 58 82 37 83 38 84 46 85 39 86
REMARK SMILES IDX 40 87 44 88 47 89 41 90 42 91 45 92 43 93
REMARK H PARENT 3 7 8 27 67 46 35 57
REMARK Flexibility Score: inf
ROOT
ATOM      1  C   UNL A   1      31.777  30.224  25.651  1.00  0.00     0.023 C 
ENDROOT
BRANCH   1   2
ATOM      2  C   UNL A   1      31.474  28.738  25.472  1.00  0.00     0.023 C 
BRANCH   2   3
ATOM      3  C   UNL A   1      31.888  27.834  26.631  1.00  0.00     0.116 C 
BRANCH   3   4
ATOM      4  N   UNL A   1      31.026  26.672  26.832  1.00  0.00    -0.352 N 
ATOM      5  O   UNL A   1      30.491  24.473  26.874  1.00  0.00    -0.270 OA
ATOM      6  C   UNL A   1      31.207  25.365  26.434  1.00  0.00     0.251 C 
ATOM      7  H   UNL A   1      30.193  26.849  27.324  1.00  0.00     0.163 HD
BRANCH   6   8
ATOM      8  C   UNL A   1      32.393  25.037  25.610  1.00  0.00     0.067 C 
ATOM      9  C   UNL A   1      33.518  24.505  26.113  1.00  0.00     0.025 C 
ATOM     10  C   UNL A   1      32.196  25.052  24.124  1.00  0.00     0.314 C 
ATOM     11  C   UNL A   1      33.816  23.213  25.445  1.00  0.00     0.019 A 
ATOM     12  O   UNL A   1      32.315  23.722  23.579  1.00  0.00    -0.474 OA
ATOM     13  C   UNL A   1      34.485  22.226  26.184  1.00  0.00     0.013 A 
ATOM     14  C   UNL A   1      33.117  22.838  24.274  1.00  0.00     0.148 A 
ATOM     15  C   UNL A   1      34.429  20.887  25.783  1.00  0.00     0.023 A 
ATOM     16  C   UNL A   1      33.085  21.494  23.859  1.00  0.00     0.102 A 
ATOM     17  C   UNL A   1      33.728  20.519  24.630  1.00  0.00     0.063 A 
ATOM     18  Cl  UNL A   1      32.153  21.059  22.460  1.00  0.00    -0.079 Cl
ATOM     19  Cl  UNL A   1      33.637  18.835  24.256  1.00  0.00    -0.083 Cl
BRANCH  10  20
ATOM     20  C   UNL A   1      33.175  26.030  23.438  1.00  0.00     0.429 C 
ATOM     21  F   UNL A   1      33.926  26.692  24.348  1.00  0.00    -0.167 F 
ATOM     22  F   UNL A   1      34.032  25.384  22.612  1.00  0.00    -0.167 F 
ATOM     23  F   UNL A   1      32.536  26.966  22.694  1.00  0.00    -0.167 F 
ENDBRANCH  10  20
ENDBRANCH   6   8
ENDBRANCH   3   4
ENDBRANCH   2   3
ENDBRANCH   1   2
BRANCH   1  24
ATOM     24  C   UNL A   1      32.393  30.641  26.986  1.00  0.00     0.116 C 
BRANCH  24  25
ATOM     25  N   UNL A   1      32.504  32.080  27.188  1.00  0.00    -0.352 N 
ATOM     26  C   UNL A   1      33.580  32.811  27.643  1.00  0.00     0.251 C 
ATOM     27  H   UNL A   1      31.698  32.602  26.970  1.00  0.00     0.163 HD
ATOM     28  O   UNL A   1      33.482  34.025  27.808  1.00  0.00    -0.269 OA
BRANCH  26  29
ATOM     29  C   UNL A   1      34.835  32.115  28.000  1.00  0.00     0.039 A 
ATOM     30  C   UNL A   1      35.994  32.873  28.187  1.00  0.00     0.014 A 
ATOM     31  C   UNL A   1      34.844  30.741  28.249  1.00  0.00     0.014 A 
ATOM     32  C   UNL A   1      37.125  32.277  28.748  1.00  0.00     0.010 A 
ATOM     33  C   UNL A   1      35.942  30.167  28.883  1.00  0.00     0.010 A 
ATOM     34  C   UNL A   1      37.082  30.936  29.166  1.00  0.00    -0.014 A 
BRANCH  34  35
ATOM     35  C   UNL A   1      38.193  30.338  29.950  1.00  0.00     0.031 A 
ATOM     36  C   UNL A   1      38.432  30.755  31.371  1.00  0.00     0.074 A 
ATOM     37  C   UNL A   1      39.044  29.483  29.345  1.00  0.00     0.049 A 
ATOM     38  N   UNL A   1      39.397  30.409  32.185  1.00  0.00    -0.248 NA
ATOM     39  C   UNL A   1      37.476  31.715  31.947  1.00  0.00     0.031 C 
ATOM     40  C   UNL A   1      38.962  29.052  27.948  1.00  0.00     0.029 A 
ATOM     41  N   UNL A   1      40.156  28.835  29.825  1.00  0.00    -0.354 N 
ATOM     42  C   UNL A   1      39.175  31.118  33.358  1.00  0.00     0.074 A 
ATOM     43  C   UNL A   1      38.014  31.952  33.135  1.00  0.00     0.031 C 
ATOM     44  C   UNL A   1      39.960  28.192  27.692  1.00  0.00     0.029 A 
ATOM     45  C   UNL A   1      40.774  28.037  28.893  1.00  0.00     0.049 A 
ATOM     46  H   UNL A   1      40.479  28.931  30.750  1.00  0.00     0.167 HD
ATOM     47  C   UNL A   1      39.863  31.061  34.522  1.00  0.00     0.037 A 
ATOM     48  C   UNL A   1      41.876  27.270  28.994  1.00  0.00     0.037 A 
ATOM     49  C   UNL A   1      40.998  30.207  34.754  1.00  0.00     0.049 A 
ATOM     50  C   UNL A   1      42.608  27.206  30.308  1.00  0.00     0.074 A 
ATOM     51  C   UNL A   1      41.723  30.031  35.919  1.00  0.00     0.029 A 
ATOM     52  N   UNL A   1      41.571  29.383  33.797  1.00  0.00    -0.354 N 
ATOM     53  N   UNL A   1      42.344  27.827  31.431  1.00  0.00    -0.248 NA
ATOM     54  C   UNL A   1      43.786  26.330  30.367  1.00  0.00     0.031 C 
ATOM     55  C   UNL A   1      42.756  29.123  35.658  1.00  0.00     0.029 A 
ATOM     56  C   UNL A   1      42.650  28.705  34.341  1.00  0.00     0.049 A 
ATOM     57  H   UNL A   1      41.259  29.292  32.867  1.00  0.00     0.167 HD
ATOM     58  C   UNL A   1      43.304  27.400  32.337  1.00  0.00     0.074 A 
ATOM     59  C   UNL A   1      44.150  26.455  31.637  1.00  0.00     0.031 C 
ATOM     60  C   UNL A   1      43.473  27.760  33.632  1.00  0.00     0.037 A 
BRANCH  47  61
ATOM     61  C   UNL A   1      39.395  31.941  35.644  1.00  0.00     0.064 A 
ATOM     62  C   UNL A   1      38.444  31.495  36.575  1.00  0.00     0.173 A 
ATOM     63  C   UNL A   1      39.925  33.229  35.809  1.00  0.00     0.173 A 
ATOM     64  F   UNL A   1      37.899  30.276  36.452  1.00  0.00    -0.203 F 
ATOM     65  C   UNL A   1      38.019  32.319  37.613  1.00  0.00     0.198 A 
ATOM     66  C   UNL A   1      39.517  34.040  36.865  1.00  0.00     0.198 A 
ATOM     67  F   UNL A   1      40.841  33.700  34.949  1.00  0.00    -0.203 F 
ATOM     68  F   UNL A   1      37.075  31.890  38.462  1.00  0.00    -0.200 F 
ATOM     69  C   UNL A   1      38.559  33.588  37.761  1.00  0.00     0.200 A 
ATOM     70  F   UNL A   1      40.048  35.261  37.014  1.00  0.00    -0.200 F 
ATOM     71  F   UNL A   1      38.153  34.378  38.765  1.00  0.00    -0.200 F 
ENDBRANCH  47  61
BRANCH  48  72
ATOM     72  C   UNL A   1      42.339  26.472  27.829  1.00  0.00     0.064 A 
ATOM     73  C   UNL A   1      43.308  26.981  26.951  1.00  0.00     0.173 A 
ATOM     74  C   UNL A   1      41.825  25.195  27.564  1.00  0.00     0.173 A 
ATOM     75  F   UNL A   1      43.815  28.206  27.153  1.00  0.00    -0.203 F 
ATOM     76  C   UNL A   1      43.727  26.252  25.841  1.00  0.00     0.198 A 
ATOM     77  C   UNL A   1      42.264  24.456  26.467  1.00  0.00     0.198 A 
ATOM     78  F   UNL A   1      40.900  24.662  28.376  1.00  0.00    -0.203 F 
ATOM     79  F   UNL A   1      44.622  26.780  24.994  1.00  0.00    -0.200 F 
ATOM     80  C   UNL A   1      43.209  24.988  25.602  1.00  0.00     0.200 A 
ATOM     81  F   UNL A   1      41.769  23.231  26.247  1.00  0.00    -0.200 F 
ATOM     82  F   UNL A   1      43.615  24.286  24.535  1.00  0.00    -0.200 F 
ENDBRANCH  48  72
BRANCH  60  83
ATOM     83  C   UNL A   1      44.595  27.109  34.385  1.00  0.00     0.064 A 
ATOM     84  C   UNL A   1      45.870  27.687  34.445  1.00  0.00     0.173 A 
ATOM     85  C   UNL A   1      44.377  25.913  35.086  1.00  0.00     0.173 A 
ATOM     86  F   UNL A   1      46.130  28.820  33.777  1.00  0.00    -0.203 F 
ATOM     87  C   UNL A   1      46.895  27.080  35.167  1.00  0.00     0.198 A 
ATOM     88  C   UNL A   1      45.397  25.323  35.826  1.00  0.00     0.198 A 
ATOM     89  F   UNL A   1      43.172  25.324  35.061  1.00  0.00    -0.203 F 
ATOM     90  F   UNL A   1      48.118  27.628  35.178  1.00  0.00    -0.200 F 
ATOM     91  C   UNL A   1      46.656  25.904  35.861  1.00  0.00     0.200 A 
ATOM     92  F   UNL A   1      45.163  24.192  36.505  1.00  0.00    -0.200 F 
ATOM     93  F   UNL A   1      47.643  25.325  36.559  1.00  0.00    -0.200 F 
ENDBRANCH  60  83
ENDBRANCH  34  35
ENDBRANCH  26  29
ENDBRANCH  24  25
ENDBRANCH   1  24
TORSDOF 12
ENDMDL
MODEL 3
REMARK VINA RESULT:     -12.8      0.670      7.338
REMARK SMILES O=C(NCCCCNC(=O)c1ccc(-c2c3nc(c(-c4c(F)c(F)c(F)c(F)c4F)c4ccc([nH]4)c(-c4c(F)c(F)c(F)c(F)c4F)c4nc(c(-c5c(F)c(F)c(F)c(F)c5F)c5ccc2[nH]5)C=C4)C=C3)cc1)C1=Cc2ccc(Cl)c(Cl)c2O[C@@H]1C(F)(F)F
REMARK SMILES IDX 6 1 5 2 4 3 3 4 1 5 2 6 74 8 75 9 85 10 76 11 84 12 77 13
REMARK SMILES IDX 83 14 78 15 81 16 79 17 82 18 80 19 86 20 87 21 88 22 89 23
REMARK SMILES IDX 7 24 8 25 9 26 10 28 11 29 12 30 73 31 13 32 72 33 14 34
REMARK SMILES IDX 15 35 16 36 66 37 17 38 71 39 65 40 67 41 18 42 70 43 64 44
REMARK SMILES IDX 63 45 19 47 51 48 31 49 50 50 32 51 35 52 49 53 68 54 33 55
REMARK SMILES IDX 34 56 48 58 69 59 36 60 20 61 21 62 29 63 22 64 23 65 27 66
REMARK SMILES IDX 30 67 24 68 25 69 28 70 26 71 52 72 53 73 61 74 54 75 55 76
REMARK SMILES IDX 59 77 62 78 56 79 57 80 60 81 58 82 37 83 38 84 46 85 39 86
REMARK SMILES IDX 40 87 44 88 47 89 41 90 42 91 45 92 43 93
REMARK H PARENT 3 7 8 27 67 46 35 57
REMARK Flexibility Score: inf
ROOT
ATOM      1  C   UNL A   1      32.185  28.161  25.511  1.00  0.00     0.023 C 
ENDROOT
BRANCH   1   2
ATOM      2  C   UNL A   1      32.548  26.955  26.375  1.00  0.00     0.023 C 
BRANCH   2   3
ATOM      3  C   UNL A   1      32.424  25.592  25.697  1.00  0.00     0.116 C 
BRANCH   3   4
ATOM      4  N   UNL A   1      32.627  24.451  26.586  1.00  0.00    -0.352 N 
ATOM      5  O   UNL A   1      33.780  22.764  27.560  1.00  0.00    -0.270 OA
ATOM      6  C   UNL A   1      33.649  23.527  26.610  1.00  0.00     0.251 C 
ATOM      7  H   UNL A   1      31.931  24.324  27.270  1.00  0.00     0.163 HD
BRANCH   6   8
ATOM      8  C   UNL A   1      34.688  23.597  25.556  1.00  0.00     0.067 C 
ATOM      9  C   UNL A   1      35.768  24.389  25.634  1.00  0.00     0.025 C 
ATOM     10  C   UNL A   1      34.643  22.527  24.507  1.00  0.00     0.314 C 
ATOM     11  C   UNL A   1      37.006  23.577  25.541  1.00  0.00     0.019 A 
ATOM     12  O   UNL A   1      35.796  21.664  24.609  1.00  0.00    -0.474 OA
ATOM     13  C   UNL A   1      38.148  24.034  26.214  1.00  0.00     0.013 A 
ATOM     14  C   UNL A   1      36.941  22.222  25.141  1.00  0.00     0.148 A 
ATOM     15  C   UNL A   1      39.191  23.149  26.514  1.00  0.00     0.023 A 
ATOM     16  C   UNL A   1      38.002  21.341  25.420  1.00  0.00     0.102 A 
ATOM     17  C   UNL A   1      39.117  21.808  26.126  1.00  0.00     0.063 A 
ATOM     18  Cl  UNL A   1      37.854  19.667  24.984  1.00  0.00    -0.079 Cl
ATOM     19  Cl  UNL A   1      40.407  20.766  26.613  1.00  0.00    -0.083 Cl
BRANCH  10  20
ATOM     20  C   UNL A   1      34.521  23.133  23.092  1.00  0.00     0.429 C 
ATOM     21  F   UNL A   1      34.295  24.466  23.147  1.00  0.00    -0.167 F 
ATOM     22  F   UNL A   1      35.651  22.953  22.368  1.00  0.00    -0.167 F 
ATOM     23  F   UNL A   1      33.503  22.588  22.381  1.00  0.00    -0.167 F 
ENDBRANCH  10  20
ENDBRANCH   6   8
ENDBRANCH   3   4
ENDBRANCH   2   3
ENDBRANCH   1   2
BRANCH   1  24
ATOM     24  C   UNL A   1      33.183  29.318  25.500  1.00  0.00     0.116 C 
BRANCH  24  25
ATOM     25  N   UNL A   1      32.754  30.504  26.231  1.00  0.00    -0.352 N 
ATOM     26  C   UNL A   1      33.429  31.217  27.198  1.00  0.00     0.251 C 
ATOM     27  H   UNL A   1      31.858  30.842  26.003  1.00  0.00     0.163 HD
ATOM     28  O   UNL A   1      32.892  32.171  27.758  1.00  0.00    -0.269 OA
BRANCH  26  29
ATOM     29  C   UNL A   1      34.781  30.784  27.611  1.00  0.00     0.039 A 
ATOM     30  C   UNL A   1      35.727  31.759  27.942  1.00  0.00     0.014 A 
ATOM     31  C   UNL A   1      35.081  29.429  27.771  1.00  0.00     0.014 A 
ATOM     32  C   UNL A   1      36.923  31.379  28.554  1.00  0.00     0.010 A 
ATOM     33  C   UNL A   1      36.234  29.058  28.455  1.00  0.00     0.010 A 
ATOM     34  C   UNL A   1      37.153  30.032  28.880  1.00  0.00    -0.014 A 
BRANCH  34  35
ATOM     35  C   UNL A   1      38.315  29.628  29.712  1.00  0.00     0.031 A 
ATOM     36  C   UNL A   1      38.498  30.194  31.090  1.00  0.00     0.074 A 
ATOM     37  C   UNL A   1      39.257  28.818  29.185  1.00  0.00     0.049 A 
ATOM     38  N   UNL A   1      39.488  30.027  31.930  1.00  0.00    -0.248 NA
ATOM     39  C   UNL A   1      37.441  31.094  31.579  1.00  0.00     0.031 C 
ATOM     40  C   UNL A   1      39.231  28.257  27.833  1.00  0.00     0.029 A 
ATOM     41  N   UNL A   1      40.428  28.337  29.719  1.00  0.00    -0.354 N 
ATOM     42  C   UNL A   1      39.183  30.811  33.034  1.00  0.00     0.074 A 
ATOM     43  C   UNL A   1      37.942  31.493  32.739  1.00  0.00     0.031 C 
ATOM     44  C   UNL A   1      40.318  27.488  27.652  1.00  0.00     0.029 A 
ATOM     45  C   UNL A   1      41.135  27.530  28.861  1.00  0.00     0.049 A 
ATOM     46  H   UNL A   1      40.731  28.550  30.631  1.00  0.00     0.167 HD
ATOM     47  C   UNL A   1      39.865  30.932  34.198  1.00  0.00     0.037 A 
ATOM     48  C   UNL A   1      42.311  26.896  29.029  1.00  0.00     0.037 A 
ATOM     49  C   UNL A   1      41.082  30.228  34.502  1.00  0.00     0.049 A 
ATOM     50  C   UNL A   1      43.035  27.029  30.341  1.00  0.00     0.074 A 
ATOM     51  C   UNL A   1      41.813  30.235  35.678  1.00  0.00     0.029 A 
ATOM     52  N   UNL A   1      41.747  29.387  33.622  1.00  0.00    -0.354 N 
ATOM     53  N   UNL A   1      42.699  27.716  31.405  1.00  0.00    -0.248 NA
ATOM     54  C   UNL A   1      44.300  26.292  30.477  1.00  0.00     0.031 C 
ATOM     55  C   UNL A   1      42.938  29.423  35.497  1.00  0.00     0.029 A 
ATOM     56  C   UNL A   1      42.887  28.880  34.224  1.00  0.00     0.049 A 
ATOM     57  H   UNL A   1      41.453  29.180  32.706  1.00  0.00     0.167 HD
ATOM     58  C   UNL A   1      43.692  27.477  32.344  1.00  0.00     0.074 A 
ATOM     59  C   UNL A   1      44.638  26.568  31.729  1.00  0.00     0.031 C 
ATOM     60  C   UNL A   1      43.811  27.968  33.601  1.00  0.00     0.037 A 
BRANCH  47  61
ATOM     61  C   UNL A   1      39.297  31.854  35.236  1.00  0.00     0.064 A 
ATOM     62  C   UNL A   1      38.478  31.375  36.270  1.00  0.00     0.173 A 
ATOM     63  C   UNL A   1      39.601  33.223  35.217  1.00  0.00     0.173 A 
ATOM     64  F   UNL A   1      38.149  30.077  36.324  1.00  0.00    -0.203 F 
ATOM     65  C   UNL A   1      37.958  32.239  37.230  1.00  0.00     0.198 A 
ATOM     66  C   UNL A   1      39.102  34.079  36.195  1.00  0.00     0.198 A 
ATOM     67  F   UNL A   1      40.385  33.730  34.254  1.00  0.00    -0.203 F 
ATOM     68  F   UNL A   1      37.140  31.768  38.180  1.00  0.00    -0.200 F 
ATOM     69  C   UNL A   1      38.275  33.589  37.196  1.00  0.00     0.200 A 
ATOM     70  F   UNL A   1      39.418  35.382  36.168  1.00  0.00    -0.200 F 
ATOM     71  F   UNL A   1      37.780  34.419  38.124  1.00  0.00    -0.200 F 
ENDBRANCH  47  61
BRANCH  48  72
ATOM     72  C   UNL A   1      42.865  26.051  27.939  1.00  0.00     0.064 A 
ATOM     73  C   UNL A   1      43.721  26.598  26.972  1.00  0.00     0.173 A 
ATOM     74  C   UNL A   1      42.549  24.689  27.836  1.00  0.00     0.173 A 
ATOM     75  F   UNL A   1      44.035  27.901  27.019  1.00  0.00    -0.203 F 
ATOM     76  C   UNL A   1      44.223  25.820  25.932  1.00  0.00     0.198 A 
ATOM     77  C   UNL A   1      43.072  23.905  26.808  1.00  0.00     0.198 A 
ATOM     78  F   UNL A   1      41.739  24.117  28.738  1.00  0.00    -0.203 F 
ATOM     79  F   UNL A   1      45.003  26.378  24.997  1.00  0.00    -0.200 F 
ATOM     80  C   UNL A   1      43.903  24.474  25.853  1.00  0.00     0.200 A 
ATOM     81  F   UNL A   1      42.770  22.602  26.743  1.00  0.00    -0.200 F 
ATOM     82  F   UNL A   1      44.387  23.724  24.853  1.00  0.00    -0.200 F 
ENDBRANCH  48  72
BRANCH  60  83
ATOM     83  C   UNL A   1      44.990  27.509  34.407  1.00  0.00     0.064 A 
ATOM     84  C   UNL A   1      46.177  28.253  34.456  1.00  0.00     0.173 A 
ATOM     85  C   UNL A   1      44.913  26.334  35.169  1.00  0.00     0.173 A 
ATOM     86  F   UNL A   1      46.303  29.373  33.731  1.00  0.00    -0.203 F 
ATOM     87  C   UNL A   1      47.255  27.824  35.227  1.00  0.00     0.198 A 
ATOM     88  C   UNL A   1      45.983  25.923  35.957  1.00  0.00     0.198 A 
ATOM     89  F   UNL A   1      43.796  25.591  35.157  1.00  0.00    -0.203 F 
ATOM     90  F   UNL A   1      48.396  28.528  35.228  1.00  0.00    -0.200 F 
ATOM     91  C   UNL A   1      47.155  26.665  35.981  1.00  0.00     0.200 A 
ATOM     92  F   UNL A   1      45.882  24.807  36.694  1.00  0.00    -0.200 F 
ATOM     93  F   UNL A   1      48.192  26.258  36.727  1.00  0.00    -0.200 F 
ENDBRANCH  60  83
ENDBRANCH  34  35
ENDBRANCH  26  29
ENDBRANCH  24  25
ENDBRANCH   1  24
TORSDOF 12
ENDMDL
