MODEL 1
REMARK VINA RESULT:     -12.8      0.000      0.000
REMARK SMILES O=C(C[NH+]1CCN(c2nccc(N3CCCCC3)n2)CC1)NCCCCNC(=O)c1ccc(-c2c3nc(c(-c4c(F)c(F)c(F)c(F)c4F)c4ccc([nH]4)c(-c4c(F)c(F)c(F)c(F)c4F)c4nc(c(-c5c(F)c(F)c(F)c(F)c5F)c5ccc2[nH]5)C=C4)C=C3)cc1
REMARK SMILES IDX 24 1 23 2 22 3 1 4 2 5 3 7 4 8 5 9 21 10 6 12 20 13 7 14
REMARK SMILES IDX 8 15 9 16 19 17 10 18 12 19 11 20 13 21 14 22 18 23 15 24
REMARK SMILES IDX 17 25 16 26 25 27 26 28 27 29 28 30 29 32 30 33 31 34 92 35
REMARK SMILES IDX 32 36 91 37 33 38 34 39 35 40 85 41 36 42 90 43 84 44 86 45
REMARK SMILES IDX 37 46 89 47 83 48 82 49 38 51 70 52 50 53 69 54 51 55 54 56
REMARK SMILES IDX 68 57 87 58 52 59 53 60 67 62 88 63 55 64 39 65 40 66 48 67
REMARK SMILES IDX 41 68 42 69 46 70 49 71 43 72 44 73 47 74 45 75 71 76 72 77
REMARK SMILES IDX 80 78 73 79 74 80 78 81 81 82 75 83 76 84 79 85 77 86 56 87
REMARK SMILES IDX 57 88 65 89 58 90 59 91 63 92 66 93 60 94 61 95 64 96 62 97
REMARK H PARENT 22 6 4 11 27 31 86 50 54 61
REMARK Flexibility Score: inf
ROOT
ATOM      1  C   UNL A   1      31.529  30.362  25.896  1.00  0.00     0.023 C 
ENDROOT
BRANCH   1   2
ATOM      2  C   UNL A   1      30.875  30.043  24.553  1.00  0.00     0.116 C 
BRANCH   2   3
ATOM      3  N   UNL A   1      30.926  28.637  24.210  1.00  0.00    -0.351 N 
ATOM      4  O   UNL A   1      30.340  28.951  22.009  1.00  0.00    -0.269 OA
ATOM      5  C   UNL A   1      30.695  28.202  22.914  1.00  0.00     0.275 C 
ATOM      6  H   UNL A   1      31.130  27.977  24.912  1.00  0.00     0.163 HD
BRANCH   5   7
ATOM      7  C   UNL A   1      30.970  26.713  22.699  1.00  0.00     0.363 C 
BRANCH   7   8
ATOM      8  N   UNL A   1      31.457  25.997  23.889  1.00  0.00    -0.324 N 
ATOM      9  C   UNL A   1      30.769  24.713  24.168  1.00  0.00     0.284 C 
ATOM     10  C   UNL A   1      32.922  25.859  23.994  1.00  0.00     0.284 C 
ATOM     11  H   UNL A   1      31.188  26.639  24.635  1.00  0.00     0.348 HD
ATOM     12  C   UNL A   1      31.375  23.411  23.563  1.00  0.00     0.181 C 
ATOM     13  C   UNL A   1      33.525  24.607  23.330  1.00  0.00     0.181 C 
ATOM     14  N   UNL A   1      32.809  23.432  23.778  1.00  0.00    -0.329 N 
BRANCH  14  15
ATOM     15  C   UNL A   1      33.550  22.331  24.083  1.00  0.00     0.227 A 
ATOM     16  N   UNL A   1      34.850  22.448  24.372  1.00  0.00    -0.221 NA
ATOM     17  N   UNL A   1      32.884  21.166  24.117  1.00  0.00    -0.196 NA
ATOM     18  C   UNL A   1      35.462  21.329  24.796  1.00  0.00     0.119 A 
ATOM     19  C   UNL A   1      33.526  20.054  24.490  1.00  0.00     0.134 A 
ATOM     20  C   UNL A   1      34.839  20.106  24.895  1.00  0.00     0.067 A 
BRANCH  19  21
ATOM     21  N   UNL A   1      32.852  18.854  24.402  1.00  0.00    -0.356 N 
ATOM     22  C   UNL A   1      32.597  18.119  25.638  1.00  0.00     0.118 C 
ATOM     23  C   UNL A   1      32.773  18.141  23.138  1.00  0.00     0.118 C 
ATOM     24  C   UNL A   1      33.416  16.833  25.702  1.00  0.00     0.022 C 
ATOM     25  C   UNL A   1      33.606  16.860  23.205  1.00  0.00     0.022 C 
ATOM     26  C   UNL A   1      33.246  16.014  24.425  1.00  0.00     0.004 C 
ENDBRANCH  19  21
ENDBRANCH  14  15
ENDBRANCH   7   8
ENDBRANCH   5   7
ENDBRANCH   2   3
ENDBRANCH   1   2
BRANCH   1  27
ATOM     27  C   UNL A   1      31.358  31.801  26.396  1.00  0.00     0.023 C 
BRANCH  27  28
ATOM     28  C   UNL A   1      32.599  32.450  27.006  1.00  0.00     0.116 C 
BRANCH  28  29
ATOM     29  N   UNL A   1      32.366  33.818  27.441  1.00  0.00    -0.352 N 
ATOM     30  C   UNL A   1      32.979  34.566  28.415  1.00  0.00     0.251 C 
ATOM     31  H   UNL A   1      31.649  34.286  26.955  1.00  0.00     0.163 HD
ATOM     32  O   UNL A   1      32.510  35.667  28.715  1.00  0.00    -0.269 OA
BRANCH  30  33
ATOM     33  C   UNL A   1      34.176  34.075  29.139  1.00  0.00     0.039 A 
ATOM     34  C   UNL A   1      33.994  33.252  30.257  1.00  0.00     0.014 A 
ATOM     35  C   UNL A   1      35.469  34.445  28.764  1.00  0.00     0.014 A 
ATOM     36  C   UNL A   1      35.099  32.747  30.950  1.00  0.00     0.010 A 
ATOM     37  C   UNL A   1      36.571  33.878  29.407  1.00  0.00     0.010 A 
ATOM     38  C   UNL A   1      36.401  33.024  30.507  1.00  0.00    -0.014 A 
BRANCH  38  39
ATOM     39  C   UNL A   1      37.592  32.413  31.155  1.00  0.00     0.031 A 
ATOM     40  C   UNL A   1      38.359  31.312  30.476  1.00  0.00     0.074 A 
ATOM     41  C   UNL A   1      37.940  32.801  32.399  1.00  0.00     0.049 A 
ATOM     42  N   UNL A   1      39.374  30.612  30.920  1.00  0.00    -0.248 NA
ATOM     43  C   UNL A   1      37.912  30.927  29.130  1.00  0.00     0.031 C 
ATOM     44  C   UNL A   1      37.255  33.826  33.185  1.00  0.00     0.029 A 
ATOM     45  N   UNL A   1      38.952  32.370  33.223  1.00  0.00    -0.354 N 
ATOM     46  C   UNL A   1      39.672  29.696  29.920  1.00  0.00     0.074 A 
ATOM     47  C   UNL A   1      38.705  29.899  28.863  1.00  0.00     0.031 C 
ATOM     48  C   UNL A   1      37.878  33.965  34.365  1.00  0.00     0.029 A 
ATOM     49  C   UNL A   1      38.980  33.011  34.438  1.00  0.00     0.049 A 
ATOM     50  H   UNL A   1      39.594  31.669  32.967  1.00  0.00     0.167 HD
ATOM     51  C   UNL A   1      40.674  28.784  29.880  1.00  0.00     0.037 A 
ATOM     52  C   UNL A   1      39.799  32.845  35.495  1.00  0.00     0.037 A 
ATOM     53  C   UNL A   1      41.655  28.606  30.921  1.00  0.00     0.049 A 
ATOM     54  C   UNL A   1      40.898  31.820  35.426  1.00  0.00     0.074 A 
ATOM     55  C   UNL A   1      42.753  27.761  30.935  1.00  0.00     0.029 A 
ATOM     56  N   UNL A   1      41.656  29.277  32.134  1.00  0.00    -0.354 N 
ATOM     57  N   UNL A   1      41.213  31.008  34.447  1.00  0.00    -0.248 NA
ATOM     58  C   UNL A   1      41.758  31.693  36.611  1.00  0.00     0.031 C 
ATOM     59  C   UNL A   1      43.381  27.878  32.178  1.00  0.00     0.029 A 
ATOM     60  C   UNL A   1      42.716  28.843  32.915  1.00  0.00     0.049 A 
ATOM     61  H   UNL A   1      41.000  29.962  32.401  1.00  0.00     0.167 HD
ATOM     62  C   UNL A   1      42.324  30.299  34.883  1.00  0.00     0.074 A 
ATOM     63  C   UNL A   1      42.636  30.784  36.210  1.00  0.00     0.031 C 
ATOM     64  C   UNL A   1      43.023  29.334  34.236  1.00  0.00     0.037 A 
BRANCH  51  65
ATOM     65  C   UNL A   1      40.767  27.895  28.672  1.00  0.00     0.064 A 
ATOM     66  C   UNL A   1      40.045  26.696  28.578  1.00  0.00     0.173 A 
ATOM     67  C   UNL A   1      41.540  28.280  27.566  1.00  0.00     0.173 A 
ATOM     68  F   UNL A   1      39.296  26.275  29.609  1.00  0.00    -0.203 F 
ATOM     69  C   UNL A   1      40.114  25.903  27.434  1.00  0.00     0.198 A 
ATOM     70  C   UNL A   1      41.581  27.503  26.411  1.00  0.00     0.198 A 
ATOM     71  F   UNL A   1      42.246  29.420  27.598  1.00  0.00    -0.203 F 
ATOM     72  F   UNL A   1      39.452  24.740  27.387  1.00  0.00    -0.200 F 
ATOM     73  C   UNL A   1      40.874  26.312  26.349  1.00  0.00     0.200 A 
ATOM     74  F   UNL A   1      42.304  27.907  25.357  1.00  0.00    -0.200 F 
ATOM     75  F   UNL A   1      40.930  25.555  25.244  1.00  0.00    -0.200 F 
ENDBRANCH  51  65
BRANCH  52  76
ATOM     76  C   UNL A   1      39.629  33.699  36.700  1.00  0.00     0.064 A 
ATOM     77  C   UNL A   1      40.243  34.957  36.778  1.00  0.00     0.173 A 
ATOM     78  C   UNL A   1      38.848  33.285  37.788  1.00  0.00     0.173 A 
ATOM     79  F   UNL A   1      41.018  35.386  35.771  1.00  0.00    -0.203 F 
ATOM     80  C   UNL A   1      40.095  35.762  37.905  1.00  0.00     0.198 A 
ATOM     81  C   UNL A   1      38.676  34.105  38.903  1.00  0.00     0.198 A 
ATOM     82  F   UNL A   1      38.234  32.093  37.761  1.00  0.00    -0.203 F 
ATOM     83  F   UNL A   1      40.727  36.942  37.969  1.00  0.00    -0.200 F 
ATOM     84  C   UNL A   1      39.305  35.339  38.963  1.00  0.00     0.200 A 
ATOM     85  F   UNL A   1      37.899  33.699  39.916  1.00  0.00    -0.200 F 
ATOM     86  F   UNL A   1      39.155  36.118  40.043  1.00  0.00    -0.200 F 
ENDBRANCH  52  76
BRANCH  64  87
ATOM     87  C   UNL A   1      44.222  28.760  34.936  1.00  0.00     0.064 A 
ATOM     88  C   UNL A   1      45.494  29.340  34.822  1.00  0.00     0.173 A 
ATOM     89  C   UNL A   1      44.087  27.636  35.768  1.00  0.00     0.173 A 
ATOM     90  F   UNL A   1      45.681  30.407  34.030  1.00  0.00    -0.203 F 
ATOM     91  C   UNL A   1      46.591  28.801  35.492  1.00  0.00     0.198 A 
ATOM     92  C   UNL A   1      45.178  27.121  36.462  1.00  0.00     0.198 A 
ATOM     93  F   UNL A   1      42.892  27.047  35.918  1.00  0.00    -0.203 F 
ATOM     94  F   UNL A   1      47.805  29.342  35.326  1.00  0.00    -0.200 F 
ATOM     95  C   UNL A   1      46.430  27.698  36.316  1.00  0.00     0.200 A 
ATOM     96  F   UNL A   1      45.018  26.065  37.271  1.00  0.00    -0.200 F 
ATOM     97  F   UNL A   1      47.485  27.187  36.966  1.00  0.00    -0.200 F 
ENDBRANCH  64  87
ENDBRANCH  38  39
ENDBRANCH  30  33
ENDBRANCH  28  29
ENDBRANCH  27  28
ENDBRANCH   1  27
TORSDOF 14
ENDMDL
MODEL 2
REMARK VINA RESULT:     -12.7      6.386     10.809
REMARK SMILES O=C(C[NH+]1CCN(c2nccc(N3CCCCC3)n2)CC1)NCCCCNC(=O)c1ccc(-c2c3nc(c(-c4c(F)c(F)c(F)c(F)c4F)c4ccc([nH]4)c(-c4c(F)c(F)c(F)c(F)c4F)c4nc(c(-c5c(F)c(F)c(F)c(F)c5F)c5ccc2[nH]5)C=C4)C=C3)cc1
REMARK SMILES IDX 24 1 23 2 22 3 1 4 2 5 3 7 4 8 5 9 21 10 6 12 20 13 7 14
REMARK SMILES IDX 8 15 9 16 19 17 10 18 12 19 11 20 13 21 14 22 18 23 15 24
REMARK SMILES IDX 17 25 16 26 25 27 26 28 27 29 28 30 29 32 30 33 31 34 92 35
REMARK SMILES IDX 32 36 91 37 33 38 34 39 35 40 85 41 36 42 90 43 84 44 86 45
REMARK SMILES IDX 37 46 89 47 83 48 82 49 38 51 70 52 50 53 69 54 51 55 54 56
REMARK SMILES IDX 68 57 87 58 52 59 53 60 67 62 88 63 55 64 39 65 40 66 48 67
REMARK SMILES IDX 41 68 42 69 46 70 49 71 43 72 44 73 47 74 45 75 71 76 72 77
REMARK SMILES IDX 80 78 73 79 74 80 78 81 81 82 75 83 76 84 79 85 77 86 56 87
REMARK SMILES IDX 57 88 65 89 58 90 59 91 63 92 66 93 60 94 61 95 64 96 62 97
REMARK H PARENT 22 6 4 11 27 31 86 50 54 61
REMARK Flexibility Score: inf
ROOT
ATOM      1  C   UNL A   1      41.893  20.362  26.782  1.00  0.00     0.023 C 
ENDROOT
BRANCH   1   2
ATOM      2  C   UNL A   1      41.841  21.792  26.246  1.00  0.00     0.116 C 
BRANCH   2   3
ATOM      3  N   UNL A   1      40.495  22.256  25.982  1.00  0.00    -0.351 N 
ATOM      4  O   UNL A   1      40.212  23.219  28.050  1.00  0.00    -0.269 OA
ATOM      5  C   UNL A   1      39.792  22.997  26.919  1.00  0.00     0.275 C 
ATOM      6  H   UNL A   1      40.072  22.042  25.119  1.00  0.00     0.163 HD
BRANCH   5   7
ATOM      7  C   UNL A   1      38.466  23.555  26.402  1.00  0.00     0.363 C 
BRANCH   7   8
ATOM      8  N   UNL A   1      37.972  22.930  25.164  1.00  0.00    -0.324 N 
ATOM      9  C   UNL A   1      37.572  21.509  25.301  1.00  0.00     0.284 C 
ATOM     10  C   UNL A   1      36.964  23.706  24.418  1.00  0.00     0.284 C 
ATOM     11  H   UNL A   1      38.812  22.942  24.585  1.00  0.00     0.348 HD
ATOM     12  C   UNL A   1      36.084  21.197  25.641  1.00  0.00     0.181 C 
ATOM     13  C   UNL A   1      35.498  23.448  24.809  1.00  0.00     0.181 C 
ATOM     14  N   UNL A   1      35.240  22.025  24.801  1.00  0.00    -0.329 N 
BRANCH  14  15
ATOM     15  C   UNL A   1      34.063  21.608  24.258  1.00  0.00     0.227 A 
ATOM     16  N   UNL A   1      33.205  22.493  23.740  1.00  0.00    -0.221 NA
ATOM     17  N   UNL A   1      33.860  20.281  24.242  1.00  0.00    -0.196 NA
ATOM     18  C   UNL A   1      32.139  21.977  23.104  1.00  0.00     0.119 A 
ATOM     19  C   UNL A   1      32.765  19.792  23.651  1.00  0.00     0.134 A 
ATOM     20  C   UNL A   1      31.882  20.629  23.010  1.00  0.00     0.067 A 
BRANCH  19  21
ATOM     21  N   UNL A   1      32.521  18.438  23.752  1.00  0.00    -0.356 N 
ATOM     22  C   UNL A   1      32.128  17.908  25.056  1.00  0.00     0.118 C 
ATOM     23  C   UNL A   1      33.031  17.518  22.751  1.00  0.00     0.118 C 
ATOM     24  C   UNL A   1      33.221  17.026  25.653  1.00  0.00     0.022 C 
ATOM     25  C   UNL A   1      34.136  16.647  23.352  1.00  0.00     0.022 C 
ATOM     26  C   UNL A   1      33.684  15.975  24.648  1.00  0.00     0.004 C 
ENDBRANCH  19  21
ENDBRANCH  14  15
ENDBRANCH   7   8
ENDBRANCH   5   7
ENDBRANCH   2   3
ENDBRANCH   1   2
BRANCH   1  27
ATOM     27  C   UNL A   1      42.236  19.277  25.755  1.00  0.00     0.023 C 
BRANCH  27  28
ATOM     28  C   UNL A   1      43.573  18.565  25.953  1.00  0.00     0.116 C 
BRANCH  28  29
ATOM     29  N   UNL A   1      44.369  18.509  24.737  1.00  0.00    -0.352 N 
ATOM     30  C   UNL A   1      44.980  19.507  24.018  1.00  0.00     0.251 C 
ATOM     31  H   UNL A   1      44.490  17.605  24.368  1.00  0.00     0.163 HD
ATOM     32  O   UNL A   1      45.482  19.240  22.923  1.00  0.00    -0.269 OA
BRANCH  30  33
ATOM     33  C   UNL A   1      45.029  20.904  24.509  1.00  0.00     0.039 A 
ATOM     34  C   UNL A   1      45.530  21.147  25.794  1.00  0.00     0.014 A 
ATOM     35  C   UNL A   1      44.550  21.972  23.747  1.00  0.00     0.014 A 
ATOM     36  C   UNL A   1      45.618  22.456  26.281  1.00  0.00     0.010 A 
ATOM     37  C   UNL A   1      44.710  23.281  24.203  1.00  0.00     0.010 A 
ATOM     38  C   UNL A   1      45.244  23.540  25.474  1.00  0.00    -0.014 A 
BRANCH  38  39
ATOM     39  C   UNL A   1      45.428  24.946  25.923  1.00  0.00     0.031 A 
ATOM     40  C   UNL A   1      46.779  25.604  25.864  1.00  0.00     0.074 A 
ATOM     41  C   UNL A   1      44.385  25.612  26.459  1.00  0.00     0.049 A 
ATOM     42  N   UNL A   1      47.143  26.792  26.280  1.00  0.00    -0.248 NA
ATOM     43  C   UNL A   1      47.875  24.813  25.285  1.00  0.00     0.031 C 
ATOM     44  C   UNL A   1      43.033  25.075  26.615  1.00  0.00     0.029 A 
ATOM     45  N   UNL A   1      44.302  26.880  26.982  1.00  0.00    -0.354 N 
ATOM     46  C   UNL A   1      48.506  26.883  26.030  1.00  0.00     0.074 A 
ATOM     47  C   UNL A   1      48.915  25.615  25.467  1.00  0.00     0.031 C 
ATOM     48  C   UNL A   1      42.249  26.013  27.169  1.00  0.00     0.029 A 
ATOM     49  C   UNL A   1      43.050  27.201  27.447  1.00  0.00     0.049 A 
ATOM     50  H   UNL A   1      45.067  27.498  27.020  1.00  0.00     0.167 HD
ATOM     51  C   UNL A   1      49.335  27.936  26.234  1.00  0.00     0.037 A 
ATOM     52  C   UNL A   1      42.597  28.325  28.036  1.00  0.00     0.037 A 
ATOM     53  C   UNL A   1      48.918  29.209  26.766  1.00  0.00     0.049 A 
ATOM     54  C   UNL A   1      43.541  29.475  28.257  1.00  0.00     0.074 A 
ATOM     55  C   UNL A   1      49.670  30.359  26.936  1.00  0.00     0.029 A 
ATOM     56  N   UNL A   1      47.640  29.499  27.220  1.00  0.00    -0.354 N 
ATOM     57  N   UNL A   1      44.812  29.574  27.954  1.00  0.00    -0.248 NA
ATOM     58  C   UNL A   1      42.984  30.673  28.901  1.00  0.00     0.031 C 
ATOM     59  C   UNL A   1      48.864  31.324  27.547  1.00  0.00     0.029 A 
ATOM     60  C   UNL A   1      47.592  30.800  27.698  1.00  0.00     0.049 A 
ATOM     61  H   UNL A   1      46.879  28.873  27.205  1.00  0.00     0.167 HD
ATOM     62  C   UNL A   1      45.197  30.852  28.337  1.00  0.00     0.074 A 
ATOM     63  C   UNL A   1      44.023  31.496  28.885  1.00  0.00     0.031 C 
ATOM     64  C   UNL A   1      46.417  31.437  28.239  1.00  0.00     0.037 A 
BRANCH  51  65
ATOM     65  C   UNL A   1      50.787  27.764  25.888  1.00  0.00     0.064 A 
ATOM     66  C   UNL A   1      51.740  27.400  26.851  1.00  0.00     0.173 A 
ATOM     67  C   UNL A   1      51.221  27.905  24.560  1.00  0.00     0.173 A 
ATOM     68  F   UNL A   1      51.382  27.260  28.136  1.00  0.00    -0.203 F 
ATOM     69  C   UNL A   1      53.076  27.208  26.502  1.00  0.00     0.198 A 
ATOM     70  C   UNL A   1      52.549  27.680  24.210  1.00  0.00     0.198 A 
ATOM     71  F   UNL A   1      50.351  28.245  23.597  1.00  0.00    -0.203 F 
ATOM     72  F   UNL A   1      53.975  26.906  27.449  1.00  0.00    -0.200 F 
ATOM     73  C   UNL A   1      53.477  27.339  25.182  1.00  0.00     0.200 A 
ATOM     74  F   UNL A   1      52.932  27.792  22.930  1.00  0.00    -0.200 F 
ATOM     75  F   UNL A   1      54.760  27.143  24.847  1.00  0.00    -0.200 F 
ENDBRANCH  51  65
BRANCH  52  76
ATOM     76  C   UNL A   1      41.167  28.428  28.428  1.00  0.00     0.064 A 
ATOM     77  C   UNL A   1      40.740  28.000  29.693  1.00  0.00     0.173 A 
ATOM     78  C   UNL A   1      40.205  28.960  27.558  1.00  0.00     0.173 A 
ATOM     79  F   UNL A   1      41.620  27.464  30.551  1.00  0.00    -0.203 F 
ATOM     80  C   UNL A   1      39.401  28.087  30.068  1.00  0.00     0.198 A 
ATOM     81  C   UNL A   1      38.870  29.073  27.946  1.00  0.00     0.198 A 
ATOM     82  F   UNL A   1      40.563  29.388  26.339  1.00  0.00    -0.203 F 
ATOM     83  F   UNL A   1      39.013  27.632  31.267  1.00  0.00    -0.200 F 
ATOM     84  C   UNL A   1      38.469  28.630  29.197  1.00  0.00     0.200 A 
ATOM     85  F   UNL A   1      37.976  29.615  27.108  1.00  0.00    -0.200 F 
ATOM     86  F   UNL A   1      37.183  28.722  29.561  1.00  0.00    -0.200 F 
ENDBRANCH  52  76
BRANCH  64  87
ATOM     87  C   UNL A   1      46.540  32.862  28.699  1.00  0.00     0.064 A 
ATOM     88  C   UNL A   1      46.910  33.186  30.013  1.00  0.00     0.173 A 
ATOM     89  C   UNL A   1      46.324  33.919  27.800  1.00  0.00     0.173 A 
ATOM     90  F   UNL A   1      47.115  32.215  30.916  1.00  0.00    -0.203 F 
ATOM     91  C   UNL A   1      47.033  34.515  30.415  1.00  0.00     0.198 A 
ATOM     92  C   UNL A   1      46.481  35.244  28.197  1.00  0.00     0.198 A 
ATOM     93  F   UNL A   1      45.975  33.664  26.530  1.00  0.00    -0.203 F 
ATOM     94  F   UNL A   1      47.338  34.800  31.689  1.00  0.00    -0.200 F 
ATOM     95  C   UNL A   1      46.826  35.541  29.506  1.00  0.00     0.200 A 
ATOM     96  F   UNL A   1      46.297  36.233  27.312  1.00  0.00    -0.200 F 
ATOM     97  F   UNL A   1      46.954  36.817  29.894  1.00  0.00    -0.200 F 
ENDBRANCH  64  87
ENDBRANCH  38  39
ENDBRANCH  30  33
ENDBRANCH  28  29
ENDBRANCH  27  28
ENDBRANCH   1  27
TORSDOF 14
ENDMDL
MODEL 3
REMARK VINA RESULT:     -12.6      3.847      8.248
REMARK SMILES O=C(C[NH+]1CCN(c2nccc(N3CCCCC3)n2)CC1)NCCCCNC(=O)c1ccc(-c2c3nc(c(-c4c(F)c(F)c(F)c(F)c4F)c4ccc([nH]4)c(-c4c(F)c(F)c(F)c(F)c4F)c4nc(c(-c5c(F)c(F)c(F)c(F)c5F)c5ccc2[nH]5)C=C4)C=C3)cc1
REMARK SMILES IDX 24 1 23 2 22 3 1 4 2 5 3 7 4 8 5 9 21 10 6 12 20 13 7 14
REMARK SMILES IDX 8 15 9 16 19 17 10 18 12 19 11 20 13 21 14 22 18 23 15 24
REMARK SMILES IDX 17 25 16 26 25 27 26 28 27 29 28 30 29 32 30 33 31 34 92 35
REMARK SMILES IDX 32 36 91 37 33 38 34 39 35 40 85 41 36 42 90 43 84 44 86 45
REMARK SMILES IDX 37 46 89 47 83 48 82 49 38 51 70 52 50 53 69 54 51 55 54 56
REMARK SMILES IDX 68 57 87 58 52 59 53 60 67 62 88 63 55 64 39 65 40 66 48 67
REMARK SMILES IDX 41 68 42 69 46 70 49 71 43 72 44 73 47 74 45 75 71 76 72 77
REMARK SMILES IDX 80 78 73 79 74 80 78 81 81 82 75 83 76 84 79 85 77 86 56 87
REMARK SMILES IDX 57 88 65 89 58 90 59 91 63 92 66 93 60 94 61 95 64 96 62 97
REMARK H PARENT 22 6 4 11 27 31 86 50 54 61
REMARK Flexibility Score: inf
ROOT
ATOM      1  C   UNL A   1      35.451  22.451  26.569  1.00  0.00     0.023 C 
ENDROOT
BRANCH   1   2
ATOM      2  C   UNL A   1      34.115  21.738  26.362  1.00  0.00     0.116 C 
BRANCH   2   3
ATOM      3  N   UNL A   1      33.793  21.520  24.967  1.00  0.00    -0.351 N 
ATOM      4  O   UNL A   1      31.665  20.752  25.375  1.00  0.00    -0.269 OA
ATOM      5  C   UNL A   1      32.538  21.078  24.578  1.00  0.00     0.275 C 
ATOM      6  H   UNL A   1      34.480  21.689  24.281  1.00  0.00     0.163 HD
BRANCH   5   7
ATOM      7  C   UNL A   1      32.320  21.079  23.064  1.00  0.00     0.363 C 
BRANCH   7   8
ATOM      8  N   UNL A   1      31.904  22.373  22.500  1.00  0.00    -0.324 N 
ATOM      9  C   UNL A   1      31.142  23.241  23.430  1.00  0.00     0.284 C 
ATOM     10  C   UNL A   1      32.956  23.129  21.796  1.00  0.00     0.284 C 
ATOM     11  H   UNL A   1      31.249  22.076  21.777  1.00  0.00     0.348 HD
ATOM     12  C   UNL A   1      31.937  24.266  24.293  1.00  0.00     0.181 C 
ATOM     13  C   UNL A   1      33.790  24.086  22.667  1.00  0.00     0.181 C 
ATOM     14  N   UNL A   1      32.903  24.930  23.438  1.00  0.00    -0.329 N 
BRANCH  14  15
ATOM     15  C   UNL A   1      33.229  26.248  23.539  1.00  0.00     0.227 A 
ATOM     16  N   UNL A   1      33.657  26.924  22.468  1.00  0.00    -0.221 NA
ATOM     17  N   UNL A   1      33.049  26.808  24.746  1.00  0.00    -0.196 NA
ATOM     18  C   UNL A   1      33.820  28.248  22.632  1.00  0.00     0.119 A 
ATOM     19  C   UNL A   1      33.270  28.117  24.901  1.00  0.00     0.134 A 
ATOM     20  C   UNL A   1      33.617  28.901  23.826  1.00  0.00     0.067 A 
BRANCH  19  21
ATOM     21  N   UNL A   1      33.193  28.643  26.174  1.00  0.00    -0.356 N 
ATOM     22  C   UNL A   1      31.942  29.281  26.578  1.00  0.00     0.118 C 
ATOM     23  C   UNL A   1      34.400  28.937  26.927  1.00  0.00     0.118 C 
ATOM     24  C   UNL A   1      32.112  30.789  26.740  1.00  0.00     0.022 C 
ATOM     25  C   UNL A   1      34.570  30.450  27.075  1.00  0.00     0.022 C 
ATOM     26  C   UNL A   1      33.309  31.110  27.630  1.00  0.00     0.004 C 
ENDBRANCH  19  21
ENDBRANCH  14  15
ENDBRANCH   7   8
ENDBRANCH   5   7
ENDBRANCH   2   3
ENDBRANCH   1   2
BRANCH   1  27
ATOM     27  C   UNL A   1      35.690  23.687  25.695  1.00  0.00     0.023 C 
BRANCH  27  28
ATOM     28  C   UNL A   1      36.994  23.703  24.900  1.00  0.00     0.116 C 
BRANCH  28  29
ATOM     29  N   UNL A   1      37.964  22.734  25.385  1.00  0.00    -0.352 N 
ATOM     30  C   UNL A   1      39.083  22.897  26.164  1.00  0.00     0.251 C 
ATOM     31  H   UNL A   1      37.788  21.805  25.109  1.00  0.00     0.163 HD
ATOM     32  O   UNL A   1      39.848  21.943  26.327  1.00  0.00    -0.269 OA
BRANCH  30  33
ATOM     33  C   UNL A   1      39.412  24.198  26.793  1.00  0.00     0.039 A 
ATOM     34  C   UNL A   1      38.965  24.446  28.097  1.00  0.00     0.014 A 
ATOM     35  C   UNL A   1      40.114  25.193  26.109  1.00  0.00     0.014 A 
ATOM     36  C   UNL A   1      39.279  25.651  28.734  1.00  0.00     0.010 A 
ATOM     37  C   UNL A   1      40.492  26.361  26.773  1.00  0.00     0.010 A 
ATOM     38  C   UNL A   1      40.080  26.605  28.091  1.00  0.00    -0.014 A 
BRANCH  38  39
ATOM     39  C   UNL A   1      40.522  27.846  28.782  1.00  0.00     0.031 A 
ATOM     40  C   UNL A   1      41.929  27.983  29.296  1.00  0.00     0.074 A 
ATOM     41  C   UNL A   1      39.628  28.828  29.016  1.00  0.00     0.049 A 
ATOM     42  N   UNL A   1      42.469  28.957  29.986  1.00  0.00    -0.248 NA
ATOM     43  C   UNL A   1      42.845  26.866  29.021  1.00  0.00     0.031 C 
ATOM     44  C   UNL A   1      38.223  28.802  28.609  1.00  0.00     0.029 A 
ATOM     45  N   UNL A   1      39.766  30.032  29.662  1.00  0.00    -0.354 N 
ATOM     46  C   UNL A   1      43.776  28.563  30.242  1.00  0.00     0.074 A 
ATOM     47  C   UNL A   1      43.936  27.244  29.672  1.00  0.00     0.031 C 
ATOM     48  C   UNL A   1      37.634  29.946  28.990  1.00  0.00     0.029 A 
ATOM     49  C   UNL A   1      38.606  30.768  29.705  1.00  0.00     0.049 A 
ATOM     50  H   UNL A   1      40.614  30.339  30.056  1.00  0.00     0.167 HD
ATOM     51  C   UNL A   1      44.756  29.250  30.879  1.00  0.00     0.037 A 
ATOM     52  C   UNL A   1      38.352  31.968  30.263  1.00  0.00     0.037 A 
ATOM     53  C   UNL A   1      44.603  30.578  31.418  1.00  0.00     0.049 A 
ATOM     54  C   UNL A   1      39.457  32.704  30.969  1.00  0.00     0.074 A 
ATOM     55  C   UNL A   1      45.561  31.384  32.009  1.00  0.00     0.029 A 
ATOM     56  N   UNL A   1      43.415  31.293  31.437  1.00  0.00    -0.354 N 
ATOM     57  N   UNL A   1      40.707  32.352  31.145  1.00  0.00    -0.248 NA
ATOM     58  C   UNL A   1      39.115  34.010  31.551  1.00  0.00     0.031 C 
ATOM     59  C   UNL A   1      44.941  32.560  32.440  1.00  0.00     0.029 A 
ATOM     60  C   UNL A   1      43.610  32.517  32.059  1.00  0.00     0.049 A 
ATOM     61  H   UNL A   1      42.559  30.979  31.064  1.00  0.00     0.167 HD
ATOM     62  C   UNL A   1      41.307  33.403  31.826  1.00  0.00     0.074 A 
ATOM     63  C   UNL A   1      40.287  34.411  32.022  1.00  0.00     0.031 C 
ATOM     64  C   UNL A   1      42.590  33.519  32.247  1.00  0.00     0.037 A 
BRANCH  51  65
ATOM     65  C   UNL A   1      46.094  28.581  31.037  1.00  0.00     0.064 A 
ATOM     66  C   UNL A   1      46.393  27.779  32.148  1.00  0.00     0.173 A 
ATOM     67  C   UNL A   1      47.066  28.694  30.031  1.00  0.00     0.173 A 
ATOM     68  F   UNL A   1      45.503  27.643  33.142  1.00  0.00    -0.203 F 
ATOM     69  C   UNL A   1      47.625  27.136  32.258  1.00  0.00     0.198 A 
ATOM     70  C   UNL A   1      48.283  28.024  30.128  1.00  0.00     0.198 A 
ATOM     71  F   UNL A   1      46.831  29.443  28.943  1.00  0.00    -0.203 F 
ATOM     72  F   UNL A   1      47.904  26.413  33.351  1.00  0.00    -0.200 F 
ATOM     73  C   UNL A   1      48.564  27.252  31.245  1.00  0.00     0.200 A 
ATOM     74  F   UNL A   1      49.183  28.124  29.141  1.00  0.00    -0.200 F 
ATOM     75  F   UNL A   1      49.743  26.623  31.347  1.00  0.00    -0.200 F 
ENDBRANCH  51  65
BRANCH  52  76
ATOM     76  C   UNL A   1      36.995  32.563  30.144  1.00  0.00     0.064 A 
ATOM     77  C   UNL A   1      36.055  32.413  31.173  1.00  0.00     0.173 A 
ATOM     78  C   UNL A   1      36.613  33.297  29.012  1.00  0.00     0.173 A 
ATOM     79  F   UNL A   1      36.367  31.701  32.266  1.00  0.00    -0.203 F 
ATOM     80  C   UNL A   1      34.779  32.963  31.069  1.00  0.00     0.198 A 
ATOM     81  C   UNL A   1      35.346  33.872  28.922  1.00  0.00     0.198 A 
ATOM     82  F   UNL A   1      37.476  33.474  28.002  1.00  0.00    -0.203 F 
ATOM     83  F   UNL A   1      33.888  32.769  32.050  1.00  0.00    -0.200 F 
ATOM     84  C   UNL A   1      34.428  33.698  29.947  1.00  0.00     0.200 A 
ATOM     85  F   UNL A   1      35.016  34.595  27.844  1.00  0.00    -0.200 F 
ATOM     86  F   UNL A   1      33.204  34.234  29.852  1.00  0.00    -0.200 F 
ENDBRANCH  52  76
BRANCH  64  87
ATOM     87  C   UNL A   1      42.981  34.799  32.931  1.00  0.00     0.064 A 
ATOM     88  C   UNL A   1      43.430  35.916  32.211  1.00  0.00     0.173 A 
ATOM     89  C   UNL A   1      42.865  34.922  34.325  1.00  0.00     0.173 A 
ATOM     90  F   UNL A   1      43.572  35.847  30.879  1.00  0.00    -0.203 F 
ATOM     91  C   UNL A   1      43.774  37.098  32.863  1.00  0.00     0.198 A 
ATOM     92  C   UNL A   1      43.177  36.115  34.970  1.00  0.00     0.198 A 
ATOM     93  F   UNL A   1      42.434  33.887  35.061  1.00  0.00    -0.203 F 
ATOM     94  F   UNL A   1      44.248  38.135  32.159  1.00  0.00    -0.200 F 
ATOM     95  C   UNL A   1      43.639  37.199  34.240  1.00  0.00     0.200 A 
ATOM     96  F   UNL A   1      43.031  36.217  36.298  1.00  0.00    -0.200 F 
ATOM     97  F   UNL A   1      43.962  38.340  34.863  1.00  0.00    -0.200 F 
ENDBRANCH  64  87
ENDBRANCH  38  39
ENDBRANCH  30  33
ENDBRANCH  28  29
ENDBRANCH  27  28
ENDBRANCH   1  27
TORSDOF 14
ENDMDL
