MODEL 1
REMARK VINA RESULT:     -11.4      0.000      0.000
REMARK SMILES CCc1nc(=O)n([C@@H](CC)C(C)C)c(CC)c1CC(=O)NCCCCNC(=O)c1ccc(-c2c3nc(c(-c4c(F)c(F)c(F)c(F)c4F)c4ccc([nH]4)c(-c4c(F)c(F)c(F)c(F)c4F)c4nc(c(-c5c(F)c(F)c(F)c(F)c5F)c5ccc2[nH]5)C=C4)C=C3)cc1
REMARK SMILES IDX 23 1 22 2 21 3 19 4 20 5 18 7 17 8 3 9 4 10 5 11 14 12 6 13
REMARK SMILES IDX 7 14 2 15 1 16 15 17 16 18 8 19 9 20 10 21 11 22 12 23 13 24
REMARK SMILES IDX 24 25 25 26 26 27 27 28 28 30 29 31 30 32 91 33 31 34 90 35
REMARK SMILES IDX 32 36 33 37 34 38 84 39 35 40 89 41 83 42 85 43 36 44 88 45
REMARK SMILES IDX 82 46 81 47 37 49 69 50 49 51 68 52 50 53 53 54 67 55 86 56
REMARK SMILES IDX 51 57 52 58 66 60 87 61 54 62 38 63 39 64 47 65 40 66 41 67
REMARK SMILES IDX 45 68 48 69 42 70 43 71 46 72 44 73 70 74 71 75 79 76 72 77
REMARK SMILES IDX 73 78 77 79 80 80 74 81 75 82 78 83 76 84 55 85 56 86 64 87
REMARK SMILES IDX 57 88 58 89 62 90 65 91 59 92 60 93 63 94 61 95
REMARK H PARENT 21 6 26 29 85 48 53 59
REMARK Flexibility Score: inf
ROOT
ATOM      1  C   UNL A   1      31.770  30.625  26.459  1.00  0.00     0.023 C 
ENDROOT
BRANCH   1   2
ATOM      2  C   UNL A   1      32.295  29.538  27.393  1.00  0.00     0.116 C 
BRANCH   2   3
ATOM      3  N   UNL A   1      31.508  28.328  27.326  1.00  0.00    -0.356 N 
ATOM      4  C   UNL A   1      31.865  27.118  26.807  1.00  0.00     0.224 C 
ATOM      5  O   UNL A   1      31.052  26.194  26.856  1.00  0.00    -0.275 OA
ATOM      6  H   UNL A   1      30.601  28.384  27.703  1.00  0.00     0.163 HD
BRANCH   4   7
ATOM      7  C   UNL A   1      33.267  26.921  26.231  1.00  0.00     0.139 C 
BRANCH   7   8
ATOM      8  C   UNL A   1      33.325  26.199  24.907  1.00  0.00     0.003 A 
ATOM      9  C   UNL A   1      32.997  26.924  23.636  1.00  0.00     0.051 A 
ATOM     10  N   UNL A   1      32.977  26.358  22.482  1.00  0.00    -0.198 NA
ATOM     11  C   UNL A   1      33.300  25.045  22.329  1.00  0.00     0.348 A 
ATOM     12  C   UNL A   1      33.668  24.893  24.750  1.00  0.00     0.028 A 
ATOM     13  O   UNL A   1      33.300  24.570  21.200  1.00  0.00    -0.246 OA
ATOM     14  N   UNL A   1      33.631  24.294  23.470  1.00  0.00    -0.293 N 
BRANCH   9  15
ATOM     15  C   UNL A   1      32.583  28.411  23.564  1.00  0.00     0.053 C 
ATOM     16  C   UNL A   1      31.642  28.868  22.468  1.00  0.00     0.011 C 
ENDBRANCH   9  15
BRANCH  12  17
ATOM     17  C   UNL A   1      34.171  24.069  25.939  1.00  0.00     0.051 C 
ATOM     18  C   UNL A   1      33.080  23.431  26.797  1.00  0.00     0.010 C 
ENDBRANCH  12  17
BRANCH  14  19
ATOM     19  C   UNL A   1      33.945  22.846  23.258  1.00  0.00     0.094 C 
BRANCH  19  20
ATOM     20  C   UNL A   1      35.321  22.442  23.860  1.00  0.00     0.022 C 
ATOM     21  C   UNL A   1      36.583  22.928  23.167  1.00  0.00     0.006 C 
ENDBRANCH  19  20
BRANCH  19  22
ATOM     22  C   UNL A   1      32.753  21.884  23.561  1.00  0.00     0.006 C 
ATOM     23  C   UNL A   1      32.134  21.351  22.260  1.00  0.00     0.009 C 
ATOM     24  C   UNL A   1      33.190  20.688  24.418  1.00  0.00     0.009 C 
ENDBRANCH  19  22
ENDBRANCH  14  19
ENDBRANCH   7   8
ENDBRANCH   4   7
ENDBRANCH   2   3
ENDBRANCH   1   2
BRANCH   1  25
ATOM     25  C   UNL A   1      31.524  31.960  27.154  1.00  0.00     0.023 C 
BRANCH  25  26
ATOM     26  C   UNL A   1      32.582  33.018  26.881  1.00  0.00     0.116 C 
BRANCH  26  27
ATOM     27  N   UNL A   1      32.460  34.202  27.723  1.00  0.00    -0.352 N 
ATOM     28  C   UNL A   1      33.305  34.602  28.735  1.00  0.00     0.251 C 
ATOM     29  H   UNL A   1      31.686  34.783  27.548  1.00  0.00     0.163 HD
ATOM     30  O   UNL A   1      33.044  35.569  29.439  1.00  0.00    -0.269 OA
BRANCH  28  31
ATOM     31  C   UNL A   1      34.508  33.787  28.993  1.00  0.00     0.039 A 
ATOM     32  C   UNL A   1      34.373  32.490  29.490  1.00  0.00     0.014 A 
ATOM     33  C   UNL A   1      35.763  34.390  28.898  1.00  0.00     0.014 A 
ATOM     34  C   UNL A   1      35.465  31.877  30.091  1.00  0.00     0.010 A 
ATOM     35  C   UNL A   1      36.877  33.728  29.413  1.00  0.00     0.010 A 
ATOM     36  C   UNL A   1      36.725  32.499  30.078  1.00  0.00    -0.014 A 
BRANCH  36  37
ATOM     37  C   UNL A   1      37.864  31.886  30.807  1.00  0.00     0.031 A 
ATOM     38  C   UNL A   1      38.702  30.818  30.155  1.00  0.00     0.074 A 
ATOM     39  C   UNL A   1      38.169  32.314  32.045  1.00  0.00     0.049 A 
ATOM     40  N   UNL A   1      39.680  30.106  30.661  1.00  0.00    -0.248 NA
ATOM     41  C   UNL A   1      38.403  30.506  28.748  1.00  0.00     0.031 C 
ATOM     42  C   UNL A   1      37.467  33.378  32.765  1.00  0.00     0.029 A 
ATOM     43  N   UNL A   1      39.154  31.917  32.912  1.00  0.00    -0.354 N 
ATOM     44  C   UNL A   1      40.093  29.251  29.646  1.00  0.00     0.074 A 
ATOM     45  C   UNL A   1      39.239  29.506  28.506  1.00  0.00     0.031 C 
ATOM     46  C   UNL A   1      38.067  33.575  33.947  1.00  0.00     0.029 A 
ATOM     47  C   UNL A   1      39.140  32.598  34.102  1.00  0.00     0.049 A 
ATOM     48  H   UNL A   1      39.807  31.211  32.701  1.00  0.00     0.167 HD
ATOM     49  C   UNL A   1      41.104  28.346  29.661  1.00  0.00     0.037 A 
ATOM     50  C   UNL A   1      39.886  32.437  35.209  1.00  0.00     0.037 A 
ATOM     51  C   UNL A   1      41.959  28.105  30.796  1.00  0.00     0.049 A 
ATOM     52  C   UNL A   1      40.935  31.363  35.234  1.00  0.00     0.074 A 
ATOM     53  C   UNL A   1      43.008  27.209  30.913  1.00  0.00     0.029 A 
ATOM     54  N   UNL A   1      41.864  28.767  32.013  1.00  0.00    -0.354 N 
ATOM     55  N   UNL A   1      41.304  30.541  34.281  1.00  0.00    -0.248 NA
ATOM     56  C   UNL A   1      41.666  31.188  36.496  1.00  0.00     0.031 C 
ATOM     57  C   UNL A   1      43.510  27.291  32.215  1.00  0.00     0.029 A 
ATOM     58  C   UNL A   1      42.819  28.281  32.895  1.00  0.00     0.049 A 
ATOM     59  H   UNL A   1      41.215  29.478  32.220  1.00  0.00     0.167 HD
ATOM     60  C   UNL A   1      42.318  29.762  34.820  1.00  0.00     0.074 A 
ATOM     61  C   UNL A   1      42.527  30.231  36.175  1.00  0.00     0.031 C 
ATOM     62  C   UNL A   1      43.010  28.747  34.246  1.00  0.00     0.037 A 
BRANCH  49  63
ATOM     63  C   UNL A   1      41.331  27.532  28.417  1.00  0.00     0.064 A 
ATOM     64  C   UNL A   1      40.558  26.398  28.125  1.00  0.00     0.173 A 
ATOM     65  C   UNL A   1      42.303  27.917  27.480  1.00  0.00     0.173 A 
ATOM     66  F   UNL A   1      39.623  25.976  28.989  1.00  0.00    -0.203 F 
ATOM     67  C   UNL A   1      40.770  25.664  26.959  1.00  0.00     0.198 A 
ATOM     68  C   UNL A   1      42.489  27.202  26.299  1.00  0.00     0.198 A 
ATOM     69  F   UNL A   1      43.067  28.998  27.703  1.00  0.00    -0.203 F 
ATOM     70  F   UNL A   1      40.053  24.555  26.727  1.00  0.00    -0.200 F 
ATOM     71  C   UNL A   1      41.728  26.071  26.043  1.00  0.00     0.200 A 
ATOM     72  F   UNL A   1      43.405  27.607  25.408  1.00  0.00    -0.200 F 
ATOM     73  F   UNL A   1      41.923  25.371  24.918  1.00  0.00    -0.200 F 
ENDBRANCH  49  63
BRANCH  50  74
ATOM     74  C   UNL A   1      39.659  33.324  36.379  1.00  0.00     0.064 A 
ATOM     75  C   UNL A   1      40.358  34.530  36.506  1.00  0.00     0.173 A 
ATOM     76  C   UNL A   1      38.712  33.009  37.365  1.00  0.00     0.173 A 
ATOM     77  F   UNL A   1      41.289  34.864  35.599  1.00  0.00    -0.203 F 
ATOM     78  C   UNL A   1      40.119  35.390  37.575  1.00  0.00     0.198 A 
ATOM     79  C   UNL A   1      38.450  33.883  38.416  1.00  0.00     0.198 A 
ATOM     80  F   UNL A   1      38.013  31.867  37.286  1.00  0.00    -0.203 F 
ATOM     81  F   UNL A   1      40.822  36.525  37.689  1.00  0.00    -0.200 F 
ATOM     82  C   UNL A   1      39.158  35.072  38.523  1.00  0.00     0.200 A 
ATOM     83  F   UNL A   1      37.506  33.582  39.317  1.00  0.00    -0.200 F 
ATOM     84  F   UNL A   1      38.913  35.910  39.538  1.00  0.00    -0.200 F 
ENDBRANCH  50  74
BRANCH  62  85
ATOM     85  C   UNL A   1      44.067  28.078  35.079  1.00  0.00     0.064 A 
ATOM     86  C   UNL A   1      43.785  26.934  35.843  1.00  0.00     0.173 A 
ATOM     87  C   UNL A   1      45.383  28.565  35.093  1.00  0.00     0.173 A 
ATOM     88  F   UNL A   1      42.540  26.435  35.878  1.00  0.00    -0.203 F 
ATOM     89  C   UNL A   1      44.771  26.325  36.614  1.00  0.00     0.198 A 
ATOM     90  C   UNL A   1      46.375  27.932  35.835  1.00  0.00     0.198 A 
ATOM     91  F   UNL A   1      45.709  29.650  34.375  1.00  0.00    -0.203 F 
ATOM     92  F   UNL A   1      44.464  25.270  37.381  1.00  0.00    -0.200 F 
ATOM     93  C   UNL A   1      46.067  26.819  36.603  1.00  0.00     0.200 A 
ATOM     94  F   UNL A   1      47.630  28.400  35.810  1.00  0.00    -0.200 F 
ATOM     95  F   UNL A   1      47.017  26.228  37.340  1.00  0.00    -0.200 F 
ENDBRANCH  62  85
ENDBRANCH  36  37
ENDBRANCH  28  31
ENDBRANCH  26  27
ENDBRANCH  25  26
ENDBRANCH   1  25
TORSDOF 17
ENDMDL
MODEL 2
REMARK VINA RESULT:     -11.3      5.119      9.506
REMARK SMILES CCc1nc(=O)n([C@@H](CC)C(C)C)c(CC)c1CC(=O)NCCCCNC(=O)c1ccc(-c2c3nc(c(-c4c(F)c(F)c(F)c(F)c4F)c4ccc([nH]4)c(-c4c(F)c(F)c(F)c(F)c4F)c4nc(c(-c5c(F)c(F)c(F)c(F)c5F)c5ccc2[nH]5)C=C4)C=C3)cc1
REMARK SMILES IDX 23 1 22 2 21 3 19 4 20 5 18 7 17 8 3 9 4 10 5 11 14 12 6 13
REMARK SMILES IDX 7 14 2 15 1 16 15 17 16 18 8 19 9 20 10 21 11 22 12 23 13 24
REMARK SMILES IDX 24 25 25 26 26 27 27 28 28 30 29 31 30 32 91 33 31 34 90 35
REMARK SMILES IDX 32 36 33 37 34 38 84 39 35 40 89 41 83 42 85 43 36 44 88 45
REMARK SMILES IDX 82 46 81 47 37 49 69 50 49 51 68 52 50 53 53 54 67 55 86 56
REMARK SMILES IDX 51 57 52 58 66 60 87 61 54 62 38 63 39 64 47 65 40 66 41 67
REMARK SMILES IDX 45 68 48 69 42 70 43 71 46 72 44 73 70 74 71 75 79 76 72 77
REMARK SMILES IDX 73 78 77 79 80 80 74 81 75 82 78 83 76 84 55 85 56 86 64 87
REMARK SMILES IDX 57 88 58 89 62 90 65 91 59 92 60 93 63 94 61 95
REMARK H PARENT 21 6 26 29 85 48 53 59
REMARK Flexibility Score: inf
ROOT
ATOM      1  C   UNL A   1      37.510  21.858  24.996  1.00  0.00     0.023 C 
ENDROOT
BRANCH   1   2
ATOM      2  C   UNL A   1      35.992  21.753  25.103  1.00  0.00     0.116 C 
BRANCH   2   3
ATOM      3  N   UNL A   1      35.326  22.149  23.883  1.00  0.00    -0.356 N 
ATOM      4  C   UNL A   1      34.851  23.382  23.544  1.00  0.00     0.224 C 
ATOM      5  O   UNL A   1      34.321  23.526  22.442  1.00  0.00    -0.275 OA
ATOM      6  H   UNL A   1      35.201  21.441  23.211  1.00  0.00     0.163 HD
BRANCH   4   7
ATOM      7  C   UNL A   1      35.029  24.557  24.506  1.00  0.00     0.139 C 
BRANCH   7   8
ATOM      8  C   UNL A   1      33.752  25.122  25.078  1.00  0.00     0.003 A 
ATOM      9  C   UNL A   1      33.105  24.476  26.266  1.00  0.00     0.051 A 
ATOM     10  N   UNL A   1      31.992  24.875  26.771  1.00  0.00    -0.198 NA
ATOM     11  C   UNL A   1      31.335  25.958  26.276  1.00  0.00     0.348 A 
ATOM     12  C   UNL A   1      33.105  26.218  24.598  1.00  0.00     0.028 A 
ATOM     13  O   UNL A   1      30.298  26.314  26.823  1.00  0.00    -0.246 OA
ATOM     14  N   UNL A   1      31.880  26.630  25.168  1.00  0.00    -0.293 N 
BRANCH   9  15
ATOM     15  C   UNL A   1      33.656  23.223  26.983  1.00  0.00     0.053 C 
ATOM     16  C   UNL A   1      32.717  22.365  27.806  1.00  0.00     0.011 C 
ENDBRANCH   9  15
BRANCH  12  17
ATOM     17  C   UNL A   1      33.727  27.066  23.484  1.00  0.00     0.051 C 
ATOM     18  C   UNL A   1      33.359  26.646  22.063  1.00  0.00     0.010 C 
ENDBRANCH  12  17
BRANCH  14  19
ATOM     19  C   UNL A   1      31.104  27.795  24.637  1.00  0.00     0.094 C 
BRANCH  19  20
ATOM     20  C   UNL A   1      31.932  29.112  24.643  1.00  0.00     0.022 C 
ATOM     21  C   UNL A   1      31.595  30.172  25.678  1.00  0.00     0.006 C 
ENDBRANCH  19  20
BRANCH  19  22
ATOM     22  C   UNL A   1      30.310  27.488  23.327  1.00  0.00     0.006 C 
ATOM     23  C   UNL A   1      28.973  26.802  23.646  1.00  0.00     0.009 C 
ATOM     24  C   UNL A   1      30.023  28.764  22.524  1.00  0.00     0.009 C 
ENDBRANCH  19  22
ENDBRANCH  14  19
ENDBRANCH   7   8
ENDBRANCH   4   7
ENDBRANCH   2   3
ENDBRANCH   1   2
BRANCH   1  25
ATOM     25  C   UNL A   1      38.226  20.518  25.138  1.00  0.00     0.023 C 
BRANCH  25  26
ATOM     26  C   UNL A   1      39.502  20.568  25.964  1.00  0.00     0.116 C 
BRANCH  26  27
ATOM     27  N   UNL A   1      40.291  19.344  25.902  1.00  0.00    -0.352 N 
ATOM     28  C   UNL A   1      41.651  19.212  26.082  1.00  0.00     0.251 C 
ATOM     29  H   UNL A   1      39.795  18.516  25.710  1.00  0.00     0.163 HD
ATOM     30  O   UNL A   1      42.216  18.139  25.910  1.00  0.00    -0.269 OA
BRANCH  28  31
ATOM     31  C   UNL A   1      42.422  20.422  26.426  1.00  0.00     0.039 A 
ATOM     32  C   UNL A   1      42.405  20.906  27.735  1.00  0.00     0.014 A 
ATOM     33  C   UNL A   1      43.014  21.158  25.399  1.00  0.00     0.014 A 
ATOM     34  C   UNL A   1      42.788  22.219  27.978  1.00  0.00     0.010 A 
ATOM     35  C   UNL A   1      43.491  22.441  25.668  1.00  0.00     0.010 A 
ATOM     36  C   UNL A   1      43.315  23.008  26.942  1.00  0.00    -0.014 A 
BRANCH  36  37
ATOM     37  C   UNL A   1      43.629  24.439  27.184  1.00  0.00     0.031 A 
ATOM     38  C   UNL A   1      45.012  24.973  26.913  1.00  0.00     0.074 A 
ATOM     39  C   UNL A   1      42.663  25.269  27.613  1.00  0.00     0.049 A 
ATOM     40  N   UNL A   1      45.499  26.168  27.143  1.00  0.00    -0.248 NA
ATOM     41  C   UNL A   1      45.976  24.043  26.305  1.00  0.00     0.031 C 
ATOM     42  C   UNL A   1      41.272  24.885  27.862  1.00  0.00     0.029 A 
ATOM     43  N   UNL A   1      42.698  26.608  27.906  1.00  0.00    -0.354 N 
ATOM     44  C   UNL A   1      46.826  26.125  26.732  1.00  0.00     0.074 A 
ATOM     45  C   UNL A   1      47.079  24.777  26.270  1.00  0.00     0.031 C 
ATOM     46  C   UNL A   1      40.579  25.971  28.233  1.00  0.00     0.029 A 
ATOM     47  C   UNL A   1      41.491  27.105  28.328  1.00  0.00     0.049 A 
ATOM     48  H   UNL A   1      43.510  27.158  27.824  1.00  0.00     0.167 HD
ATOM     49  C   UNL A   1      47.744  27.124  26.726  1.00  0.00     0.037 A 
ATOM     50  C   UNL A   1      41.159  28.331  28.771  1.00  0.00     0.037 A 
ATOM     51  C   UNL A   1      47.481  28.467  27.176  1.00  0.00     0.049 A 
ATOM     52  C   UNL A   1      42.217  29.394  28.845  1.00  0.00     0.074 A 
ATOM     53  C   UNL A   1      48.343  29.550  27.214  1.00  0.00     0.029 A 
ATOM     54  N   UNL A   1      46.261  28.914  27.667  1.00  0.00    -0.354 N 
ATOM     55  N   UNL A   1      43.475  29.339  28.478  1.00  0.00    -0.248 NA
ATOM     56  C   UNL A   1      41.809  30.688  29.406  1.00  0.00     0.031 C 
ATOM     57  C   UNL A   1      47.662  30.633  27.776  1.00  0.00     0.029 A 
ATOM     58  C   UNL A   1      46.356  30.249  28.033  1.00  0.00     0.049 A 
ATOM     59  H   UNL A   1      45.448  28.364  27.742  1.00  0.00     0.167 HD
ATOM     60  C   UNL A   1      44.006  30.592  28.749  1.00  0.00     0.074 A 
ATOM     61  C   UNL A   1      42.924  31.395  29.283  1.00  0.00     0.031 C 
ATOM     62  C   UNL A   1      45.276  31.035  28.575  1.00  0.00     0.037 A 
BRANCH  49  63
ATOM     63  C   UNL A   1      49.127  26.798  26.233  1.00  0.00     0.064 A 
ATOM     64  C   UNL A   1      50.092  26.218  27.071  1.00  0.00     0.173 A 
ATOM     65  C   UNL A   1      49.479  27.026  24.893  1.00  0.00     0.173 A 
ATOM     66  F   UNL A   1      49.815  25.989  28.364  1.00  0.00    -0.203 F 
ATOM     67  C   UNL A   1      51.364  25.907  26.595  1.00  0.00     0.198 A 
ATOM     68  C   UNL A   1      50.740  26.681  24.412  1.00  0.00     0.198 A 
ATOM     69  F   UNL A   1      48.595  27.571  24.045  1.00  0.00    -0.203 F 
ATOM     70  F   UNL A   1      52.285  25.401  27.428  1.00  0.00    -0.200 F 
ATOM     71  C   UNL A   1      51.685  26.130  25.264  1.00  0.00     0.200 A 
ATOM     72  F   UNL A   1      51.042  26.883  23.122  1.00  0.00    -0.200 F 
ATOM     73  F   UNL A   1      52.904  25.821  24.805  1.00  0.00    -0.200 F 
ENDBRANCH  49  63
BRANCH  50  74
ATOM     74  C   UNL A   1      39.756  28.606  29.173  1.00  0.00     0.064 A 
ATOM     75  C   UNL A   1      39.330  28.365  30.485  1.00  0.00     0.173 A 
ATOM     76  C   UNL A   1      38.829  29.155  28.274  1.00  0.00     0.173 A 
ATOM     77  F   UNL A   1      40.173  27.822  31.375  1.00  0.00    -0.203 F 
ATOM     78  C   UNL A   1      38.028  28.662  30.883  1.00  0.00     0.198 A 
ATOM     79  C   UNL A   1      37.539  29.481  28.681  1.00  0.00     0.198 A 
ATOM     80  F   UNL A   1      39.190  29.407  27.007  1.00  0.00    -0.203 F 
ATOM     81  F   UNL A   1      37.637  28.396  32.137  1.00  0.00    -0.200 F 
ATOM     82  C   UNL A   1      37.138  29.231  29.985  1.00  0.00     0.200 A 
ATOM     83  F   UNL A   1      36.689  30.049  27.815  1.00  0.00    -0.200 F 
ATOM     84  F   UNL A   1      35.894  29.537  30.375  1.00  0.00    -0.200 F 
ENDBRANCH  50  74
BRANCH  62  85
ATOM     85  C   UNL A   1      45.565  32.460  28.959  1.00  0.00     0.064 A 
ATOM     86  C   UNL A   1      46.033  32.795  30.239  1.00  0.00     0.173 A 
ATOM     87  C   UNL A   1      45.401  33.498  28.030  1.00  0.00     0.173 A 
ATOM     88  F   UNL A   1      46.193  31.842  31.171  1.00  0.00    -0.203 F 
ATOM     89  C   UNL A   1      46.294  34.118  30.584  1.00  0.00     0.198 A 
ATOM     90  C   UNL A   1      45.698  34.816  28.366  1.00  0.00     0.198 A 
ATOM     91  F   UNL A   1      44.964  33.234  26.789  1.00  0.00    -0.203 F 
ATOM     92  F   UNL A   1      46.683  34.420  31.830  1.00  0.00    -0.200 F 
ATOM     93  C   UNL A   1      46.135  35.126  29.644  1.00  0.00     0.200 A 
ATOM     94  F   UNL A   1      45.561  35.786  27.452  1.00  0.00    -0.200 F 
ATOM     95  F   UNL A   1      46.393  36.398  29.976  1.00  0.00    -0.200 F 
ENDBRANCH  62  85
ENDBRANCH  36  37
ENDBRANCH  28  31
ENDBRANCH  26  27
ENDBRANCH  25  26
ENDBRANCH   1  25
TORSDOF 17
ENDMDL
MODEL 3
REMARK VINA RESULT:     -11.1      5.303      9.646
REMARK SMILES CCc1nc(=O)n([C@@H](CC)C(C)C)c(CC)c1CC(=O)NCCCCNC(=O)c1ccc(-c2c3nc(c(-c4c(F)c(F)c(F)c(F)c4F)c4ccc([nH]4)c(-c4c(F)c(F)c(F)c(F)c4F)c4nc(c(-c5c(F)c(F)c(F)c(F)c5F)c5ccc2[nH]5)C=C4)C=C3)cc1
REMARK SMILES IDX 23 1 22 2 21 3 19 4 20 5 18 7 17 8 3 9 4 10 5 11 14 12 6 13
REMARK SMILES IDX 7 14 2 15 1 16 15 17 16 18 8 19 9 20 10 21 11 22 12 23 13 24
REMARK SMILES IDX 24 25 25 26 26 27 27 28 28 30 29 31 30 32 91 33 31 34 90 35
REMARK SMILES IDX 32 36 33 37 34 38 84 39 35 40 89 41 83 42 85 43 36 44 88 45
REMARK SMILES IDX 82 46 81 47 37 49 69 50 49 51 68 52 50 53 53 54 67 55 86 56
REMARK SMILES IDX 51 57 52 58 66 60 87 61 54 62 38 63 39 64 47 65 40 66 41 67
REMARK SMILES IDX 45 68 48 69 42 70 43 71 46 72 44 73 70 74 71 75 79 76 72 77
REMARK SMILES IDX 73 78 77 79 80 80 74 81 75 82 78 83 76 84 55 85 56 86 64 87
REMARK SMILES IDX 57 88 58 89 62 90 65 91 59 92 60 93 63 94 61 95
REMARK H PARENT 21 6 26 29 85 48 53 59
REMARK Flexibility Score: inf
ROOT
ATOM      1  C   UNL A   1      37.529  21.714  25.239  1.00  0.00     0.023 C 
ENDROOT
BRANCH   1   2
ATOM      2  C   UNL A   1      36.034  21.414  25.193  1.00  0.00     0.116 C 
BRANCH   2   3
ATOM      3  N   UNL A   1      35.417  21.498  26.497  1.00  0.00    -0.356 N 
ATOM      4  C   UNL A   1      34.131  21.838  26.801  1.00  0.00     0.224 C 
ATOM      5  O   UNL A   1      33.786  21.839  27.982  1.00  0.00    -0.275 OA
ATOM      6  H   UNL A   1      35.996  21.281  27.262  1.00  0.00     0.163 HD
BRANCH   4   7
ATOM      7  C   UNL A   1      33.143  22.157  25.678  1.00  0.00     0.139 C 
BRANCH   7   8
ATOM      8  C   UNL A   1      32.473  23.507  25.773  1.00  0.00     0.003 A 
ATOM      9  C   UNL A   1      31.150  23.646  26.462  1.00  0.00     0.051 A 
ATOM     10  N   UNL A   1      30.501  24.754  26.533  1.00  0.00    -0.198 NA
ATOM     11  C   UNL A   1      31.003  25.906  26.013  1.00  0.00     0.348 A 
ATOM     12  C   UNL A   1      32.984  24.663  25.272  1.00  0.00     0.028 A 
ATOM     13  O   UNL A   1      30.358  26.939  26.145  1.00  0.00    -0.246 OA
ATOM     14  N   UNL A   1      32.247  25.865  25.359  1.00  0.00    -0.293 N 
BRANCH   9  15
ATOM     15  C   UNL A   1      30.377  22.475  27.109  1.00  0.00     0.053 C 
ATOM     16  C   UNL A   1      28.893  22.621  27.376  1.00  0.00     0.011 C 
ENDBRANCH   9  15
BRANCH  12  17
ATOM     17  C   UNL A   1      34.394  24.699  24.674  1.00  0.00     0.051 C 
ATOM     18  C   UNL A   1      34.498  24.239  23.222  1.00  0.00     0.010 C 
ENDBRANCH  12  17
BRANCH  14  19
ATOM     19  C   UNL A   1      32.744  27.150  24.772  1.00  0.00     0.094 C 
BRANCH  19  20
ATOM     20  C   UNL A   1      32.005  27.525  23.455  1.00  0.00     0.022 C 
ATOM     21  C   UNL A   1      31.656  26.412  22.481  1.00  0.00     0.006 C 
ENDBRANCH  19  20
BRANCH  19  22
ATOM     22  C   UNL A   1      32.920  28.301  25.812  1.00  0.00     0.006 C 
ATOM     23  C   UNL A   1      34.269  28.180  26.539  1.00  0.00     0.009 C 
ATOM     24  C   UNL A   1      32.846  29.683  25.150  1.00  0.00     0.009 C 
ENDBRANCH  19  22
ENDBRANCH  14  19
ENDBRANCH   7   8
ENDBRANCH   4   7
ENDBRANCH   2   3
ENDBRANCH   1   2
BRANCH   1  25
ATOM     25  C   UNL A   1      38.405  20.469  25.138  1.00  0.00     0.023 C 
BRANCH  25  26
ATOM     26  C   UNL A   1      39.661  20.511  25.995  1.00  0.00     0.116 C 
BRANCH  26  27
ATOM     27  N   UNL A   1      40.444  19.282  25.950  1.00  0.00    -0.352 N 
ATOM     28  C   UNL A   1      41.804  19.146  26.128  1.00  0.00     0.251 C 
ATOM     29  H   UNL A   1      39.944  18.454  25.771  1.00  0.00     0.163 HD
ATOM     30  O   UNL A   1      42.364  18.069  25.970  1.00  0.00    -0.269 OA
BRANCH  28  31
ATOM     31  C   UNL A   1      42.582  20.358  26.451  1.00  0.00     0.039 A 
ATOM     32  C   UNL A   1      42.535  20.888  27.742  1.00  0.00     0.014 A 
ATOM     33  C   UNL A   1      43.213  21.050  25.416  1.00  0.00     0.014 A 
ATOM     34  C   UNL A   1      42.929  22.203  27.949  1.00  0.00     0.010 A 
ATOM     35  C   UNL A   1      43.699  22.335  25.654  1.00  0.00     0.010 A 
ATOM     36  C   UNL A   1      43.496  22.948  26.902  1.00  0.00    -0.014 A 
BRANCH  36  37
ATOM     37  C   UNL A   1      43.823  24.383  27.103  1.00  0.00     0.031 A 
ATOM     38  C   UNL A   1      45.209  24.898  26.817  1.00  0.00     0.074 A 
ATOM     39  C   UNL A   1      42.863  25.233  27.509  1.00  0.00     0.049 A 
ATOM     40  N   UNL A   1      45.707  26.094  27.013  1.00  0.00    -0.248 NA
ATOM     41  C   UNL A   1      46.165  23.942  26.235  1.00  0.00     0.031 C 
ATOM     42  C   UNL A   1      41.469  24.869  27.769  1.00  0.00     0.029 A 
ATOM     43  N   UNL A   1      42.910  26.580  27.764  1.00  0.00    -0.354 N 
ATOM     44  C   UNL A   1      47.033  26.027  26.603  1.00  0.00     0.074 A 
ATOM     45  C   UNL A   1      47.275  24.665  26.179  1.00  0.00     0.031 C 
ATOM     46  C   UNL A   1      40.786  25.971  28.108  1.00  0.00     0.029 A 
ATOM     47  C   UNL A   1      41.708  27.100  28.171  1.00  0.00     0.049 A 
ATOM     48  H   UNL A   1      43.727  27.120  27.665  1.00  0.00     0.167 HD
ATOM     49  C   UNL A   1      47.960  27.018  26.568  1.00  0.00     0.037 A 
ATOM     50  C   UNL A   1      41.387  28.340  28.579  1.00  0.00     0.037 A 
ATOM     51  C   UNL A   1      47.709  28.376  26.979  1.00  0.00     0.049 A 
ATOM     52  C   UNL A   1      42.454  29.396  28.622  1.00  0.00     0.074 A 
ATOM     53  C   UNL A   1      48.581  29.452  26.986  1.00  0.00     0.029 A 
ATOM     54  N   UNL A   1      46.493  28.847  27.458  1.00  0.00    -0.354 N 
ATOM     55  N   UNL A   1      43.711  29.319  28.257  1.00  0.00    -0.248 NA
ATOM     56  C   UNL A   1      42.058  30.709  29.147  1.00  0.00     0.031 C 
ATOM     57  C   UNL A   1      47.909  30.557  27.518  1.00  0.00     0.029 A 
ATOM     58  C   UNL A   1      46.600  30.191  27.786  1.00  0.00     0.049 A 
ATOM     59  H   UNL A   1      45.675  28.307  27.549  1.00  0.00     0.167 HD
ATOM     60  C   UNL A   1      44.253  30.575  28.492  1.00  0.00     0.074 A 
ATOM     61  C   UNL A   1      43.179  31.402  29.003  1.00  0.00     0.031 C 
ATOM     62  C   UNL A   1      45.527  31.002  28.305  1.00  0.00     0.037 A 
BRANCH  49  63
ATOM     63  C   UNL A   1      49.340  26.666  26.085  1.00  0.00     0.064 A 
ATOM     64  C   UNL A   1      49.740  26.896  24.759  1.00  0.00     0.173 A 
ATOM     65  C   UNL A   1      50.291  26.133  26.969  1.00  0.00     0.173 A 
ATOM     66  F   UNL A   1      48.869  27.392  23.867  1.00  0.00    -0.203 F 
ATOM     67  C   UNL A   1      51.027  26.580  24.331  1.00  0.00     0.198 A 
ATOM     68  C   UNL A   1      51.588  25.850  26.546  1.00  0.00     0.198 A 
ATOM     69  F   UNL A   1      49.967  25.898  28.249  1.00  0.00    -0.203 F 
ATOM     70  F   UNL A   1      51.369  26.762  23.048  1.00  0.00    -0.200 F 
ATOM     71  C   UNL A   1      51.953  26.066  25.226  1.00  0.00     0.200 A 
ATOM     72  F   UNL A   1      52.486  25.369  27.417  1.00  0.00    -0.200 F 
ATOM     73  F   UNL A   1      53.194  25.772  24.816  1.00  0.00    -0.200 F 
ENDBRANCH  49  63
BRANCH  50  74
ATOM     74  C   UNL A   1      39.987  28.639  28.973  1.00  0.00     0.064 A 
ATOM     75  C   UNL A   1      39.071  29.134  28.036  1.00  0.00     0.173 A 
ATOM     76  C   UNL A   1      39.524  28.397  30.276  1.00  0.00     0.173 A 
ATOM     77  F   UNL A   1      39.472  29.401  26.785  1.00  0.00    -0.203 F 
ATOM     78  C   UNL A   1      37.744  29.374  28.386  1.00  0.00     0.198 A 
ATOM     79  C   UNL A   1      38.191  28.607  30.616  1.00  0.00     0.198 A 
ATOM     80  F   UNL A   1      40.361  27.920  31.209  1.00  0.00    -0.203 F 
ATOM     81  F   UNL A   1      36.895  29.873  27.478  1.00  0.00    -0.200 F 
ATOM     82  C   UNL A   1      37.302  29.100  29.672  1.00  0.00     0.200 A 
ATOM     83  F   UNL A   1      37.763  28.321  31.853  1.00  0.00    -0.200 F 
ATOM     84  F   UNL A   1      36.021  29.310  30.001  1.00  0.00    -0.200 F 
ENDBRANCH  50  74
BRANCH  62  85
ATOM     85  C   UNL A   1      45.828  32.434  28.648  1.00  0.00     0.064 A 
ATOM     86  C   UNL A   1      46.293  32.803  29.921  1.00  0.00     0.173 A 
ATOM     87  C   UNL A   1      45.681  33.446  27.687  1.00  0.00     0.173 A 
ATOM     88  F   UNL A   1      46.438  31.877  30.881  1.00  0.00    -0.203 F 
ATOM     89  C   UNL A   1      46.565  34.133  30.227  1.00  0.00     0.198 A 
ATOM     90  C   UNL A   1      45.990  34.770  27.986  1.00  0.00     0.198 A 
ATOM     91  F   UNL A   1      45.248  33.150  26.453  1.00  0.00    -0.203 F 
ATOM     92  F   UNL A   1      46.951  34.468  31.466  1.00  0.00    -0.200 F 
ATOM     93  C   UNL A   1      46.422  35.114  29.257  1.00  0.00     0.200 A 
ATOM     94  F   UNL A   1      45.867  35.714  27.043  1.00  0.00    -0.200 F 
ATOM     95  F   UNL A   1      46.692  36.393  29.552  1.00  0.00    -0.200 F 
ENDBRANCH  62  85
ENDBRANCH  36  37
ENDBRANCH  28  31
ENDBRANCH  26  27
ENDBRANCH  25  26
ENDBRANCH   1  25
TORSDOF 17
ENDMDL
