MODEL 1
REMARK VINA RESULT:     -12.1      0.000      0.000
REMARK SMILES O=C(NCCCCNC(=O)c1cn(C2C[NH+](CC(F)(F)F)C2)nn1)c1ccc(-c2c3nc(c(-c4c(F)c(F)c(F)c(F)c4F)c4ccc([nH]4)c(-c4c(F)c(F)c(F)c(F)c4F)c4nc(c(-c5c(F)c(F)c(F)c(F)c5F)c5ccc2[nH]5)C=C4)C=C3)cc1
REMARK SMILES IDX 6 1 5 2 4 3 3 4 1 5 2 6 25 8 26 9 87 10 27 11 86 12 28 13
REMARK SMILES IDX 29 14 30 15 80 16 31 17 85 18 79 19 81 20 32 21 84 22 78 23
REMARK SMILES IDX 77 24 33 26 65 27 45 28 64 29 46 30 49 31 63 32 82 33 47 34
REMARK SMILES IDX 48 35 62 37 83 38 50 39 34 40 35 41 43 42 36 43 37 44 41 45
REMARK SMILES IDX 44 46 38 47 39 48 42 49 40 50 66 51 67 52 75 53 68 54 69 55
REMARK SMILES IDX 73 56 76 57 70 58 71 59 74 60 72 61 51 62 52 63 60 64 53 65
REMARK SMILES IDX 54 66 58 67 61 68 55 69 56 70 59 71 57 72 7 73 8 74 9 75
REMARK SMILES IDX 10 77 11 78 12 79 24 80 13 81 23 82 14 83 15 84 22 85 16 86
REMARK SMILES IDX 17 88 18 89 19 90 20 91 21 92
REMARK H PARENT 3 7 81 25 49 36 8 76 16 87
REMARK Flexibility Score: inf
ROOT
ATOM      1  C   UNL A   1      34.457  35.953  28.364  1.00  0.00     0.023 C 
ENDROOT
BRANCH   1   2
ATOM      2  C   UNL A   1      35.216  34.637  28.554  1.00  0.00     0.023 C 
BRANCH   2   3
ATOM      3  C   UNL A   1      34.437  33.540  29.277  1.00  0.00     0.116 C 
BRANCH   3   4
ATOM      4  N   UNL A   1      34.005  32.446  28.432  1.00  0.00    -0.352 N 
ATOM      5  O   UNL A   1      33.792  30.470  27.465  1.00  0.00    -0.269 OA
ATOM      6  C   UNL A   1      34.526  31.224  28.108  1.00  0.00     0.251 C 
ATOM      7  H   UNL A   1      33.142  32.622  27.994  1.00  0.00     0.163 HD
BRANCH   6   8
ATOM      8  C   UNL A   1      35.915  30.786  28.404  1.00  0.00     0.039 A 
ATOM      9  C   UNL A   1      36.919  31.575  28.968  1.00  0.00     0.014 A 
ATOM     10  C   UNL A   1      36.218  29.456  28.056  1.00  0.00     0.014 A 
ATOM     11  C   UNL A   1      38.216  31.083  29.089  1.00  0.00     0.010 A 
ATOM     12  C   UNL A   1      37.504  28.953  28.192  1.00  0.00     0.010 A 
ATOM     13  C   UNL A   1      38.511  29.782  28.675  1.00  0.00    -0.014 A 
BRANCH  13  14
ATOM     14  C   UNL A   1      39.855  29.264  28.912  1.00  0.00     0.031 A 
ATOM     15  C   UNL A   1      40.201  29.060  30.352  1.00  0.00     0.074 A 
ATOM     16  C   UNL A   1      40.665  28.839  27.922  1.00  0.00     0.049 A 
ATOM     17  N   UNL A   1      41.189  29.561  31.021  1.00  0.00    -0.248 NA
ATOM     18  C   UNL A   1      39.272  28.263  31.170  1.00  0.00     0.031 C 
ATOM     19  C   UNL A   1      40.344  28.696  26.499  1.00  0.00     0.029 A 
ATOM     20  N   UNL A   1      41.929  28.334  28.001  1.00  0.00    -0.354 N 
ATOM     21  C   UNL A   1      41.100  29.023  32.306  1.00  0.00     0.074 A 
ATOM     22  C   UNL A   1      39.839  28.334  32.375  1.00  0.00     0.031 C 
ATOM     23  C   UNL A   1      41.293  27.938  25.903  1.00  0.00     0.029 A 
ATOM     24  C   UNL A   1      42.343  27.651  26.864  1.00  0.00     0.049 A 
ATOM     25  H   UNL A   1      42.500  28.444  28.796  1.00  0.00     0.167 HD
ATOM     26  C   UNL A   1      42.164  29.016  33.156  1.00  0.00     0.037 A 
ATOM     27  C   UNL A   1      43.433  26.850  26.751  1.00  0.00     0.037 A 
ATOM     28  C   UNL A   1      43.165  29.966  32.755  1.00  0.00     0.049 A 
ATOM     29  C   UNL A   1      44.351  27.173  27.871  1.00  0.00     0.074 A 
ATOM     30  C   UNL A   1      43.209  31.339  32.621  1.00  0.00     0.029 A 
ATOM     31  N   UNL A   1      44.272  29.495  32.096  1.00  0.00    -0.354 N 
ATOM     32  N   UNL A   1      45.005  28.295  27.978  1.00  0.00    -0.248 NA
ATOM     33  C   UNL A   1      44.206  26.411  29.102  1.00  0.00     0.031 C 
ATOM     34  C   UNL A   1      44.044  31.573  31.490  1.00  0.00     0.029 A 
ATOM     35  C   UNL A   1      44.497  30.333  31.038  1.00  0.00     0.049 A 
ATOM     36  H   UNL A   1      44.804  28.703  32.339  1.00  0.00     0.167 HD
ATOM     37  C   UNL A   1      44.965  28.591  29.331  1.00  0.00     0.074 A 
ATOM     38  C   UNL A   1      44.546  27.354  29.983  1.00  0.00     0.031 C 
ATOM     39  C   UNL A   1      45.002  29.885  29.764  1.00  0.00     0.037 A 
BRANCH  26  40
ATOM     40  C   UNL A   1      42.471  27.911  34.138  1.00  0.00     0.064 A 
ATOM     41  C   UNL A   1      43.032  26.705  33.665  1.00  0.00     0.173 A 
ATOM     42  C   UNL A   1      41.942  27.864  35.445  1.00  0.00     0.173 A 
ATOM     43  F   UNL A   1      43.552  26.631  32.431  1.00  0.00    -0.203 F 
ATOM     44  C   UNL A   1      42.978  25.524  34.410  1.00  0.00     0.198 A 
ATOM     45  C   UNL A   1      41.939  26.695  36.206  1.00  0.00     0.198 A 
ATOM     46  F   UNL A   1      41.305  28.905  35.993  1.00  0.00    -0.203 F 
ATOM     47  F   UNL A   1      43.399  24.374  33.864  1.00  0.00    -0.200 F 
ATOM     48  C   UNL A   1      42.423  25.518  35.676  1.00  0.00     0.200 A 
ATOM     49  F   UNL A   1      41.379  26.704  37.424  1.00  0.00    -0.200 F 
ATOM     50  F   UNL A   1      42.306  24.375  36.363  1.00  0.00    -0.200 F 
ENDBRANCH  26  40
BRANCH  27  51
ATOM     51  C   UNL A   1      43.596  25.618  25.940  1.00  0.00     0.064 A 
ATOM     52  C   UNL A   1      44.807  25.329  25.287  1.00  0.00     0.173 A 
ATOM     53  C   UNL A   1      42.666  24.563  26.026  1.00  0.00     0.173 A 
ATOM     54  F   UNL A   1      45.768  26.261  25.205  1.00  0.00    -0.203 F 
ATOM     55  C   UNL A   1      45.079  24.056  24.773  1.00  0.00     0.198 A 
ATOM     56  C   UNL A   1      42.936  23.296  25.505  1.00  0.00     0.198 A 
ATOM     57  F   UNL A   1      41.519  24.712  26.702  1.00  0.00    -0.203 F 
ATOM     58  F   UNL A   1      46.271  23.800  24.215  1.00  0.00    -0.200 F 
ATOM     59  C   UNL A   1      44.148  23.038  24.892  1.00  0.00     0.200 A 
ATOM     60  F   UNL A   1      42.040  22.310  25.663  1.00  0.00    -0.200 F 
ATOM     61  F   UNL A   1      44.431  21.802  24.457  1.00  0.00    -0.200 F 
ENDBRANCH  27  51
BRANCH  39  62
ATOM     62  C   UNL A   1      45.363  30.948  28.767  1.00  0.00     0.064 A 
ATOM     63  C   UNL A   1      44.438  31.561  27.903  1.00  0.00     0.173 A 
ATOM     64  C   UNL A   1      46.665  31.462  28.790  1.00  0.00     0.173 A 
ATOM     65  F   UNL A   1      43.150  31.198  27.897  1.00  0.00    -0.203 F 
ATOM     66  C   UNL A   1      44.819  32.611  27.069  1.00  0.00     0.198 A 
ATOM     67  C   UNL A   1      47.032  32.535  27.985  1.00  0.00     0.198 A 
ATOM     68  F   UNL A   1      47.574  30.952  29.637  1.00  0.00    -0.203 F 
ATOM     69  F   UNL A   1      43.922  33.173  26.244  1.00  0.00    -0.200 F 
ATOM     70  C   UNL A   1      46.113  33.102  27.116  1.00  0.00     0.200 A 
ATOM     71  F   UNL A   1      48.270  33.040  28.073  1.00  0.00    -0.200 F 
ATOM     72  F   UNL A   1      46.467  34.140  26.347  1.00  0.00    -0.200 F 
ENDBRANCH  39  62
ENDBRANCH  13  14
ENDBRANCH   6   8
ENDBRANCH   3   4
ENDBRANCH   2   3
ENDBRANCH   1   2
BRANCH   1  73
ATOM     73  C   UNL A   1      33.153  36.080  29.146  1.00  0.00     0.116 C 
BRANCH  73  74
ATOM     74  N   UNL A   1      33.181  37.178  30.094  1.00  0.00    -0.351 N 
ATOM     75  C   UNL A   1      33.280  37.136  31.469  1.00  0.00     0.273 C 
ATOM     76  H   UNL A   1      33.121  38.079  29.701  1.00  0.00     0.163 HD
ATOM     77  O   UNL A   1      33.116  38.173  32.099  1.00  0.00    -0.267 OA
BRANCH  75  78
ATOM     78  C   UNL A   1      33.579  35.864  32.103  1.00  0.00     0.170 A 
ATOM     79  C   UNL A   1      34.804  35.367  32.506  1.00  0.00     0.145 A 
ATOM     80  N   UNL A   1      32.605  34.954  32.424  1.00  0.00    -0.125 NA
ATOM     81  N   UNL A   1      34.511  34.135  33.012  1.00  0.00    -0.237 N 
ATOM     82  N   UNL A   1      33.191  33.891  32.955  1.00  0.00    -0.066 NA
BRANCH  81  83
ATOM     83  C   UNL A   1      35.408  33.163  33.556  1.00  0.00     0.218 C 
ATOM     84  C   UNL A   1      36.771  33.060  32.830  1.00  0.00     0.296 C 
ATOM     85  C   UNL A   1      36.250  33.672  34.751  1.00  0.00     0.296 C 
ATOM     86  N   UNL A   1      37.460  33.092  34.136  1.00  0.00    -0.323 N 
ATOM     87  H   UNL A   1      38.367  33.549  34.231  1.00  0.00     0.348 HD
BRANCH  86  88
ATOM     88  C   UNL A   1      37.780  31.734  34.664  1.00  0.00     0.379 C 
BRANCH  88  89
ATOM     89  C   UNL A   1      39.136  31.343  35.291  1.00  0.00     0.438 C 
ATOM     90  F   UNL A   1      40.145  31.440  34.397  1.00  0.00    -0.165 F 
ATOM     91  F   UNL A   1      39.433  32.164  36.325  1.00  0.00    -0.165 F 
ATOM     92  F   UNL A   1      39.125  30.081  35.772  1.00  0.00    -0.165 F 
ENDBRANCH  88  89
ENDBRANCH  86  88
ENDBRANCH  81  83
ENDBRANCH  75  78
ENDBRANCH  73  74
ENDBRANCH   1  73
TORSDOF 14
ENDMDL
MODEL 2
REMARK VINA RESULT:     -11.8      4.290      7.159
REMARK SMILES O=C(NCCCCNC(=O)c1cn(C2C[NH+](CC(F)(F)F)C2)nn1)c1ccc(-c2c3nc(c(-c4c(F)c(F)c(F)c(F)c4F)c4ccc([nH]4)c(-c4c(F)c(F)c(F)c(F)c4F)c4nc(c(-c5c(F)c(F)c(F)c(F)c5F)c5ccc2[nH]5)C=C4)C=C3)cc1
REMARK SMILES IDX 6 1 5 2 4 3 3 4 1 5 2 6 25 8 26 9 87 10 27 11 86 12 28 13
REMARK SMILES IDX 29 14 30 15 80 16 31 17 85 18 79 19 81 20 32 21 84 22 78 23
REMARK SMILES IDX 77 24 33 26 65 27 45 28 64 29 46 30 49 31 63 32 82 33 47 34
REMARK SMILES IDX 48 35 62 37 83 38 50 39 34 40 35 41 43 42 36 43 37 44 41 45
REMARK SMILES IDX 44 46 38 47 39 48 42 49 40 50 66 51 67 52 75 53 68 54 69 55
REMARK SMILES IDX 73 56 76 57 70 58 71 59 74 60 72 61 51 62 52 63 60 64 53 65
REMARK SMILES IDX 54 66 58 67 61 68 55 69 56 70 59 71 57 72 7 73 8 74 9 75
REMARK SMILES IDX 10 77 11 78 12 79 24 80 13 81 23 82 14 83 15 84 22 85 16 86
REMARK SMILES IDX 17 88 18 89 19 90 20 91 21 92
REMARK H PARENT 3 7 81 25 49 36 8 76 16 87
REMARK Flexibility Score: inf
ROOT
ATOM      1  C   UNL A   1      33.476  27.422  26.481  1.00  0.00     0.023 C 
ENDROOT
BRANCH   1   2
ATOM      2  C   UNL A   1      32.832  28.713  26.995  1.00  0.00     0.023 C 
BRANCH   2   3
ATOM      3  C   UNL A   1      33.459  30.002  26.468  1.00  0.00     0.116 C 
BRANCH   3   4
ATOM      4  N   UNL A   1      33.582  31.061  27.448  1.00  0.00    -0.352 N 
ATOM      5  O   UNL A   1      34.384  32.585  28.834  1.00  0.00    -0.269 OA
ATOM      6  C   UNL A   1      34.611  31.548  28.206  1.00  0.00     0.251 C 
ATOM      7  H   UNL A   1      32.736  31.537  27.603  1.00  0.00     0.163 HD
BRANCH   6   8
ATOM      8  C   UNL A   1      35.928  30.882  28.382  1.00  0.00     0.039 A 
ATOM      9  C   UNL A   1      36.185  29.521  28.210  1.00  0.00     0.014 A 
ATOM     10  C   UNL A   1      36.986  31.724  28.774  1.00  0.00     0.014 A 
ATOM     11  C   UNL A   1      37.438  28.997  28.518  1.00  0.00     0.010 A 
ATOM     12  C   UNL A   1      38.242  31.212  29.064  1.00  0.00     0.010 A 
ATOM     13  C   UNL A   1      38.456  29.840  28.970  1.00  0.00    -0.014 A 
BRANCH  13  14
ATOM     14  C   UNL A   1      39.785  29.275  29.184  1.00  0.00     0.031 A 
ATOM     15  C   UNL A   1      40.139  29.037  30.615  1.00  0.00     0.074 A 
ATOM     16  C   UNL A   1      40.569  28.840  28.177  1.00  0.00     0.049 A 
ATOM     17  N   UNL A   1      41.151  29.494  31.281  1.00  0.00    -0.248 NA
ATOM     18  C   UNL A   1      39.194  28.257  31.432  1.00  0.00     0.031 C 
ATOM     19  C   UNL A   1      40.228  28.731  26.756  1.00  0.00     0.029 A 
ATOM     20  N   UNL A   1      41.817  28.293  28.233  1.00  0.00    -0.354 N 
ATOM     21  C   UNL A   1      41.058  28.939  32.558  1.00  0.00     0.074 A 
ATOM     22  C   UNL A   1      39.776  28.290  32.631  1.00  0.00     0.031 C 
ATOM     23  C   UNL A   1      41.145  27.953  26.137  1.00  0.00     0.029 A 
ATOM     24  C   UNL A   1      42.196  27.615  27.082  1.00  0.00     0.049 A 
ATOM     25  H   UNL A   1      42.399  28.371  29.024  1.00  0.00     0.167 HD
ATOM     26  C   UNL A   1      42.131  28.883  33.395  1.00  0.00     0.037 A 
ATOM     27  C   UNL A   1      43.258  26.781  26.943  1.00  0.00     0.037 A 
ATOM     28  C   UNL A   1      43.158  29.806  32.998  1.00  0.00     0.049 A 
ATOM     29  C   UNL A   1      44.198  27.056  28.057  1.00  0.00     0.074 A 
ATOM     30  C   UNL A   1      43.246  31.179  32.886  1.00  0.00     0.029 A 
ATOM     31  N   UNL A   1      44.241  29.310  32.319  1.00  0.00    -0.354 N 
ATOM     32  N   UNL A   1      44.889  28.155  28.175  1.00  0.00    -0.248 NA
ATOM     33  C   UNL A   1      44.041  26.279  29.277  1.00  0.00     0.031 C 
ATOM     34  C   UNL A   1      44.075  31.404  31.749  1.00  0.00     0.029 A 
ATOM     35  C   UNL A   1      44.483  30.158  31.272  1.00  0.00     0.049 A 
ATOM     36  H   UNL A   1      44.750  28.498  32.543  1.00  0.00     0.167 HD
ATOM     37  C   UNL A   1      44.874  28.430  29.533  1.00  0.00     0.074 A 
ATOM     38  C   UNL A   1      44.422  27.197  30.170  1.00  0.00     0.031 C 
ATOM     39  C   UNL A   1      44.958  29.714  29.986  1.00  0.00     0.037 A 
BRANCH  26  40
ATOM     40  C   UNL A   1      42.412  27.753  34.357  1.00  0.00     0.064 A 
ATOM     41  C   UNL A   1      42.981  26.558  33.867  1.00  0.00     0.173 A 
ATOM     42  C   UNL A   1      41.852  27.674  35.649  1.00  0.00     0.173 A 
ATOM     43  F   UNL A   1      43.530  26.514  32.644  1.00  0.00    -0.203 F 
ATOM     44  C   UNL A   1      42.907  25.358  34.580  1.00  0.00     0.198 A 
ATOM     45  C   UNL A   1      41.828  26.487  36.380  1.00  0.00     0.198 A 
ATOM     46  F   UNL A   1      41.205  28.703  36.208  1.00  0.00    -0.203 F 
ATOM     47  F   UNL A   1      43.339  24.222  34.015  1.00  0.00    -0.200 F 
ATOM     48  C   UNL A   1      42.322  25.322  35.832  1.00  0.00     0.200 A 
ATOM     49  F   UNL A   1      41.240  26.467  37.585  1.00  0.00    -0.200 F 
ATOM     50  F   UNL A   1      42.187  24.162  36.487  1.00  0.00    -0.200 F 
ENDBRANCH  26  40
BRANCH  27  51
ATOM     51  C   UNL A   1      43.371  25.558  26.111  1.00  0.00     0.064 A 
ATOM     52  C   UNL A   1      44.509  25.315  25.323  1.00  0.00     0.173 A 
ATOM     53  C   UNL A   1      42.495  24.470  26.295  1.00  0.00     0.173 A 
ATOM     54  F   UNL A   1      45.421  26.281  25.138  1.00  0.00    -0.203 F 
ATOM     55  C   UNL A   1      44.766  24.054  24.773  1.00  0.00     0.198 A 
ATOM     56  C   UNL A   1      42.749  23.215  25.738  1.00  0.00     0.198 A 
ATOM     57  F   UNL A   1      41.428  24.575  27.098  1.00  0.00    -0.203 F 
ATOM     58  F   UNL A   1      45.896  23.842  24.082  1.00  0.00    -0.200 F 
ATOM     59  C   UNL A   1      43.892  23.002  24.990  1.00  0.00     0.200 A 
ATOM     60  F   UNL A   1      41.913  22.197  25.990  1.00  0.00    -0.200 F 
ATOM     61  F   UNL A   1      44.168  21.779  24.517  1.00  0.00    -0.200 F 
ENDBRANCH  27  51
BRANCH  39  62
ATOM     62  C   UNL A   1      45.342  30.781  29.001  1.00  0.00     0.064 A 
ATOM     63  C   UNL A   1      44.428  31.445  28.165  1.00  0.00     0.173 A 
ATOM     64  C   UNL A   1      46.663  31.245  29.012  1.00  0.00     0.173 A 
ATOM     65  F   UNL A   1      43.126  31.130  28.174  1.00  0.00    -0.203 F 
ATOM     66  C   UNL A   1      44.834  32.494  27.342  1.00  0.00     0.198 A 
ATOM     67  C   UNL A   1      47.058  32.318  28.219  1.00  0.00     0.198 A 
ATOM     68  F   UNL A   1      47.566  30.685  29.834  1.00  0.00    -0.203 F 
ATOM     69  F   UNL A   1      43.946  33.105  26.543  1.00  0.00    -0.200 F 
ATOM     70  C   UNL A   1      46.146  32.935  27.377  1.00  0.00     0.200 A 
ATOM     71  F   UNL A   1      48.316  32.774  28.295  1.00  0.00    -0.200 F 
ATOM     72  F   UNL A   1      46.527  33.973  26.620  1.00  0.00    -0.200 F 
ENDBRANCH  39  62
ENDBRANCH  13  14
ENDBRANCH   6   8
ENDBRANCH   3   4
ENDBRANCH   2   3
ENDBRANCH   1   2
BRANCH   1  73
ATOM     73  C   UNL A   1      32.875  26.851  25.200  1.00  0.00     0.116 C 
BRANCH  73  74
ATOM     74  N   UNL A   1      31.424  26.858  25.219  1.00  0.00    -0.351 N 
ATOM     75  C   UNL A   1      30.553  25.807  25.414  1.00  0.00     0.273 C 
ATOM     76  H   UNL A   1      31.002  27.736  25.071  1.00  0.00     0.163 HD
ATOM     77  O   UNL A   1      29.358  25.995  25.225  1.00  0.00    -0.267 OA
BRANCH  75  78
ATOM     78  C   UNL A   1      31.094  24.529  25.842  1.00  0.00     0.170 A 
ATOM     79  C   UNL A   1      31.443  23.437  25.071  1.00  0.00     0.145 A 
ATOM     80  N   UNL A   1      31.369  24.249  27.156  1.00  0.00    -0.125 NA
ATOM     81  N   UNL A   1      31.869  22.513  25.979  1.00  0.00    -0.237 N 
ATOM     82  N   UNL A   1      31.817  23.004  27.228  1.00  0.00    -0.066 NA
BRANCH  81  83
ATOM     83  C   UNL A   1      32.331  21.181  25.740  1.00  0.00     0.218 C 
ATOM     84  C   UNL A   1      32.139  20.677  24.288  1.00  0.00     0.296 C 
ATOM     85  C   UNL A   1      33.843  21.080  25.417  1.00  0.00     0.296 C 
ATOM     86  N   UNL A   1      33.533  20.189  24.281  1.00  0.00    -0.323 N 
ATOM     87  H   UNL A   1      34.087  20.219  23.425  1.00  0.00     0.348 HD
BRANCH  86  88
ATOM     88  C   UNL A   1      33.650  18.744  24.634  1.00  0.00     0.379 C 
BRANCH  88  89
ATOM     89  C   UNL A   1      33.539  17.590  23.615  1.00  0.00     0.438 C 
ATOM     90  F   UNL A   1      34.755  17.121  23.257  1.00  0.00    -0.165 F 
ATOM     91  F   UNL A   1      32.847  16.555  24.145  1.00  0.00    -0.165 F 
ATOM     92  F   UNL A   1      32.892  17.969  22.491  1.00  0.00    -0.165 F 
ENDBRANCH  88  89
ENDBRANCH  86  88
ENDBRANCH  81  83
ENDBRANCH  75  78
ENDBRANCH  73  74
ENDBRANCH   1  73
TORSDOF 14
ENDMDL
MODEL 3
REMARK VINA RESULT:     -11.6      5.047     10.865
REMARK SMILES O=C(NCCCCNC(=O)c1cn(C2C[NH+](CC(F)(F)F)C2)nn1)c1ccc(-c2c3nc(c(-c4c(F)c(F)c(F)c(F)c4F)c4ccc([nH]4)c(-c4c(F)c(F)c(F)c(F)c4F)c4nc(c(-c5c(F)c(F)c(F)c(F)c5F)c5ccc2[nH]5)C=C4)C=C3)cc1
REMARK SMILES IDX 6 1 5 2 4 3 3 4 1 5 2 6 25 8 26 9 87 10 27 11 86 12 28 13
REMARK SMILES IDX 29 14 30 15 80 16 31 17 85 18 79 19 81 20 32 21 84 22 78 23
REMARK SMILES IDX 77 24 33 26 65 27 45 28 64 29 46 30 49 31 63 32 82 33 47 34
REMARK SMILES IDX 48 35 62 37 83 38 50 39 34 40 35 41 43 42 36 43 37 44 41 45
REMARK SMILES IDX 44 46 38 47 39 48 42 49 40 50 66 51 67 52 75 53 68 54 69 55
REMARK SMILES IDX 73 56 76 57 70 58 71 59 74 60 72 61 51 62 52 63 60 64 53 65
REMARK SMILES IDX 54 66 58 67 61 68 55 69 56 70 59 71 57 72 7 73 8 74 9 75
REMARK SMILES IDX 10 77 11 78 12 79 24 80 13 81 23 82 14 83 15 84 22 85 16 86
REMARK SMILES IDX 17 88 18 89 19 90 20 91 21 92
REMARK H PARENT 3 7 81 25 49 36 8 76 16 87
REMARK Flexibility Score: inf
ROOT
ATOM      1  C   UNL A   1      38.040  23.333  26.013  1.00  0.00     0.023 C 
ENDROOT
BRANCH   1   2
ATOM      2  C   UNL A   1      38.506  21.897  25.751  1.00  0.00     0.023 C 
BRANCH   2   3
ATOM      3  C   UNL A   1      39.788  21.492  26.474  1.00  0.00     0.116 C 
BRANCH   3   4
ATOM      4  N   UNL A   1      41.002  21.675  25.706  1.00  0.00    -0.352 N 
ATOM      5  O   UNL A   1      42.996  22.333  25.017  1.00  0.00    -0.269 OA
ATOM      6  C   UNL A   1      42.027  22.580  25.738  1.00  0.00     0.251 C 
ATOM      7  H   UNL A   1      41.114  20.996  25.003  1.00  0.00     0.163 HD
BRANCH   6   8
ATOM      8  C   UNL A   1      42.014  23.852  26.506  1.00  0.00     0.039 A 
ATOM      9  C   UNL A   1      42.594  24.058  27.758  1.00  0.00     0.014 A 
ATOM     10  C   UNL A   1      41.333  24.922  25.894  1.00  0.00     0.014 A 
ATOM     11  C   UNL A   1      42.414  25.266  28.427  1.00  0.00     0.010 A 
ATOM     12  C   UNL A   1      41.166  26.135  26.547  1.00  0.00     0.010 A 
ATOM     13  C   UNL A   1      41.678  26.292  27.831  1.00  0.00    -0.014 A 
BRANCH  13  14
ATOM     14  C   UNL A   1      41.597  27.579  28.515  1.00  0.00     0.031 A 
ATOM     15  C   UNL A   1      42.715  28.521  28.206  1.00  0.00     0.074 A 
ATOM     16  C   UNL A   1      40.523  27.964  29.233  1.00  0.00     0.049 A 
ATOM     17  N   UNL A   1      43.538  29.090  29.027  1.00  0.00    -0.248 NA
ATOM     18  C   UNL A   1      43.006  28.794  26.789  1.00  0.00     0.031 C 
ATOM     19  C   UNL A   1      39.238  27.273  29.367  1.00  0.00     0.029 A 
ATOM     20  N   UNL A   1      40.315  29.128  29.913  1.00  0.00    -0.354 N 
ATOM     21  C   UNL A   1      44.354  29.914  28.250  1.00  0.00     0.074 A 
ATOM     22  C   UNL A   1      44.065  29.599  26.876  1.00  0.00     0.031 C 
ATOM     23  C   UNL A   1      38.325  28.127  29.885  1.00  0.00     0.029 A 
ATOM     24  C   UNL A   1      38.986  29.373  30.232  1.00  0.00     0.049 A 
ATOM     25  H   UNL A   1      41.045  29.742  30.158  1.00  0.00     0.167 HD
ATOM     26  C   UNL A   1      45.065  30.939  28.796  1.00  0.00     0.037 A 
ATOM     27  C   UNL A   1      38.460  30.543  30.679  1.00  0.00     0.037 A 
ATOM     28  C   UNL A   1      45.210  30.782  30.217  1.00  0.00     0.049 A 
ATOM     29  C   UNL A   1      39.576  31.369  31.203  1.00  0.00     0.074 A 
ATOM     30  C   UNL A   1      45.812  29.852  31.040  1.00  0.00     0.029 A 
ATOM     31  N   UNL A   1      44.392  31.521  31.033  1.00  0.00    -0.354 N 
ATOM     32  N   UNL A   1      40.248  31.087  32.284  1.00  0.00    -0.248 NA
ATOM     33  C   UNL A   1      40.229  32.283  30.278  1.00  0.00     0.031 C 
ATOM     34  C   UNL A   1      44.962  29.762  32.180  1.00  0.00     0.029 A 
ATOM     35  C   UNL A   1      43.925  30.679  32.005  1.00  0.00     0.049 A 
ATOM     36  H   UNL A   1      44.181  32.479  30.937  1.00  0.00     0.167 HD
ATOM     37  C   UNL A   1      41.556  31.422  31.975  1.00  0.00     0.074 A 
ATOM     38  C   UNL A   1      41.471  32.238  30.768  1.00  0.00     0.031 C 
ATOM     39  C   UNL A   1      42.600  30.771  32.566  1.00  0.00     0.037 A 
BRANCH  26  40
ATOM     40  C   UNL A   1      45.323  32.263  28.116  1.00  0.00     0.064 A 
ATOM     41  C   UNL A   1      44.233  33.106  27.816  1.00  0.00     0.173 A 
ATOM     42  C   UNL A   1      46.535  32.579  27.465  1.00  0.00     0.173 A 
ATOM     43  F   UNL A   1      43.029  32.891  28.367  1.00  0.00    -0.203 F 
ATOM     44  C   UNL A   1      44.328  34.126  26.864  1.00  0.00     0.198 A 
ATOM     45  C   UNL A   1      46.639  33.632  26.557  1.00  0.00     0.198 A 
ATOM     46  F   UNL A   1      47.629  31.819  27.589  1.00  0.00    -0.203 F 
ATOM     47  F   UNL A   1      43.232  34.811  26.511  1.00  0.00    -0.200 F 
ATOM     48  C   UNL A   1      45.529  34.381  26.229  1.00  0.00     0.200 A 
ATOM     49  F   UNL A   1      47.807  33.852  25.937  1.00  0.00    -0.200 F 
ATOM     50  F   UNL A   1      45.607  35.310  25.267  1.00  0.00    -0.200 F 
ENDBRANCH  26  40
BRANCH  27  51
ATOM     51  C   UNL A   1      37.125  31.124  30.399  1.00  0.00     0.064 A 
ATOM     52  C   UNL A   1      36.269  31.520  31.441  1.00  0.00     0.173 A 
ATOM     53  C   UNL A   1      36.780  31.566  29.106  1.00  0.00     0.173 A 
ATOM     54  F   UNL A   1      36.549  31.185  32.709  1.00  0.00    -0.203 F 
ATOM     55  C   UNL A   1      35.151  32.330  31.207  1.00  0.00     0.198 A 
ATOM     56  C   UNL A   1      35.660  32.367  28.873  1.00  0.00     0.198 A 
ATOM     57  F   UNL A   1      37.577  31.314  28.059  1.00  0.00    -0.203 F 
ATOM     58  F   UNL A   1      34.395  32.742  32.235  1.00  0.00    -0.200 F 
ATOM     59  C   UNL A   1      34.854  32.761  29.924  1.00  0.00     0.200 A 
ATOM     60  F   UNL A   1      35.408  32.808  27.632  1.00  0.00    -0.200 F 
ATOM     61  F   UNL A   1      33.821  33.587  29.707  1.00  0.00    -0.200 F 
ENDBRANCH  27  51
BRANCH  39  62
ATOM     62  C   UNL A   1      42.301  29.891  33.745  1.00  0.00     0.064 A 
ATOM     63  C   UNL A   1      41.862  28.560  33.640  1.00  0.00     0.173 A 
ATOM     64  C   UNL A   1      42.611  30.371  35.023  1.00  0.00     0.173 A 
ATOM     65  F   UNL A   1      41.645  27.994  32.446  1.00  0.00    -0.203 F 
ATOM     66  C   UNL A   1      41.696  27.765  34.773  1.00  0.00     0.198 A 
ATOM     67  C   UNL A   1      42.482  29.563  36.148  1.00  0.00     0.198 A 
ATOM     68  F   UNL A   1      43.090  31.616  35.176  1.00  0.00    -0.203 F 
ATOM     69  F   UNL A   1      41.263  26.501  34.650  1.00  0.00    -0.200 F 
ATOM     70  C   UNL A   1      42.014  28.265  36.025  1.00  0.00     0.200 A 
ATOM     71  F   UNL A   1      42.840  30.035  37.350  1.00  0.00    -0.200 F 
ATOM     72  F   UNL A   1      41.897  27.486  37.109  1.00  0.00    -0.200 F 
ENDBRANCH  39  62
ENDBRANCH  13  14
ENDBRANCH   6   8
ENDBRANCH   3   4
ENDBRANCH   2   3
ENDBRANCH   1   2
BRANCH   1  73
ATOM     73  C   UNL A   1      36.659  23.686  25.468  1.00  0.00     0.116 C 
BRANCH  73  74
ATOM     74  N   UNL A   1      35.909  22.513  25.057  1.00  0.00    -0.351 N 
ATOM     75  C   UNL A   1      34.700  22.442  24.399  1.00  0.00     0.273 C 
ATOM     76  H   UNL A   1      36.323  21.647  25.279  1.00  0.00     0.163 HD
ATOM     77  O   UNL A   1      34.155  21.351  24.294  1.00  0.00    -0.267 OA
BRANCH  75  78
ATOM     78  C   UNL A   1      34.133  23.665  23.858  1.00  0.00     0.170 A 
ATOM     79  C   UNL A   1      33.351  24.610  24.493  1.00  0.00     0.145 A 
ATOM     80  N   UNL A   1      34.348  24.065  22.564  1.00  0.00    -0.125 NA
ATOM     81  N   UNL A   1      33.083  25.527  23.520  1.00  0.00    -0.237 N 
ATOM     82  N   UNL A   1      33.678  25.191  22.363  1.00  0.00    -0.066 NA
BRANCH  81  83
ATOM     83  C   UNL A   1      32.292  26.715  23.613  1.00  0.00     0.218 C 
ATOM     84  C   UNL A   1      32.916  27.964  22.944  1.00  0.00     0.296 C 
ATOM     85  C   UNL A   1      31.211  26.847  22.511  1.00  0.00     0.296 C 
ATOM     86  N   UNL A   1      31.625  28.246  22.285  1.00  0.00    -0.323 N 
ATOM     87  H   UNL A   1      31.599  28.657  21.351  1.00  0.00     0.348 HD
BRANCH  86  88
ATOM     88  C   UNL A   1      30.784  29.223  23.037  1.00  0.00     0.379 C 
BRANCH  88  89
ATOM     89  C   UNL A   1      29.469  29.830  22.501  1.00  0.00     0.438 C 
ATOM     90  F   UNL A   1      29.037  30.849  23.277  1.00  0.00    -0.165 F 
ATOM     91  F   UNL A   1      29.647  30.320  21.253  1.00  0.00    -0.165 F 
ATOM     92  F   UNL A   1      28.480  28.911  22.432  1.00  0.00    -0.165 F 
ENDBRANCH  88  89
ENDBRANCH  86  88
ENDBRANCH  81  83
ENDBRANCH  75  78
ENDBRANCH  73  74
ENDBRANCH   1  73
TORSDOF 14
ENDMDL
