MODEL 1
REMARK VINA RESULT:     -12.8      0.000      0.000
REMARK SMILES O=C(N[C@@H]1C=C[C@@H](C(=O)NCCCCNC(=O)c2ccc(-c3c4nc(c(-c5c(F)c(F)c(F)c(F)c5F)c5ccc([nH]5)c(-c5c(F)c(F)c(F)c(F)c5F)c5nc(c(-c6c(F)c(F)c(F)c(F)c6F)c6ccc3[nH]6)C=C5)C=C4)cc2)C1)Oc1ccccc1
REMARK SMILES IDX 12 1 11 2 10 3 8 4 9 5 7 7 4 8 5 9 81 10 6 11 3 12 1 13 2 14
REMARK SMILES IDX 82 16 83 17 84 18 88 19 85 20 87 21 86 22 13 23 14 24 15 25
REMARK SMILES IDX 16 26 17 28 18 29 19 30 80 31 20 32 79 33 21 34 22 35 23 36
REMARK SMILES IDX 73 37 24 38 78 39 72 40 74 41 25 42 77 43 71 44 70 45 26 47
REMARK SMILES IDX 58 48 38 49 57 50 39 51 42 52 56 53 75 54 40 55 41 56 55 58
REMARK SMILES IDX 76 59 43 60 27 61 28 62 36 63 29 64 30 65 34 66 37 67 31 68
REMARK SMILES IDX 32 69 35 70 33 71 59 72 60 73 68 74 61 75 62 76 66 77 69 78
REMARK SMILES IDX 63 79 64 80 67 81 65 82 44 83 45 84 53 85 46 86 47 87 51 88
REMARK SMILES IDX 54 89 48 90 49 91 52 92 50 93
REMARK H PARENT 10 6 3 15 15 27 74 46 42 57
REMARK Flexibility Score: inf
ROOT
ATOM      1  C   UNL A   1      31.936  30.446  26.876  1.00  0.00     0.023 C 
ENDROOT
BRANCH   1   2
ATOM      2  C   UNL A   1      32.493  29.858  25.590  1.00  0.00     0.116 C 
BRANCH   2   3
ATOM      3  N   UNL A   1      31.524  29.955  24.523  1.00  0.00    -0.356 N 
ATOM      4  C   UNL A   1      30.837  28.968  23.894  1.00  0.00     0.227 C 
ATOM      5  O   UNL A   1      30.132  29.285  22.931  1.00  0.00    -0.274 OA
ATOM      6  H   UNL A   1      31.335  30.867  24.206  1.00  0.00     0.163 HD
BRANCH   4   7
ATOM      7  C   UNL A   1      30.920  27.518  24.349  1.00  0.00     0.103 C 
ATOM      8  C   UNL A   1      30.233  25.215  24.100  1.00  0.00     0.109 C 
ATOM      9  C   UNL A   1      31.595  25.418  23.546  1.00  0.00    -0.006 C 
ATOM     10  C   UNL A   1      29.680  26.654  24.144  1.00  0.00     0.047 C 
ATOM     11  C   UNL A   1      31.981  26.695  23.673  1.00  0.00    -0.016 C 
BRANCH   8  12
ATOM     12  N   UNL A   1      30.203  24.588  25.415  1.00  0.00    -0.315 N 
ATOM     13  O   UNL A   1      30.755  23.494  27.291  1.00  0.00    -0.224 OA
ATOM     14  C   UNL A   1      30.984  23.692  26.100  1.00  0.00     0.413 C 
ATOM     15  H   UNL A   1      29.426  24.879  25.945  1.00  0.00     0.167 HD
BRANCH  14  16
ATOM     16  O   UNL A   1      31.845  22.875  25.373  1.00  0.00    -0.410 OA
BRANCH  16  17
ATOM     17  C   UNL A   1      33.244  23.068  25.220  1.00  0.00     0.132 A 
ATOM     18  C   UNL A   1      33.788  22.423  24.105  1.00  0.00     0.047 A 
ATOM     19  C   UNL A   1      34.016  23.930  25.993  1.00  0.00     0.047 A 
ATOM     20  C   UNL A   1      35.083  22.728  23.688  1.00  0.00     0.004 A 
ATOM     21  C   UNL A   1      35.313  24.243  25.559  1.00  0.00     0.004 A 
ATOM     22  C   UNL A   1      35.837  23.659  24.401  1.00  0.00     0.000 A 
ENDBRANCH  16  17
ENDBRANCH  14  16
ENDBRANCH   8  12
ENDBRANCH   4   7
ENDBRANCH   2   3
ENDBRANCH   1   2
BRANCH   1  23
ATOM     23  C   UNL A   1      31.733  31.956  26.824  1.00  0.00     0.023 C 
BRANCH  23  24
ATOM     24  C   UNL A   1      32.870  32.767  27.433  1.00  0.00     0.116 C 
BRANCH  24  25
ATOM     25  N   UNL A   1      32.503  34.154  27.696  1.00  0.00    -0.352 N 
ATOM     26  C   UNL A   1      33.008  35.013  28.637  1.00  0.00     0.251 C 
ATOM     27  H   UNL A   1      31.795  34.523  27.120  1.00  0.00     0.163 HD
ATOM     28  O   UNL A   1      32.502  36.114  28.829  1.00  0.00    -0.269 OA
BRANCH  26  29
ATOM     29  C   UNL A   1      34.159  34.569  29.437  1.00  0.00     0.039 A 
ATOM     30  C   UNL A   1      33.935  34.012  30.696  1.00  0.00     0.014 A 
ATOM     31  C   UNL A   1      35.443  34.622  28.887  1.00  0.00     0.014 A 
ATOM     32  C   UNL A   1      35.002  33.438  31.383  1.00  0.00     0.010 A 
ATOM     33  C   UNL A   1      36.486  33.975  29.536  1.00  0.00     0.010 A 
ATOM     34  C   UNL A   1      36.274  33.383  30.789  1.00  0.00    -0.014 A 
BRANCH  34  35
ATOM     35  C   UNL A   1      37.406  32.715  31.471  1.00  0.00     0.031 A 
ATOM     36  C   UNL A   1      38.091  31.555  30.811  1.00  0.00     0.074 A 
ATOM     37  C   UNL A   1      37.759  33.102  32.710  1.00  0.00     0.049 A 
ATOM     38  N   UNL A   1      39.057  30.797  31.262  1.00  0.00    -0.248 NA
ATOM     39  C   UNL A   1      37.597  31.170  29.479  1.00  0.00     0.031 C 
ATOM     40  C   UNL A   1      37.110  34.163  33.483  1.00  0.00     0.029 A 
ATOM     41  N   UNL A   1      38.742  32.636  33.545  1.00  0.00    -0.354 N 
ATOM     42  C   UNL A   1      39.271  29.839  30.281  1.00  0.00     0.074 A 
ATOM     43  C   UNL A   1      38.293  30.070  29.241  1.00  0.00     0.031 C 
ATOM     44  C   UNL A   1      37.723  34.279  34.672  1.00  0.00     0.029 A 
ATOM     45  C   UNL A   1      38.791  33.286  34.753  1.00  0.00     0.049 A 
ATOM     46  H   UNL A   1      39.353  31.904  33.302  1.00  0.00     0.167 HD
ATOM     47  C   UNL A   1      40.220  28.875  30.235  1.00  0.00     0.037 A 
ATOM     48  C   UNL A   1      39.609  33.100  35.806  1.00  0.00     0.037 A 
ATOM     49  C   UNL A   1      41.209  28.674  31.261  1.00  0.00     0.049 A 
ATOM     50  C   UNL A   1      40.685  32.054  35.715  1.00  0.00     0.074 A 
ATOM     51  C   UNL A   1      42.259  27.774  31.285  1.00  0.00     0.029 A 
ATOM     52  N   UNL A   1      41.265  29.388  32.449  1.00  0.00    -0.354 N 
ATOM     53  N   UNL A   1      40.937  31.208  34.746  1.00  0.00    -0.248 NA
ATOM     54  C   UNL A   1      41.601  31.948  36.858  1.00  0.00     0.031 C 
ATOM     55  C   UNL A   1      42.931  27.922  32.504  1.00  0.00     0.029 A 
ATOM     56  C   UNL A   1      42.324  28.941  33.221  1.00  0.00     0.049 A 
ATOM     57  H   UNL A   1      40.644  30.107  32.705  1.00  0.00     0.167 HD
ATOM     58  C   UNL A   1      42.046  30.480  35.152  1.00  0.00     0.074 A 
ATOM     59  C   UNL A   1      42.433  31.000  36.448  1.00  0.00     0.031 C 
ATOM     60  C   UNL A   1      42.685  29.470  34.512  1.00  0.00     0.037 A 
BRANCH  47  61
ATOM     61  C   UNL A   1      40.229  27.980  29.032  1.00  0.00     0.064 A 
ATOM     62  C   UNL A   1      39.533  26.760  29.020  1.00  0.00     0.173 A 
ATOM     63  C   UNL A   1      40.948  28.335  27.882  1.00  0.00     0.173 A 
ATOM     64  F   UNL A   1      38.844  26.365  30.101  1.00  0.00    -0.203 F 
ATOM     65  C   UNL A   1      39.590  25.912  27.917  1.00  0.00     0.198 A 
ATOM     66  C   UNL A   1      40.976  27.499  26.768  1.00  0.00     0.198 A 
ATOM     67  F   UNL A   1      41.630  29.489  27.840  1.00  0.00    -0.203 F 
ATOM     68  F   UNL A   1      38.971  24.725  27.954  1.00  0.00    -0.200 F 
ATOM     69  C   UNL A   1      40.307  26.285  26.791  1.00  0.00     0.200 A 
ATOM     70  F   UNL A   1      41.664  27.864  25.677  1.00  0.00    -0.200 F 
ATOM     71  F   UNL A   1      40.365  25.466  25.731  1.00  0.00    -0.200 F 
ENDBRANCH  47  61
BRANCH  48  72
ATOM     72  C   UNL A   1      39.460  33.952  37.012  1.00  0.00     0.064 A 
ATOM     73  C   UNL A   1      40.016  35.238  37.059  1.00  0.00     0.173 A 
ATOM     74  C   UNL A   1      38.742  33.509  38.133  1.00  0.00     0.173 A 
ATOM     75  F   UNL A   1      40.725  35.698  36.017  1.00  0.00    -0.203 F 
ATOM     76  C   UNL A   1      39.872  36.044  38.187  1.00  0.00     0.198 A 
ATOM     77  C   UNL A   1      38.579  34.325  39.250  1.00  0.00     0.198 A 
ATOM     78  F   UNL A   1      38.183  32.290  38.133  1.00  0.00    -0.203 F 
ATOM     79  F   UNL A   1      40.442  37.256  38.218  1.00  0.00    -0.200 F 
ATOM     80  C   UNL A   1      39.148  35.589  39.279  1.00  0.00     0.200 A 
ATOM     81  F   UNL A   1      37.865  33.888  40.297  1.00  0.00    -0.200 F 
ATOM     82  F   UNL A   1      39.002  36.368  40.359  1.00  0.00    -0.200 F 
ENDBRANCH  48  72
BRANCH  60  83
ATOM     83  C   UNL A   1      43.876  28.873  35.202  1.00  0.00     0.064 A 
ATOM     84  C   UNL A   1      45.174  29.347  34.964  1.00  0.00     0.173 A 
ATOM     85  C   UNL A   1      43.712  27.840  36.136  1.00  0.00     0.173 A 
ATOM     86  F   UNL A   1      45.382  30.324  34.069  1.00  0.00    -0.203 F 
ATOM     87  C   UNL A   1      46.269  28.788  35.617  1.00  0.00     0.198 A 
ATOM     88  C   UNL A   1      44.806  27.302  36.807  1.00  0.00     0.198 A 
ATOM     89  F   UNL A   1      42.490  27.356  36.403  1.00  0.00    -0.203 F 
ATOM     90  F   UNL A   1      47.506  29.223  35.339  1.00  0.00    -0.200 F 
ATOM     91  C   UNL A   1      46.084  27.770  36.541  1.00  0.00     0.200 A 
ATOM     92  F   UNL A   1      44.625  26.327  37.709  1.00  0.00    -0.200 F 
ATOM     93  F   UNL A   1      47.139  27.236  37.171  1.00  0.00    -0.200 F 
ENDBRANCH  60  83
ENDBRANCH  34  35
ENDBRANCH  26  29
ENDBRANCH  24  25
ENDBRANCH  23  24
ENDBRANCH   1  23
TORSDOF 14
ENDMDL
MODEL 2
REMARK VINA RESULT:     -12.7      0.074      1.963
REMARK SMILES O=C(N[C@@H]1C=C[C@@H](C(=O)NCCCCNC(=O)c2ccc(-c3c4nc(c(-c5c(F)c(F)c(F)c(F)c5F)c5ccc([nH]5)c(-c5c(F)c(F)c(F)c(F)c5F)c5nc(c(-c6c(F)c(F)c(F)c(F)c6F)c6ccc3[nH]6)C=C5)C=C4)cc2)C1)Oc1ccccc1
REMARK SMILES IDX 12 1 11 2 10 3 8 4 9 5 7 7 4 8 5 9 81 10 6 11 3 12 1 13 2 14
REMARK SMILES IDX 82 16 83 17 84 18 88 19 85 20 87 21 86 22 13 23 14 24 15 25
REMARK SMILES IDX 16 26 17 28 18 29 19 30 80 31 20 32 79 33 21 34 22 35 23 36
REMARK SMILES IDX 73 37 24 38 78 39 72 40 74 41 25 42 77 43 71 44 70 45 26 47
REMARK SMILES IDX 58 48 38 49 57 50 39 51 42 52 56 53 75 54 40 55 41 56 55 58
REMARK SMILES IDX 76 59 43 60 27 61 28 62 36 63 29 64 30 65 34 66 37 67 31 68
REMARK SMILES IDX 32 69 35 70 33 71 59 72 60 73 68 74 61 75 62 76 66 77 69 78
REMARK SMILES IDX 63 79 64 80 67 81 65 82 44 83 45 84 53 85 46 86 47 87 51 88
REMARK SMILES IDX 54 89 48 90 49 91 52 92 50 93
REMARK H PARENT 10 6 3 15 15 27 74 46 42 57
REMARK Flexibility Score: inf
ROOT
ATOM      1  C   UNL A   1      31.970  30.356  26.873  1.00  0.00     0.023 C 
ENDROOT
BRANCH   1   2
ATOM      2  C   UNL A   1      32.513  29.793  25.570  1.00  0.00     0.116 C 
BRANCH   2   3
ATOM      3  N   UNL A   1      31.519  29.877  24.525  1.00  0.00    -0.356 N 
ATOM      4  C   UNL A   1      30.823  28.881  23.919  1.00  0.00     0.227 C 
ATOM      5  O   UNL A   1      30.095  29.187  22.970  1.00  0.00    -0.274 OA
ATOM      6  H   UNL A   1      31.317  30.786  24.205  1.00  0.00     0.163 HD
BRANCH   4   7
ATOM      7  C   UNL A   1      30.925  27.435  24.383  1.00  0.00     0.103 C 
ATOM      8  C   UNL A   1      30.272  25.121  24.144  1.00  0.00     0.109 C 
ATOM      9  C   UNL A   1      31.634  25.341  23.595  1.00  0.00    -0.006 C 
ATOM     10  C   UNL A   1      29.698  26.552  24.177  1.00  0.00     0.047 C 
ATOM     11  C   UNL A   1      32.001  26.624  23.716  1.00  0.00    -0.016 C 
BRANCH   8  12
ATOM     12  N   UNL A   1      30.246  24.501  25.462  1.00  0.00    -0.315 N 
ATOM     13  O   UNL A   1      30.804  23.419  27.344  1.00  0.00    -0.224 OA
ATOM     14  C   UNL A   1      31.031  23.612  26.151  1.00  0.00     0.413 C 
ATOM     15  H   UNL A   1      29.468  24.792  25.991  1.00  0.00     0.167 HD
BRANCH  14  16
ATOM     16  O   UNL A   1      31.895  22.795  25.429  1.00  0.00    -0.410 OA
BRANCH  16  17
ATOM     17  C   UNL A   1      33.288  23.008  25.251  1.00  0.00     0.132 A 
ATOM     18  C   UNL A   1      33.808  22.426  24.090  1.00  0.00     0.047 A 
ATOM     19  C   UNL A   1      34.073  23.836  26.048  1.00  0.00     0.047 A 
ATOM     20  C   UNL A   1      35.090  22.763  23.658  1.00  0.00     0.004 A 
ATOM     21  C   UNL A   1      35.356  24.182  25.598  1.00  0.00     0.004 A 
ATOM     22  C   UNL A   1      35.854  23.663  24.399  1.00  0.00     0.000 A 
ENDBRANCH  16  17
ENDBRANCH  14  16
ENDBRANCH   8  12
ENDBRANCH   4   7
ENDBRANCH   2   3
ENDBRANCH   1   2
BRANCH   1  23
ATOM     23  C   UNL A   1      31.744  31.864  26.844  1.00  0.00     0.023 C 
BRANCH  23  24
ATOM     24  C   UNL A   1      32.883  32.684  27.437  1.00  0.00     0.116 C 
BRANCH  24  25
ATOM     25  N   UNL A   1      32.517  34.075  27.677  1.00  0.00    -0.352 N 
ATOM     26  C   UNL A   1      33.020  34.948  28.608  1.00  0.00     0.251 C 
ATOM     27  H   UNL A   1      31.813  34.437  27.092  1.00  0.00     0.163 HD
ATOM     28  O   UNL A   1      32.515  36.052  28.781  1.00  0.00    -0.269 OA
BRANCH  26  29
ATOM     29  C   UNL A   1      34.166  34.513  29.420  1.00  0.00     0.039 A 
ATOM     30  C   UNL A   1      33.932  33.938  30.670  1.00  0.00     0.014 A 
ATOM     31  C   UNL A   1      35.457  34.592  28.891  1.00  0.00     0.014 A 
ATOM     32  C   UNL A   1      34.998  33.374  31.366  1.00  0.00     0.010 A 
ATOM     33  C   UNL A   1      36.500  33.955  29.548  1.00  0.00     0.010 A 
ATOM     34  C   UNL A   1      36.280  33.346  30.791  1.00  0.00    -0.014 A 
BRANCH  34  35
ATOM     35  C   UNL A   1      37.412  32.688  31.483  1.00  0.00     0.031 A 
ATOM     36  C   UNL A   1      38.112  31.533  30.829  1.00  0.00     0.074 A 
ATOM     37  C   UNL A   1      37.752  33.080  32.724  1.00  0.00     0.049 A 
ATOM     38  N   UNL A   1      39.081  30.785  31.289  1.00  0.00    -0.248 NA
ATOM     39  C   UNL A   1      37.631  31.142  29.494  1.00  0.00     0.031 C 
ATOM     40  C   UNL A   1      37.089  34.137  33.490  1.00  0.00     0.029 A 
ATOM     41  N   UNL A   1      38.733  32.624  33.567  1.00  0.00    -0.354 N 
ATOM     42  C   UNL A   1      39.311  29.827  30.311  1.00  0.00     0.074 A 
ATOM     43  C   UNL A   1      38.338  30.047  29.263  1.00  0.00     0.031 C 
ATOM     44  C   UNL A   1      37.692  34.260  34.683  1.00  0.00     0.029 A 
ATOM     45  C   UNL A   1      38.767  33.276  34.774  1.00  0.00     0.049 A 
ATOM     46  H   UNL A   1      39.352  31.897  33.329  1.00  0.00     0.167 HD
ATOM     47  C   UNL A   1      40.268  28.871  30.274  1.00  0.00     0.037 A 
ATOM     48  C   UNL A   1      39.578  33.098  35.833  1.00  0.00     0.037 A 
ATOM     49  C   UNL A   1      41.251  28.679  31.307  1.00  0.00     0.049 A 
ATOM     50  C   UNL A   1      40.665  32.062  35.752  1.00  0.00     0.074 A 
ATOM     51  C   UNL A   1      42.308  27.789  31.340  1.00  0.00     0.029 A 
ATOM     52  N   UNL A   1      41.292  29.396  32.495  1.00  0.00    -0.354 N 
ATOM     53  N   UNL A   1      40.931  31.217  34.786  1.00  0.00    -0.248 NA
ATOM     54  C   UNL A   1      41.572  31.965  36.903  1.00  0.00     0.031 C 
ATOM     55  C   UNL A   1      42.969  27.944  32.564  1.00  0.00     0.029 A 
ATOM     56  C   UNL A   1      42.349  28.959  33.275  1.00  0.00     0.049 A 
ATOM     57  H   UNL A   1      40.662  30.110  32.745  1.00  0.00     0.167 HD
ATOM     58  C   UNL A   1      42.043  30.499  35.201  1.00  0.00     0.074 A 
ATOM     59  C   UNL A   1      42.415  31.023  36.500  1.00  0.00     0.031 C 
ATOM     60  C   UNL A   1      42.696  29.493  34.567  1.00  0.00     0.037 A 
BRANCH  47  61
ATOM     61  C   UNL A   1      40.293  27.974  29.072  1.00  0.00     0.064 A 
ATOM     62  C   UNL A   1      41.016  28.314  27.917  1.00  0.00     0.173 A 
ATOM     63  C   UNL A   1      39.581  26.765  29.068  1.00  0.00     0.173 A 
ATOM     64  F   UNL A   1      41.700  29.466  27.863  1.00  0.00    -0.203 F 
ATOM     65  C   UNL A   1      40.991  27.498  26.789  1.00  0.00     0.198 A 
ATOM     66  C   UNL A   1      39.585  25.936  27.948  1.00  0.00     0.198 A 
ATOM     67  F   UNL A   1      38.875  26.392  30.144  1.00  0.00    -0.203 F 
ATOM     68  F   UNL A   1      41.635  27.876  25.677  1.00  0.00    -0.200 F 
ATOM     69  C   UNL A   1      40.280  26.308  26.807  1.00  0.00     0.200 A 
ATOM     70  F   UNL A   1      38.904  24.782  27.970  1.00  0.00    -0.200 F 
ATOM     71  F   UNL A   1      40.253  25.526  25.720  1.00  0.00    -0.200 F 
ENDBRANCH  47  61
BRANCH  48  72
ATOM     72  C   UNL A   1      39.414  33.951  37.037  1.00  0.00     0.064 A 
ATOM     73  C   UNL A   1      38.726  33.482  38.165  1.00  0.00     0.173 A 
ATOM     74  C   UNL A   1      39.958  35.242  37.094  1.00  0.00     0.173 A 
ATOM     75  F   UNL A   1      38.174  32.259  38.150  1.00  0.00    -0.203 F 
ATOM     76  C   UNL A   1      38.576  34.277  39.299  1.00  0.00     0.198 A 
ATOM     77  C   UNL A   1      39.828  36.027  38.238  1.00  0.00     0.198 A 
ATOM     78  F   UNL A   1      40.633  35.734  36.044  1.00  0.00    -0.203 F 
ATOM     79  F   UNL A   1      37.886  33.816  40.351  1.00  0.00    -0.200 F 
ATOM     80  C   UNL A   1      39.133  35.546  39.336  1.00  0.00     0.200 A 
ATOM     81  F   UNL A   1      40.381  37.247  38.276  1.00  0.00    -0.200 F 
ATOM     82  F   UNL A   1      38.997  36.307  40.432  1.00  0.00    -0.200 F 
ENDBRANCH  48  72
BRANCH  60  83
ATOM     83  C   UNL A   1      43.886  28.907  35.268  1.00  0.00     0.064 A 
ATOM     84  C   UNL A   1      43.756  27.829  36.155  1.00  0.00     0.173 A 
ATOM     85  C   UNL A   1      45.173  29.408  35.023  1.00  0.00     0.173 A 
ATOM     86  F   UNL A   1      42.544  27.325  36.432  1.00  0.00    -0.203 F 
ATOM     87  C   UNL A   1      44.870  27.290  36.793  1.00  0.00     0.198 A 
ATOM     88  C   UNL A   1      46.287  28.850  35.642  1.00  0.00     0.198 A 
ATOM     89  F   UNL A   1      45.350  30.435  34.178  1.00  0.00    -0.203 F 
ATOM     90  F   UNL A   1      44.717  26.292  37.674  1.00  0.00    -0.200 F 
ATOM     91  C   UNL A   1      46.135  27.797  36.532  1.00  0.00     0.200 A 
ATOM     92  F   UNL A   1      47.510  29.333  35.380  1.00  0.00    -0.200 F 
ATOM     93  F   UNL A   1      47.206  27.276  37.144  1.00  0.00    -0.200 F 
ENDBRANCH  60  83
ENDBRANCH  34  35
ENDBRANCH  26  29
ENDBRANCH  24  25
ENDBRANCH  23  24
ENDBRANCH   1  23
TORSDOF 14
ENDMDL
MODEL 3
REMARK VINA RESULT:     -12.7      0.552      7.547
REMARK SMILES O=C(N[C@@H]1C=C[C@@H](C(=O)NCCCCNC(=O)c2ccc(-c3c4nc(c(-c5c(F)c(F)c(F)c(F)c5F)c5ccc([nH]5)c(-c5c(F)c(F)c(F)c(F)c5F)c5nc(c(-c6c(F)c(F)c(F)c(F)c6F)c6ccc3[nH]6)C=C5)C=C4)cc2)C1)Oc1ccccc1
REMARK SMILES IDX 12 1 11 2 10 3 8 4 9 5 7 7 4 8 5 9 81 10 6 11 3 12 1 13 2 14
REMARK SMILES IDX 82 16 83 17 84 18 88 19 85 20 87 21 86 22 13 23 14 24 15 25
REMARK SMILES IDX 16 26 17 28 18 29 19 30 80 31 20 32 79 33 21 34 22 35 23 36
REMARK SMILES IDX 73 37 24 38 78 39 72 40 74 41 25 42 77 43 71 44 70 45 26 47
REMARK SMILES IDX 58 48 38 49 57 50 39 51 42 52 56 53 75 54 40 55 41 56 55 58
REMARK SMILES IDX 76 59 43 60 27 61 28 62 36 63 29 64 30 65 34 66 37 67 31 68
REMARK SMILES IDX 32 69 35 70 33 71 59 72 60 73 68 74 61 75 62 76 66 77 69 78
REMARK SMILES IDX 63 79 64 80 67 81 65 82 44 83 45 84 53 85 46 86 47 87 51 88
REMARK SMILES IDX 54 89 48 90 49 91 52 92 50 93
REMARK H PARENT 10 6 3 15 15 27 74 46 42 57
REMARK Flexibility Score: inf
ROOT
ATOM      1  C   UNL A   1      31.731  30.700  26.858  1.00  0.00     0.023 C 
ENDROOT
BRANCH   1   2
ATOM      2  C   UNL A   1      32.261  29.999  25.618  1.00  0.00     0.116 C 
BRANCH   2   3
ATOM      3  N   UNL A   1      31.285  30.037  24.553  1.00  0.00    -0.356 N 
ATOM      4  C   UNL A   1      30.648  29.011  23.934  1.00  0.00     0.227 C 
ATOM      5  O   UNL A   1      29.926  29.284  22.971  1.00  0.00    -0.274 OA
ATOM      6  H   UNL A   1      31.048  30.936  24.230  1.00  0.00     0.163 HD
BRANCH   4   7
ATOM      7  C   UNL A   1      30.807  27.571  24.400  1.00  0.00     0.103 C 
ATOM      8  C   UNL A   1      30.322  25.222  24.108  1.00  0.00     0.109 C 
ATOM      9  C   UNL A   1      31.703  25.531  23.661  1.00  0.00    -0.006 C 
ATOM     10  C   UNL A   1      29.657  26.614  24.103  1.00  0.00     0.047 C 
ATOM     11  C   UNL A   1      31.978  26.834  23.813  1.00  0.00    -0.016 C 
BRANCH   8  12
ATOM     12  N   UNL A   1      30.238  24.592  25.419  1.00  0.00    -0.315 N 
ATOM     13  O   UNL A   1      30.707  23.477  27.306  1.00  0.00    -0.224 OA
ATOM     14  C   UNL A   1      30.975  23.674  26.122  1.00  0.00     0.413 C 
ATOM     15  H   UNL A   1      29.455  24.902  25.928  1.00  0.00     0.167 HD
BRANCH  14  16
ATOM     16  O   UNL A   1      31.834  22.836  25.417  1.00  0.00    -0.410 OA
BRANCH  16  17
ATOM     17  C   UNL A   1      33.227  23.041  25.227  1.00  0.00     0.132 A 
ATOM     18  C   UNL A   1      33.722  22.510  24.032  1.00  0.00     0.047 A 
ATOM     19  C   UNL A   1      34.034  23.821  26.050  1.00  0.00     0.047 A 
ATOM     20  C   UNL A   1      35.000  22.853  23.596  1.00  0.00     0.004 A 
ATOM     21  C   UNL A   1      35.313  24.174  25.597  1.00  0.00     0.004 A 
ATOM     22  C   UNL A   1      35.787  23.708  24.366  1.00  0.00     0.000 A 
ENDBRANCH  16  17
ENDBRANCH  14  16
ENDBRANCH   8  12
ENDBRANCH   4   7
ENDBRANCH   2   3
ENDBRANCH   1   2
BRANCH   1  23
ATOM     23  C   UNL A   1      31.662  32.218  26.724  1.00  0.00     0.023 C 
BRANCH  23  24
ATOM     24  C   UNL A   1      32.831  32.960  27.361  1.00  0.00     0.116 C 
BRANCH  24  25
ATOM     25  N   UNL A   1      32.490  34.319  27.763  1.00  0.00    -0.352 N 
ATOM     26  C   UNL A   1      33.025  35.077  28.773  1.00  0.00     0.251 C 
ATOM     27  H   UNL A   1      31.777  34.752  27.239  1.00  0.00     0.163 HD
ATOM     28  O   UNL A   1      32.540  36.160  29.079  1.00  0.00    -0.269 OA
BRANCH  26  29
ATOM     29  C   UNL A   1      34.183  34.541  29.504  1.00  0.00     0.039 A 
ATOM     30  C   UNL A   1      33.972  33.863  30.705  1.00  0.00     0.014 A 
ATOM     31  C   UNL A   1      35.459  34.635  28.940  1.00  0.00     0.014 A 
ATOM     32  C   UNL A   1      35.042  33.211  31.312  1.00  0.00     0.010 A 
ATOM     33  C   UNL A   1      36.503  33.915  29.503  1.00  0.00     0.010 A 
ATOM     34  C   UNL A   1      36.304  33.202  30.694  1.00  0.00    -0.014 A 
BRANCH  34  35
ATOM     35  C   UNL A   1      37.438  32.456  31.286  1.00  0.00     0.031 A 
ATOM     36  C   UNL A   1      37.947  32.834  32.645  1.00  0.00     0.074 A 
ATOM     37  C   UNL A   1      38.052  31.498  30.568  1.00  0.00     0.049 A 
ATOM     38  N   UNL A   1      38.962  32.350  33.314  1.00  0.00    -0.248 NA
ATOM     39  C   UNL A   1      37.245  33.931  33.329  1.00  0.00     0.031 C 
ATOM     40  C   UNL A   1      37.696  31.102  29.204  1.00  0.00     0.029 A 
ATOM     41  N   UNL A   1      39.118  30.693  30.879  1.00  0.00    -0.354 N 
ATOM     42  C   UNL A   1      39.030  33.095  34.483  1.00  0.00     0.074 A 
ATOM     43  C   UNL A   1      37.997  34.104  34.405  1.00  0.00     0.031 C 
ATOM     44  C   UNL A   1      38.516  30.119  28.803  1.00  0.00     0.029 A 
ATOM     45  C   UNL A   1      39.469  29.832  29.871  1.00  0.00     0.049 A 
ATOM     46  H   UNL A   1      39.586  30.731  31.744  1.00  0.00     0.167 HD
ATOM     47  C   UNL A   1      39.857  32.930  35.542  1.00  0.00     0.037 A 
ATOM     48  C   UNL A   1      40.452  28.913  29.818  1.00  0.00     0.037 A 
ATOM     49  C   UNL A   1      40.861  31.903  35.624  1.00  0.00     0.049 A 
ATOM     50  C   UNL A   1      41.329  28.715  31.023  1.00  0.00     0.074 A 
ATOM     51  C   UNL A   1      41.705  31.601  36.676  1.00  0.00     0.029 A 
ATOM     52  N   UNL A   1      41.154  31.009  34.604  1.00  0.00    -0.354 N 
ATOM     53  N   UNL A   1      41.330  29.366  32.161  1.00  0.00    -0.248 NA
ATOM     54  C   UNL A   1      42.331  27.645  30.943  1.00  0.00     0.031 C 
ATOM     55  C   UNL A   1      42.533  30.545  36.280  1.00  0.00     0.029 A 
ATOM     56  C   UNL A   1      42.177  30.162  34.997  1.00  0.00     0.049 A 
ATOM     57  H   UNL A   1      40.702  30.980  33.730  1.00  0.00     0.167 HD
ATOM     58  C   UNL A   1      42.318  28.778  32.938  1.00  0.00     0.074 A 
ATOM     59  C   UNL A   1      42.881  27.701  32.148  1.00  0.00     0.031 C 
ATOM     60  C   UNL A   1      42.725  29.101  34.190  1.00  0.00     0.037 A 
BRANCH  47  61
ATOM     61  C   UNL A   1      39.695  33.880  36.691  1.00  0.00     0.064 A 
ATOM     62  C   UNL A   1      40.361  35.117  36.721  1.00  0.00     0.173 A 
ATOM     63  C   UNL A   1      38.875  33.552  37.781  1.00  0.00     0.173 A 
ATOM     64  F   UNL A   1      41.171  35.471  35.712  1.00  0.00    -0.203 F 
ATOM     65  C   UNL A   1      40.244  35.968  37.816  1.00  0.00     0.198 A 
ATOM     66  C   UNL A   1      38.736  34.421  38.860  1.00  0.00     0.198 A 
ATOM     67  F   UNL A   1      38.216  32.384  37.803  1.00  0.00    -0.203 F 
ATOM     68  F   UNL A   1      40.941  37.112  37.850  1.00  0.00    -0.200 F 
ATOM     69  C   UNL A   1      39.428  35.622  38.882  1.00  0.00     0.200 A 
ATOM     70  F   UNL A   1      37.940  34.089  39.886  1.00  0.00    -0.200 F 
ATOM     71  F   UNL A   1      39.320  36.440  39.937  1.00  0.00    -0.200 F 
ENDBRANCH  47  61
BRANCH  48  72
ATOM     72  C   UNL A   1      40.623  28.089  28.596  1.00  0.00     0.064 A 
ATOM     73  C   UNL A   1      39.973  26.854  28.462  1.00  0.00     0.173 A 
ATOM     74  C   UNL A   1      41.420  28.527  27.528  1.00  0.00     0.173 A 
ATOM     75  F   UNL A   1      39.214  26.386  29.464  1.00  0.00    -0.203 F 
ATOM     76  C   UNL A   1      40.125  26.081  27.312  1.00  0.00     0.198 A 
ATOM     77  C   UNL A   1      41.552  27.764  26.370  1.00  0.00     0.198 A 
ATOM     78  F   UNL A   1      42.055  29.706  27.604  1.00  0.00    -0.203 F 
ATOM     79  F   UNL A   1      39.520  24.889  27.224  1.00  0.00    -0.200 F 
ATOM     80  C   UNL A   1      40.910  26.540  26.265  1.00  0.00     0.200 A 
ATOM     81  F   UNL A   1      42.298  28.219  25.353  1.00  0.00    -0.200 F 
ATOM     82  F   UNL A   1      41.048  25.801  25.155  1.00  0.00    -0.200 F 
ENDBRANCH  48  72
BRANCH  60  83
ATOM     83  C   UNL A   1      43.824  28.270  34.784  1.00  0.00     0.064 A 
ATOM     84  C   UNL A   1      43.549  27.088  35.488  1.00  0.00     0.173 A 
ATOM     85  C   UNL A   1      45.166  28.641  34.618  1.00  0.00     0.173 A 
ATOM     86  F   UNL A   1      42.281  26.699  35.684  1.00  0.00    -0.203 F 
ATOM     87  C   UNL A   1      44.579  26.323  36.027  1.00  0.00     0.198 A 
ATOM     88  C   UNL A   1      46.194  27.859  35.136  1.00  0.00     0.198 A 
ATOM     89  F   UNL A   1      45.480  29.760  33.948  1.00  0.00    -0.203 F 
ATOM     90  F   UNL A   1      44.292  25.223  36.738  1.00  0.00    -0.200 F 
ATOM     91  C   UNL A   1      45.900  26.706  35.846  1.00  0.00     0.200 A 
ATOM     92  F   UNL A   1      47.470  28.224  34.950  1.00  0.00    -0.200 F 
ATOM     93  F   UNL A   1      46.890  25.966  36.364  1.00  0.00    -0.200 F 
ENDBRANCH  60  83
ENDBRANCH  34  35
ENDBRANCH  26  29
ENDBRANCH  24  25
ENDBRANCH  23  24
ENDBRANCH   1  23
TORSDOF 14
ENDMDL
