MODEL 1
REMARK VINA RESULT:     -12.9      0.000      0.000
REMARK SMILES C=CCN1C(=O)/C(=C\c2ccco2)S/C1=[NH+]\c1cccc(C(=O)NCCCCNC(=O)c2ccc(-c3c4nc(c(-c5c(F)c(F)c(F)c(F)c5F)c5ccc([nH]5)c(-c5c(F)c(F)c(F)c(F)c5F)c5nc(c(-c6c(F)c(F)c(F)c(F)c6F)c6ccc3[nH]6)C=C5)C=C4)cc2)c1
REMARK SMILES IDX 26 1 25 2 24 3 22 4 23 5 21 7 17 8 18 9 95 10 19 11 20 12
REMARK SMILES IDX 16 13 4 14 5 15 15 16 6 17 7 18 14 19 8 20 3 22 2 23 1 24
REMARK SMILES IDX 9 25 10 26 13 27 11 28 12 29 27 30 28 31 29 32 30 33 31 35
REMARK SMILES IDX 32 36 33 37 94 38 34 39 93 40 35 41 36 42 37 43 87 44 38 45
REMARK SMILES IDX 92 46 86 47 88 48 39 49 91 50 85 51 84 52 40 54 72 55 52 56
REMARK SMILES IDX 71 57 53 58 56 59 70 60 89 61 54 62 55 63 69 65 90 66 57 67
REMARK SMILES IDX 41 68 42 69 50 70 43 71 44 72 48 73 51 74 45 75 46 76 49 77
REMARK SMILES IDX 47 78 73 79 74 80 82 81 75 82 76 83 80 84 83 85 77 86 78 87
REMARK SMILES IDX 81 88 79 89 58 90 59 91 67 92 60 93 61 94 65 95 68 96 62 97
REMARK SMILES IDX 63 98 66 99 64 100
REMARK H PARENT 24 6 16 21 29 34 88 53 56 64
REMARK Flexibility Score: inf
ROOT
ATOM      1  C   UNL A   1      34.374  31.294  27.993  1.00  0.00     0.023 C 
ENDROOT
BRANCH   1   2
ATOM      2  C   UNL A   1      34.246  29.914  27.362  1.00  0.00     0.116 C 
BRANCH   2   3
ATOM      3  N   UNL A   1      33.036  29.198  27.736  1.00  0.00    -0.352 N 
ATOM      4  C   UNL A   1      32.342  28.131  27.206  1.00  0.00     0.251 C 
ATOM      5  O   UNL A   1      31.305  27.798  27.785  1.00  0.00    -0.269 OA
ATOM      6  H   UNL A   1      32.618  29.557  28.552  1.00  0.00     0.163 HD
BRANCH   4   7
ATOM      7  C   UNL A   1      32.738  27.387  25.973  1.00  0.00     0.044 A 
ATOM      8  C   UNL A   1      33.776  25.467  24.866  1.00  0.00     0.126 A 
ATOM      9  C   UNL A   1      33.675  26.128  23.643  1.00  0.00     0.052 A 
ATOM     10  C   UNL A   1      33.230  26.087  25.993  1.00  0.00     0.065 A 
ATOM     11  C   UNL A   1      33.062  27.382  23.565  1.00  0.00     0.005 A 
ATOM     12  C   UNL A   1      32.621  28.019  24.730  1.00  0.00     0.014 A 
BRANCH   8  13
ATOM     13  N   UNL A   1      34.645  24.372  24.990  1.00  0.00    -0.234 N 
ATOM     14  N   UNL A   1      35.159  22.086  25.063  1.00  0.00    -0.182 N 
ATOM     15  C   UNL A   1      34.628  20.826  24.829  1.00  0.00     0.349 C 
ATOM     16  C   UNL A   1      34.381  23.149  24.674  1.00  0.00     0.324 C 
ATOM     17  O   UNL A   1      35.141  19.778  25.204  1.00  0.00    -0.240 OA
ATOM     18  C   UNL A   1      33.313  20.922  24.139  1.00  0.00     0.113 C 
ATOM     19  S   UNL A   1      33.002  22.572  23.754  1.00  0.00     0.007 SA
ATOM     20  C   UNL A   1      32.452  19.942  23.835  1.00  0.00     0.071 C 
ATOM     21  H   UNL A   1      35.543  24.554  25.352  1.00  0.00     0.313 HD
BRANCH  14  22
ATOM     22  C   UNL A   1      36.361  22.104  25.894  1.00  0.00     0.275 C 
BRANCH  22  23
ATOM     23  C   UNL A   1      37.673  22.083  25.181  1.00  0.00     0.011 C 
ATOM     24  C   UNL A   1      38.835  21.761  25.767  1.00  0.00     0.008 C 
ENDBRANCH  22  23
ENDBRANCH  14  22
BRANCH  20  25
ATOM     25  C   UNL A   1      32.690  18.573  24.114  1.00  0.00     0.128 A 
ATOM     26  C   UNL A   1      33.329  17.593  23.362  1.00  0.00     0.050 A 
ATOM     27  O   UNL A   1      32.295  17.996  25.298  1.00  0.00    -0.465 OA
ATOM     28  C   UNL A   1      33.250  16.377  24.083  1.00  0.00     0.042 A 
ATOM     29  C   UNL A   1      32.608  16.679  25.255  1.00  0.00     0.195 A 
ENDBRANCH  20  25
ENDBRANCH   8  13
ENDBRANCH   4   7
ENDBRANCH   2   3
ENDBRANCH   1   2
BRANCH   1  30
ATOM     30  C   UNL A   1      33.106  32.133  28.005  1.00  0.00     0.023 C 
BRANCH  30  31
ATOM     31  C   UNL A   1      33.162  33.424  27.195  1.00  0.00     0.116 C 
BRANCH  31  32
ATOM     32  N   UNL A   1      32.645  34.593  27.897  1.00  0.00    -0.352 N 
ATOM     33  C   UNL A   1      33.101  35.175  29.056  1.00  0.00     0.251 C 
ATOM     34  H   UNL A   1      31.862  35.024  27.484  1.00  0.00     0.163 HD
ATOM     35  O   UNL A   1      32.498  36.116  29.559  1.00  0.00    -0.269 OA
BRANCH  33  36
ATOM     36  C   UNL A   1      34.305  34.625  29.714  1.00  0.00     0.039 A 
ATOM     37  C   UNL A   1      34.162  33.944  30.923  1.00  0.00     0.014 A 
ATOM     38  C   UNL A   1      35.558  34.733  29.106  1.00  0.00     0.014 A 
ATOM     39  C   UNL A   1      35.269  33.304  31.485  1.00  0.00     0.010 A 
ATOM     40  C   UNL A   1      36.635  34.018  29.618  1.00  0.00     0.010 A 
ATOM     41  C   UNL A   1      36.504  33.299  30.815  1.00  0.00    -0.014 A 
BRANCH  41  42
ATOM     42  C   UNL A   1      37.669  32.556  31.359  1.00  0.00     0.031 A 
ATOM     43  C   UNL A   1      38.268  32.955  32.678  1.00  0.00     0.074 A 
ATOM     44  C   UNL A   1      38.218  31.557  30.640  1.00  0.00     0.049 A 
ATOM     45  N   UNL A   1      39.302  32.450  33.305  1.00  0.00    -0.248 NA
ATOM     46  C   UNL A   1      37.644  34.091  33.374  1.00  0.00     0.031 C 
ATOM     47  C   UNL A   1      37.765  31.116  29.320  1.00  0.00     0.029 A 
ATOM     48  N   UNL A   1      39.280  30.732  30.917  1.00  0.00    -0.354 N 
ATOM     49  C   UNL A   1      39.453  33.210  34.457  1.00  0.00     0.074 A 
ATOM     50  C   UNL A   1      38.451  34.252  34.411  1.00  0.00     0.031 C 
ATOM     51  C   UNL A   1      38.519  30.081  28.918  1.00  0.00     0.029 A 
ATOM     52  C   UNL A   1      39.535  29.810  29.930  1.00  0.00     0.049 A 
ATOM     53  H   UNL A   1      39.809  30.796  31.744  1.00  0.00     0.167 HD
ATOM     54  C   UNL A   1      40.326  33.036  35.477  1.00  0.00     0.037 A 
ATOM     55  C   UNL A   1      40.481  28.856  29.853  1.00  0.00     0.037 A 
ATOM     56  C   UNL A   1      41.307  31.984  35.527  1.00  0.00     0.049 A 
ATOM     57  C   UNL A   1      41.449  28.691  30.995  1.00  0.00     0.074 A 
ATOM     58  C   UNL A   1      42.197  31.683  36.543  1.00  0.00     0.029 A 
ATOM     59  N   UNL A   1      41.530  31.064  34.513  1.00  0.00    -0.354 N 
ATOM     60  N   UNL A   1      41.527  29.362  32.118  1.00  0.00    -0.248 NA
ATOM     61  C   UNL A   1      42.455  27.629  30.861  1.00  0.00     0.031 C 
ATOM     62  C   UNL A   1      42.999  30.620  36.118  1.00  0.00     0.029 A 
ATOM     63  C   UNL A   1      42.566  30.213  34.866  1.00  0.00     0.049 A 
ATOM     64  H   UNL A   1      41.028  31.022  33.667  1.00  0.00     0.167 HD
ATOM     65  C   UNL A   1      42.568  28.788  32.836  1.00  0.00     0.074 A 
ATOM     66  C   UNL A   1      43.078  27.700  32.029  1.00  0.00     0.031 C 
ATOM     67  C   UNL A   1      43.060  29.132  34.052  1.00  0.00     0.037 A 
BRANCH  54  68
ATOM     68  C   UNL A   1      40.255  34.003  36.624  1.00  0.00     0.064 A 
ATOM     69  C   UNL A   1      41.062  35.151  36.673  1.00  0.00     0.173 A 
ATOM     70  C   UNL A   1      39.346  33.799  37.673  1.00  0.00     0.173 A 
ATOM     71  F   UNL A   1      41.957  35.389  35.702  1.00  0.00    -0.203 F 
ATOM     72  C   UNL A   1      40.986  36.038  37.743  1.00  0.00     0.198 A 
ATOM     73  C   UNL A   1      39.247  34.707  38.725  1.00  0.00     0.198 A 
ATOM     74  F   UNL A   1      38.547  32.721  37.677  1.00  0.00    -0.203 F 
ATOM     75  F   UNL A   1      41.807  37.097  37.794  1.00  0.00    -0.200 F 
ATOM     76  C   UNL A   1      40.073  35.820  38.764  1.00  0.00     0.200 A 
ATOM     77  F   UNL A   1      38.355  34.502  39.703  1.00  0.00    -0.200 F 
ATOM     78  F   UNL A   1      39.994  36.679  39.789  1.00  0.00    -0.200 F 
ENDBRANCH  54  68
BRANCH  55  79
ATOM     79  C   UNL A   1      40.549  27.966  28.663  1.00  0.00     0.064 A 
ATOM     80  C   UNL A   1      41.297  28.328  27.533  1.00  0.00     0.173 A 
ATOM     81  C   UNL A   1      39.858  26.746  28.622  1.00  0.00     0.173 A 
ATOM     82  F   UNL A   1      41.959  29.494  27.513  1.00  0.00    -0.203 F 
ATOM     83  C   UNL A   1      41.331  27.516  26.400  1.00  0.00     0.198 A 
ATOM     84  C   UNL A   1      39.920  25.920  27.502  1.00  0.00     0.198 A 
ATOM     85  F   UNL A   1      39.133  26.350  29.677  1.00  0.00    -0.203 F 
ATOM     86  F   UNL A   1      42.011  27.912  25.315  1.00  0.00    -0.200 F 
ATOM     87  C   UNL A   1      40.648  26.310  26.388  1.00  0.00     0.200 A 
ATOM     88  F   UNL A   1      39.271  24.747  27.501  1.00  0.00    -0.200 F 
ATOM     89  F   UNL A   1      40.683  25.528  25.300  1.00  0.00    -0.200 F 
ENDBRANCH  55  79
BRANCH  67  90
ATOM     90  C   UNL A   1      44.186  28.302  34.599  1.00  0.00     0.064 A 
ATOM     91  C   UNL A   1      45.529  28.653  34.396  1.00  0.00     0.173 A 
ATOM     92  C   UNL A   1      43.916  27.159  35.367  1.00  0.00     0.173 A 
ATOM     93  F   UNL A   1      45.842  29.730  33.659  1.00  0.00    -0.203 F 
ATOM     94  C   UNL A   1      46.559  27.872  34.914  1.00  0.00     0.198 A 
ATOM     95  C   UNL A   1      44.948  26.401  35.914  1.00  0.00     0.198 A 
ATOM     96  F   UNL A   1      42.650  26.782  35.600  1.00  0.00    -0.203 F 
ATOM     97  F   UNL A   1      47.835  28.196  34.660  1.00  0.00    -0.200 F 
ATOM     98  C   UNL A   1      46.269  26.752  35.679  1.00  0.00     0.200 A 
ATOM     99  F   UNL A   1      44.664  25.329  36.667  1.00  0.00    -0.200 F 
ATOM    100  F   UNL A   1      47.261  26.007  36.182  1.00  0.00    -0.200 F 
ENDBRANCH  67  90
ENDBRANCH  41  42
ENDBRANCH  33  36
ENDBRANCH  31  32
ENDBRANCH  30  31
ENDBRANCH   1  30
TORSDOF 15
ENDMDL
MODEL 2
REMARK VINA RESULT:     -12.8      0.522      7.016
REMARK SMILES C=CCN1C(=O)/C(=C\c2ccco2)S/C1=[NH+]\c1cccc(C(=O)NCCCCNC(=O)c2ccc(-c3c4nc(c(-c5c(F)c(F)c(F)c(F)c5F)c5ccc([nH]5)c(-c5c(F)c(F)c(F)c(F)c5F)c5nc(c(-c6c(F)c(F)c(F)c(F)c6F)c6ccc3[nH]6)C=C5)C=C4)cc2)c1
REMARK SMILES IDX 26 1 25 2 24 3 22 4 23 5 21 7 17 8 18 9 95 10 19 11 20 12
REMARK SMILES IDX 16 13 4 14 5 15 15 16 6 17 7 18 14 19 8 20 3 22 2 23 1 24
REMARK SMILES IDX 9 25 10 26 13 27 11 28 12 29 27 30 28 31 29 32 30 33 31 35
REMARK SMILES IDX 32 36 33 37 94 38 34 39 93 40 35 41 36 42 37 43 87 44 38 45
REMARK SMILES IDX 92 46 86 47 88 48 39 49 91 50 85 51 84 52 40 54 72 55 52 56
REMARK SMILES IDX 71 57 53 58 56 59 70 60 89 61 54 62 55 63 69 65 90 66 57 67
REMARK SMILES IDX 41 68 42 69 50 70 43 71 44 72 48 73 51 74 45 75 46 76 49 77
REMARK SMILES IDX 47 78 73 79 74 80 82 81 75 82 76 83 80 84 83 85 77 86 78 87
REMARK SMILES IDX 81 88 79 89 58 90 59 91 67 92 60 93 61 94 65 95 68 96 62 97
REMARK SMILES IDX 63 98 66 99 64 100
REMARK H PARENT 24 6 16 21 29 34 88 53 56 64
REMARK Flexibility Score: inf
ROOT
ATOM      1  C   UNL A   1      34.543  31.056  27.964  1.00  0.00     0.023 C 
ENDROOT
BRANCH   1   2
ATOM      2  C   UNL A   1      34.363  29.660  27.383  1.00  0.00     0.116 C 
BRANCH   2   3
ATOM      3  N   UNL A   1      33.080  29.048  27.690  1.00  0.00    -0.352 N 
ATOM      4  C   UNL A   1      32.322  28.050  27.113  1.00  0.00     0.251 C 
ATOM      5  O   UNL A   1      31.236  27.802  27.639  1.00  0.00    -0.269 OA
ATOM      6  H   UNL A   1      32.657  29.432  28.492  1.00  0.00     0.163 HD
BRANCH   4   7
ATOM      7  C   UNL A   1      32.710  27.288  25.890  1.00  0.00     0.044 A 
ATOM      8  C   UNL A   1      33.747  25.354  24.804  1.00  0.00     0.126 A 
ATOM      9  C   UNL A   1      33.632  25.995  23.571  1.00  0.00     0.052 A 
ATOM     10  C   UNL A   1      33.208  25.991  25.925  1.00  0.00     0.065 A 
ATOM     11  C   UNL A   1      33.012  27.245  23.478  1.00  0.00     0.005 A 
ATOM     12  C   UNL A   1      32.579  27.899  24.638  1.00  0.00     0.014 A 
BRANCH   8  13
ATOM     13  N   UNL A   1      34.622  24.265  24.937  1.00  0.00    -0.234 N 
ATOM     14  N   UNL A   1      35.146  21.983  25.047  1.00  0.00    -0.182 N 
ATOM     15  C   UNL A   1      34.617  20.717  24.843  1.00  0.00     0.349 C 
ATOM     16  C   UNL A   1      34.358  23.036  24.648  1.00  0.00     0.324 C 
ATOM     17  O   UNL A   1      35.139  19.678  25.232  1.00  0.00    -0.240 OA
ATOM     18  C   UNL A   1      33.293  20.795  24.168  1.00  0.00     0.113 C 
ATOM     19  S   UNL A   1      32.971  22.437  23.756  1.00  0.00     0.007 SA
ATOM     20  C   UNL A   1      32.432  19.806  23.894  1.00  0.00     0.071 C 
ATOM     21  H   UNL A   1      35.523  24.457  25.285  1.00  0.00     0.313 HD
BRANCH  14  22
ATOM     22  C   UNL A   1      36.358  22.021  25.862  1.00  0.00     0.275 C 
BRANCH  22  23
ATOM     23  C   UNL A   1      37.659  21.890  25.141  1.00  0.00     0.011 C 
ATOM     24  C   UNL A   1      38.850  21.838  25.755  1.00  0.00     0.008 C 
ENDBRANCH  22  23
ENDBRANCH  14  22
BRANCH  20  25
ATOM     25  C   UNL A   1      32.680  18.444  24.195  1.00  0.00     0.128 A 
ATOM     26  C   UNL A   1      33.364  17.467  23.480  1.00  0.00     0.050 A 
ATOM     27  O   UNL A   1      32.244  17.871  25.368  1.00  0.00    -0.465 OA
ATOM     28  C   UNL A   1      33.274  16.257  24.208  1.00  0.00     0.042 A 
ATOM     29  C   UNL A   1      32.579  16.558  25.350  1.00  0.00     0.195 A 
ENDBRANCH  20  25
ENDBRANCH   8  13
ENDBRANCH   4   7
ENDBRANCH   2   3
ENDBRANCH   1   2
BRANCH   1  30
ATOM     30  C   UNL A   1      33.292  31.921  28.002  1.00  0.00     0.023 C 
BRANCH  30  31
ATOM     31  C   UNL A   1      33.310  33.145  27.093  1.00  0.00     0.116 C 
BRANCH  31  32
ATOM     32  N   UNL A   1      32.732  34.342  27.693  1.00  0.00    -0.352 N 
ATOM     33  C   UNL A   1      33.101  34.993  28.846  1.00  0.00     0.251 C 
ATOM     34  H   UNL A   1      31.974  34.738  27.204  1.00  0.00     0.163 HD
ATOM     35  O   UNL A   1      32.454  35.951  29.254  1.00  0.00    -0.269 OA
BRANCH  33  36
ATOM     36  C   UNL A   1      34.263  34.499  29.614  1.00  0.00     0.039 A 
ATOM     37  C   UNL A   1      34.045  33.869  30.840  1.00  0.00     0.014 A 
ATOM     38  C   UNL A   1      35.555  34.606  29.093  1.00  0.00     0.014 A 
ATOM     39  C   UNL A   1      35.118  33.278  31.509  1.00  0.00     0.010 A 
ATOM     40  C   UNL A   1      36.604  33.936  29.714  1.00  0.00     0.010 A 
ATOM     41  C   UNL A   1      36.399  33.270  30.930  1.00  0.00    -0.014 A 
BRANCH  41  42
ATOM     42  C   UNL A   1      37.534  32.576  31.590  1.00  0.00     0.031 A 
ATOM     43  C   UNL A   1      38.207  31.417  30.911  1.00  0.00     0.074 A 
ATOM     44  C   UNL A   1      37.924  32.958  32.823  1.00  0.00     0.049 A 
ATOM     45  N   UNL A   1      39.193  30.667  31.336  1.00  0.00    -0.248 NA
ATOM     46  C   UNL A   1      37.687  31.028  29.590  1.00  0.00     0.031 C 
ATOM     47  C   UNL A   1      37.311  34.029  33.610  1.00  0.00     0.029 A 
ATOM     48  N   UNL A   1      38.928  32.486  33.631  1.00  0.00    -0.354 N 
ATOM     49  C   UNL A   1      39.401  29.718  30.342  1.00  0.00     0.074 A 
ATOM     50  C   UNL A   1      38.397  29.942  29.326  1.00  0.00     0.031 C 
ATOM     51  C   UNL A   1      37.973  34.155  34.772  1.00  0.00     0.029 A 
ATOM     52  C   UNL A   1      39.029  33.150  34.830  1.00  0.00     0.049 A 
ATOM     53  H   UNL A   1      39.519  31.742  33.377  1.00  0.00     0.167 HD
ATOM     54  C   UNL A   1      40.362  28.767  30.269  1.00  0.00     0.037 A 
ATOM     55  C   UNL A   1      39.877  32.966  35.859  1.00  0.00     0.037 A 
ATOM     56  C   UNL A   1      41.371  28.561  31.273  1.00  0.00     0.049 A 
ATOM     57  C   UNL A   1      40.928  31.893  35.758  1.00  0.00     0.074 A 
ATOM     58  C   UNL A   1      42.426  27.666  31.265  1.00  0.00     0.029 A 
ATOM     59  N   UNL A   1      41.446  29.259  32.471  1.00  0.00    -0.354 N 
ATOM     60  N   UNL A   1      41.168  31.059  34.776  1.00  0.00    -0.248 NA
ATOM     61  C   UNL A   1      41.833  31.743  36.906  1.00  0.00     0.031 C 
ATOM     62  C   UNL A   1      43.103  27.780  32.483  1.00  0.00     0.029 A 
ATOM     63  C   UNL A   1      42.513  28.792  33.223  1.00  0.00     0.049 A 
ATOM     64  H   UNL A   1      40.833  29.978  32.745  1.00  0.00     0.167 HD
ATOM     65  C   UNL A   1      42.265  30.305  35.173  1.00  0.00     0.074 A 
ATOM     66  C   UNL A   1      42.656  30.797  36.478  1.00  0.00     0.031 C 
ATOM     67  C   UNL A   1      42.891  29.295  34.519  1.00  0.00     0.037 A 
BRANCH  54  68
ATOM     68  C   UNL A   1      40.367  27.879  29.057  1.00  0.00     0.064 A 
ATOM     69  C   UNL A   1      41.121  28.194  27.914  1.00  0.00     0.173 A 
ATOM     70  C   UNL A   1      39.637  26.681  29.048  1.00  0.00     0.173 A 
ATOM     71  F   UNL A   1      41.828  29.333  27.864  1.00  0.00    -0.203 F 
ATOM     72  C   UNL A   1      41.115  27.361  26.799  1.00  0.00     0.198 A 
ATOM     73  C   UNL A   1      39.663  25.832  27.944  1.00  0.00     0.198 A 
ATOM     74  F   UNL A   1      38.903  26.328  30.114  1.00  0.00    -0.203 F 
ATOM     75  F   UNL A   1      41.797  27.711  25.699  1.00  0.00    -0.200 F 
ATOM     76  C   UNL A   1      40.393  26.178  26.817  1.00  0.00     0.200 A 
ATOM     77  F   UNL A   1      38.975  24.682  27.969  1.00  0.00    -0.200 F 
ATOM     78  F   UNL A   1      40.396  25.372  25.747  1.00  0.00    -0.200 F 
ENDBRANCH  54  68
BRANCH  55  79
ATOM     79  C   UNL A   1      39.786  33.832  37.066  1.00  0.00     0.064 A 
ATOM     80  C   UNL A   1      40.529  35.017  37.161  1.00  0.00     0.173 A 
ATOM     81  C   UNL A   1      38.969  33.488  38.152  1.00  0.00     0.173 A 
ATOM     82  F   UNL A   1      41.342  35.381  36.158  1.00  0.00    -0.203 F 
ATOM     83  C   UNL A   1      40.478  35.811  38.306  1.00  0.00     0.198 A 
ATOM     84  C   UNL A   1      38.893  34.299  39.283  1.00  0.00     0.198 A 
ATOM     85  F   UNL A   1      38.232  32.368  38.111  1.00  0.00    -0.203 F 
ATOM     86  F   UNL A   1      41.240  36.910  38.391  1.00  0.00    -0.200 F 
ATOM     87  C   UNL A   1      39.655  35.455  39.363  1.00  0.00     0.200 A 
ATOM     88  F   UNL A   1      38.084  33.959  40.296  1.00  0.00    -0.200 F 
ATOM     89  F   UNL A   1      39.603  36.219  40.462  1.00  0.00    -0.200 F 
ENDBRANCH  55  79
BRANCH  67  90
ATOM     90  C   UNL A   1      44.085  28.676  35.189  1.00  0.00     0.064 A 
ATOM     91  C   UNL A   1      45.383  29.169  34.987  1.00  0.00     0.173 A 
ATOM     92  C   UNL A   1      43.922  27.599  36.074  1.00  0.00     0.173 A 
ATOM     93  F   UNL A   1      45.594  30.189  34.142  1.00  0.00    -0.203 F 
ATOM     94  C   UNL A   1      46.477  28.584  35.620  1.00  0.00     0.198 A 
ATOM     95  C   UNL A   1      45.014  27.041  36.733  1.00  0.00     0.198 A 
ATOM     96  F   UNL A   1      42.703  27.095  36.311  1.00  0.00    -0.203 F 
ATOM     97  F   UNL A   1      47.714  29.035  35.368  1.00  0.00    -0.200 F 
ATOM     98  C   UNL A   1      46.291  27.527  36.498  1.00  0.00     0.200 A 
ATOM     99  F   UNL A   1      44.830  26.031  37.594  1.00  0.00    -0.200 F 
ATOM    100  F   UNL A   1      47.344  26.971  37.112  1.00  0.00    -0.200 F 
ENDBRANCH  67  90
ENDBRANCH  41  42
ENDBRANCH  33  36
ENDBRANCH  31  32
ENDBRANCH  30  31
ENDBRANCH   1  30
TORSDOF 15
ENDMDL
MODEL 3
REMARK VINA RESULT:     -12.6      5.373     10.616
REMARK SMILES C=CCN1C(=O)/C(=C\c2ccco2)S/C1=[NH+]\c1cccc(C(=O)NCCCCNC(=O)c2ccc(-c3c4nc(c(-c5c(F)c(F)c(F)c(F)c5F)c5ccc([nH]5)c(-c5c(F)c(F)c(F)c(F)c5F)c5nc(c(-c6c(F)c(F)c(F)c(F)c6F)c6ccc3[nH]6)C=C5)C=C4)cc2)c1
REMARK SMILES IDX 26 1 25 2 24 3 22 4 23 5 21 7 17 8 18 9 95 10 19 11 20 12
REMARK SMILES IDX 16 13 4 14 5 15 15 16 6 17 7 18 14 19 8 20 3 22 2 23 1 24
REMARK SMILES IDX 9 25 10 26 13 27 11 28 12 29 27 30 28 31 29 32 30 33 31 35
REMARK SMILES IDX 32 36 33 37 94 38 34 39 93 40 35 41 36 42 37 43 87 44 38 45
REMARK SMILES IDX 92 46 86 47 88 48 39 49 91 50 85 51 84 52 40 54 72 55 52 56
REMARK SMILES IDX 71 57 53 58 56 59 70 60 89 61 54 62 55 63 69 65 90 66 57 67
REMARK SMILES IDX 41 68 42 69 50 70 43 71 44 72 48 73 51 74 45 75 46 76 49 77
REMARK SMILES IDX 47 78 73 79 74 80 82 81 75 82 76 83 80 84 83 85 77 86 78 87
REMARK SMILES IDX 81 88 79 89 58 90 59 91 67 92 60 93 61 94 65 95 68 96 62 97
REMARK SMILES IDX 63 98 66 99 64 100
REMARK H PARENT 24 6 16 21 29 34 88 53 56 64
REMARK Flexibility Score: inf
ROOT
ATOM      1  C   UNL A   1      37.165  20.641  25.270  1.00  0.00     0.023 C 
ENDROOT
BRANCH   1   2
ATOM      2  C   UNL A   1      37.412  22.052  24.757  1.00  0.00     0.116 C 
BRANCH   2   3
ATOM      3  N   UNL A   1      36.612  22.412  23.595  1.00  0.00    -0.352 N 
ATOM      4  C   UNL A   1      35.378  23.001  23.417  1.00  0.00     0.251 C 
ATOM      5  O   UNL A   1      34.985  23.129  22.255  1.00  0.00    -0.269 OA
ATOM      6  H   UNL A   1      37.052  22.183  22.745  1.00  0.00     0.163 HD
BRANCH   4   7
ATOM      7  C   UNL A   1      34.484  23.454  24.523  1.00  0.00     0.044 A 
ATOM      8  C   UNL A   1      33.188  25.190  25.661  1.00  0.00     0.126 A 
ATOM      9  C   UNL A   1      32.997  24.330  26.741  1.00  0.00     0.052 A 
ATOM     10  C   UNL A   1      33.864  24.698  24.542  1.00  0.00     0.065 A 
ATOM     11  C   UNL A   1      33.491  23.022  26.699  1.00  0.00     0.005 A 
ATOM     12  C   UNL A   1      34.255  22.597  25.606  1.00  0.00     0.014 A 
BRANCH   8  13
ATOM     13  N   UNL A   1      32.963  26.566  25.826  1.00  0.00    -0.234 N 
ATOM     14  N   UNL A   1      31.965  28.618  25.293  1.00  0.00    -0.182 N 
ATOM     15  C   UNL A   1      30.957  29.191  24.532  1.00  0.00     0.349 C 
ATOM     16  C   UNL A   1      31.988  27.245  25.324  1.00  0.00     0.324 C 
ATOM     17  O   UNL A   1      30.852  30.393  24.313  1.00  0.00    -0.240 OA
ATOM     18  C   UNL A   1      30.071  28.148  23.948  1.00  0.00     0.113 C 
ATOM     19  S   UNL A   1      30.545  26.607  24.556  1.00  0.00     0.007 SA
ATOM     20  C   UNL A   1      29.058  28.295  23.084  1.00  0.00     0.071 C 
ATOM     21  H   UNL A   1      33.612  27.060  26.379  1.00  0.00     0.313 HD
BRANCH  14  22
ATOM     22  C   UNL A   1      32.990  29.549  25.760  1.00  0.00     0.275 C 
BRANCH  22  23
ATOM     23  C   UNL A   1      32.849  30.060  27.156  1.00  0.00     0.011 C 
ATOM     24  C   UNL A   1      33.357  31.227  27.578  1.00  0.00     0.008 C 
ENDBRANCH  22  23
ENDBRANCH  14  22
BRANCH  20  25
ATOM     25  C   UNL A   1      28.626  29.550  22.586  1.00  0.00     0.128 A 
ATOM     26  C   UNL A   1      27.743  30.482  23.121  1.00  0.00     0.050 A 
ATOM     27  O   UNL A   1      29.098  30.059  21.399  1.00  0.00    -0.465 OA
ATOM     28  C   UNL A   1      27.626  31.545  22.194  1.00  0.00     0.042 A 
ATOM     29  C   UNL A   1      28.471  31.236  21.161  1.00  0.00     0.195 A 
ENDBRANCH  20  25
ENDBRANCH   8  13
ENDBRANCH   4   7
ENDBRANCH   2   3
ENDBRANCH   1   2
BRANCH   1  30
ATOM     30  C   UNL A   1      38.317  19.664  25.094  1.00  0.00     0.023 C 
BRANCH  30  31
ATOM     31  C   UNL A   1      39.618  20.045  25.794  1.00  0.00     0.116 C 
BRANCH  31  32
ATOM     32  N   UNL A   1      40.590  18.963  25.878  1.00  0.00    -0.352 N 
ATOM     33  C   UNL A   1      41.940  19.034  26.130  1.00  0.00     0.251 C 
ATOM     34  H   UNL A   1      40.232  18.057  25.736  1.00  0.00     0.163 HD
ATOM     35  O   UNL A   1      42.635  18.026  26.088  1.00  0.00    -0.269 OA
BRANCH  33  36
ATOM     36  C   UNL A   1      42.554  20.349  26.409  1.00  0.00     0.039 A 
ATOM     37  C   UNL A   1      43.159  21.049  25.364  1.00  0.00     0.014 A 
ATOM     38  C   UNL A   1      42.477  20.912  27.686  1.00  0.00     0.014 A 
ATOM     39  C   UNL A   1      43.621  22.348  25.584  1.00  0.00     0.010 A 
ATOM     40  C   UNL A   1      42.851  22.238  27.877  1.00  0.00     0.010 A 
ATOM     41  C   UNL A   1      43.431  22.968  26.830  1.00  0.00    -0.014 A 
BRANCH  41  42
ATOM     42  C   UNL A   1      43.844  24.377  27.057  1.00  0.00     0.031 A 
ATOM     43  C   UNL A   1      42.837  25.392  27.519  1.00  0.00     0.074 A 
ATOM     44  C   UNL A   1      45.112  24.751  26.797  1.00  0.00     0.049 A 
ATOM     45  N   UNL A   1      42.995  26.673  27.745  1.00  0.00    -0.248 NA
ATOM     46  C   UNL A   1      41.460  24.915  27.729  1.00  0.00     0.031 C 
ATOM     47  C   UNL A   1      46.166  23.872  26.287  1.00  0.00     0.029 A 
ATOM     48  N   UNL A   1      45.730  25.971  26.922  1.00  0.00    -0.354 N 
ATOM     49  C   UNL A   1      41.743  27.149  28.111  1.00  0.00     0.074 A 
ATOM     50  C   UNL A   1      40.822  26.040  28.012  1.00  0.00     0.031 C 
ATOM     51  C   UNL A   1      47.307  24.571  26.176  1.00  0.00     0.029 A 
ATOM     52  C   UNL A   1      47.058  25.955  26.567  1.00  0.00     0.049 A 
ATOM     53  H   UNL A   1      45.266  26.780  27.235  1.00  0.00     0.167 HD
ATOM     54  C   UNL A   1      41.399  28.392  28.524  1.00  0.00     0.037 A 
ATOM     55  C   UNL A   1      47.969  26.946  26.557  1.00  0.00     0.037 A 
ATOM     56  C   UNL A   1      42.324  29.488  28.641  1.00  0.00     0.049 A 
ATOM     57  C   UNL A   1      47.557  28.323  27.009  1.00  0.00     0.074 A 
ATOM     58  C   UNL A   1      42.089  30.769  29.108  1.00  0.00     0.029 A 
ATOM     59  N   UNL A   1      43.663  29.433  28.280  1.00  0.00    -0.354 N 
ATOM     60  N   UNL A   1      46.390  28.740  27.435  1.00  0.00    -0.248 NA
ATOM     61  C   UNL A   1      48.594  29.364  26.987  1.00  0.00     0.031 C 
ATOM     62  C   UNL A   1      43.270  31.506  28.973  1.00  0.00     0.029 A 
ATOM     63  C   UNL A   1      44.259  30.667  28.485  1.00  0.00     0.049 A 
ATOM     64  H   UNL A   1      44.121  28.635  27.929  1.00  0.00     0.167 HD
ATOM     65  C   UNL A   1      46.557  30.080  27.758  1.00  0.00     0.074 A 
ATOM     66  C   UNL A   1      47.945  30.400  27.498  1.00  0.00     0.031 C 
ATOM     67  C   UNL A   1      45.644  30.968  28.224  1.00  0.00     0.037 A 
BRANCH  54  68
ATOM     68  C   UNL A   1      39.960  28.630  28.885  1.00  0.00     0.064 A 
ATOM     69  C   UNL A   1      39.469  28.371  30.175  1.00  0.00     0.173 A 
ATOM     70  C   UNL A   1      39.066  29.153  27.939  1.00  0.00     0.173 A 
ATOM     71  F   UNL A   1      40.278  27.859  31.115  1.00  0.00    -0.203 F 
ATOM     72  C   UNL A   1      38.133  28.596  30.494  1.00  0.00     0.198 A 
ATOM     73  C   UNL A   1      37.738  29.410  28.271  1.00  0.00     0.198 A 
ATOM     74  F   UNL A   1      39.480  29.423  26.692  1.00  0.00    -0.203 F 
ATOM     75  F   UNL A   1      37.676  28.288  31.716  1.00  0.00    -0.200 F 
ATOM     76  C   UNL A   1      37.270  29.122  29.544  1.00  0.00     0.200 A 
ATOM     77  F   UNL A   1      36.909  29.933  27.357  1.00  0.00    -0.200 F 
ATOM     78  F   UNL A   1      35.987  29.347  29.855  1.00  0.00    -0.200 F 
ENDBRANCH  54  68
BRANCH  55  79
ATOM     79  C   UNL A   1      49.367  26.672  26.128  1.00  0.00     0.064 A 
ATOM     80  C   UNL A   1      49.768  26.883  24.801  1.00  0.00     0.173 A 
ATOM     81  C   UNL A   1      50.324  26.181  27.027  1.00  0.00     0.173 A 
ATOM     82  F   UNL A   1      48.885  27.331  23.897  1.00  0.00    -0.203 F 
ATOM     83  C   UNL A   1      51.066  26.589  24.384  1.00  0.00     0.198 A 
ATOM     84  C   UNL A   1      51.630  25.919  26.617  1.00  0.00     0.198 A 
ATOM     85  F   UNL A   1      49.995  25.967  28.309  1.00  0.00    -0.203 F 
ATOM     86  F   UNL A   1      51.407  26.750  23.098  1.00  0.00    -0.200 F 
ATOM     87  C   UNL A   1      51.997  26.114  25.294  1.00  0.00     0.200 A 
ATOM     88  F   UNL A   1      52.532  25.475  27.503  1.00  0.00    -0.200 F 
ATOM     89  F   UNL A   1      53.245  25.835  24.894  1.00  0.00    -0.200 F 
ENDBRANCH  55  79
BRANCH  67  90
ATOM     90  C   UNL A   1      46.124  32.361  28.516  1.00  0.00     0.064 A 
ATOM     91  C   UNL A   1      46.652  32.714  29.767  1.00  0.00     0.173 A 
ATOM     92  C   UNL A   1      46.090  33.347  27.517  1.00  0.00     0.173 A 
ATOM     93  F   UNL A   1      46.697  31.812  30.760  1.00  0.00    -0.203 F 
ATOM     94  C   UNL A   1      47.096  34.010  30.017  1.00  0.00     0.198 A 
ATOM     95  C   UNL A   1      46.568  34.631  27.759  1.00  0.00     0.198 A 
ATOM     96  F   UNL A   1      45.603  33.061  26.301  1.00  0.00    -0.203 F 
ATOM     97  F   UNL A   1      47.544  34.338  31.237  1.00  0.00    -0.200 F 
ATOM     98  C   UNL A   1      47.061  34.965  29.012  1.00  0.00     0.200 A 
ATOM     99  F   UNL A   1      46.549  35.547  26.782  1.00  0.00    -0.200 F 
ATOM    100  F   UNL A   1      47.496  36.209  29.253  1.00  0.00    -0.200 F 
ENDBRANCH  67  90
ENDBRANCH  41  42
ENDBRANCH  33  36
ENDBRANCH  31  32
ENDBRANCH  30  31
ENDBRANCH   1  30
TORSDOF 15
ENDMDL
