MODEL 1
REMARK VINA RESULT:     -12.6      0.000      0.000
REMARK SMILES Cc1[nH]c2ccccc2c1[C@H]([NH3+])CC(=O)NCCCCNC(=O)c1ccc(-c2c3nc(c(-c4c(F)c(F)c(F)c(F)c4F)c4ccc([nH]4)c(-c4c(F)c(F)c(F)c(F)c4F)c4nc(c(-c5c(F)c(F)c(F)c(F)c5F)c5ccc2[nH]5)C=C4)C=C3)cc1
REMARK SMILES IDX 18 1 17 2 16 3 14 4 15 5 13 7 11 8 10 9 1 10 2 11 3 12 4 13
REMARK SMILES IDX 9 15 5 16 8 17 6 18 7 19 12 20 19 24 20 25 21 26 22 27 23 29
REMARK SMILES IDX 24 30 25 31 86 32 26 33 85 34 27 35 28 36 29 37 79 38 30 39
REMARK SMILES IDX 84 40 78 41 80 42 31 43 83 44 77 45 76 46 32 48 64 49 44 50
REMARK SMILES IDX 63 51 45 52 48 53 62 54 81 55 46 56 47 57 61 59 82 60 49 61
REMARK SMILES IDX 33 62 34 63 42 64 35 65 36 66 40 67 43 68 37 69 38 70 41 71
REMARK SMILES IDX 39 72 65 73 66 74 74 75 67 76 68 77 72 78 75 79 69 80 70 81
REMARK SMILES IDX 73 82 71 83 50 84 51 85 59 86 52 87 53 88 57 89 60 90 54 91
REMARK SMILES IDX 55 92 58 93 56 94
REMARK H PARENT 16 6 3 14 12 21 12 22 12 23 21 28 80 47 48 58
REMARK Flexibility Score: inf
ROOT
ATOM      1  C   UNL A   1      31.728  30.724  26.019  1.00  0.00     0.023 C 
ENDROOT
BRANCH   1   2
ATOM      2  C   UNL A   1      31.857  29.619  27.065  1.00  0.00     0.116 C 
BRANCH   2   3
ATOM      3  N   UNL A   1      32.886  28.667  26.708  1.00  0.00    -0.356 N 
ATOM      4  C   UNL A   1      32.731  27.421  26.172  1.00  0.00     0.226 C 
ATOM      5  O   UNL A   1      33.722  26.697  26.056  1.00  0.00    -0.275 OA
ATOM      6  H   UNL A   1      33.814  28.953  26.873  1.00  0.00     0.163 HD
BRANCH   4   7
ATOM      7  C   UNL A   1      31.368  26.981  25.689  1.00  0.00     0.170 C 
BRANCH   7   8
ATOM      8  C   UNL A   1      31.336  26.603  24.204  1.00  0.00     0.223 C 
BRANCH   8   9
ATOM      9  C   UNL A   1      31.250  27.844  23.338  1.00  0.00     0.038 A 
ATOM     10  C   UNL A   1      33.711  28.504  22.543  1.00  0.00     0.065 C 
ATOM     11  C   UNL A   1      32.230  28.594  22.682  1.00  0.00     0.022 A 
ATOM     12  N   UNL A   1      31.590  29.645  22.064  1.00  0.00    -0.358 N 
ATOM     13  C   UNL A   1      30.234  29.576  22.245  1.00  0.00     0.046 A 
ATOM     14  H   UNL A   1      32.047  30.353  21.557  1.00  0.00     0.166 HD
ATOM     15  C   UNL A   1      29.986  28.455  23.024  1.00  0.00     0.009 A 
ATOM     16  C   UNL A   1      29.218  30.417  21.778  1.00  0.00     0.027 A 
ATOM     17  C   UNL A   1      28.648  28.139  23.343  1.00  0.00     0.011 A 
ATOM     18  C   UNL A   1      27.901  30.083  22.109  1.00  0.00     0.002 A 
ATOM     19  C   UNL A   1      27.617  28.957  22.876  1.00  0.00     0.001 A 
ENDBRANCH   8   9
BRANCH   8  20
ATOM     20  N   UNL A   1      30.275  25.685  23.808  1.00  0.00    -0.351 N 
ATOM     21  H   UNL A   1      30.663  24.749  23.691  1.00  0.00     0.345 HD
ATOM     22  H   UNL A   1      29.867  25.996  22.927  1.00  0.00     0.345 HD
ATOM     23  H   UNL A   1      29.554  25.666  24.529  1.00  0.00     0.345 HD
ENDBRANCH   8  20
ENDBRANCH   7   8
ENDBRANCH   4   7
ENDBRANCH   2   3
ENDBRANCH   1   2
BRANCH   1  24
ATOM     24  C   UNL A   1      31.425  32.105  26.580  1.00  0.00     0.023 C 
BRANCH  24  25
ATOM     25  C   UNL A   1      32.597  32.770  27.274  1.00  0.00     0.116 C 
BRANCH  25  26
ATOM     26  N   UNL A   1      32.327  34.148  27.661  1.00  0.00    -0.352 N 
ATOM     27  C   UNL A   1      32.965  34.919  28.601  1.00  0.00     0.251 C 
ATOM     28  H   UNL A   1      31.587  34.586  27.183  1.00  0.00     0.163 HD
ATOM     29  O   UNL A   1      32.526  36.020  28.903  1.00  0.00    -0.269 OA
BRANCH  27  30
ATOM     30  C   UNL A   1      34.167  34.383  29.272  1.00  0.00     0.039 A 
ATOM     31  C   UNL A   1      34.007  33.609  30.420  1.00  0.00     0.014 A 
ATOM     32  C   UNL A   1      35.440  34.607  28.740  1.00  0.00     0.014 A 
ATOM     33  C   UNL A   1      35.124  33.011  31.002  1.00  0.00     0.010 A 
ATOM     34  C   UNL A   1      36.532  33.918  29.251  1.00  0.00     0.010 A 
ATOM     35  C   UNL A   1      36.390  33.131  30.401  1.00  0.00    -0.014 A 
BRANCH  35  36
ATOM     36  C   UNL A   1      37.571  32.454  30.984  1.00  0.00     0.031 A 
ATOM     37  C   UNL A   1      38.057  32.828  32.357  1.00  0.00     0.074 A 
ATOM     38  C   UNL A   1      38.219  31.518  30.264  1.00  0.00     0.049 A 
ATOM     39  N   UNL A   1      39.041  32.317  33.054  1.00  0.00    -0.248 NA
ATOM     40  C   UNL A   1      37.370  33.944  33.027  1.00  0.00     0.031 C 
ATOM     41  C   UNL A   1      37.890  31.130  28.890  1.00  0.00     0.029 A 
ATOM     42  N   UNL A   1      39.283  30.717  30.589  1.00  0.00    -0.354 N 
ATOM     43  C   UNL A   1      39.090  33.051  34.232  1.00  0.00     0.074 A 
ATOM     44  C   UNL A   1      38.092  34.091  34.126  1.00  0.00     0.031 C 
ATOM     45  C   UNL A   1      38.699  30.130  28.511  1.00  0.00     0.029 A 
ATOM     46  C   UNL A   1      39.622  29.827  29.599  1.00  0.00     0.049 A 
ATOM     47  H   UNL A   1      39.758  30.774  31.450  1.00  0.00     0.167 HD
ATOM     48  C   UNL A   1      39.871  32.852  35.319  1.00  0.00     0.037 A 
ATOM     49  C   UNL A   1      40.564  28.865  29.583  1.00  0.00     0.037 A 
ATOM     50  C   UNL A   1      40.849  31.802  35.424  1.00  0.00     0.049 A 
ATOM     51  C   UNL A   1      41.402  28.648  30.814  1.00  0.00     0.074 A 
ATOM     52  C   UNL A   1      41.657  31.477  36.499  1.00  0.00     0.029 A 
ATOM     53  N   UNL A   1      41.152  30.905  34.408  1.00  0.00    -0.354 N 
ATOM     54  N   UNL A   1      41.379  29.290  31.957  1.00  0.00    -0.248 NA
ATOM     55  C   UNL A   1      42.385  27.559  30.756  1.00  0.00     0.031 C 
ATOM     56  C   UNL A   1      42.485  30.415  36.116  1.00  0.00     0.029 A 
ATOM     57  C   UNL A   1      42.149  30.039  34.825  1.00  0.00     0.049 A 
ATOM     58  H   UNL A   1      40.723  30.888  33.523  1.00  0.00     0.167 HD
ATOM     59  C   UNL A   1      42.319  28.665  32.765  1.00  0.00     0.074 A 
ATOM     60  C   UNL A   1      42.877  27.578  31.985  1.00  0.00     0.031 C 
ATOM     61  C   UNL A   1      42.691  28.961  34.035  1.00  0.00     0.037 A 
BRANCH  48  62
ATOM     62  C   UNL A   1      39.689  33.786  36.482  1.00  0.00     0.064 A 
ATOM     63  C   UNL A   1      40.315  35.042  36.525  1.00  0.00     0.173 A 
ATOM     64  C   UNL A   1      38.861  33.432  37.558  1.00  0.00     0.173 A 
ATOM     65  F   UNL A   1      41.130  35.425  35.529  1.00  0.00    -0.203 F 
ATOM     66  C   UNL A   1      40.148  35.892  37.615  1.00  0.00     0.198 A 
ATOM     67  C   UNL A   1      38.668  34.300  38.631  1.00  0.00     0.198 A 
ATOM     68  F   UNL A   1      38.236  32.246  37.570  1.00  0.00    -0.203 F 
ATOM     69  F   UNL A   1      40.804  37.060  37.659  1.00  0.00    -0.200 F 
ATOM     70  C   UNL A   1      39.318  35.525  38.663  1.00  0.00     0.200 A 
ATOM     71  F   UNL A   1      37.855  33.948  39.637  1.00  0.00    -0.200 F 
ATOM     72  F   UNL A   1      39.152  36.346  39.708  1.00  0.00    -0.200 F 
ENDBRANCH  48  62
BRANCH  49  73
ATOM     73  C   UNL A   1      40.724  28.000  28.384  1.00  0.00     0.064 A 
ATOM     74  C   UNL A   1      41.515  28.409  27.301  1.00  0.00     0.173 A 
ATOM     75  C   UNL A   1      40.090  26.753  28.293  1.00  0.00     0.173 A 
ATOM     76  F   UNL A   1      42.130  29.601  27.332  1.00  0.00    -0.203 F 
ATOM     77  C   UNL A   1      41.643  27.616  26.161  1.00  0.00     0.198 A 
ATOM     78  C   UNL A   1      40.243  25.947  27.167  1.00  0.00     0.198 A 
ATOM     79  F   UNL A   1      39.329  26.311  29.305  1.00  0.00    -0.203 F 
ATOM     80  F   UNL A   1      42.362  28.056  25.119  1.00  0.00    -0.200 F 
ATOM     81  C   UNL A   1      41.011  26.384  26.097  1.00  0.00     0.200 A 
ATOM     82  F   UNL A   1      39.646  24.749  27.116  1.00  0.00    -0.200 F 
ATOM     83  F   UNL A   1      41.136  25.621  25.004  1.00  0.00    -0.200 F 
ENDBRANCH  49  73
BRANCH  61  84
ATOM     84  C   UNL A   1      43.720  28.071  34.670  1.00  0.00     0.064 A 
ATOM     85  C   UNL A   1      45.090  28.369  34.618  1.00  0.00     0.173 A 
ATOM     86  C   UNL A   1      43.328  26.903  35.342  1.00  0.00     0.173 A 
ATOM     87  F   UNL A   1      45.519  29.467  33.977  1.00  0.00    -0.203 F 
ATOM     88  C   UNL A   1      46.032  27.507  35.174  1.00  0.00     0.198 A 
ATOM     89  C   UNL A   1      44.269  26.063  35.929  1.00  0.00     0.198 A 
ATOM     90  F   UNL A   1      42.030  26.577  35.431  1.00  0.00    -0.203 F 
ATOM     91  F   UNL A   1      47.339  27.775  35.048  1.00  0.00    -0.200 F 
ATOM     92  C   UNL A   1      45.620  26.358  35.833  1.00  0.00     0.200 A 
ATOM     93  F   UNL A   1      43.869  24.963  36.581  1.00  0.00    -0.200 F 
ATOM     94  F   UNL A   1      46.528  25.528  36.364  1.00  0.00    -0.200 F 
ENDBRANCH  61  84
ENDBRANCH  35  36
ENDBRANCH  27  30
ENDBRANCH  25  26
ENDBRANCH  24  25
ENDBRANCH   1  24
TORSDOF 14
ENDMDL
MODEL 2
REMARK VINA RESULT:     -12.5      2.834      4.532
REMARK SMILES Cc1[nH]c2ccccc2c1[C@H]([NH3+])CC(=O)NCCCCNC(=O)c1ccc(-c2c3nc(c(-c4c(F)c(F)c(F)c(F)c4F)c4ccc([nH]4)c(-c4c(F)c(F)c(F)c(F)c4F)c4nc(c(-c5c(F)c(F)c(F)c(F)c5F)c5ccc2[nH]5)C=C4)C=C3)cc1
REMARK SMILES IDX 18 1 17 2 16 3 14 4 15 5 13 7 11 8 10 9 1 10 2 11 3 12 4 13
REMARK SMILES IDX 9 15 5 16 8 17 6 18 7 19 12 20 19 24 20 25 21 26 22 27 23 29
REMARK SMILES IDX 24 30 25 31 86 32 26 33 85 34 27 35 28 36 29 37 79 38 30 39
REMARK SMILES IDX 84 40 78 41 80 42 31 43 83 44 77 45 76 46 32 48 64 49 44 50
REMARK SMILES IDX 63 51 45 52 48 53 62 54 81 55 46 56 47 57 61 59 82 60 49 61
REMARK SMILES IDX 33 62 34 63 42 64 35 65 36 66 40 67 43 68 37 69 38 70 41 71
REMARK SMILES IDX 39 72 65 73 66 74 74 75 67 76 68 77 72 78 75 79 69 80 70 81
REMARK SMILES IDX 73 82 71 83 50 84 51 85 59 86 52 87 53 88 57 89 60 90 54 91
REMARK SMILES IDX 55 92 58 93 56 94
REMARK H PARENT 16 6 3 14 12 21 12 22 12 23 21 28 80 47 48 58
REMARK Flexibility Score: inf
ROOT
ATOM      1  C   UNL A   1      32.151  27.563  27.045  1.00  0.00     0.023 C 
ENDROOT
BRANCH   1   2
ATOM      2  C   UNL A   1      31.934  26.335  26.165  1.00  0.00     0.116 C 
BRANCH   2   3
ATOM      3  N   UNL A   1      31.043  25.383  26.793  1.00  0.00    -0.356 N 
ATOM      4  C   UNL A   1      31.036  24.024  26.663  1.00  0.00     0.226 C 
ATOM      5  O   UNL A   1      30.115  23.383  27.173  1.00  0.00    -0.275 OA
ATOM      6  H   UNL A   1      30.356  25.762  27.388  1.00  0.00     0.163 HD
BRANCH   4   7
ATOM      7  C   UNL A   1      32.177  23.338  25.946  1.00  0.00     0.170 C 
BRANCH   7   8
ATOM      8  C   UNL A   1      33.253  22.791  26.890  1.00  0.00     0.223 C 
BRANCH   8   9
ATOM      9  C   UNL A   1      34.150  21.807  26.166  1.00  0.00     0.038 A 
ATOM     10  C   UNL A   1      32.685  19.709  25.408  1.00  0.00     0.065 C 
ATOM     11  C   UNL A   1      33.893  20.565  25.580  1.00  0.00     0.022 A 
ATOM     12  N   UNL A   1      35.090  20.091  25.091  1.00  0.00    -0.358 N 
ATOM     13  C   UNL A   1      36.099  20.997  25.285  1.00  0.00     0.046 A 
ATOM     14  H   UNL A   1      35.205  19.216  24.657  1.00  0.00     0.166 HD
ATOM     15  C   UNL A   1      35.544  22.087  25.941  1.00  0.00     0.009 A 
ATOM     16  C   UNL A   1      37.451  20.931  24.929  1.00  0.00     0.027 A 
ATOM     17  C   UNL A   1      36.376  23.185  26.245  1.00  0.00     0.011 A 
ATOM     18  C   UNL A   1      38.254  22.031  25.244  1.00  0.00     0.002 A 
ATOM     19  C   UNL A   1      37.726  23.146  25.887  1.00  0.00     0.001 A 
ENDBRANCH   8   9
BRANCH   8  20
ATOM     20  N   UNL A   1      32.764  22.162  28.111  1.00  0.00    -0.351 N 
ATOM     21  H   UNL A   1      33.456  21.494  28.450  1.00  0.00     0.345 HD
ATOM     22  H   UNL A   1      31.889  21.677  27.917  1.00  0.00     0.345 HD
ATOM     23  H   UNL A   1      32.606  22.877  28.822  1.00  0.00     0.345 HD
ENDBRANCH   8  20
ENDBRANCH   7   8
ENDBRANCH   4   7
ENDBRANCH   2   3
ENDBRANCH   1   2
BRANCH   1  24
ATOM     24  C   UNL A   1      31.739  28.884  26.414  1.00  0.00     0.023 C 
BRANCH  24  25
ATOM     25  C   UNL A   1      32.893  29.810  26.087  1.00  0.00     0.116 C 
BRANCH  25  26
ATOM     26  N   UNL A   1      32.642  31.194  26.462  1.00  0.00    -0.352 N 
ATOM     27  C   UNL A   1      33.362  32.002  27.308  1.00  0.00     0.251 C 
ATOM     28  H   UNL A   1      31.848  31.607  26.053  1.00  0.00     0.163 HD
ATOM     29  O   UNL A   1      32.939  33.104  27.623  1.00  0.00    -0.269 OA
BRANCH  27  30
ATOM     30  C   UNL A   1      34.637  31.503  27.862  1.00  0.00     0.039 A 
ATOM     31  C   UNL A   1      35.711  32.386  27.979  1.00  0.00     0.014 A 
ATOM     32  C   UNL A   1      34.755  30.183  28.305  1.00  0.00     0.014 A 
ATOM     33  C   UNL A   1      36.884  31.956  28.596  1.00  0.00     0.010 A 
ATOM     34  C   UNL A   1      35.879  29.792  29.019  1.00  0.00     0.010 A 
ATOM     35  C   UNL A   1      36.965  30.667  29.153  1.00  0.00    -0.014 A 
BRANCH  35  36
ATOM     36  C   UNL A   1      38.190  30.223  29.857  1.00  0.00     0.031 A 
ATOM     37  C   UNL A   1      38.463  30.682  31.263  1.00  0.00     0.074 A 
ATOM     38  C   UNL A   1      39.067  29.425  29.218  1.00  0.00     0.049 A 
ATOM     39  N   UNL A   1      39.454  30.364  32.058  1.00  0.00    -0.248 NA
ATOM     40  C   UNL A   1      37.519  31.649  31.845  1.00  0.00     0.031 C 
ATOM     41  C   UNL A   1      38.950  28.982  27.827  1.00  0.00     0.029 A 
ATOM     42  N   UNL A   1      40.225  28.838  29.657  1.00  0.00    -0.354 N 
ATOM     43  C   UNL A   1      39.251  31.094  33.223  1.00  0.00     0.074 A 
ATOM     44  C   UNL A   1      38.092  31.928  33.004  1.00  0.00     0.031 C 
ATOM     45  C   UNL A   1      39.964  28.151  27.544  1.00  0.00     0.029 A 
ATOM     46  C   UNL A   1      40.818  28.027  28.720  1.00  0.00     0.049 A 
ATOM     47  H   UNL A   1      40.597  28.982  30.557  1.00  0.00     0.167 HD
ATOM     48  C   UNL A   1      39.948  31.045  34.382  1.00  0.00     0.037 A 
ATOM     49  C   UNL A   1      41.920  27.258  28.810  1.00  0.00     0.037 A 
ATOM     50  C   UNL A   1      41.089  30.197  34.598  1.00  0.00     0.049 A 
ATOM     51  C   UNL A   1      42.662  27.202  30.118  1.00  0.00     0.074 A 
ATOM     52  C   UNL A   1      41.837  30.029  35.750  1.00  0.00     0.029 A 
ATOM     53  N   UNL A   1      41.651  29.373  33.632  1.00  0.00    -0.354 N 
ATOM     54  N   UNL A   1      42.409  27.828  31.242  1.00  0.00    -0.248 NA
ATOM     55  C   UNL A   1      43.831  26.317  30.173  1.00  0.00     0.031 C 
ATOM     56  C   UNL A   1      42.881  29.141  35.466  1.00  0.00     0.029 A 
ATOM     57  C   UNL A   1      42.747  28.708  34.157  1.00  0.00     0.049 A 
ATOM     58  H   UNL A   1      41.319  29.276  32.711  1.00  0.00     0.167 HD
ATOM     59  C   UNL A   1      43.368  27.390  32.146  1.00  0.00     0.074 A 
ATOM     60  C   UNL A   1      44.191  26.427  31.442  1.00  0.00     0.031 C 
ATOM     61  C   UNL A   1      43.554  27.752  33.440  1.00  0.00     0.037 A 
BRANCH  48  62
ATOM     62  C   UNL A   1      39.484  31.928  35.506  1.00  0.00     0.064 A 
ATOM     63  C   UNL A   1      39.952  33.244  35.652  1.00  0.00     0.173 A 
ATOM     64  C   UNL A   1      38.542  31.463  36.436  1.00  0.00     0.173 A 
ATOM     65  F   UNL A   1      40.865  33.735  34.798  1.00  0.00    -0.203 F 
ATOM     66  C   UNL A   1      39.523  34.047  36.705  1.00  0.00     0.198 A 
ATOM     67  C   UNL A   1      38.089  32.282  37.469  1.00  0.00     0.198 A 
ATOM     68  F   UNL A   1      38.059  30.216  36.345  1.00  0.00    -0.203 F 
ATOM     69  F   UNL A   1      40.031  35.278  36.857  1.00  0.00    -0.200 F 
ATOM     70  C   UNL A   1      38.586  33.569  37.608  1.00  0.00     0.200 A 
ATOM     71  F   UNL A   1      37.173  31.822  38.333  1.00  0.00    -0.200 F 
ATOM     72  F   UNL A   1      38.168  34.345  38.617  1.00  0.00    -0.200 F 
ENDBRANCH  48  62
BRANCH  49  73
ATOM     73  C   UNL A   1      42.353  26.439  27.647  1.00  0.00     0.064 A 
ATOM     74  C   UNL A   1      41.771  25.190  27.388  1.00  0.00     0.173 A 
ATOM     75  C   UNL A   1      43.357  26.884  26.774  1.00  0.00     0.173 A 
ATOM     76  F   UNL A   1      40.817  24.713  28.201  1.00  0.00    -0.203 F 
ATOM     77  C   UNL A   1      42.196  24.405  26.317  1.00  0.00     0.198 A 
ATOM     78  C   UNL A   1      43.760  26.112  25.687  1.00  0.00     0.198 A 
ATOM     79  F   UNL A   1      43.940  28.075  26.973  1.00  0.00    -0.203 F 
ATOM     80  F   UNL A   1      41.659  23.192  26.124  1.00  0.00    -0.200 F 
ATOM     81  C   UNL A   1      43.186  24.868  25.465  1.00  0.00     0.200 A 
ATOM     82  F   UNL A   1      44.705  26.571  24.855  1.00  0.00    -0.200 F 
ATOM     83  F   UNL A   1      43.593  24.116  24.435  1.00  0.00    -0.200 F 
ENDBRANCH  49  73
BRANCH  61  84
ATOM     84  C   UNL A   1      44.665  27.070  34.185  1.00  0.00     0.064 A 
ATOM     85  C   UNL A   1      45.946  27.634  34.283  1.00  0.00     0.173 A 
ATOM     86  C   UNL A   1      44.443  25.834  34.814  1.00  0.00     0.173 A 
ATOM     87  F   UNL A   1      46.215  28.807  33.690  1.00  0.00    -0.203 F 
ATOM     88  C   UNL A   1      46.975  26.964  34.940  1.00  0.00     0.198 A 
ATOM     89  C   UNL A   1      45.464  25.186  35.502  1.00  0.00     0.198 A 
ATOM     90  F   UNL A   1      43.234  25.256  34.761  1.00  0.00    -0.203 F 
ATOM     91  F   UNL A   1      48.209  27.487  34.957  1.00  0.00    -0.200 F 
ATOM     92  C   UNL A   1      46.731  25.743  35.552  1.00  0.00     0.200 A 
ATOM     93  F   UNL A   1      45.222  24.016  36.108  1.00  0.00    -0.200 F 
ATOM     94  F   UNL A   1      47.724  25.099  36.181  1.00  0.00    -0.200 F 
ENDBRANCH  61  84
ENDBRANCH  35  36
ENDBRANCH  27  30
ENDBRANCH  25  26
ENDBRANCH  24  25
ENDBRANCH   1  24
TORSDOF 14
ENDMDL
MODEL 3
REMARK VINA RESULT:     -12.5      2.853      4.557
REMARK SMILES Cc1[nH]c2ccccc2c1[C@H]([NH3+])CC(=O)NCCCCNC(=O)c1ccc(-c2c3nc(c(-c4c(F)c(F)c(F)c(F)c4F)c4ccc([nH]4)c(-c4c(F)c(F)c(F)c(F)c4F)c4nc(c(-c5c(F)c(F)c(F)c(F)c5F)c5ccc2[nH]5)C=C4)C=C3)cc1
REMARK SMILES IDX 18 1 17 2 16 3 14 4 15 5 13 7 11 8 10 9 1 10 2 11 3 12 4 13
REMARK SMILES IDX 9 15 5 16 8 17 6 18 7 19 12 20 19 24 20 25 21 26 22 27 23 29
REMARK SMILES IDX 24 30 25 31 86 32 26 33 85 34 27 35 28 36 29 37 79 38 30 39
REMARK SMILES IDX 84 40 78 41 80 42 31 43 83 44 77 45 76 46 32 48 64 49 44 50
REMARK SMILES IDX 63 51 45 52 48 53 62 54 81 55 46 56 47 57 61 59 82 60 49 61
REMARK SMILES IDX 33 62 34 63 42 64 35 65 36 66 40 67 43 68 37 69 38 70 41 71
REMARK SMILES IDX 39 72 65 73 66 74 74 75 67 76 68 77 72 78 75 79 69 80 70 81
REMARK SMILES IDX 73 82 71 83 50 84 51 85 59 86 52 87 53 88 57 89 60 90 54 91
REMARK SMILES IDX 55 92 58 93 56 94
REMARK H PARENT 16 6 3 14 12 21 12 22 12 23 21 28 80 47 48 58
REMARK Flexibility Score: inf
ROOT
ATOM      1  C   UNL A   1      32.178  27.451  26.930  1.00  0.00     0.023 C 
ENDROOT
BRANCH   1   2
ATOM      2  C   UNL A   1      31.922  26.201  26.092  1.00  0.00     0.116 C 
BRANCH   2   3
ATOM      3  N   UNL A   1      31.038  25.278  26.770  1.00  0.00    -0.356 N 
ATOM      4  C   UNL A   1      31.002  23.917  26.670  1.00  0.00     0.226 C 
ATOM      5  O   UNL A   1      30.089  23.304  27.225  1.00  0.00    -0.275 OA
ATOM      6  H   UNL A   1      30.378  25.683  27.379  1.00  0.00     0.163 HD
BRANCH   4   7
ATOM      7  C   UNL A   1      32.106  23.196  25.930  1.00  0.00     0.170 C 
BRANCH   7   8
ATOM      8  C   UNL A   1      33.245  22.720  26.839  1.00  0.00     0.223 C 
BRANCH   8   9
ATOM      9  C   UNL A   1      34.144  21.746  26.106  1.00  0.00     0.038 A 
ATOM     10  C   UNL A   1      32.673  19.675  25.285  1.00  0.00     0.065 C 
ATOM     11  C   UNL A   1      33.885  20.518  25.491  1.00  0.00     0.022 A 
ATOM     12  N   UNL A   1      35.085  20.046  25.007  1.00  0.00    -0.358 N 
ATOM     13  C   UNL A   1      36.098  20.939  25.233  1.00  0.00     0.046 A 
ATOM     14  H   UNL A   1      35.199  19.179  24.556  1.00  0.00     0.166 HD
ATOM     15  C   UNL A   1      35.543  22.020  25.905  1.00  0.00     0.009 A 
ATOM     16  C   UNL A   1      37.453  20.871  24.892  1.00  0.00     0.027 A 
ATOM     17  C   UNL A   1      36.379  23.105  26.242  1.00  0.00     0.011 A 
ATOM     18  C   UNL A   1      38.261  21.959  25.240  1.00  0.00     0.002 A 
ATOM     19  C   UNL A   1      37.732  23.064  25.901  1.00  0.00     0.001 A 
ENDBRANCH   8   9
BRANCH   8  20
ATOM     20  N   UNL A   1      32.836  22.117  28.102  1.00  0.00    -0.351 N 
ATOM     21  H   UNL A   1      32.736  21.109  27.980  1.00  0.00     0.345 HD
ATOM     22  H   UNL A   1      31.945  22.514  28.397  1.00  0.00     0.345 HD
ATOM     23  H   UNL A   1      33.544  22.304  28.813  1.00  0.00     0.345 HD
ENDBRANCH   8  20
ENDBRANCH   7   8
ENDBRANCH   4   7
ENDBRANCH   2   3
ENDBRANCH   1   2
BRANCH   1  24
ATOM     24  C   UNL A   1      31.793  28.761  26.260  1.00  0.00     0.023 C 
BRANCH  24  25
ATOM     25  C   UNL A   1      32.952  29.707  26.022  1.00  0.00     0.116 C 
BRANCH  25  26
ATOM     26  N   UNL A   1      32.664  31.079  26.418  1.00  0.00    -0.352 N 
ATOM     27  C   UNL A   1      33.356  31.890  27.283  1.00  0.00     0.251 C 
ATOM     28  H   UNL A   1      31.863  31.479  26.009  1.00  0.00     0.163 HD
ATOM     29  O   UNL A   1      32.903  32.976  27.613  1.00  0.00    -0.269 OA
BRANCH  27  30
ATOM     30  C   UNL A   1      34.639  31.413  27.840  1.00  0.00     0.039 A 
ATOM     31  C   UNL A   1      35.694  32.317  27.967  1.00  0.00     0.014 A 
ATOM     32  C   UNL A   1      34.781  30.094  28.277  1.00  0.00     0.014 A 
ATOM     33  C   UNL A   1      36.873  31.907  28.586  1.00  0.00     0.010 A 
ATOM     34  C   UNL A   1      35.909  29.722  28.995  1.00  0.00     0.010 A 
ATOM     35  C   UNL A   1      36.976  30.617  29.137  1.00  0.00    -0.014 A 
BRANCH  35  36
ATOM     36  C   UNL A   1      38.208  30.194  29.845  1.00  0.00     0.031 A 
ATOM     37  C   UNL A   1      38.476  30.669  31.246  1.00  0.00     0.074 A 
ATOM     38  C   UNL A   1      39.094  29.400  29.213  1.00  0.00     0.049 A 
ATOM     39  N   UNL A   1      39.471  30.370  32.044  1.00  0.00    -0.248 NA
ATOM     40  C   UNL A   1      37.521  31.631  31.820  1.00  0.00     0.031 C 
ATOM     41  C   UNL A   1      38.980  28.943  27.826  1.00  0.00     0.029 A 
ATOM     42  N   UNL A   1      40.259  28.830  29.656  1.00  0.00    -0.354 N 
ATOM     43  C   UNL A   1      39.261  31.108  33.201  1.00  0.00     0.074 A 
ATOM     44  C   UNL A   1      38.092  31.928  32.976  1.00  0.00     0.031 C 
ATOM     45  C   UNL A   1      40.004  28.121  27.549  1.00  0.00     0.029 A 
ATOM     46  C   UNL A   1      40.860  28.018  28.726  1.00  0.00     0.049 A 
ATOM     47  H   UNL A   1      40.629  28.988  30.555  1.00  0.00     0.167 HD
ATOM     48  C   UNL A   1      39.958  31.079  34.361  1.00  0.00     0.037 A 
ATOM     49  C   UNL A   1      41.971  27.263  28.822  1.00  0.00     0.037 A 
ATOM     50  C   UNL A   1      41.110  30.246  34.584  1.00  0.00     0.049 A 
ATOM     51  C   UNL A   1      42.714  27.228  30.130  1.00  0.00     0.074 A 
ATOM     52  C   UNL A   1      41.861  30.097  35.736  1.00  0.00     0.029 A 
ATOM     53  N   UNL A   1      41.680  29.419  33.624  1.00  0.00    -0.354 N 
ATOM     54  N   UNL A   1      42.455  27.861  31.249  1.00  0.00    -0.248 NA
ATOM     55  C   UNL A   1      43.894  26.356  30.192  1.00  0.00     0.031 C 
ATOM     56  C   UNL A   1      42.914  29.219  35.460  1.00  0.00     0.029 A 
ATOM     57  C   UNL A   1      42.785  28.772  34.155  1.00  0.00     0.049 A 
ATOM     58  H   UNL A   1      41.349  29.310  32.705  1.00  0.00     0.167 HD
ATOM     59  C   UNL A   1      43.419  27.443  32.156  1.00  0.00     0.074 A 
ATOM     60  C   UNL A   1      44.253  26.483  31.461  1.00  0.00     0.031 C 
ATOM     61  C   UNL A   1      43.602  27.818  33.446  1.00  0.00     0.037 A 
BRANCH  48  62
ATOM     62  C   UNL A   1      39.485  31.967  35.476  1.00  0.00     0.064 A 
ATOM     63  C   UNL A   1      38.563  31.519  36.436  1.00  0.00     0.173 A 
ATOM     64  C   UNL A   1      39.974  33.276  35.602  1.00  0.00     0.173 A 
ATOM     65  F   UNL A   1      38.051  30.280  36.354  1.00  0.00    -0.203 F 
ATOM     66  C   UNL A   1      38.123  32.357  37.457  1.00  0.00     0.198 A 
ATOM     67  C   UNL A   1      39.557  34.100  36.645  1.00  0.00     0.198 A 
ATOM     68  F   UNL A   1      40.857  33.757  34.715  1.00  0.00    -0.203 F 
ATOM     69  F   UNL A   1      37.197  31.925  38.325  1.00  0.00    -0.200 F 
ATOM     70  C   UNL A   1      38.627  33.644  37.566  1.00  0.00     0.200 A 
ATOM     71  F   UNL A   1      40.055  35.340  36.756  1.00  0.00    -0.200 F 
ATOM     72  F   UNL A   1      38.208  34.448  38.553  1.00  0.00    -0.200 F 
ENDBRANCH  48  62
BRANCH  49  73
ATOM     73  C   UNL A   1      42.413  26.438  27.667  1.00  0.00     0.064 A 
ATOM     74  C   UNL A   1      43.409  26.896  26.793  1.00  0.00     0.173 A 
ATOM     75  C   UNL A   1      41.850  25.179  27.410  1.00  0.00     0.173 A 
ATOM     76  F   UNL A   1      43.968  28.100  26.986  1.00  0.00    -0.203 F 
ATOM     77  C   UNL A   1      43.804  26.140  25.690  1.00  0.00     0.198 A 
ATOM     78  C   UNL A   1      42.267  24.411  26.326  1.00  0.00     0.198 A 
ATOM     79  F   UNL A   1      40.900  24.691  28.221  1.00  0.00    -0.203 F 
ATOM     80  F   UNL A   1      44.720  26.627  24.841  1.00  0.00    -0.200 F 
ATOM     81  C   UNL A   1      43.236  24.897  25.460  1.00  0.00     0.200 A 
ATOM     82  F   UNL A   1      41.729  23.202  26.117  1.00  0.00    -0.200 F 
ATOM     83  F   UNL A   1      43.618  24.169  24.403  1.00  0.00    -0.200 F 
ENDBRANCH  49  73
BRANCH  61  84
ATOM     84  C   UNL A   1      44.721  27.157  34.197  1.00  0.00     0.064 A 
ATOM     85  C   UNL A   1      46.007  27.717  34.256  1.00  0.00     0.173 A 
ATOM     86  C   UNL A   1      44.503  25.944  34.871  1.00  0.00     0.173 A 
ATOM     87  F   UNL A   1      46.271  28.868  33.620  1.00  0.00    -0.203 F 
ATOM     88  C   UNL A   1      47.042  27.064  34.920  1.00  0.00     0.198 A 
ATOM     89  C   UNL A   1      45.532  25.314  35.565  1.00  0.00     0.198 A 
ATOM     90  F   UNL A   1      43.291  25.371  34.857  1.00  0.00    -0.203 F 
ATOM     91  F   UNL A   1      48.279  27.581  34.900  1.00  0.00    -0.200 F 
ATOM     92  C   UNL A   1      46.803  25.867  35.576  1.00  0.00     0.200 A 
ATOM     93  F   UNL A   1      45.294  24.166  36.214  1.00  0.00    -0.200 F 
ATOM     94  F   UNL A   1      47.802  25.239  36.211  1.00  0.00    -0.200 F 
ENDBRANCH  61  84
ENDBRANCH  35  36
ENDBRANCH  27  30
ENDBRANCH  25  26
ENDBRANCH  24  25
ENDBRANCH   1  24
TORSDOF 14
ENDMDL
