MODEL 1
REMARK VINA RESULT:     -12.7      0.000      0.000
REMARK SMILES NS(=O)(=O)c1ccc(-n2nc(NC(=O)NCCCC(=O)NCCCCNC(=O)c3ccc(-c4c5nc(c(-c6c(F)c(F)c(F)c(F)c6F)c6ccc([nH]6)c(-c6c(F)c(F)c(F)c(F)c6F)c6nc(c(-c7c(F)c(F)c(F)c(F)c7F)c7ccc4[nH]7)C=C6)C=C5)cc3)cc2-c2ccccc2)cc1
REMARK SMILES IDX 19 1 20 2 21 3 18 5 17 6 16 7 15 8 12 9 13 10 14 12 11 14
REMARK SMILES IDX 9 15 10 16 93 17 92 18 8 19 5 20 6 21 101 22 7 23 100 24
REMARK SMILES IDX 2 25 3 26 4 27 1 28 94 31 95 32 99 33 96 34 98 35 97 36
REMARK SMILES IDX 22 37 23 38 24 39 25 40 26 41 27 42 28 44 29 45 30 46 91 47
REMARK SMILES IDX 31 48 90 49 32 50 33 51 34 52 84 53 35 54 89 55 83 56 85 57
REMARK SMILES IDX 36 58 88 59 82 60 81 61 37 63 69 64 49 65 68 66 50 67 53 68
REMARK SMILES IDX 67 69 86 70 51 71 52 72 66 74 87 75 54 76 38 77 39 78 47 79
REMARK SMILES IDX 40 80 41 81 45 82 48 83 42 84 43 85 46 86 44 87 70 88 71 89
REMARK SMILES IDX 79 90 72 91 73 92 77 93 80 94 74 95 75 96 78 97 76 98 55 99
REMARK SMILES IDX 56 100 64 101 57 102 58 103 62 104 65 105 59 106 60 107
REMARK SMILES IDX 63 108 61 109
REMARK H PARENT 21 4 12 11 15 13 1 29 1 30 26 43 85 62 53 73
REMARK Flexibility Score: inf
ROOT
ATOM      1  C   UNL A   1      32.661  30.161  26.654  1.00  0.00     0.220 C 
ATOM      2  O   UNL A   1      31.737  30.206  25.839  1.00  0.00    -0.275 OA
ATOM      3  N   UNL A   1      33.031  31.328  27.254  1.00  0.00    -0.356 N 
ATOM      4  H   UNL A   1      32.429  32.087  27.077  1.00  0.00     0.163 HD
ENDROOT
BRANCH   1   5
ATOM      5  C   UNL A   1      33.328  28.839  27.000  1.00  0.00     0.102 C 
BRANCH   5   6
ATOM      6  C   UNL A   1      32.400  27.624  26.982  1.00  0.00     0.031 C 
BRANCH   6   7
ATOM      7  C   UNL A   1      32.482  26.779  25.721  1.00  0.00     0.118 C 
BRANCH   7   8
ATOM      8  N   UNL A   1      32.384  27.490  24.460  1.00  0.00    -0.338 N 
ATOM      9  N   UNL A   1      33.719  26.167  22.980  1.00  0.00    -0.291 N 
ATOM     10  C   UNL A   1      32.913  27.220  23.244  1.00  0.00     0.320 C 
ATOM     11  H   UNL A   1      34.259  26.267  22.163  1.00  0.00     0.173 HD
ATOM     12  O   UNL A   1      32.729  28.057  22.354  1.00  0.00    -0.248 OA
ATOM     13  H   UNL A   1      31.837  28.308  24.495  1.00  0.00     0.165 HD
BRANCH   9  14
ATOM     14  C   UNL A   1      33.919  24.984  23.648  1.00  0.00     0.157 A 
ATOM     15  N   UNL A   1      34.977  23.440  24.634  1.00  0.00    -0.231 N 
ATOM     16  N   UNL A   1      34.882  24.775  24.538  1.00  0.00    -0.149 NA
ATOM     17  C   UNL A   1      33.790  22.843  24.239  1.00  0.00     0.076 A 
ATOM     18  C   UNL A   1      33.096  23.839  23.568  1.00  0.00     0.078 A 
BRANCH  15  19
ATOM     19  C   UNL A   1      36.224  22.852  24.990  1.00  0.00     0.065 A 
ATOM     20  C   UNL A   1      38.634  21.653  25.737  1.00  0.00     0.082 A 
ATOM     21  C   UNL A   1      38.346  22.954  26.161  1.00  0.00     0.024 A 
ATOM     22  C   UNL A   1      37.715  20.939  24.964  1.00  0.00     0.024 A 
ATOM     23  C   UNL A   1      37.143  23.556  25.781  1.00  0.00     0.030 A 
ATOM     24  C   UNL A   1      36.505  21.534  24.606  1.00  0.00     0.030 A 
BRANCH  20  25
ATOM     25  S   UNL A   1      40.198  20.900  26.071  1.00  0.00     0.238 S 
ATOM     26  O   UNL A   1      41.231  21.721  25.490  1.00  0.00    -0.207 OA
ATOM     27  O   UNL A   1      40.092  19.478  25.830  1.00  0.00    -0.207 OA
BRANCH  25  28
ATOM     28  N   UNL A   1      40.397  21.063  27.733  1.00  0.00    -0.225 NA
ATOM     29  H   UNL A   1      41.336  20.762  27.995  1.00  0.00     0.137 HD
ATOM     30  H   UNL A   1      39.709  20.488  28.218  1.00  0.00     0.137 HD
ENDBRANCH  25  28
ENDBRANCH  20  25
ENDBRANCH  15  19
BRANCH  17  31
ATOM     31  C   UNL A   1      33.458  21.460  24.543  1.00  0.00     0.000 A 
ATOM     32  C   UNL A   1      33.065  20.604  23.502  1.00  0.00     0.010 A 
ATOM     33  C   UNL A   1      33.446  20.996  25.859  1.00  0.00     0.010 A 
ATOM     34  C   UNL A   1      32.619  19.315  23.777  1.00  0.00     0.001 A 
ATOM     35  C   UNL A   1      33.001  19.701  26.132  1.00  0.00     0.001 A 
ATOM     36  C   UNL A   1      32.580  18.868  25.095  1.00  0.00     0.000 A 
ENDBRANCH  17  31
ENDBRANCH   9  14
ENDBRANCH   7   8
ENDBRANCH   6   7
ENDBRANCH   5   6
ENDBRANCH   1   5
BRANCH   3  37
ATOM     37  C   UNL A   1      34.162  31.641  28.113  1.00  0.00     0.116 C 
BRANCH  37  38
ATOM     38  C   UNL A   1      34.441  33.145  28.140  1.00  0.00     0.023 C 
BRANCH  38  39
ATOM     39  C   UNL A   1      33.318  34.075  28.599  1.00  0.00     0.023 C 
BRANCH  39  40
ATOM     40  C   UNL A   1      33.801  35.396  29.167  1.00  0.00     0.116 C 
BRANCH  40  41
ATOM     41  N   UNL A   1      33.059  35.810  30.357  1.00  0.00    -0.352 N 
ATOM     42  C   UNL A   1      33.070  35.203  31.595  1.00  0.00     0.251 C 
ATOM     43  H   UNL A   1      32.491  36.610  30.264  1.00  0.00     0.163 HD
ATOM     44  O   UNL A   1      32.141  35.323  32.383  1.00  0.00    -0.269 OA
BRANCH  42  45
ATOM     45  C   UNL A   1      34.249  34.398  31.947  1.00  0.00     0.039 A 
ATOM     46  C   UNL A   1      34.207  33.006  31.917  1.00  0.00     0.014 A 
ATOM     47  C   UNL A   1      35.437  35.084  32.212  1.00  0.00     0.014 A 
ATOM     48  C   UNL A   1      35.400  32.307  32.061  1.00  0.00     0.010 A 
ATOM     49  C   UNL A   1      36.630  34.400  32.217  1.00  0.00     0.010 A 
ATOM     50  C   UNL A   1      36.618  33.011  32.166  1.00  0.00    -0.014 A 
BRANCH  50  51
ATOM     51  C   UNL A   1      37.884  32.297  31.999  1.00  0.00     0.031 A 
ATOM     52  C   UNL A   1      38.562  32.042  33.299  1.00  0.00     0.074 A 
ATOM     53  C   UNL A   1      38.325  31.770  30.834  1.00  0.00     0.049 A 
ATOM     54  N   UNL A   1      39.602  32.658  33.750  1.00  0.00    -0.248 NA
ATOM     55  C   UNL A   1      37.919  31.167  34.297  1.00  0.00     0.031 C 
ATOM     56  C   UNL A   1      37.608  31.705  29.556  1.00  0.00     0.029 A 
ATOM     57  N   UNL A   1      39.484  31.099  30.553  1.00  0.00    -0.354 N 
ATOM     58  C   UNL A   1      39.901  32.056  34.968  1.00  0.00     0.074 A 
ATOM     59  C   UNL A   1      38.728  31.320  35.350  1.00  0.00     0.031 C 
ATOM     60  C   UNL A   1      38.230  30.840  28.723  1.00  0.00     0.029 A 
ATOM     61  C   UNL A   1      39.478  30.422  29.333  1.00  0.00     0.049 A 
ATOM     62  H   UNL A   1      40.258  31.095  31.163  1.00  0.00     0.167 HD
ATOM     63  C   UNL A   1      41.206  31.937  35.342  1.00  0.00     0.037 A 
ATOM     64  C   UNL A   1      40.432  29.584  28.852  1.00  0.00     0.037 A 
ATOM     65  C   UNL A   1      42.031  32.802  34.530  1.00  0.00     0.049 A 
ATOM     66  C   UNL A   1      41.689  29.914  29.553  1.00  0.00     0.074 A 
ATOM     67  C   UNL A   1      42.204  34.159  34.361  1.00  0.00     0.029 A 
ATOM     68  N   UNL A   1      42.485  32.190  33.394  1.00  0.00    -0.354 N 
ATOM     69  N   UNL A   1      42.340  31.027  29.369  1.00  0.00    -0.248 NA
ATOM     70  C   UNL A   1      42.048  29.166  30.750  1.00  0.00     0.031 C 
ATOM     71  C   UNL A   1      42.599  34.338  32.998  1.00  0.00     0.029 A 
ATOM     72  C   UNL A   1      42.732  33.088  32.398  1.00  0.00     0.049 A 
ATOM     73  H   UNL A   1      42.619  31.219  33.308  1.00  0.00     0.167 HD
ATOM     74  C   UNL A   1      42.816  31.347  30.625  1.00  0.00     0.074 A 
ATOM     75  C   UNL A   1      42.778  30.094  31.374  1.00  0.00     0.031 C 
ATOM     76  C   UNL A   1      42.861  32.651  31.026  1.00  0.00     0.037 A 
BRANCH  63  77
ATOM     77  C   UNL A   1      41.803  30.677  35.953  1.00  0.00     0.064 A 
ATOM     78  C   UNL A   1      42.839  30.814  36.904  1.00  0.00     0.173 A 
ATOM     79  C   UNL A   1      41.665  29.384  35.401  1.00  0.00     0.173 A 
ATOM     80  F   UNL A   1      43.093  32.005  37.467  1.00  0.00    -0.203 F 
ATOM     81  C   UNL A   1      43.704  29.759  37.218  1.00  0.00     0.198 A 
ATOM     82  C   UNL A   1      42.498  28.323  35.753  1.00  0.00     0.198 A 
ATOM     83  F   UNL A   1      40.809  29.114  34.410  1.00  0.00    -0.203 F 
ATOM     84  F   UNL A   1      44.750  29.973  38.028  1.00  0.00    -0.200 F 
ATOM     85  C   UNL A   1      43.535  28.516  36.639  1.00  0.00     0.200 A 
ATOM     86  F   UNL A   1      42.339  27.136  35.150  1.00  0.00    -0.200 F 
ATOM     87  F   UNL A   1      44.397  27.521  36.889  1.00  0.00    -0.200 F 
ENDBRANCH  63  77
BRANCH  64  88
ATOM     88  C   UNL A   1      40.321  28.379  27.990  1.00  0.00     0.064 A 
ATOM     89  C   UNL A   1      41.025  28.286  26.774  1.00  0.00     0.173 A 
ATOM     90  C   UNL A   1      39.784  27.178  28.491  1.00  0.00     0.173 A 
ATOM     91  F   UNL A   1      41.599  29.374  26.239  1.00  0.00    -0.203 F 
ATOM     92  C   UNL A   1      41.229  27.060  26.130  1.00  0.00     0.198 A 
ATOM     93  C   UNL A   1      39.986  25.955  27.845  1.00  0.00     0.198 A 
ATOM     94  F   UNL A   1      39.146  27.153  29.668  1.00  0.00    -0.203 F 
ATOM     95  F   UNL A   1      41.975  27.003  25.018  1.00  0.00    -0.200 F 
ATOM     96  C   UNL A   1      40.724  25.892  26.677  1.00  0.00     0.200 A 
ATOM     97  F   UNL A   1      39.524  24.827  28.402  1.00  0.00    -0.200 F 
ATOM     98  F   UNL A   1      40.984  24.708  26.105  1.00  0.00    -0.200 F 
ENDBRANCH  64  88
BRANCH  76  99
ATOM     99  C   UNL A   1      42.926  33.697  29.955  1.00  0.00     0.064 A 
ATOM    100  C   UNL A   1      44.083  34.063  29.247  1.00  0.00     0.173 A 
ATOM    101  C   UNL A   1      41.724  34.323  29.599  1.00  0.00     0.173 A 
ATOM    102  F   UNL A   1      45.255  33.453  29.469  1.00  0.00    -0.203 F 
ATOM    103  C   UNL A   1      44.038  35.052  28.265  1.00  0.00     0.198 A 
ATOM    104  C   UNL A   1      41.675  35.277  28.590  1.00  0.00     0.198 A 
ATOM    105  F   UNL A   1      40.581  33.983  30.215  1.00  0.00    -0.203 F 
ATOM    106  F   UNL A   1      45.161  35.413  27.623  1.00  0.00    -0.200 F 
ATOM    107  C   UNL A   1      42.834  35.654  27.934  1.00  0.00     0.200 A 
ATOM    108  F   UNL A   1      40.500  35.820  28.246  1.00  0.00    -0.200 F 
ATOM    109  F   UNL A   1      42.786  36.585  26.972  1.00  0.00    -0.200 F 
ENDBRANCH  76  99
ENDBRANCH  50  51
ENDBRANCH  42  45
ENDBRANCH  40  41
ENDBRANCH  39  40
ENDBRANCH  38  39
ENDBRANCH  37  38
ENDBRANCH   3  37
TORSDOF 19
ENDMDL
MODEL 2
REMARK VINA RESULT:     -12.6      3.439      9.677
REMARK SMILES NS(=O)(=O)c1ccc(-n2nc(NC(=O)NCCCC(=O)NCCCCNC(=O)c3ccc(-c4c5nc(c(-c6c(F)c(F)c(F)c(F)c6F)c6ccc([nH]6)c(-c6c(F)c(F)c(F)c(F)c6F)c6nc(c(-c7c(F)c(F)c(F)c(F)c7F)c7ccc4[nH]7)C=C6)C=C5)cc3)cc2-c2ccccc2)cc1
REMARK SMILES IDX 19 1 20 2 21 3 18 5 17 6 16 7 15 8 12 9 13 10 14 12 11 14
REMARK SMILES IDX 9 15 10 16 93 17 92 18 8 19 5 20 6 21 101 22 7 23 100 24
REMARK SMILES IDX 2 25 3 26 4 27 1 28 94 31 95 32 99 33 96 34 98 35 97 36
REMARK SMILES IDX 22 37 23 38 24 39 25 40 26 41 27 42 28 44 29 45 30 46 91 47
REMARK SMILES IDX 31 48 90 49 32 50 33 51 34 52 84 53 35 54 89 55 83 56 85 57
REMARK SMILES IDX 36 58 88 59 82 60 81 61 37 63 69 64 49 65 68 66 50 67 53 68
REMARK SMILES IDX 67 69 86 70 51 71 52 72 66 74 87 75 54 76 38 77 39 78 47 79
REMARK SMILES IDX 40 80 41 81 45 82 48 83 42 84 43 85 46 86 44 87 70 88 71 89
REMARK SMILES IDX 79 90 72 91 73 92 77 93 80 94 74 95 75 96 78 97 76 98 55 99
REMARK SMILES IDX 56 100 64 101 57 102 58 103 62 104 65 105 59 106 60 107
REMARK SMILES IDX 63 108 61 109
REMARK H PARENT 21 4 12 11 15 13 1 29 1 30 26 43 85 62 53 73
REMARK Flexibility Score: inf
ROOT
ATOM      1  C   UNL A   1      35.518  21.723  24.983  1.00  0.00     0.220 C 
ATOM      2  O   UNL A   1      34.518  21.947  25.669  1.00  0.00    -0.275 OA
ATOM      3  N   UNL A   1      36.354  20.728  25.394  1.00  0.00    -0.356 N 
ATOM      4  H   UNL A   1      36.008  20.184  26.138  1.00  0.00     0.163 HD
ENDROOT
BRANCH   1   5
ATOM      5  C   UNL A   1      35.775  22.507  23.706  1.00  0.00     0.102 C 
BRANCH   5   6
ATOM      6  C   UNL A   1      35.078  23.865  23.630  1.00  0.00     0.031 C 
BRANCH   6   7
ATOM      7  C   UNL A   1      33.896  23.921  22.676  1.00  0.00     0.118 C 
BRANCH   7   8
ATOM      8  N   UNL A   1      33.262  22.656  22.359  1.00  0.00    -0.338 N 
ATOM      9  N   UNL A   1      31.484  22.519  23.955  1.00  0.00    -0.291 N 
ATOM     10  C   UNL A   1      32.189  22.036  22.907  1.00  0.00     0.320 C 
ATOM     11  H   UNL A   1      30.947  21.842  24.426  1.00  0.00     0.173 HD
ATOM     12  O   UNL A   1      31.917  20.908  22.484  1.00  0.00    -0.248 OA
ATOM     13  H   UNL A   1      33.682  22.163  21.617  1.00  0.00     0.165 HD
BRANCH   9  14
ATOM     14  C   UNL A   1      31.381  23.785  24.477  1.00  0.00     0.157 A 
ATOM     15  N   UNL A   1      30.771  25.806  24.621  1.00  0.00    -0.231 N 
ATOM     16  N   UNL A   1      30.323  24.574  24.334  1.00  0.00    -0.149 NA
ATOM     17  C   UNL A   1      31.903  25.732  25.418  1.00  0.00     0.076 A 
ATOM     18  C   UNL A   1      32.329  24.416  25.312  1.00  0.00     0.078 A 
BRANCH  15  19
ATOM     19  C   UNL A   1      30.145  26.936  24.023  1.00  0.00     0.065 A 
ATOM     20  C   UNL A   1      28.923  29.190  22.914  1.00  0.00     0.082 A 
ATOM     21  C   UNL A   1      28.156  28.058  23.206  1.00  0.00     0.024 A 
ATOM     22  C   UNL A   1      30.291  29.211  23.195  1.00  0.00     0.024 A 
ATOM     23  C   UNL A   1      28.769  26.928  23.755  1.00  0.00     0.030 A 
ATOM     24  C   UNL A   1      30.897  28.090  23.764  1.00  0.00     0.030 A 
BRANCH  20  25
ATOM     25  S   UNL A   1      28.223  30.589  22.091  1.00  0.00     0.238 S 
ATOM     26  O   UNL A   1      27.305  31.236  22.996  1.00  0.00    -0.207 OA
ATOM     27  O   UNL A   1      27.865  30.207  20.743  1.00  0.00    -0.207 OA
BRANCH  25  28
ATOM     28  N   UNL A   1      29.505  31.666  21.930  1.00  0.00    -0.225 NA
ATOM     29  H   UNL A   1      29.881  31.608  20.983  1.00  0.00     0.137 HD
ATOM     30  H   UNL A   1      30.235  31.431  22.601  1.00  0.00     0.137 HD
ENDBRANCH  25  28
ENDBRANCH  20  25
ENDBRANCH  15  19
BRANCH  17  31
ATOM     31  C   UNL A   1      32.421  26.865  26.168  1.00  0.00     0.000 A 
ATOM     32  C   UNL A   1      31.572  27.550  27.051  1.00  0.00     0.010 A 
ATOM     33  C   UNL A   1      33.722  27.328  25.965  1.00  0.00     0.010 A 
ATOM     34  C   UNL A   1      32.000  28.712  27.685  1.00  0.00     0.001 A 
ATOM     35  C   UNL A   1      34.151  28.493  26.605  1.00  0.00     0.001 A 
ATOM     36  C   UNL A   1      33.288  29.187  27.454  1.00  0.00     0.000 A 
ENDBRANCH  17  31
ENDBRANCH   9  14
ENDBRANCH   7   8
ENDBRANCH   6   7
ENDBRANCH   5   6
ENDBRANCH   1   5
BRANCH   3  37
ATOM     37  C   UNL A   1      37.670  20.333  24.918  1.00  0.00     0.116 C 
BRANCH  37  38
ATOM     38  C   UNL A   1      38.780  21.052  25.687  1.00  0.00     0.023 C 
BRANCH  38  39
ATOM     39  C   UNL A   1      39.999  20.236  26.117  1.00  0.00     0.023 C 
BRANCH  39  40
ATOM     40  C   UNL A   1      41.075  21.050  26.812  1.00  0.00     0.116 C 
BRANCH  40  41
ATOM     41  N   UNL A   1      42.162  21.439  25.916  1.00  0.00    -0.352 N 
ATOM     42  C   UNL A   1      42.542  22.722  25.579  1.00  0.00     0.251 C 
ATOM     43  H   UNL A   1      42.681  20.706  25.510  1.00  0.00     0.163 HD
ATOM     44  O   UNL A   1      43.138  22.968  24.539  1.00  0.00    -0.269 OA
BRANCH  42  45
ATOM     45  C   UNL A   1      42.207  23.799  26.523  1.00  0.00     0.039 A 
ATOM     46  C   UNL A   1      42.916  23.962  27.711  1.00  0.00     0.014 A 
ATOM     47  C   UNL A   1      41.221  24.709  26.134  1.00  0.00     0.014 A 
ATOM     48  C   UNL A   1      42.690  25.110  28.461  1.00  0.00     0.010 A 
ATOM     49  C   UNL A   1      41.098  25.904  26.802  1.00  0.00     0.010 A 
ATOM     50  C   UNL A   1      41.810  26.102  27.979  1.00  0.00    -0.014 A 
BRANCH  50  51
ATOM     51  C   UNL A   1      41.810  27.430  28.592  1.00  0.00     0.031 A 
ATOM     52  C   UNL A   1      42.959  28.260  28.139  1.00  0.00     0.074 A 
ATOM     53  C   UNL A   1      40.807  27.930  29.350  1.00  0.00     0.049 A 
ATOM     54  N   UNL A   1      44.011  28.544  28.829  1.00  0.00    -0.248 NA
ATOM     55  C   UNL A   1      43.064  28.647  26.721  1.00  0.00     0.031 C 
ATOM     56  C   UNL A   1      39.502  27.318  29.619  1.00  0.00     0.029 A 
ATOM     57  N   UNL A   1      40.698  29.140  29.982  1.00  0.00    -0.354 N 
ATOM     58  C   UNL A   1      44.782  29.374  28.021  1.00  0.00     0.074 A 
ATOM     59  C   UNL A   1      44.271  29.221  26.687  1.00  0.00     0.031 C 
ATOM     60  C   UNL A   1      38.661  28.238  30.143  1.00  0.00     0.029 A 
ATOM     61  C   UNL A   1      39.407  29.453  30.410  1.00  0.00     0.049 A 
ATOM     62  H   UNL A   1      41.468  29.739  30.121  1.00  0.00     0.167 HD
ATOM     63  C   UNL A   1      45.513  30.367  28.601  1.00  0.00     0.037 A 
ATOM     64  C   UNL A   1      38.982  30.623  30.951  1.00  0.00     0.037 A 
ATOM     65  C   UNL A   1      45.618  30.132  30.023  1.00  0.00     0.049 A 
ATOM     66  C   UNL A   1      40.171  31.300  31.505  1.00  0.00     0.074 A 
ATOM     67  C   UNL A   1      46.221  29.208  30.848  1.00  0.00     0.029 A 
ATOM     68  N   UNL A   1      44.602  30.710  30.733  1.00  0.00    -0.354 N 
ATOM     69  N   UNL A   1      40.825  30.865  32.545  1.00  0.00    -0.248 NA
ATOM     70  C   UNL A   1      40.876  32.274  30.683  1.00  0.00     0.031 C 
ATOM     71  C   UNL A   1      45.394  29.122  32.012  1.00  0.00     0.029 A 
ATOM     72  C   UNL A   1      44.358  30.048  31.900  1.00  0.00     0.049 A 
ATOM     73  H   UNL A   1      44.106  31.507  30.437  1.00  0.00     0.167 HD
ATOM     74  C   UNL A   1      42.145  31.128  32.244  1.00  0.00     0.074 A 
ATOM     75  C   UNL A   1      42.100  32.152  31.204  1.00  0.00     0.031 C 
ATOM     76  C   UNL A   1      43.119  30.247  32.617  1.00  0.00     0.037 A 
BRANCH  63  77
ATOM     77  C   UNL A   1      45.598  31.787  28.059  1.00  0.00     0.064 A 
ATOM     78  C   UNL A   1      44.397  32.475  27.778  1.00  0.00     0.173 A 
ATOM     79  C   UNL A   1      46.758  32.348  27.481  1.00  0.00     0.173 A 
ATOM     80  F   UNL A   1      43.223  32.013  28.238  1.00  0.00    -0.203 F 
ATOM     81  C   UNL A   1      44.358  33.588  26.930  1.00  0.00     0.198 A 
ATOM     82  C   UNL A   1      46.722  33.487  26.677  1.00  0.00     0.198 A 
ATOM     83  F   UNL A   1      47.956  31.759  27.558  1.00  0.00    -0.203 F 
ATOM     84  F   UNL A   1      43.180  34.127  26.590  1.00  0.00    -0.200 F 
ATOM     85  C   UNL A   1      45.521  34.090  26.377  1.00  0.00     0.200 A 
ATOM     86  F   UNL A   1      47.858  33.934  26.121  1.00  0.00    -0.200 F 
ATOM     87  F   UNL A   1      45.483  35.117  25.518  1.00  0.00    -0.200 F 
ENDBRANCH  63  77
BRANCH  64  88
ATOM     88  C   UNL A   1      37.671  31.317  30.858  1.00  0.00     0.064 A 
ATOM     89  C   UNL A   1      36.796  31.373  31.960  1.00  0.00     0.173 A 
ATOM     90  C   UNL A   1      37.396  32.203  29.800  1.00  0.00     0.173 A 
ATOM     91  F   UNL A   1      37.001  30.587  33.028  1.00  0.00    -0.203 F 
ATOM     92  C   UNL A   1      35.748  32.299  32.024  1.00  0.00     0.198 A 
ATOM     93  C   UNL A   1      36.347  33.124  29.865  1.00  0.00     0.198 A 
ATOM     94  F   UNL A   1      38.203  32.265  28.732  1.00  0.00    -0.203 F 
ATOM     95  F   UNL A   1      34.988  32.375  33.126  1.00  0.00    -0.200 F 
ATOM     96  C   UNL A   1      35.536  33.186  30.983  1.00  0.00     0.200 A 
ATOM     97  F   UNL A   1      36.173  34.003  28.867  1.00  0.00    -0.200 F 
ATOM     98  F   UNL A   1      34.583  34.125  31.076  1.00  0.00    -0.200 F 
ENDBRANCH  64  88
BRANCH  76  99
ATOM     99  C   UNL A   1      42.822  29.345  33.776  1.00  0.00     0.064 A 
ATOM    100  C   UNL A   1      42.153  28.113  33.696  1.00  0.00     0.173 A 
ATOM    101  C   UNL A   1      43.296  29.743  35.034  1.00  0.00     0.173 A 
ATOM    102  F   UNL A   1      41.743  27.621  32.518  1.00  0.00    -0.203 F 
ATOM    103  C   UNL A   1      41.925  27.345  34.838  1.00  0.00     0.198 A 
ATOM    104  C   UNL A   1      43.105  28.956  36.162  1.00  0.00     0.198 A 
ATOM    105  F   UNL A   1      43.977  30.893  35.162  1.00  0.00    -0.203 F 
ATOM    106  F   UNL A   1      41.255  26.186  34.746  1.00  0.00    -0.200 F 
ATOM    107  C   UNL A   1      42.406  27.765  36.068  1.00  0.00     0.200 A 
ATOM    108  F   UNL A   1      43.612  29.348  37.339  1.00  0.00    -0.200 F 
ATOM    109  F   UNL A   1      42.211  27.015  37.161  1.00  0.00    -0.200 F 
ENDBRANCH  76  99
ENDBRANCH  50  51
ENDBRANCH  42  45
ENDBRANCH  40  41
ENDBRANCH  39  40
ENDBRANCH  38  39
ENDBRANCH  37  38
ENDBRANCH   3  37
TORSDOF 19
ENDMDL
MODEL 3
REMARK VINA RESULT:     -12.1      2.217      3.192
REMARK SMILES NS(=O)(=O)c1ccc(-n2nc(NC(=O)NCCCC(=O)NCCCCNC(=O)c3ccc(-c4c5nc(c(-c6c(F)c(F)c(F)c(F)c6F)c6ccc([nH]6)c(-c6c(F)c(F)c(F)c(F)c6F)c6nc(c(-c7c(F)c(F)c(F)c(F)c7F)c7ccc4[nH]7)C=C6)C=C5)cc3)cc2-c2ccccc2)cc1
REMARK SMILES IDX 19 1 20 2 21 3 18 5 17 6 16 7 15 8 12 9 13 10 14 12 11 14
REMARK SMILES IDX 9 15 10 16 93 17 92 18 8 19 5 20 6 21 101 22 7 23 100 24
REMARK SMILES IDX 2 25 3 26 4 27 1 28 94 31 95 32 99 33 96 34 98 35 97 36
REMARK SMILES IDX 22 37 23 38 24 39 25 40 26 41 27 42 28 44 29 45 30 46 91 47
REMARK SMILES IDX 31 48 90 49 32 50 33 51 34 52 84 53 35 54 89 55 83 56 85 57
REMARK SMILES IDX 36 58 88 59 82 60 81 61 37 63 69 64 49 65 68 66 50 67 53 68
REMARK SMILES IDX 67 69 86 70 51 71 52 72 66 74 87 75 54 76 38 77 39 78 47 79
REMARK SMILES IDX 40 80 41 81 45 82 48 83 42 84 43 85 46 86 44 87 70 88 71 89
REMARK SMILES IDX 79 90 72 91 73 92 77 93 80 94 74 95 75 96 78 97 76 98 55 99
REMARK SMILES IDX 56 100 64 101 57 102 58 103 62 104 65 105 59 106 60 107
REMARK SMILES IDX 63 108 61 109
REMARK H PARENT 21 4 12 11 15 13 1 29 1 30 26 43 85 62 53 73
REMARK Flexibility Score: inf
ROOT
ATOM      1  C   UNL A   1      32.671  29.713  25.791  1.00  0.00     0.220 C 
ATOM      2  O   UNL A   1      31.753  30.165  25.103  1.00  0.00    -0.275 OA
ATOM      3  N   UNL A   1      33.373  30.592  26.562  1.00  0.00    -0.356 N 
ATOM      4  H   UNL A   1      32.991  31.499  26.599  1.00  0.00     0.163 HD
ENDROOT
BRANCH   1   5
ATOM      5  C   UNL A   1      32.972  28.222  25.803  1.00  0.00     0.102 C 
BRANCH   5   6
ATOM      6  C   UNL A   1      32.133  27.402  26.783  1.00  0.00     0.031 C 
BRANCH   6   7
ATOM      7  C   UNL A   1      31.470  26.175  26.181  1.00  0.00     0.118 C 
BRANCH   7   8
ATOM      8  N   UNL A   1      30.106  26.340  25.717  1.00  0.00    -0.338 N 
ATOM      9  N   UNL A   1      30.086  25.153  23.640  1.00  0.00    -0.291 N 
ATOM     10  C   UNL A   1      29.482  25.881  24.606  1.00  0.00     0.320 C 
ATOM     11  H   UNL A   1      29.610  25.155  22.777  1.00  0.00     0.173 HD
ATOM     12  O   UNL A   1      28.318  26.252  24.423  1.00  0.00    -0.248 OA
ATOM     13  H   UNL A   1      29.534  26.877  26.313  1.00  0.00     0.165 HD
BRANCH   9  14
ATOM     14  C   UNL A   1      31.240  24.410  23.647  1.00  0.00     0.157 A 
ATOM     15  N   UNL A   1      32.467  22.690  23.747  1.00  0.00    -0.231 N 
ATOM     16  N   UNL A   1      31.335  23.162  23.205  1.00  0.00    -0.149 NA
ATOM     17  C   UNL A   1      33.317  23.736  24.074  1.00  0.00     0.076 A 
ATOM     18  C   UNL A   1      32.517  24.869  24.037  1.00  0.00     0.078 A 
BRANCH  15  19
ATOM     19  C   UNL A   1      32.592  21.295  24.003  1.00  0.00     0.065 A 
ATOM     20  C   UNL A   1      32.763  18.551  24.499  1.00  0.00     0.082 A 
ATOM     21  C   UNL A   1      32.988  19.459  25.538  1.00  0.00     0.024 A 
ATOM     22  C   UNL A   1      32.429  19.005  23.221  1.00  0.00     0.024 A 
ATOM     23  C   UNL A   1      32.909  20.832  25.288  1.00  0.00     0.030 A 
ATOM     24  C   UNL A   1      32.329  20.375  22.978  1.00  0.00     0.030 A 
BRANCH  20  25
ATOM     25  S   UNL A   1      32.989  16.813  24.730  1.00  0.00     0.238 S 
ATOM     26  O   UNL A   1      33.325  16.225  23.457  1.00  0.00    -0.207 OA
ATOM     27  O   UNL A   1      31.926  16.313  25.574  1.00  0.00    -0.207 OA
BRANCH  25  28
ATOM     28  N   UNL A   1      34.392  16.689  25.649  1.00  0.00    -0.225 NA
ATOM     29  H   UNL A   1      35.028  17.448  25.403  1.00  0.00     0.137 HD
ATOM     30  H   UNL A   1      34.843  15.794  25.464  1.00  0.00     0.137 HD
ENDBRANCH  25  28
ENDBRANCH  20  25
ENDBRANCH  15  19
BRANCH  17  31
ATOM     31  C   UNL A   1      34.731  23.551  24.358  1.00  0.00     0.000 A 
ATOM     32  C   UNL A   1      35.238  23.945  25.606  1.00  0.00     0.010 A 
ATOM     33  C   UNL A   1      35.602  23.063  23.383  1.00  0.00     0.010 A 
ATOM     34  C   UNL A   1      36.606  23.900  25.859  1.00  0.00     0.001 A 
ATOM     35  C   UNL A   1      36.974  23.015  23.640  1.00  0.00     0.001 A 
ATOM     36  C   UNL A   1      37.473  23.442  24.872  1.00  0.00     0.000 A 
ENDBRANCH  17  31
ENDBRANCH   9  14
ENDBRANCH   7   8
ENDBRANCH   6   7
ENDBRANCH   5   6
ENDBRANCH   1   5
BRANCH   3  37
ATOM     37  C   UNL A   1      34.589  30.416  27.340  1.00  0.00     0.116 C 
BRANCH  37  38
ATOM     38  C   UNL A   1      34.947  31.689  28.108  1.00  0.00     0.023 C 
BRANCH  38  39
ATOM     39  C   UNL A   1      33.891  32.790  28.205  1.00  0.00     0.023 C 
BRANCH  39  40
ATOM     40  C   UNL A   1      34.463  34.183  28.389  1.00  0.00     0.116 C 
BRANCH  40  41
ATOM     41  N   UNL A   1      33.863  34.900  29.513  1.00  0.00    -0.352 N 
ATOM     42  C   UNL A   1      33.949  34.571  30.850  1.00  0.00     0.251 C 
ATOM     43  H   UNL A   1      33.342  35.707  29.292  1.00  0.00     0.163 HD
ATOM     44  O   UNL A   1      33.108  34.933  31.662  1.00  0.00    -0.269 OA
BRANCH  42  45
ATOM     45  C   UNL A   1      35.102  33.764  31.277  1.00  0.00     0.039 A 
ATOM     46  C   UNL A   1      34.957  32.419  31.610  1.00  0.00     0.014 A 
ATOM     47  C   UNL A   1      36.360  34.371  31.239  1.00  0.00     0.014 A 
ATOM     48  C   UNL A   1      36.105  31.661  31.808  1.00  0.00     0.010 A 
ATOM     49  C   UNL A   1      37.492  33.594  31.300  1.00  0.00     0.010 A 
ATOM     50  C   UNL A   1      37.374  32.244  31.608  1.00  0.00    -0.014 A 
BRANCH  50  51
ATOM     51  C   UNL A   1      38.556  31.388  31.505  1.00  0.00     0.031 A 
ATOM     52  C   UNL A   1      39.136  31.066  32.837  1.00  0.00     0.074 A 
ATOM     53  C   UNL A   1      38.990  30.804  30.364  1.00  0.00     0.049 A 
ATOM     54  N   UNL A   1      40.218  31.562  33.337  1.00  0.00    -0.248 NA
ATOM     55  C   UNL A   1      38.349  30.279  33.805  1.00  0.00     0.031 C 
ATOM     56  C   UNL A   1      38.332  30.811  29.053  1.00  0.00     0.029 A 
ATOM     57  N   UNL A   1      40.076  30.002  30.142  1.00  0.00    -0.354 N 
ATOM     58  C   UNL A   1      40.386  30.939  34.570  1.00  0.00     0.074 A 
ATOM     59  C   UNL A   1      39.119  30.346  34.895  1.00  0.00     0.031 C 
ATOM     60  C   UNL A   1      38.890  29.875  28.254  1.00  0.00     0.029 A 
ATOM     61  C   UNL A   1      40.051  29.321  28.924  1.00  0.00     0.049 A 
ATOM     62  H   UNL A   1      40.814  29.914  30.788  1.00  0.00     0.167 HD
ATOM     63  C   UNL A   1      41.649  30.674  35.007  1.00  0.00     0.037 A 
ATOM     64  C   UNL A   1      40.923  28.374  28.493  1.00  0.00     0.037 A 
ATOM     65  C   UNL A   1      42.606  31.433  34.235  1.00  0.00     0.049 A 
ATOM     66  C   UNL A   1      42.175  28.563  29.253  1.00  0.00     0.074 A 
ATOM     67  C   UNL A   1      42.943  32.759  34.071  1.00  0.00     0.029 A 
ATOM     68  N   UNL A   1      43.042  30.763  33.124  1.00  0.00    -0.354 N 
ATOM     69  N   UNL A   1      42.958  29.593  29.099  1.00  0.00    -0.248 NA
ATOM     70  C   UNL A   1      42.388  27.788  30.469  1.00  0.00     0.031 C 
ATOM     71  C   UNL A   1      43.421  32.881  32.729  1.00  0.00     0.029 A 
ATOM     72  C   UNL A   1      43.438  31.619  32.139  1.00  0.00     0.049 A 
ATOM     73  H   UNL A   1      43.066  29.782  33.046  1.00  0.00     0.167 HD
ATOM     74  C   UNL A   1      43.406  29.865  30.376  1.00  0.00     0.074 A 
ATOM     75  C   UNL A   1      43.188  28.632  31.125  1.00  0.00     0.031 C 
ATOM     76  C   UNL A   1      43.582  31.159  30.776  1.00  0.00     0.037 A 
BRANCH  63  77
ATOM     77  C   UNL A   1      42.067  29.359  35.650  1.00  0.00     0.064 A 
ATOM     78  C   UNL A   1      43.032  29.388  36.681  1.00  0.00     0.173 A 
ATOM     79  C   UNL A   1      41.844  28.088  35.075  1.00  0.00     0.173 A 
ATOM     80  F   UNL A   1      43.359  30.547  37.275  1.00  0.00    -0.203 F 
ATOM     81  C   UNL A   1      43.760  28.251  37.050  1.00  0.00     0.198 A 
ATOM     82  C   UNL A   1      42.536  26.948  35.480  1.00  0.00     0.198 A 
ATOM     83  F   UNL A   1      41.046  27.909  34.017  1.00  0.00    -0.203 F 
ATOM     84  F   UNL A   1      44.755  28.357  37.941  1.00  0.00    -0.200 F 
ATOM     85  C   UNL A   1      43.514  27.033  36.446  1.00  0.00     0.200 A 
ATOM     86  F   UNL A   1      42.308  25.784  34.854  1.00  0.00    -0.200 F 
ATOM     87  F   UNL A   1      44.249  25.955  36.752  1.00  0.00    -0.200 F 
ENDBRANCH  63  77
BRANCH  64  88
ATOM     88  C   UNL A   1      40.716  27.183  27.629  1.00  0.00     0.064 A 
ATOM     89  C   UNL A   1      41.531  26.949  26.504  1.00  0.00     0.173 A 
ATOM     90  C   UNL A   1      39.936  26.098  28.069  1.00  0.00     0.173 A 
ATOM     91  F   UNL A   1      42.332  27.916  26.036  1.00  0.00    -0.203 F 
ATOM     92  C   UNL A   1      41.603  25.691  25.895  1.00  0.00     0.198 A 
ATOM     93  C   UNL A   1      40.007  24.844  27.457  1.00  0.00     0.198 A 
ATOM     94  F   UNL A   1      39.171  26.205  29.164  1.00  0.00    -0.203 F 
ATOM     95  F   UNL A   1      42.452  25.487  24.877  1.00  0.00    -0.200 F 
ATOM     96  C   UNL A   1      40.854  24.634  26.384  1.00  0.00     0.200 A 
ATOM     97  F   UNL A   1      39.305  23.818  27.961  1.00  0.00    -0.200 F 
ATOM     98  F   UNL A   1      40.981  23.410  25.852  1.00  0.00    -0.200 F 
ENDBRANCH  64  88
BRANCH  76  99
ATOM     99  C   UNL A   1      43.819  32.182  29.707  1.00  0.00     0.064 A 
ATOM    100  C   UNL A   1      42.888  33.145  29.284  1.00  0.00     0.173 A 
ATOM    101  C   UNL A   1      45.092  32.210  29.120  1.00  0.00     0.173 A 
ATOM    102  F   UNL A   1      41.679  33.239  29.855  1.00  0.00    -0.203 F 
ATOM    103  C   UNL A   1      43.207  34.057  28.278  1.00  0.00     0.198 A 
ATOM    104  C   UNL A   1      45.421  33.147  28.149  1.00  0.00     0.198 A 
ATOM    105  F   UNL A   1      46.033  31.339  29.515  1.00  0.00    -0.203 F 
ATOM    106  F   UNL A   1      42.293  34.948  27.863  1.00  0.00    -0.200 F 
ATOM    107  C   UNL A   1      44.474  34.060  27.716  1.00  0.00     0.200 A 
ATOM    108  F   UNL A   1      46.661  33.173  27.644  1.00  0.00    -0.200 F 
ATOM    109  F   UNL A   1      44.790  34.954  26.769  1.00  0.00    -0.200 F 
ENDBRANCH  76  99
ENDBRANCH  50  51
ENDBRANCH  42  45
ENDBRANCH  40  41
ENDBRANCH  39  40
ENDBRANCH  38  39
ENDBRANCH  37  38
ENDBRANCH   3  37
TORSDOF 19
ENDMDL
