MODEL 1
REMARK VINA RESULT:     -11.8      0.000      0.000
REMARK SMILES O=C(C[C@@H]1C[N@@H+](C[C@H]2CCOC2)CCO1)NCCCCNC(=O)c1ccc(-c2c3nc(c(-c4c(F)c(F)c(F)c(F)c4F)c4ccc([nH]4)c(-c4c(F)c(F)c(F)c(F)c4F)c4nc(c(-c5c(F)c(F)c(F)c(F)c5F)c5ccc2[nH]5)C=C4)C=C3)cc1
REMARK SMILES IDX 18 1 17 2 16 3 1 4 2 5 3 7 4 8 5 9 15 10 6 11 14 12 13 13
REMARK SMILES IDX 7 15 8 16 9 17 12 18 10 19 11 20 19 21 20 22 21 23 22 24
REMARK SMILES IDX 23 26 24 27 25 28 86 29 26 30 85 31 27 32 28 33 29 34 79 35
REMARK SMILES IDX 30 36 84 37 78 38 80 39 31 40 83 41 77 42 76 43 32 45 64 46
REMARK SMILES IDX 44 47 63 48 45 49 48 50 62 51 81 52 46 53 47 54 61 56 82 57
REMARK SMILES IDX 49 58 33 59 34 60 42 61 35 62 36 63 40 64 43 65 37 66 38 67
REMARK SMILES IDX 41 68 39 69 65 70 66 71 74 72 67 73 68 74 72 75 75 76 69 77
REMARK SMILES IDX 70 78 73 79 71 80 50 81 51 82 59 83 52 84 53 85 57 86 60 87
REMARK SMILES IDX 54 88 55 89 58 90 56 91
REMARK H PARENT 16 6 6 14 21 25 80 44 48 55
REMARK Flexibility Score: inf
ROOT
ATOM      1  C   UNL A   1      31.311  31.010  26.478  1.00  0.00     0.023 C 
ENDROOT
BRANCH   1   2
ATOM      2  C   UNL A   1      32.565  30.273  26.949  1.00  0.00     0.116 C 
BRANCH   2   3
ATOM      3  N   UNL A   1      32.673  28.961  26.341  1.00  0.00    -0.356 N 
ATOM      4  O   UNL A   1      31.486  27.816  27.945  1.00  0.00    -0.275 OA
ATOM      5  C   UNL A   1      32.126  27.824  26.901  1.00  0.00     0.222 C 
ATOM      6  H   UNL A   1      33.157  28.877  25.488  1.00  0.00     0.163 HD
BRANCH   5   7
ATOM      7  C   UNL A   1      32.377  26.566  26.096  1.00  0.00     0.138 C 
BRANCH   7   8
ATOM      8  C   UNL A   1      32.205  26.853  24.609  1.00  0.00     0.182 C 
ATOM      9  C   UNL A   1      30.731  26.782  24.169  1.00  0.00     0.295 C 
ATOM     10  O   UNL A   1      32.993  25.916  23.852  1.00  0.00    -0.366 OA
ATOM     11  N   UNL A   1      30.567  27.086  22.744  1.00  0.00    -0.331 N 
ATOM     12  C   UNL A   1      32.945  26.227  22.452  1.00  0.00     0.222 C 
ATOM     13  C   UNL A   1      31.510  26.340  21.908  1.00  0.00     0.291 C 
ATOM     14  H   UNL A   1      29.657  26.704  22.485  1.00  0.00     0.348 HD
BRANCH  11  15
ATOM     15  C   UNL A   1      30.275  28.471  22.392  1.00  0.00     0.268 C 
BRANCH  15  16
ATOM     16  C   UNL A   1      29.253  29.286  23.198  1.00  0.00     0.072 C 
ATOM     17  C   UNL A   1      29.113  30.756  22.858  1.00  0.00     0.040 C 
ATOM     18  C   UNL A   1      27.829  28.803  22.938  1.00  0.00     0.169 C 
ATOM     19  C   UNL A   1      27.729  31.080  23.378  1.00  0.00     0.160 C 
ATOM     20  O   UNL A   1      26.953  29.884  23.282  1.00  0.00    -0.381 OA
ENDBRANCH  15  16
ENDBRANCH  11  15
ENDBRANCH   7   8
ENDBRANCH   5   7
ENDBRANCH   2   3
ENDBRANCH   1   2
BRANCH   1  21
ATOM     21  C   UNL A   1      31.392  32.539  26.549  1.00  0.00     0.023 C 
BRANCH  21  22
ATOM     22  C   UNL A   1      32.597  33.095  27.301  1.00  0.00     0.116 C 
BRANCH  22  23
ATOM     23  N   UNL A   1      32.383  34.446  27.792  1.00  0.00    -0.352 N 
ATOM     24  C   UNL A   1      33.016  35.125  28.807  1.00  0.00     0.251 C 
ATOM     25  H   UNL A   1      31.678  34.952  27.327  1.00  0.00     0.163 HD
ATOM     26  O   UNL A   1      32.592  36.214  29.174  1.00  0.00    -0.269 OA
BRANCH  24  27
ATOM     27  C   UNL A   1      34.190  34.531  29.489  1.00  0.00     0.039 A 
ATOM     28  C   UNL A   1      34.001  33.896  30.720  1.00  0.00     0.014 A 
ATOM     29  C   UNL A   1      35.471  34.603  28.934  1.00  0.00     0.014 A 
ATOM     30  C   UNL A   1      35.078  33.270  31.355  1.00  0.00     0.010 A 
ATOM     31  C   UNL A   1      36.527  33.912  29.529  1.00  0.00     0.010 A 
ATOM     32  C   UNL A   1      36.341  33.234  30.743  1.00  0.00    -0.014 A 
BRANCH  32  33
ATOM     33  C   UNL A   1      37.471  32.483  31.354  1.00  0.00     0.031 A 
ATOM     34  C   UNL A   1      38.001  32.866  32.709  1.00  0.00     0.074 A 
ATOM     35  C   UNL A   1      38.064  31.490  30.661  1.00  0.00     0.049 A 
ATOM     36  N   UNL A   1      39.021  32.377  33.370  1.00  0.00    -0.248 NA
ATOM     37  C   UNL A   1      37.307  33.962  33.403  1.00  0.00     0.031 C 
ATOM     38  C   UNL A   1      37.677  31.046  29.322  1.00  0.00     0.029 A 
ATOM     39  N   UNL A   1      39.127  30.680  30.983  1.00  0.00    -0.354 N 
ATOM     40  C   UNL A   1      39.095  33.108  34.549  1.00  0.00     0.074 A 
ATOM     41  C   UNL A   1      38.056  34.113  34.486  1.00  0.00     0.031 C 
ATOM     42  C   UNL A   1      38.474  30.034  28.945  1.00  0.00     0.029 A 
ATOM     43  C   UNL A   1      39.457  29.786  29.994  1.00  0.00     0.049 A 
ATOM     44  H   UNL A   1      39.605  30.736  31.841  1.00  0.00     0.167 HD
ATOM     45  C   UNL A   1      39.935  32.940  35.598  1.00  0.00     0.037 A 
ATOM     46  C   UNL A   1      40.450  28.877  29.931  1.00  0.00     0.037 A 
ATOM     47  C   UNL A   1      40.960  31.932  35.665  1.00  0.00     0.049 A 
ATOM     48  C   UNL A   1      41.387  28.728  31.100  1.00  0.00     0.074 A 
ATOM     49  C   UNL A   1      41.831  31.653  36.705  1.00  0.00     0.029 A 
ATOM     50  N   UNL A   1      41.258  31.038  34.647  1.00  0.00    -0.354 N 
ATOM     51  N   UNL A   1      41.406  29.384  32.236  1.00  0.00    -0.248 NA
ATOM     52  C   UNL A   1      42.439  27.709  30.980  1.00  0.00     0.031 C 
ATOM     53  C   UNL A   1      42.692  30.631  36.294  1.00  0.00     0.029 A 
ATOM     54  C   UNL A   1      42.316  30.226  35.024  1.00  0.00     0.049 A 
ATOM     55  H   UNL A   1      40.787  30.986  33.784  1.00  0.00     0.167 HD
ATOM     56  C   UNL A   1      42.446  28.835  32.976  1.00  0.00     0.074 A 
ATOM     57  C   UNL A   1      43.023  27.783  32.168  1.00  0.00     0.031 C 
ATOM     58  C   UNL A   1      42.881  29.176  34.214  1.00  0.00     0.037 A 
BRANCH  45  59
ATOM     59  C   UNL A   1      39.780  33.872  36.768  1.00  0.00     0.064 A 
ATOM     60  C   UNL A   1      38.969  33.547  37.867  1.00  0.00     0.173 A 
ATOM     61  C   UNL A   1      40.483  35.086  36.811  1.00  0.00     0.173 A 
ATOM     62  F   UNL A   1      38.268  32.403  37.874  1.00  0.00    -0.203 F 
ATOM     63  C   UNL A   1      38.842  34.415  38.948  1.00  0.00     0.198 A 
ATOM     64  C   UNL A   1      40.381  35.937  37.910  1.00  0.00     0.198 A 
ATOM     65  F   UNL A   1      41.279  35.444  35.793  1.00  0.00    -0.203 F 
ATOM     66  F   UNL A   1      38.020  34.107  39.960  1.00  0.00    -0.200 F 
ATOM     67  C   UNL A   1      39.553  35.605  38.972  1.00  0.00     0.200 A 
ATOM     68  F   UNL A   1      41.083  37.077  37.939  1.00  0.00    -0.200 F 
ATOM     69  F   UNL A   1      39.438  36.437  40.018  1.00  0.00    -0.200 F 
ENDBRANCH  45  59
BRANCH  46  70
ATOM     70  C   UNL A   1      40.606  28.027  28.720  1.00  0.00     0.064 A 
ATOM     71  C   UNL A   1      41.395  28.446  27.639  1.00  0.00     0.173 A 
ATOM     72  C   UNL A   1      39.959  26.786  28.611  1.00  0.00     0.173 A 
ATOM     73  F   UNL A   1      42.016  29.633  27.684  1.00  0.00    -0.203 F 
ATOM     74  C   UNL A   1      41.511  27.670  26.487  1.00  0.00     0.198 A 
ATOM     75  C   UNL A   1      40.103  25.995  27.473  1.00  0.00     0.198 A 
ATOM     76  F   UNL A   1      39.197  26.336  29.618  1.00  0.00    -0.203 F 
ATOM     77  F   UNL A   1      42.226  28.120  25.448  1.00  0.00    -0.200 F 
ATOM     78  C   UNL A   1      40.870  26.442  26.407  1.00  0.00     0.200 A 
ATOM     79  F   UNL A   1      39.496  24.803  27.408  1.00  0.00    -0.200 F 
ATOM     80  F   UNL A   1      40.984  25.695  25.302  1.00  0.00    -0.200 F 
ENDBRANCH  46  70
BRANCH  58  81
ATOM     81  C   UNL A   1      44.014  28.375  34.792  1.00  0.00     0.064 A 
ATOM     82  C   UNL A   1      43.794  27.189  35.508  1.00  0.00     0.173 A 
ATOM     83  C   UNL A   1      45.343  28.781  34.591  1.00  0.00     0.173 A 
ATOM     84  F   UNL A   1      42.543  26.764  35.741  1.00  0.00    -0.203 F 
ATOM     85  C   UNL A   1      44.859  26.457  36.027  1.00  0.00     0.198 A 
ATOM     86  C   UNL A   1      46.407  28.029  35.081  1.00  0.00     0.198 A 
ATOM     87  F   UNL A   1      45.611  29.904  33.906  1.00  0.00    -0.203 F 
ATOM     88  F   UNL A   1      44.622  25.357  36.753  1.00  0.00    -0.200 F 
ATOM     89  C   UNL A   1      46.164  26.872  35.805  1.00  0.00     0.200 A 
ATOM     90  F   UNL A   1      47.667  28.423  34.851  1.00  0.00    -0.200 F 
ATOM     91  F   UNL A   1      47.188  26.161  36.297  1.00  0.00    -0.200 F 
ENDBRANCH  58  81
ENDBRANCH  32  33
ENDBRANCH  24  27
ENDBRANCH  22  23
ENDBRANCH  21  22
ENDBRANCH   1  21
TORSDOF 14
ENDMDL
MODEL 2
REMARK VINA RESULT:     -11.7      6.211     11.434
REMARK SMILES O=C(C[C@@H]1C[N@@H+](C[C@H]2CCOC2)CCO1)NCCCCNC(=O)c1ccc(-c2c3nc(c(-c4c(F)c(F)c(F)c(F)c4F)c4ccc([nH]4)c(-c4c(F)c(F)c(F)c(F)c4F)c4nc(c(-c5c(F)c(F)c(F)c(F)c5F)c5ccc2[nH]5)C=C4)C=C3)cc1
REMARK SMILES IDX 18 1 17 2 16 3 1 4 2 5 3 7 4 8 5 9 15 10 6 11 14 12 13 13
REMARK SMILES IDX 7 15 8 16 9 17 12 18 10 19 11 20 19 21 20 22 21 23 22 24
REMARK SMILES IDX 23 26 24 27 25 28 86 29 26 30 85 31 27 32 28 33 29 34 79 35
REMARK SMILES IDX 30 36 84 37 78 38 80 39 31 40 83 41 77 42 76 43 32 45 64 46
REMARK SMILES IDX 44 47 63 48 45 49 48 50 62 51 81 52 46 53 47 54 61 56 82 57
REMARK SMILES IDX 49 58 33 59 34 60 42 61 35 62 36 63 40 64 43 65 37 66 38 67
REMARK SMILES IDX 41 68 39 69 65 70 66 71 74 72 67 73 68 74 72 75 75 76 69 77
REMARK SMILES IDX 70 78 73 79 71 80 50 81 51 82 59 83 52 84 53 85 57 86 60 87
REMARK SMILES IDX 54 88 55 89 58 90 56 91
REMARK H PARENT 16 6 6 14 21 25 80 44 48 55
REMARK Flexibility Score: inf
ROOT
ATOM      1  C   UNL A   1      37.470  20.239  24.690  1.00  0.00     0.023 C 
ENDROOT
BRANCH   1   2
ATOM      2  C   UNL A   1      37.814  21.692  25.022  1.00  0.00     0.116 C 
BRANCH   2   3
ATOM      3  N   UNL A   1      36.624  22.517  25.096  1.00  0.00    -0.356 N 
ATOM      4  O   UNL A   1      36.563  23.111  22.874  1.00  0.00    -0.275 OA
ATOM      5  C   UNL A   1      36.096  23.176  24.005  1.00  0.00     0.222 C 
ATOM      6  H   UNL A   1      36.172  22.612  25.966  1.00  0.00     0.163 HD
BRANCH   5   7
ATOM      7  C   UNL A   1      34.859  23.990  24.324  1.00  0.00     0.138 C 
BRANCH   7   8
ATOM      8  C   UNL A   1      33.817  23.114  25.009  1.00  0.00     0.182 C 
ATOM      9  C   UNL A   1      33.107  22.172  24.021  1.00  0.00     0.295 C 
ATOM     10  O   UNL A   1      32.854  23.953  25.671  1.00  0.00    -0.366 OA
ATOM     11  N   UNL A   1      32.125  21.311  24.688  1.00  0.00    -0.331 N 
ATOM     12  C   UNL A   1      31.923  23.162  26.423  1.00  0.00     0.222 C 
ATOM     13  C   UNL A   1      31.245  22.067  25.581  1.00  0.00     0.291 C 
ATOM     14  H   UNL A   1      31.501  20.982  23.952  1.00  0.00     0.348 HD
BRANCH  11  15
ATOM     15  C   UNL A   1      32.584  19.995  25.120  1.00  0.00     0.268 C 
BRANCH  15  16
ATOM     16  C   UNL A   1      33.291  19.050  24.136  1.00  0.00     0.072 C 
ATOM     17  C   UNL A   1      33.734  17.701  24.666  1.00  0.00     0.040 C 
ATOM     18  C   UNL A   1      32.353  18.615  23.015  1.00  0.00     0.169 C 
ATOM     19  C   UNL A   1      33.840  16.874  23.403  1.00  0.00     0.160 C 
ATOM     20  O   UNL A   1      32.884  17.395  22.478  1.00  0.00    -0.381 OA
ENDBRANCH  15  16
ENDBRANCH  11  15
ENDBRANCH   7   8
ENDBRANCH   5   7
ENDBRANCH   2   3
ENDBRANCH   1   2
BRANCH   1  21
ATOM     21  C   UNL A   1      38.429  19.196  25.276  1.00  0.00     0.023 C 
BRANCH  21  22
ATOM     22  C   UNL A   1      39.681  19.759  25.940  1.00  0.00     0.116 C 
BRANCH  22  23
ATOM     23  N   UNL A   1      40.814  18.851  25.873  1.00  0.00    -0.352 N 
ATOM     24  C   UNL A   1      42.159  19.110  26.007  1.00  0.00     0.251 C 
ATOM     25  H   UNL A   1      40.584  17.908  25.706  1.00  0.00     0.163 HD
ATOM     26  O   UNL A   1      42.978  18.230  25.768  1.00  0.00    -0.269 OA
BRANCH  24  27
ATOM     27  C   UNL A   1      42.628  20.458  26.404  1.00  0.00     0.039 A 
ATOM     28  C   UNL A   1      43.292  21.243  25.457  1.00  0.00     0.014 A 
ATOM     29  C   UNL A   1      42.430  20.949  27.697  1.00  0.00     0.014 A 
ATOM     30  C   UNL A   1      43.688  22.543  25.782  1.00  0.00     0.010 A 
ATOM     31  C   UNL A   1      42.755  22.271  27.997  1.00  0.00     0.010 A 
ATOM     32  C   UNL A   1      43.384  23.085  27.041  1.00  0.00    -0.014 A 
BRANCH  32  33
ATOM     33  C   UNL A   1      43.704  24.501  27.368  1.00  0.00     0.031 A 
ATOM     34  C   UNL A   1      45.133  24.968  27.426  1.00  0.00     0.074 A 
ATOM     35  C   UNL A   1      42.708  25.357  27.673  1.00  0.00     0.049 A 
ATOM     36  N   UNL A   1      45.610  26.141  27.762  1.00  0.00    -0.248 NA
ATOM     37  C   UNL A   1      46.166  23.977  27.086  1.00  0.00     0.031 C 
ATOM     38  C   UNL A   1      41.284  25.023  27.695  1.00  0.00     0.029 A 
ATOM     39  N   UNL A   1      42.742  26.682  28.034  1.00  0.00    -0.354 N 
ATOM     40  C   UNL A   1      46.992  26.027  27.681  1.00  0.00     0.074 A 
ATOM     41  C   UNL A   1      47.279  24.654  27.324  1.00  0.00     0.031 C 
ATOM     42  C   UNL A   1      40.580  26.116  28.031  1.00  0.00     0.029 A 
ATOM     43  C   UNL A   1      41.502  27.216  28.291  1.00  0.00     0.049 A 
ATOM     44  H   UNL A   1      43.576  27.201  28.102  1.00  0.00     0.167 HD
ATOM     45  C   UNL A   1      47.933  26.984  27.862  1.00  0.00     0.037 A 
ATOM     46  C   UNL A   1      41.147  28.448  28.704  1.00  0.00     0.037 A 
ATOM     47  C   UNL A   1      47.644  28.352  28.206  1.00  0.00     0.049 A 
ATOM     48  C   UNL A   1      42.215  29.487  28.924  1.00  0.00     0.074 A 
ATOM     49  C   UNL A   1      48.528  29.406  28.366  1.00  0.00     0.029 A 
ATOM     50  N   UNL A   1      46.375  28.856  28.448  1.00  0.00    -0.354 N 
ATOM     51  N   UNL A   1      43.514  29.382  28.782  1.00  0.00    -0.248 NA
ATOM     52  C   UNL A   1      41.765  30.817  29.358  1.00  0.00     0.031 C 
ATOM     53  C   UNL A   1      47.799  30.533  28.761  1.00  0.00     0.029 A 
ATOM     54  C   UNL A   1      46.455  30.199  28.782  1.00  0.00     0.049 A 
ATOM     55  H   UNL A   1      45.540  28.338  28.390  1.00  0.00     0.167 HD
ATOM     56  C   UNL A   1      44.033  30.637  29.076  1.00  0.00     0.074 A 
ATOM     57  C   UNL A   1      42.906  31.491  29.388  1.00  0.00     0.031 C 
ATOM     58  C   UNL A   1      45.327  31.043  29.086  1.00  0.00     0.037 A 
BRANCH  45  59
ATOM     59  C   UNL A   1      49.372  26.584  27.692  1.00  0.00     0.064 A 
ATOM     60  C   UNL A   1      49.968  26.502  26.423  1.00  0.00     0.173 A 
ATOM     61  C   UNL A   1      50.177  26.320  28.811  1.00  0.00     0.173 A 
ATOM     62  F   UNL A   1      49.243  26.735  25.319  1.00  0.00    -0.203 F 
ATOM     63  C   UNL A   1      51.305  26.140  26.281  1.00  0.00     0.198 A 
ATOM     64  C   UNL A   1      51.523  25.992  28.666  1.00  0.00     0.198 A 
ATOM     65  F   UNL A   1      49.662  26.392  30.047  1.00  0.00    -0.203 F 
ATOM     66  F   UNL A   1      51.837  26.016  25.057  1.00  0.00    -0.200 F 
ATOM     67  C   UNL A   1      52.083  25.892  27.401  1.00  0.00     0.200 A 
ATOM     68  F   UNL A   1      52.277  25.770  29.751  1.00  0.00    -0.200 F 
ATOM     69  F   UNL A   1      53.373  25.552  27.263  1.00  0.00    -0.200 F 
ENDBRANCH  45  59
BRANCH  46  70
ATOM     70  C   UNL A   1      39.713  28.774  28.928  1.00  0.00     0.064 A 
ATOM     71  C   UNL A   1      39.116  28.583  30.183  1.00  0.00     0.173 A 
ATOM     72  C   UNL A   1      38.907  29.269  27.893  1.00  0.00     0.173 A 
ATOM     73  F   UNL A   1      39.838  28.092  31.200  1.00  0.00    -0.203 F 
ATOM     74  C   UNL A   1      37.763  28.850  30.386  1.00  0.00     0.198 A 
ATOM     75  C   UNL A   1      37.562  29.568  28.105  1.00  0.00     0.198 A 
ATOM     76  F   UNL A   1      39.428  29.475  26.675  1.00  0.00    -0.203 F 
ATOM     77  F   UNL A   1      37.207  28.606  31.579  1.00  0.00    -0.200 F 
ATOM     78  C   UNL A   1      36.989  29.348  29.349  1.00  0.00     0.200 A 
ATOM     79  F   UNL A   1      36.823  30.064  27.105  1.00  0.00    -0.200 F 
ATOM     80  F   UNL A   1      35.690  29.607  29.544  1.00  0.00    -0.200 F 
ENDBRANCH  46  70
BRANCH  58  81
ATOM     81  C   UNL A   1      45.595  32.488  29.406  1.00  0.00     0.064 A 
ATOM     82  C   UNL A   1      45.581  33.481  28.415  1.00  0.00     0.173 A 
ATOM     83  C   UNL A   1      45.830  32.887  30.731  1.00  0.00     0.173 A 
ATOM     84  F   UNL A   1      45.375  33.150  27.131  1.00  0.00    -0.203 F 
ATOM     85  C   UNL A   1      45.822  34.814  28.736  1.00  0.00     0.198 A 
ATOM     86  C   UNL A   1      46.036  34.225  31.052  1.00  0.00     0.198 A 
ATOM     87  F   UNL A   1      45.847  31.979  31.719  1.00  0.00    -0.203 F 
ATOM     88  F   UNL A   1      45.857  35.738  27.765  1.00  0.00    -0.200 F 
ATOM     89  C   UNL A   1      46.041  35.187  30.053  1.00  0.00     0.200 A 
ATOM     90  F   UNL A   1      46.231  34.585  32.329  1.00  0.00    -0.200 F 
ATOM     91  F   UNL A   1      46.264  36.473  30.360  1.00  0.00    -0.200 F 
ENDBRANCH  58  81
ENDBRANCH  32  33
ENDBRANCH  24  27
ENDBRANCH  22  23
ENDBRANCH  21  22
ENDBRANCH   1  21
TORSDOF 14
ENDMDL
MODEL 3
REMARK VINA RESULT:     -11.6      6.314     10.696
REMARK SMILES O=C(C[C@@H]1C[N@@H+](C[C@H]2CCOC2)CCO1)NCCCCNC(=O)c1ccc(-c2c3nc(c(-c4c(F)c(F)c(F)c(F)c4F)c4ccc([nH]4)c(-c4c(F)c(F)c(F)c(F)c4F)c4nc(c(-c5c(F)c(F)c(F)c(F)c5F)c5ccc2[nH]5)C=C4)C=C3)cc1
REMARK SMILES IDX 18 1 17 2 16 3 1 4 2 5 3 7 4 8 5 9 15 10 6 11 14 12 13 13
REMARK SMILES IDX 7 15 8 16 9 17 12 18 10 19 11 20 19 21 20 22 21 23 22 24
REMARK SMILES IDX 23 26 24 27 25 28 86 29 26 30 85 31 27 32 28 33 29 34 79 35
REMARK SMILES IDX 30 36 84 37 78 38 80 39 31 40 83 41 77 42 76 43 32 45 64 46
REMARK SMILES IDX 44 47 63 48 45 49 48 50 62 51 81 52 46 53 47 54 61 56 82 57
REMARK SMILES IDX 49 58 33 59 34 60 42 61 35 62 36 63 40 64 43 65 37 66 38 67
REMARK SMILES IDX 41 68 39 69 65 70 66 71 74 72 67 73 68 74 72 75 75 76 69 77
REMARK SMILES IDX 70 78 73 79 71 80 50 81 51 82 59 83 52 84 53 85 57 86 60 87
REMARK SMILES IDX 54 88 55 89 58 90 56 91
REMARK H PARENT 16 6 6 14 21 25 80 44 48 55
REMARK Flexibility Score: inf
ROOT
ATOM      1  C   UNL A   1      37.100  20.333  24.946  1.00  0.00     0.023 C 
ENDROOT
BRANCH   1   2
ATOM      2  C   UNL A   1      37.499  21.803  25.085  1.00  0.00     0.116 C 
BRANCH   2   3
ATOM      3  N   UNL A   1      36.350  22.680  24.974  1.00  0.00    -0.356 N 
ATOM      4  O   UNL A   1      36.656  23.255  22.767  1.00  0.00    -0.275 OA
ATOM      5  C   UNL A   1      36.024  23.351  23.813  1.00  0.00     0.222 C 
ATOM      6  H   UNL A   1      35.774  22.802  25.763  1.00  0.00     0.163 HD
BRANCH   5   7
ATOM      7  C   UNL A   1      34.791  24.221  23.936  1.00  0.00     0.138 C 
BRANCH   7   8
ATOM      8  C   UNL A   1      33.694  23.473  24.685  1.00  0.00     0.182 C 
ATOM      9  C   UNL A   1      32.877  22.555  23.758  1.00  0.00     0.295 C 
ATOM     10  O   UNL A   1      32.828  24.424  25.329  1.00  0.00    -0.366 OA
ATOM     11  N   UNL A   1      31.842  21.816  24.487  1.00  0.00    -0.331 N 
ATOM     12  C   UNL A   1      31.850  23.753  26.138  1.00  0.00     0.222 C 
ATOM     13  C   UNL A   1      31.056  22.687  25.364  1.00  0.00     0.291 C 
ATOM     14  H   UNL A   1      31.172  21.512  23.781  1.00  0.00     0.348 HD
BRANCH  11  15
ATOM     15  C   UNL A   1      32.195  20.484  24.969  1.00  0.00     0.268 C 
BRANCH  15  16
ATOM     16  C   UNL A   1      33.040  19.537  24.104  1.00  0.00     0.072 C 
ATOM     17  C   UNL A   1      33.580  18.287  24.770  1.00  0.00     0.040 C 
ATOM     18  C   UNL A   1      32.209  18.919  22.983  1.00  0.00     0.169 C 
ATOM     19  C   UNL A   1      33.832  17.374  23.589  1.00  0.00     0.160 C 
ATOM     20  O   UNL A   1      32.882  17.719  22.580  1.00  0.00    -0.381 OA
ENDBRANCH  15  16
ENDBRANCH  11  15
ENDBRANCH   7   8
ENDBRANCH   5   7
ENDBRANCH   2   3
ENDBRANCH   1   2
BRANCH   1  21
ATOM     21  C   UNL A   1      38.258  19.334  25.046  1.00  0.00     0.023 C 
BRANCH  21  22
ATOM     22  C   UNL A   1      39.512  19.856  25.740  1.00  0.00     0.116 C 
BRANCH  22  23
ATOM     23  N   UNL A   1      40.545  18.843  25.878  1.00  0.00    -0.352 N 
ATOM     24  C   UNL A   1      41.890  18.985  26.129  1.00  0.00     0.251 C 
ATOM     25  H   UNL A   1      40.235  17.914  25.776  1.00  0.00     0.163 HD
ATOM     26  O   UNL A   1      42.632  18.012  26.061  1.00  0.00    -0.269 OA
BRANCH  24  27
ATOM     27  C   UNL A   1      42.458  20.316  26.447  1.00  0.00     0.039 A 
ATOM     28  C   UNL A   1      43.103  21.030  25.432  1.00  0.00     0.014 A 
ATOM     29  C   UNL A   1      42.370  20.861  27.731  1.00  0.00     0.014 A 
ATOM     30  C   UNL A   1      43.590  22.315  25.685  1.00  0.00     0.010 A 
ATOM     31  C   UNL A   1      42.787  22.171  27.961  1.00  0.00     0.010 A 
ATOM     32  C   UNL A   1      43.397  22.915  26.939  1.00  0.00    -0.014 A 
BRANCH  32  33
ATOM     33  C   UNL A   1      43.816  24.321  27.193  1.00  0.00     0.031 A 
ATOM     34  C   UNL A   1      42.823  25.336  27.689  1.00  0.00     0.074 A 
ATOM     35  C   UNL A   1      45.081  24.700  26.920  1.00  0.00     0.049 A 
ATOM     36  N   UNL A   1      42.984  26.620  27.898  1.00  0.00    -0.248 NA
ATOM     37  C   UNL A   1      41.462  24.851  27.960  1.00  0.00     0.031 C 
ATOM     38  C   UNL A   1      46.131  23.825  26.396  1.00  0.00     0.029 A 
ATOM     39  N   UNL A   1      45.696  25.923  27.033  1.00  0.00    -0.354 N 
ATOM     40  C   UNL A   1      41.747  27.093  28.318  1.00  0.00     0.074 A 
ATOM     41  C   UNL A   1      40.832  25.974  28.274  1.00  0.00     0.031 C 
ATOM     42  C   UNL A   1      47.263  24.532  26.253  1.00  0.00     0.029 A 
ATOM     43  C   UNL A   1      47.010  25.919  26.631  1.00  0.00     0.049 A 
ATOM     44  H   UNL A   1      45.240  26.726  27.372  1.00  0.00     0.167 HD
ATOM     45  C   UNL A   1      41.412  28.341  28.726  1.00  0.00     0.037 A 
ATOM     46  C   UNL A   1      47.908  26.921  26.560  1.00  0.00     0.037 A 
ATOM     47  C   UNL A   1      42.327  29.451  28.780  1.00  0.00     0.049 A 
ATOM     48  C   UNL A   1      47.503  28.304  26.994  1.00  0.00     0.074 A 
ATOM     49  C   UNL A   1      42.093  30.742  29.223  1.00  0.00     0.029 A 
ATOM     50  N   UNL A   1      43.653  29.405  28.374  1.00  0.00    -0.354 N 
ATOM     51  N   UNL A   1      46.346  28.724  27.449  1.00  0.00    -0.248 NA
ATOM     52  C   UNL A   1      48.529  29.352  26.910  1.00  0.00     0.031 C 
ATOM     53  C   UNL A   1      43.259  31.490  29.030  1.00  0.00     0.029 A 
ATOM     54  C   UNL A   1      44.240  30.651  28.530  1.00  0.00     0.049 A 
ATOM     55  H   UNL A   1      44.110  28.605  28.026  1.00  0.00     0.167 HD
ATOM     56  C   UNL A   1      46.516  30.073  27.735  1.00  0.00     0.074 A 
ATOM     57  C   UNL A   1      47.891  30.397  27.418  1.00  0.00     0.031 C 
ATOM     58  C   UNL A   1      45.612  30.962  28.217  1.00  0.00     0.037 A 
BRANCH  45  59
ATOM     59  C   UNL A   1      39.989  28.575  29.149  1.00  0.00     0.064 A 
ATOM     60  C   UNL A   1      39.017  29.032  28.244  1.00  0.00     0.173 A 
ATOM     61  C   UNL A   1      39.580  28.301  30.463  1.00  0.00     0.173 A 
ATOM     62  F   UNL A   1      39.354  29.319  26.978  1.00  0.00    -0.203 F 
ATOM     63  C   UNL A   1      37.700  29.236  28.647  1.00  0.00     0.198 A 
ATOM     64  C   UNL A   1      38.254  28.472  30.854  1.00  0.00     0.198 A 
ATOM     65  F   UNL A   1      40.464  27.854  31.367  1.00  0.00    -0.203 F 
ATOM     66  F   UNL A   1      36.803  29.724  27.779  1.00  0.00    -0.200 F 
ATOM     67  C   UNL A   1      37.318  28.949  29.949  1.00  0.00     0.200 A 
ATOM     68  F   UNL A   1      37.884  28.178  32.107  1.00  0.00    -0.200 F 
ATOM     69  F   UNL A   1      36.047  29.137  30.334  1.00  0.00    -0.200 F 
ENDBRANCH  45  59
BRANCH  46  70
ATOM     70  C   UNL A   1      49.285  26.653  26.065  1.00  0.00     0.064 A 
ATOM     71  C   UNL A   1      49.639  26.917  24.734  1.00  0.00     0.173 A 
ATOM     72  C   UNL A   1      50.271  26.116  26.906  1.00  0.00     0.173 A 
ATOM     73  F   UNL A   1      48.727  27.410  23.884  1.00  0.00    -0.203 F 
ATOM     74  C   UNL A   1      50.917  26.631  24.257  1.00  0.00     0.198 A 
ATOM     75  C   UNL A   1      51.558  25.862  26.438  1.00  0.00     0.198 A 
ATOM     76  F   UNL A   1      49.987  25.850  28.189  1.00  0.00    -0.203 F 
ATOM     77  F   UNL A   1      51.211  26.841  22.968  1.00  0.00    -0.200 F 
ATOM     78  C   UNL A   1      51.878  26.109  25.111  1.00  0.00     0.200 A 
ATOM     79  F   UNL A   1      52.487  25.374  27.271  1.00  0.00    -0.200 F 
ATOM     80  F   UNL A   1      53.107  25.836  24.654  1.00  0.00    -0.200 F 
ENDBRANCH  46  70
BRANCH  58  81
ATOM     81  C   UNL A   1      46.090  32.364  28.472  1.00  0.00     0.064 A 
ATOM     82  C   UNL A   1      45.997  33.367  27.496  1.00  0.00     0.173 A 
ATOM     83  C   UNL A   1      46.613  32.717  29.726  1.00  0.00     0.173 A 
ATOM     84  F   UNL A   1      45.518  33.080  26.276  1.00  0.00    -0.203 F 
ATOM     85  C   UNL A   1      46.436  34.663  27.757  1.00  0.00     0.198 A 
ATOM     86  C   UNL A   1      47.020  34.021  29.994  1.00  0.00     0.198 A 
ATOM     87  F   UNL A   1      46.718  31.798  30.699  1.00  0.00    -0.203 F 
ATOM     88  F   UNL A   1      46.387  35.591  26.791  1.00  0.00    -0.200 F 
ATOM     89  C   UNL A   1      46.939  34.991  29.007  1.00  0.00     0.200 A 
ATOM     90  F   UNL A   1      47.489  34.339  31.209  1.00  0.00    -0.200 F 
ATOM     91  F   UNL A   1      47.353  36.241  29.258  1.00  0.00    -0.200 F 
ENDBRANCH  58  81
ENDBRANCH  32  33
ENDBRANCH  24  27
ENDBRANCH  22  23
ENDBRANCH  21  22
ENDBRANCH   1  21
TORSDOF 14
ENDMDL
