MODEL 1
REMARK VINA RESULT:     -11.5      0.000      0.000
REMARK SMILES CC[NH+](CC)[C@@H](C(=O)NCCCCNC(=O)c1ccc(-c2c3nc(c(-c4c(F)c(F)c(F)c(F)c4F)c4ccc([nH]4)c(-c4c(F)c(F)c(F)c(F)c4F)c4nc(c(-c5c(F)c(F)c(F)c(F)c5F)c5ccc2[nH]5)C=C4)C=C3)cc1)c1ccc(C2CC2)cc1
REMARK SMILES IDX 11 1 10 2 9 3 7 4 8 5 6 7 3 8 2 10 1 11 4 12 5 13 80 14
REMARK SMILES IDX 81 15 88 16 82 17 87 18 83 19 84 20 85 21 86 22 12 23 13 24
REMARK SMILES IDX 14 25 15 26 16 28 17 29 18 30 79 31 19 32 78 33 20 34 21 35
REMARK SMILES IDX 22 36 72 37 23 38 77 39 71 40 73 41 24 42 76 43 70 44 69 45
REMARK SMILES IDX 25 47 57 48 37 49 56 50 38 51 41 52 55 53 74 54 39 55 40 56
REMARK SMILES IDX 54 58 75 59 42 60 26 61 27 62 35 63 28 64 29 65 33 66 36 67
REMARK SMILES IDX 30 68 31 69 34 70 32 71 58 72 59 73 67 74 60 75 61 76 65 77
REMARK SMILES IDX 68 78 62 79 63 80 66 81 64 82 43 83 44 84 52 85 45 86 46 87
REMARK SMILES IDX 50 88 53 89 47 90 48 91 51 92 49 93
REMARK H PARENT 9 6 3 9 14 27 73 46 41 57
REMARK Flexibility Score: inf
ROOT
ATOM      1  C   UNL A   1      36.551  20.389  24.971  1.00  0.00     0.023 C 
ENDROOT
BRANCH   1   2
ATOM      2  C   UNL A   1      36.704  21.856  25.404  1.00  0.00     0.116 C 
BRANCH   2   3
ATOM      3  N   UNL A   1      35.841  22.250  26.509  1.00  0.00    -0.351 N 
ATOM      4  C   UNL A   1      34.516  22.601  26.594  1.00  0.00     0.283 C 
ATOM      5  O   UNL A   1      34.137  22.939  27.723  1.00  0.00    -0.268 OA
ATOM      6  H   UNL A   1      36.305  22.269  27.377  1.00  0.00     0.163 HD
BRANCH   4   7
ATOM      7  C   UNL A   1      33.582  22.592  25.348  1.00  0.00     0.305 C 
BRANCH   7   8
ATOM      8  N   UNL A   1      32.474  23.610  25.409  1.00  0.00    -0.321 N 
ATOM      9  H   UNL A   1      32.706  24.006  26.321  1.00  0.00     0.349 HD
BRANCH   8  10
ATOM     10  C   UNL A   1      32.538  24.773  24.525  1.00  0.00     0.259 C 
ATOM     11  C   UNL A   1      33.974  25.150  24.164  1.00  0.00     0.071 C 
ENDBRANCH   8  10
BRANCH   8  12
ATOM     12  C   UNL A   1      31.122  23.071  25.512  1.00  0.00     0.259 C 
ATOM     13  C   UNL A   1      30.421  23.231  26.866  1.00  0.00     0.071 C 
ENDBRANCH   8  12
ENDBRANCH   7   8
BRANCH   7  14
ATOM     14  C   UNL A   1      33.065  21.187  24.978  1.00  0.00     0.019 A 
ATOM     15  C   UNL A   1      32.810  20.813  23.649  1.00  0.00     0.011 A 
ATOM     16  C   UNL A   1      33.023  20.178  25.951  1.00  0.00     0.011 A 
ATOM     17  C   UNL A   1      32.703  19.465  23.288  1.00  0.00     0.004 A 
ATOM     18  C   UNL A   1      32.895  18.829  25.583  1.00  0.00     0.004 A 
ATOM     19  C   UNL A   1      32.812  18.442  24.238  1.00  0.00    -0.045 A 
BRANCH  19  20
ATOM     20  C   UNL A   1      32.990  17.012  23.788  1.00  0.00     0.019 C 
ATOM     21  C   UNL A   1      34.024  16.604  22.772  1.00  0.00     0.009 C 
ATOM     22  C   UNL A   1      34.204  16.224  24.212  1.00  0.00     0.009 C 
ENDBRANCH  19  20
ENDBRANCH   7  14
ENDBRANCH   4   7
ENDBRANCH   2   3
ENDBRANCH   1   2
BRANCH   1  23
ATOM     23  C   UNL A   1      37.837  19.561  24.911  1.00  0.00     0.023 C 
BRANCH  23  24
ATOM     24  C   UNL A   1      38.971  20.141  25.737  1.00  0.00     0.116 C 
BRANCH  24  25
ATOM     25  N   UNL A   1      40.032  19.165  25.942  1.00  0.00    -0.352 N 
ATOM     26  C   UNL A   1      41.372  19.361  26.135  1.00  0.00     0.251 C 
ATOM     27  H   UNL A   1      39.743  18.223  25.940  1.00  0.00     0.163 HD
ATOM     28  O   UNL A   1      42.147  18.401  26.073  1.00  0.00    -0.269 OA
BRANCH  26  29
ATOM     29  C   UNL A   1      41.900  20.710  26.410  1.00  0.00     0.039 A 
ATOM     30  C   UNL A   1      42.172  21.075  27.732  1.00  0.00     0.014 A 
ATOM     31  C   UNL A   1      42.087  21.630  25.375  1.00  0.00     0.014 A 
ATOM     32  C   UNL A   1      42.661  22.351  28.011  1.00  0.00     0.010 A 
ATOM     33  C   UNL A   1      42.655  22.868  25.643  1.00  0.00     0.010 A 
ATOM     34  C   UNL A   1      42.920  23.250  26.964  1.00  0.00    -0.014 A 
BRANCH  34  35
ATOM     35  C   UNL A   1      43.411  24.621  27.233  1.00  0.00     0.031 A 
ATOM     36  C   UNL A   1      42.465  25.649  27.791  1.00  0.00     0.074 A 
ATOM     37  C   UNL A   1      44.675  24.950  26.913  1.00  0.00     0.049 A 
ATOM     38  N   UNL A   1      42.666  26.921  28.023  1.00  0.00    -0.248 NA
ATOM     39  C   UNL A   1      41.098  25.194  28.092  1.00  0.00     0.031 C 
ATOM     40  C   UNL A   1      45.658  24.047  26.313  1.00  0.00     0.029 A 
ATOM     41  N   UNL A   1      45.347  26.139  27.040  1.00  0.00    -0.354 N 
ATOM     42  C   UNL A   1      41.450  27.418  28.470  1.00  0.00     0.074 A 
ATOM     43  C   UNL A   1      40.500  26.329  28.425  1.00  0.00     0.031 C 
ATOM     44  C   UNL A   1      46.815  24.708  26.145  1.00  0.00     0.029 A 
ATOM     45  C   UNL A   1      46.646  26.084  26.599  1.00  0.00     0.049 A 
ATOM     46  H   UNL A   1      44.937  26.953  27.412  1.00  0.00     0.167 HD
ATOM     47  C   UNL A   1      41.158  28.666  28.907  1.00  0.00     0.037 A 
ATOM     48  C   UNL A   1      47.590  27.043  26.568  1.00  0.00     0.037 A 
ATOM     49  C   UNL A   1      42.124  29.730  28.991  1.00  0.00     0.049 A 
ATOM     50  C   UNL A   1      47.254  28.409  27.099  1.00  0.00     0.074 A 
ATOM     51  C   UNL A   1      41.957  31.012  29.481  1.00  0.00     0.029 A 
ATOM     52  N   UNL A   1      43.444  29.623  28.580  1.00  0.00    -0.354 N 
ATOM     53  N   UNL A   1      46.118  28.852  27.582  1.00  0.00    -0.248 NA
ATOM     54  C   UNL A   1      48.333  29.405  27.092  1.00  0.00     0.031 C 
ATOM     55  C   UNL A   1      43.170  31.694  29.337  1.00  0.00     0.029 A 
ATOM     56  C   UNL A   1      44.103  30.823  28.794  1.00  0.00     0.049 A 
ATOM     57  H   UNL A   1      43.853  28.816  28.192  1.00  0.00     0.167 HD
ATOM     58  C   UNL A   1      46.351  30.167  27.959  1.00  0.00     0.074 A 
ATOM     59  C   UNL A   1      47.741  30.444  27.663  1.00  0.00     0.031 C 
ATOM     60  C   UNL A   1      45.491  31.067  28.498  1.00  0.00     0.037 A 
BRANCH  47  61
ATOM     61  C   UNL A   1      39.746  28.940  29.333  1.00  0.00     0.064 A 
ATOM     62  C   UNL A   1      39.321  28.728  30.654  1.00  0.00     0.173 A 
ATOM     63  C   UNL A   1      38.807  29.436  28.415  1.00  0.00     0.173 A 
ATOM     64  F   UNL A   1      40.174  28.240  31.567  1.00  0.00    -0.203 F 
ATOM     65  C   UNL A   1      38.003  28.972  31.032  1.00  0.00     0.198 A 
ATOM     66  C   UNL A   1      37.497  29.707  28.805  1.00  0.00     0.198 A 
ATOM     67  F   UNL A   1      39.158  29.659  27.140  1.00  0.00    -0.203 F 
ATOM     68  F   UNL A   1      37.609  28.708  32.286  1.00  0.00    -0.200 F 
ATOM     69  C   UNL A   1      37.094  29.466  30.110  1.00  0.00     0.200 A 
ATOM     70  F   UNL A   1      36.622  30.195  27.915  1.00  0.00    -0.200 F 
ATOM     71  F   UNL A   1      35.827  29.702  30.476  1.00  0.00    -0.200 F 
ENDBRANCH  47  61
BRANCH  48  72
ATOM     72  C   UNL A   1      48.950  26.726  26.063  1.00  0.00     0.064 A 
ATOM     73  C   UNL A   1      49.298  26.987  24.730  1.00  0.00     0.173 A 
ATOM     74  C   UNL A   1      49.931  26.172  26.898  1.00  0.00     0.173 A 
ATOM     75  F   UNL A   1      48.387  27.500  23.890  1.00  0.00    -0.203 F 
ATOM     76  C   UNL A   1      50.569  26.688  24.246  1.00  0.00     0.198 A 
ATOM     77  C   UNL A   1      51.211  25.898  26.419  1.00  0.00     0.198 A 
ATOM     78  F   UNL A   1      49.651  25.914  28.183  1.00  0.00    -0.203 F 
ATOM     79  F   UNL A   1      50.862  26.910  22.958  1.00  0.00    -0.200 F 
ATOM     80  C   UNL A   1      51.527  26.149  25.092  1.00  0.00     0.200 A 
ATOM     81  F   UNL A   1      52.138  25.392  27.244  1.00  0.00    -0.200 F 
ATOM     82  F   UNL A   1      52.752  25.868  24.627  1.00  0.00    -0.200 F 
ENDBRANCH  48  72
BRANCH  60  83
ATOM     83  C   UNL A   1      46.041  32.421  28.829  1.00  0.00     0.064 A 
ATOM     84  C   UNL A   1      46.650  32.684  30.065  1.00  0.00     0.173 A 
ATOM     85  C   UNL A   1      45.994  33.455  27.883  1.00  0.00     0.173 A 
ATOM     86  F   UNL A   1      46.704  31.729  31.006  1.00  0.00    -0.203 F 
ATOM     87  C   UNL A   1      47.170  33.942  30.351  1.00  0.00     0.198 A 
ATOM     88  C   UNL A   1      46.540  34.704  28.161  1.00  0.00     0.198 A 
ATOM     89  F   UNL A   1      45.428  33.250  26.684  1.00  0.00    -0.203 F 
ATOM     90  F   UNL A   1      47.707  34.186  31.554  1.00  0.00    -0.200 F 
ATOM     91  C   UNL A   1      47.120  34.949  29.397  1.00  0.00     0.200 A 
ATOM     92  F   UNL A   1      46.502  35.673  27.236  1.00  0.00    -0.200 F 
ATOM     93  F   UNL A   1      47.627  36.159  29.672  1.00  0.00    -0.200 F 
ENDBRANCH  60  83
ENDBRANCH  34  35
ENDBRANCH  26  29
ENDBRANCH  24  25
ENDBRANCH  23  24
ENDBRANCH   1  23
TORSDOF 16
ENDMDL
MODEL 2
REMARK VINA RESULT:     -11.5      5.715     11.045
REMARK SMILES CC[NH+](CC)[C@@H](C(=O)NCCCCNC(=O)c1ccc(-c2c3nc(c(-c4c(F)c(F)c(F)c(F)c4F)c4ccc([nH]4)c(-c4c(F)c(F)c(F)c(F)c4F)c4nc(c(-c5c(F)c(F)c(F)c(F)c5F)c5ccc2[nH]5)C=C4)C=C3)cc1)c1ccc(C2CC2)cc1
REMARK SMILES IDX 11 1 10 2 9 3 7 4 8 5 6 7 3 8 2 10 1 11 4 12 5 13 80 14
REMARK SMILES IDX 81 15 88 16 82 17 87 18 83 19 84 20 85 21 86 22 12 23 13 24
REMARK SMILES IDX 14 25 15 26 16 28 17 29 18 30 79 31 19 32 78 33 20 34 21 35
REMARK SMILES IDX 22 36 72 37 23 38 77 39 71 40 73 41 24 42 76 43 70 44 69 45
REMARK SMILES IDX 25 47 57 48 37 49 56 50 38 51 41 52 55 53 74 54 39 55 40 56
REMARK SMILES IDX 54 58 75 59 42 60 26 61 27 62 35 63 28 64 29 65 33 66 36 67
REMARK SMILES IDX 30 68 31 69 34 70 32 71 58 72 59 73 67 74 60 75 61 76 65 77
REMARK SMILES IDX 68 78 62 79 63 80 66 81 64 82 43 83 44 84 52 85 45 86 46 87
REMARK SMILES IDX 50 88 53 89 47 90 48 91 51 92 49 93
REMARK H PARENT 9 6 3 9 14 27 73 46 41 57
REMARK Flexibility Score: inf
ROOT
ATOM      1  C   UNL A   1      31.395  30.887  26.013  1.00  0.00     0.023 C 
ENDROOT
BRANCH   1   2
ATOM      2  C   UNL A   1      32.221  29.911  26.866  1.00  0.00     0.116 C 
BRANCH   2   3
ATOM      3  N   UNL A   1      31.642  28.581  26.988  1.00  0.00    -0.351 N 
ATOM      4  C   UNL A   1      31.772  27.424  26.259  1.00  0.00     0.283 C 
ATOM      5  O   UNL A   1      31.060  26.485  26.638  1.00  0.00    -0.268 OA
ATOM      6  H   UNL A   1      31.028  28.492  27.752  1.00  0.00     0.163 HD
BRANCH   4   7
ATOM      7  C   UNL A   1      32.729  27.327  25.034  1.00  0.00     0.305 C 
BRANCH   7   8
ATOM      8  N   UNL A   1      32.145  27.873  23.758  1.00  0.00    -0.321 N 
ATOM      9  H   UNL A   1      32.314  27.056  23.172  1.00  0.00     0.349 HD
BRANCH   8  10
ATOM     10  C   UNL A   1      30.696  28.045  23.666  1.00  0.00     0.259 C 
ATOM     11  C   UNL A   1      30.297  29.041  22.578  1.00  0.00     0.071 C 
ENDBRANCH   8  10
BRANCH   8  12
ATOM     12  C   UNL A   1      32.869  28.986  23.153  1.00  0.00     0.259 C 
ATOM     13  C   UNL A   1      34.155  28.637  22.396  1.00  0.00     0.071 C 
ENDBRANCH   8  12
ENDBRANCH   7   8
BRANCH   7  14
ATOM     14  C   UNL A   1      33.342  25.924  24.843  1.00  0.00     0.019 A 
ATOM     15  C   UNL A   1      33.253  25.232  23.625  1.00  0.00     0.011 A 
ATOM     16  C   UNL A   1      34.177  25.385  25.832  1.00  0.00     0.011 A 
ATOM     17  C   UNL A   1      34.103  24.157  23.344  1.00  0.00     0.004 A 
ATOM     18  C   UNL A   1      35.012  24.293  25.550  1.00  0.00     0.004 A 
ATOM     19  C   UNL A   1      35.048  23.708  24.276  1.00  0.00    -0.045 A 
BRANCH  19  20
ATOM     20  C   UNL A   1      36.138  22.757  23.844  1.00  0.00     0.019 C 
ATOM     21  C   UNL A   1      37.362  22.491  24.681  1.00  0.00     0.009 C 
ATOM     22  C   UNL A   1      36.311  21.429  24.538  1.00  0.00     0.009 C 
ENDBRANCH  19  20
ENDBRANCH   7  14
ENDBRANCH   4   7
ENDBRANCH   2   3
ENDBRANCH   1   2
BRANCH   1  23
ATOM     23  C   UNL A   1      31.267  32.315  26.548  1.00  0.00     0.023 C 
BRANCH  23  24
ATOM     24  C   UNL A   1      32.555  32.861  27.135  1.00  0.00     0.116 C 
BRANCH  24  25
ATOM     25  N   UNL A   1      32.399  34.244  27.566  1.00  0.00    -0.352 N 
ATOM     26  C   UNL A   1      33.010  34.913  28.591  1.00  0.00     0.251 C 
ATOM     27  H   UNL A   1      31.758  34.778  27.042  1.00  0.00     0.163 HD
ATOM     28  O   UNL A   1      32.588  36.020  28.938  1.00  0.00    -0.269 OA
BRANCH  26  29
ATOM     29  C   UNL A   1      34.165  34.319  29.289  1.00  0.00     0.039 A 
ATOM     30  C   UNL A   1      35.452  34.558  28.798  1.00  0.00     0.014 A 
ATOM     31  C   UNL A   1      33.981  33.492  30.401  1.00  0.00     0.014 A 
ATOM     32  C   UNL A   1      36.554  33.995  29.440  1.00  0.00     0.010 A 
ATOM     33  C   UNL A   1      35.083  33.003  31.091  1.00  0.00     0.010 A 
ATOM     34  C   UNL A   1      36.376  33.226  30.600  1.00  0.00    -0.014 A 
BRANCH  34  35
ATOM     35  C   UNL A   1      37.525  32.591  31.286  1.00  0.00     0.031 A 
ATOM     36  C   UNL A   1      38.257  31.464  30.612  1.00  0.00     0.074 A 
ATOM     37  C   UNL A   1      37.858  32.983  32.529  1.00  0.00     0.049 A 
ATOM     38  N   UNL A   1      39.234  30.720  31.065  1.00  0.00    -0.248 NA
ATOM     39  C   UNL A   1      37.806  31.098  29.259  1.00  0.00     0.031 C 
ATOM     40  C   UNL A   1      37.178  34.026  33.297  1.00  0.00     0.029 A 
ATOM     41  N   UNL A   1      38.849  32.542  33.368  1.00  0.00    -0.354 N 
ATOM     42  C   UNL A   1      39.491  29.789  30.069  1.00  0.00     0.074 A 
ATOM     43  C   UNL A   1      38.535  30.021  29.010  1.00  0.00     0.031 C 
ATOM     44  C   UNL A   1      37.786  34.161  34.487  1.00  0.00     0.029 A 
ATOM     45  C   UNL A   1      38.878  33.197  34.574  1.00  0.00     0.049 A 
ATOM     46  H   UNL A   1      39.479  31.824  33.127  1.00  0.00     0.167 HD
ATOM     47  C   UNL A   1      40.458  28.842  30.029  1.00  0.00     0.037 A 
ATOM     48  C   UNL A   1      39.699  33.032  35.628  1.00  0.00     0.037 A 
ATOM     49  C   UNL A   1      41.433  28.651  31.070  1.00  0.00     0.049 A 
ATOM     50  C   UNL A   1      40.792  32.004  35.542  1.00  0.00     0.074 A 
ATOM     51  C   UNL A   1      42.498  27.770  31.107  1.00  0.00     0.029 A 
ATOM     52  N   UNL A   1      41.461  29.367  32.258  1.00  0.00    -0.354 N 
ATOM     53  N   UNL A   1      41.071  31.171  34.567  1.00  0.00    -0.248 NA
ATOM     54  C   UNL A   1      41.694  31.899  36.696  1.00  0.00     0.031 C 
ATOM     55  C   UNL A   1      43.154  27.930  32.332  1.00  0.00     0.029 A 
ATOM     56  C   UNL A   1      42.521  28.939  33.042  1.00  0.00     0.049 A 
ATOM     57  H   UNL A   1      40.823  30.073  32.509  1.00  0.00     0.167 HD
ATOM     58  C   UNL A   1      42.190  30.462  34.978  1.00  0.00     0.074 A 
ATOM     59  C   UNL A   1      42.550  30.975  36.284  1.00  0.00     0.031 C 
ATOM     60  C   UNL A   1      42.860  29.474  34.335  1.00  0.00     0.037 A 
BRANCH  47  61
ATOM     61  C   UNL A   1      40.511  27.954  28.821  1.00  0.00     0.064 A 
ATOM     62  C   UNL A   1      39.794  26.749  28.760  1.00  0.00     0.173 A 
ATOM     63  C   UNL A   1      41.277  28.318  27.702  1.00  0.00     0.173 A 
ATOM     64  F   UNL A   1      39.061  26.347  29.809  1.00  0.00    -0.203 F 
ATOM     65  C   UNL A   1      39.866  25.927  27.638  1.00  0.00     0.198 A 
ATOM     66  C   UNL A   1      41.321  27.507  26.570  1.00  0.00     0.198 A 
ATOM     67  F   UNL A   1      41.980  29.460  27.705  1.00  0.00    -0.203 F 
ATOM     68  F   UNL A   1      39.216  24.755  27.627  1.00  0.00    -0.200 F 
ATOM     69  C   UNL A   1      40.624  26.309  26.543  1.00  0.00     0.200 A 
ATOM     70  F   UNL A   1      42.046  27.883  25.507  1.00  0.00    -0.200 F 
ATOM     71  F   UNL A   1      40.689  25.518  25.463  1.00  0.00    -0.200 F 
ENDBRANCH  47  61
BRANCH  48  72
ATOM     72  C   UNL A   1      39.545  33.895  36.827  1.00  0.00     0.064 A 
ATOM     73  C   UNL A   1      38.786  33.467  37.925  1.00  0.00     0.173 A 
ATOM     74  C   UNL A   1      40.161  35.152  36.908  1.00  0.00     0.173 A 
ATOM     75  F   UNL A   1      38.165  32.279  37.886  1.00  0.00    -0.203 F 
ATOM     76  C   UNL A   1      38.633  34.272  39.051  1.00  0.00     0.198 A 
ATOM     77  C   UNL A   1      40.028  35.945  38.046  1.00  0.00     0.198 A 
ATOM     78  F   UNL A   1      40.906  35.603  35.888  1.00  0.00    -0.203 F 
ATOM     79  F   UNL A   1      37.869  33.855  40.070  1.00  0.00    -0.200 F 
ATOM     80  C   UNL A   1      39.258  35.508  39.114  1.00  0.00     0.200 A 
ATOM     81  F   UNL A   1      40.646  37.133  38.109  1.00  0.00    -0.200 F 
ATOM     82  F   UNL A   1      39.115  36.279  40.201  1.00  0.00    -0.200 F 
ENDBRANCH  48  72
BRANCH  60  83
ATOM     83  C   UNL A   1      44.064  28.907  35.024  1.00  0.00     0.064 A 
ATOM     84  C   UNL A   1      43.967  27.798  35.876  1.00  0.00     0.173 A 
ATOM     85  C   UNL A   1      45.334  29.458  34.798  1.00  0.00     0.173 A 
ATOM     86  F   UNL A   1      42.771  27.248  36.134  1.00  0.00    -0.203 F 
ATOM     87  C   UNL A   1      45.096  27.273  36.496  1.00  0.00     0.198 A 
ATOM     88  C   UNL A   1      46.466  28.914  35.398  1.00  0.00     0.198 A 
ATOM     89  F   UNL A   1      45.478  30.515  33.986  1.00  0.00    -0.203 F 
ATOM     90  F   UNL A   1      44.976  26.241  37.342  1.00  0.00    -0.200 F 
ATOM     91  C   UNL A   1      46.345  27.828  36.252  1.00  0.00     0.200 A 
ATOM     92  F   UNL A   1      47.672  29.442  35.153  1.00  0.00    -0.200 F 
ATOM     93  F   UNL A   1      47.433  27.318  36.846  1.00  0.00    -0.200 F 
ENDBRANCH  60  83
ENDBRANCH  34  35
ENDBRANCH  26  29
ENDBRANCH  24  25
ENDBRANCH  23  24
ENDBRANCH   1  23
TORSDOF 16
ENDMDL
MODEL 3
REMARK VINA RESULT:     -11.4      5.851     11.361
REMARK SMILES CC[NH+](CC)[C@@H](C(=O)NCCCCNC(=O)c1ccc(-c2c3nc(c(-c4c(F)c(F)c(F)c(F)c4F)c4ccc([nH]4)c(-c4c(F)c(F)c(F)c(F)c4F)c4nc(c(-c5c(F)c(F)c(F)c(F)c5F)c5ccc2[nH]5)C=C4)C=C3)cc1)c1ccc(C2CC2)cc1
REMARK SMILES IDX 11 1 10 2 9 3 7 4 8 5 6 7 3 8 2 10 1 11 4 12 5 13 80 14
REMARK SMILES IDX 81 15 88 16 82 17 87 18 83 19 84 20 85 21 86 22 12 23 13 24
REMARK SMILES IDX 14 25 15 26 16 28 17 29 18 30 79 31 19 32 78 33 20 34 21 35
REMARK SMILES IDX 22 36 72 37 23 38 77 39 71 40 73 41 24 42 76 43 70 44 69 45
REMARK SMILES IDX 25 47 57 48 37 49 56 50 38 51 41 52 55 53 74 54 39 55 40 56
REMARK SMILES IDX 54 58 75 59 42 60 26 61 27 62 35 63 28 64 29 65 33 66 36 67
REMARK SMILES IDX 30 68 31 69 34 70 32 71 58 72 59 73 67 74 60 75 61 76 65 77
REMARK SMILES IDX 68 78 62 79 63 80 66 81 64 82 43 83 44 84 52 85 45 86 46 87
REMARK SMILES IDX 50 88 53 89 47 90 48 91 51 92 49 93
REMARK H PARENT 9 6 3 9 14 27 73 46 41 57
REMARK Flexibility Score: inf
ROOT
ATOM      1  C   UNL A   1      31.366  30.603  25.631  1.00  0.00     0.023 C 
ENDROOT
BRANCH   1   2
ATOM      2  C   UNL A   1      31.991  29.371  26.306  1.00  0.00     0.116 C 
BRANCH   2   3
ATOM      3  N   UNL A   1      32.991  28.687  25.499  1.00  0.00    -0.351 N 
ATOM      4  C   UNL A   1      32.944  27.605  24.654  1.00  0.00     0.283 C 
ATOM      5  O   UNL A   1      34.035  27.266  24.178  1.00  0.00    -0.268 OA
ATOM      6  H   UNL A   1      33.890  29.082  25.575  1.00  0.00     0.163 HD
BRANCH   4   7
ATOM      7  C   UNL A   1      31.613  26.855  24.351  1.00  0.00     0.305 C 
BRANCH   7   8
ATOM      8  N   UNL A   1      31.805  25.451  23.844  1.00  0.00    -0.321 N 
ATOM      9  H   UNL A   1      32.811  25.387  24.003  1.00  0.00     0.349 HD
BRANCH   8  10
ATOM     10  C   UNL A   1      31.280  24.340  24.637  1.00  0.00     0.259 C 
ATOM     11  C   UNL A   1      30.532  24.817  25.882  1.00  0.00     0.071 C 
ENDBRANCH   8  10
BRANCH   8  12
ATOM     12  C   UNL A   1      31.588  25.257  22.414  1.00  0.00     0.259 C 
ATOM     13  C   UNL A   1      32.810  25.426  21.506  1.00  0.00     0.071 C 
ENDBRANCH   8  12
ENDBRANCH   7   8
BRANCH   7  14
ATOM     14  C   UNL A   1      30.639  27.667  23.471  1.00  0.00     0.019 A 
ATOM     15  C   UNL A   1      29.247  27.598  23.642  1.00  0.00     0.011 A 
ATOM     16  C   UNL A   1      31.134  28.649  22.601  1.00  0.00     0.011 A 
ATOM     17  C   UNL A   1      28.408  28.584  23.114  1.00  0.00     0.004 A 
ATOM     18  C   UNL A   1      30.283  29.623  22.058  1.00  0.00     0.004 A 
ATOM     19  C   UNL A   1      28.915  29.656  22.368  1.00  0.00    -0.045 A 
BRANCH  19  20
ATOM     20  C   UNL A   1      28.038  30.847  22.068  1.00  0.00     0.019 C 
ATOM     21  C   UNL A   1      27.651  31.855  23.118  1.00  0.00     0.009 C 
ATOM     22  C   UNL A   1      28.623  32.237  22.039  1.00  0.00     0.009 C 
ENDBRANCH  19  20
ENDBRANCH   7  14
ENDBRANCH   4   7
ENDBRANCH   2   3
ENDBRANCH   1   2
BRANCH   1  23
ATOM     23  C   UNL A   1      31.200  31.846  26.508  1.00  0.00     0.023 C 
BRANCH  23  24
ATOM     24  C   UNL A   1      32.517  32.451  26.959  1.00  0.00     0.116 C 
BRANCH  24  25
ATOM     25  N   UNL A   1      32.350  33.838  27.375  1.00  0.00    -0.352 N 
ATOM     26  C   UNL A   1      32.962  34.524  28.388  1.00  0.00     0.251 C 
ATOM     27  H   UNL A   1      31.700  34.359  26.850  1.00  0.00     0.163 HD
ATOM     28  O   UNL A   1      32.531  35.631  28.725  1.00  0.00    -0.269 OA
BRANCH  26  29
ATOM     29  C   UNL A   1      34.128  33.950  29.084  1.00  0.00     0.039 A 
ATOM     30  C   UNL A   1      35.410  34.374  28.725  1.00  0.00     0.014 A 
ATOM     31  C   UNL A   1      33.964  32.963  30.061  1.00  0.00     0.014 A 
ATOM     32  C   UNL A   1      36.525  33.833  29.365  1.00  0.00     0.010 A 
ATOM     33  C   UNL A   1      35.067  32.488  30.758  1.00  0.00     0.010 A 
ATOM     34  C   UNL A   1      36.357  32.897  30.397  1.00  0.00    -0.014 A 
BRANCH  34  35
ATOM     35  C   UNL A   1      37.522  32.284  31.075  1.00  0.00     0.031 A 
ATOM     36  C   UNL A   1      38.289  31.191  30.383  1.00  0.00     0.074 A 
ATOM     37  C   UNL A   1      37.840  32.663  32.326  1.00  0.00     0.049 A 
ATOM     38  N   UNL A   1      39.286  30.468  30.827  1.00  0.00    -0.248 NA
ATOM     39  C   UNL A   1      37.853  30.837  29.023  1.00  0.00     0.031 C 
ATOM     40  C   UNL A   1      37.128  33.671  33.111  1.00  0.00     0.029 A 
ATOM     41  N   UNL A   1      38.841  32.235  33.160  1.00  0.00    -0.354 N 
ATOM     42  C   UNL A   1      39.573  29.563  29.814  1.00  0.00     0.074 A 
ATOM     43  C   UNL A   1      38.614  29.787  28.756  1.00  0.00     0.031 C 
ATOM     44  C   UNL A   1      37.728  33.801  34.306  1.00  0.00     0.029 A 
ATOM     45  C   UNL A   1      38.847  32.868  34.379  1.00  0.00     0.049 A 
ATOM     46  H   UNL A   1      39.492  31.541  32.909  1.00  0.00     0.167 HD
ATOM     47  C   UNL A   1      40.568  28.646  29.761  1.00  0.00     0.037 A 
ATOM     48  C   UNL A   1      39.670  32.709  35.432  1.00  0.00     0.037 A 
ATOM     49  C   UNL A   1      41.545  28.464  30.801  1.00  0.00     0.049 A 
ATOM     50  C   UNL A   1      40.793  31.714  35.331  1.00  0.00     0.074 A 
ATOM     51  C   UNL A   1      42.636  27.614  30.825  1.00  0.00     0.029 A 
ATOM     52  N   UNL A   1      41.548  29.159  32.002  1.00  0.00    -0.354 N 
ATOM     53  N   UNL A   1      41.099  30.908  34.342  1.00  0.00    -0.248 NA
ATOM     54  C   UNL A   1      41.694  31.614  36.487  1.00  0.00     0.031 C 
ATOM     55  C   UNL A   1      43.283  27.771  32.056  1.00  0.00     0.029 A 
ATOM     56  C   UNL A   1      42.618  28.748  32.781  1.00  0.00     0.049 A 
ATOM     57  H   UNL A   1      40.889  29.841  32.263  1.00  0.00     0.167 HD
ATOM     58  C   UNL A   1      42.237  30.225  34.744  1.00  0.00     0.074 A 
ATOM     59  C   UNL A   1      42.578  30.724  36.061  1.00  0.00     0.031 C 
ATOM     60  C   UNL A   1      42.938  29.269  34.085  1.00  0.00     0.037 A 
BRANCH  47  61
ATOM     61  C   UNL A   1      40.651  27.782  28.537  1.00  0.00     0.064 A 
ATOM     62  C   UNL A   1      39.984  26.549  28.458  1.00  0.00     0.173 A 
ATOM     63  C   UNL A   1      41.393  28.197  27.420  1.00  0.00     0.173 A 
ATOM     64  F   UNL A   1      39.274  26.098  29.503  1.00  0.00    -0.203 F 
ATOM     65  C   UNL A   1      40.083  25.751  27.321  1.00  0.00     0.198 A 
ATOM     66  C   UNL A   1      41.464  27.409  26.274  1.00  0.00     0.198 A 
ATOM     67  F   UNL A   1      42.048  29.367  27.439  1.00  0.00    -0.203 F 
ATOM     68  F   UNL A   1      39.482  24.553  27.293  1.00  0.00    -0.200 F 
ATOM     69  C   UNL A   1      40.817  26.183  26.229  1.00  0.00     0.200 A 
ATOM     70  F   UNL A   1      42.166  27.833  25.213  1.00  0.00    -0.200 F 
ATOM     71  F   UNL A   1      40.909  25.415  25.135  1.00  0.00    -0.200 F 
ENDBRANCH  47  61
BRANCH  48  72
ATOM     72  C   UNL A   1      39.488  33.544  36.646  1.00  0.00     0.064 A 
ATOM     73  C   UNL A   1      40.078  34.812  36.739  1.00  0.00     0.173 A 
ATOM     74  C   UNL A   1      38.712  33.103  37.728  1.00  0.00     0.173 A 
ATOM     75  F   UNL A   1      40.843  35.268  35.736  1.00  0.00    -0.203 F 
ATOM     76  C   UNL A   1      39.917  35.599  37.877  1.00  0.00     0.198 A 
ATOM     77  C   UNL A   1      38.530  33.903  38.854  1.00  0.00     0.198 A 
ATOM     78  F   UNL A   1      38.118  31.902  37.684  1.00  0.00    -0.203 F 
ATOM     79  F   UNL A   1      40.525  36.790  37.956  1.00  0.00    -0.200 F 
ATOM     80  C   UNL A   1      39.138  35.148  38.931  1.00  0.00     0.200 A 
ATOM     81  F   UNL A   1      37.764  33.469  39.865  1.00  0.00    -0.200 F 
ATOM     82  F   UNL A   1      38.978  35.909  40.023  1.00  0.00    -0.200 F 
ENDBRANCH  48  72
BRANCH  60  83
ATOM     83  C   UNL A   1      44.156  28.725  34.768  1.00  0.00     0.064 A 
ATOM     84  C   UNL A   1      44.091  27.590  35.588  1.00  0.00     0.173 A 
ATOM     85  C   UNL A   1      45.408  29.324  34.567  1.00  0.00     0.173 A 
ATOM     86  F   UNL A   1      42.913  26.993  35.822  1.00  0.00    -0.203 F 
ATOM     87  C   UNL A   1      45.234  27.088  36.204  1.00  0.00     0.198 A 
ATOM     88  C   UNL A   1      46.553  28.804  35.160  1.00  0.00     0.198 A 
ATOM     89  F   UNL A   1      45.521  30.408  33.784  1.00  0.00    -0.203 F 
ATOM     90  F   UNL A   1      45.144  26.029  37.020  1.00  0.00    -0.200 F 
ATOM     91  C   UNL A   1      46.464  27.691  35.983  1.00  0.00     0.200 A 
ATOM     92  F   UNL A   1      47.743  29.379  34.939  1.00  0.00    -0.200 F 
ATOM     93  F   UNL A   1      47.565  27.203  36.572  1.00  0.00    -0.200 F 
ENDBRANCH  60  83
ENDBRANCH  34  35
ENDBRANCH  26  29
ENDBRANCH  24  25
ENDBRANCH  23  24
ENDBRANCH   1  23
TORSDOF 16
ENDMDL
