MODEL 1
REMARK VINA RESULT:     -12.5      0.000      0.000
REMARK SMILES O=C(NCCCCNC(=O)c1cccnc1C[N@@H+]1CCC[C@H]1c1ccccn1)c1ccc(-c2c3nc(c(-c4c(F)c(F)c(F)c(F)c4F)c4ccc([nH]4)c(-c4c(F)c(F)c(F)c(F)c4F)c4nc(c(-c5c(F)c(F)c(F)c(F)c5F)c5ccc2[nH]5)C=C4)C=C3)cc1
REMARK SMILES IDX 6 1 5 2 4 3 3 4 1 5 2 6 29 8 30 9 91 10 31 11 90 12 32 13
REMARK SMILES IDX 33 14 34 15 84 16 35 17 89 18 83 19 85 20 36 21 88 22 82 23
REMARK SMILES IDX 81 24 37 26 69 27 49 28 68 29 50 30 53 31 67 32 86 33 51 34
REMARK SMILES IDX 52 35 66 37 87 38 54 39 38 40 39 41 47 42 40 43 41 44 45 45
REMARK SMILES IDX 48 46 42 47 43 48 46 49 44 50 70 51 71 52 79 53 72 54 73 55
REMARK SMILES IDX 77 56 80 57 74 58 75 59 78 60 76 61 55 62 56 63 64 64 57 65
REMARK SMILES IDX 58 66 62 67 65 68 59 69 60 70 63 71 61 72 7 73 8 74 9 75
REMARK SMILES IDX 10 77 11 78 12 79 16 80 13 81 15 82 14 83 17 84 18 85 19 86
REMARK SMILES IDX 22 87 20 89 21 90 23 91 24 92 28 93 25 94 27 95 26 96
REMARK H PARENT 3 7 85 25 53 36 8 76 18 88
REMARK Flexibility Score: inf
ROOT
ATOM      1  C   UNL A   1      31.503  30.739  25.902  1.00  0.00     0.023 C 
ENDROOT
BRANCH   1   2
ATOM      2  C   UNL A   1      31.352  31.943  26.829  1.00  0.00     0.023 C 
BRANCH   2   3
ATOM      3  C   UNL A   1      32.643  32.689  27.128  1.00  0.00     0.116 C 
BRANCH   3   4
ATOM      4  N   UNL A   1      32.415  34.060  27.557  1.00  0.00    -0.352 N 
ATOM      5  O   UNL A   1      32.617  35.876  28.884  1.00  0.00    -0.269 OA
ATOM      6  C   UNL A   1      33.040  34.773  28.550  1.00  0.00     0.251 C 
ATOM      7  H   UNL A   1      31.712  34.546  27.066  1.00  0.00     0.163 HD
BRANCH   6   8
ATOM      8  C   UNL A   1      34.222  34.201  29.230  1.00  0.00     0.039 A 
ATOM      9  C   UNL A   1      34.066  33.372  30.344  1.00  0.00     0.014 A 
ATOM     10  C   UNL A   1      35.499  34.481  28.735  1.00  0.00     0.014 A 
ATOM     11  C   UNL A   1      35.185  32.922  31.034  1.00  0.00     0.010 A 
ATOM     12  C   UNL A   1      36.622  33.955  29.378  1.00  0.00     0.010 A 
ATOM     13  C   UNL A   1      36.473  33.178  30.538  1.00  0.00    -0.014 A 
BRANCH  13  14
ATOM     14  C   UNL A   1      37.638  32.513  31.169  1.00  0.00     0.031 A 
ATOM     15  C   UNL A   1      38.349  31.371  30.501  1.00  0.00     0.074 A 
ATOM     16  C   UNL A   1      38.036  32.951  32.380  1.00  0.00     0.049 A 
ATOM     17  N   UNL A   1      39.351  30.656  30.947  1.00  0.00    -0.248 NA
ATOM     18  C   UNL A   1      37.873  30.973  29.168  1.00  0.00     0.031 C 
ATOM     19  C   UNL A   1      37.404  34.043  33.127  1.00  0.00     0.029 A 
ATOM     20  N   UNL A   1      39.054  32.538  33.200  1.00  0.00    -0.354 N 
ATOM     21  C   UNL A   1      39.613  29.713  29.963  1.00  0.00     0.074 A 
ATOM     22  C   UNL A   1      38.658  29.936  28.898  1.00  0.00     0.031 C 
ATOM     23  C   UNL A   1      38.056  34.224  34.282  1.00  0.00     0.029 A 
ATOM     24  C   UNL A   1      39.103  33.217  34.393  1.00  0.00     0.049 A 
ATOM     25  H   UNL A   1      39.688  31.824  32.958  1.00  0.00     0.167 HD
ATOM     26  C   UNL A   1      40.567  28.751  29.959  1.00  0.00     0.037 A 
ATOM     27  C   UNL A   1      39.875  33.023  35.479  1.00  0.00     0.037 A 
ATOM     28  C   UNL A   1      41.527  28.557  31.018  1.00  0.00     0.049 A 
ATOM     29  C   UNL A   1      40.893  31.920  35.455  1.00  0.00     0.074 A 
ATOM     30  C   UNL A   1      42.587  27.668  31.065  1.00  0.00     0.029 A 
ATOM     31  N   UNL A   1      41.532  29.249  32.220  1.00  0.00    -0.354 N 
ATOM     32  N   UNL A   1      41.184  31.086  34.485  1.00  0.00    -0.248 NA
ATOM     33  C   UNL A   1      41.683  31.721  36.676  1.00  0.00     0.031 C 
ATOM     34  C   UNL A   1      43.189  27.772  32.323  1.00  0.00     0.029 A 
ATOM     35  C   UNL A   1      42.543  28.768  33.036  1.00  0.00     0.049 A 
ATOM     36  H   UNL A   1      40.910  29.974  32.457  1.00  0.00     0.167 HD
ATOM     37  C   UNL A   1      42.197  30.274  34.975  1.00  0.00     0.074 A 
ATOM     38  C   UNL A   1      42.491  30.735  36.316  1.00  0.00     0.031 C 
ATOM     39  C   UNL A   1      42.819  29.234  34.371  1.00  0.00     0.037 A 
BRANCH  26  40
ATOM     40  C   UNL A   1      40.627  27.805  28.795  1.00  0.00     0.064 A 
ATOM     41  C   UNL A   1      39.848  26.642  28.743  1.00  0.00     0.173 A 
ATOM     42  C   UNL A   1      41.396  28.131  27.665  1.00  0.00     0.173 A 
ATOM     43  F   UNL A   1      39.099  26.283  29.796  1.00  0.00    -0.203 F 
ATOM     44  C   UNL A   1      39.838  25.836  27.605  1.00  0.00     0.198 A 
ATOM     45  C   UNL A   1      41.365  27.338  26.521  1.00  0.00     0.198 A 
ATOM     46  F   UNL A   1      42.152  29.240  27.659  1.00  0.00    -0.203 F 
ATOM     47  F   UNL A   1      39.100  24.719  27.583  1.00  0.00    -0.200 F 
ATOM     48  C   UNL A   1      40.587  26.192  26.492  1.00  0.00     0.200 A 
ATOM     49  F   UNL A   1      42.075  27.693  25.442  1.00  0.00    -0.200 F 
ATOM     50  F   UNL A   1      40.557  25.428  25.391  1.00  0.00    -0.200 F 
ENDBRANCH  26  40
BRANCH  27  51
ATOM     51  C   UNL A   1      39.671  33.854  36.695  1.00  0.00     0.064 A 
ATOM     52  C   UNL A   1      38.851  33.420  37.743  1.00  0.00     0.173 A 
ATOM     53  C   UNL A   1      40.279  35.113  36.821  1.00  0.00     0.173 A 
ATOM     54  F   UNL A   1      38.234  32.232  37.663  1.00  0.00    -0.203 F 
ATOM     55  C   UNL A   1      38.621  34.225  38.857  1.00  0.00     0.198 A 
ATOM     56  C   UNL A   1      40.080  35.901  37.952  1.00  0.00     0.198 A 
ATOM     57  F   UNL A   1      41.080  35.575  35.849  1.00  0.00    -0.203 F 
ATOM     58  F   UNL A   1      37.783  33.812  39.817  1.00  0.00    -0.200 F 
ATOM     59  C   UNL A   1      39.240  35.462  38.963  1.00  0.00     0.200 A 
ATOM     60  F   UNL A   1      40.696  37.085  38.057  1.00  0.00    -0.200 F 
ATOM     61  F   UNL A   1      39.017  36.236  40.034  1.00  0.00    -0.200 F 
ENDBRANCH  27  51
BRANCH  39  62
ATOM     62  C   UNL A   1      43.886  28.527  35.154  1.00  0.00     0.064 A 
ATOM     63  C   UNL A   1      43.591  27.403  35.940  1.00  0.00     0.173 A 
ATOM     64  C   UNL A   1      45.222  28.949  35.083  1.00  0.00     0.173 A 
ATOM     65  F   UNL A   1      42.325  26.974  36.056  1.00  0.00    -0.203 F 
ATOM     66  C   UNL A   1      44.593  26.739  36.641  1.00  0.00     0.198 A 
ATOM     67  C   UNL A   1      46.226  28.263  35.760  1.00  0.00     0.198 A 
ATOM     68  F   UNL A   1      45.556  30.017  34.343  1.00  0.00    -0.203 F 
ATOM     69  F   UNL A   1      44.281  25.696  37.422  1.00  0.00    -0.200 F 
ATOM     70  C   UNL A   1      45.910  27.162  36.542  1.00  0.00     0.200 A 
ATOM     71  F   UNL A   1      47.500  28.664  35.651  1.00  0.00    -0.200 F 
ATOM     72  F   UNL A   1      46.875  26.514  37.208  1.00  0.00    -0.200 F 
ENDBRANCH  39  62
ENDBRANCH  13  14
ENDBRANCH   6   8
ENDBRANCH   3   4
ENDBRANCH   2   3
ENDBRANCH   1   2
BRANCH   1  73
ATOM     73  C   UNL A   1      32.424  29.631  26.406  1.00  0.00     0.116 C 
BRANCH  73  74
ATOM     74  N   UNL A   1      31.709  28.490  26.951  1.00  0.00    -0.352 N 
ATOM     75  C   UNL A   1      31.260  27.359  26.320  1.00  0.00     0.253 C 
ATOM     76  H   UNL A   1      31.518  28.537  27.916  1.00  0.00     0.163 HD
ATOM     77  O   UNL A   1      30.678  26.486  26.955  1.00  0.00    -0.269 OA
BRANCH  75  78
ATOM     78  C   UNL A   1      31.503  27.170  24.880  1.00  0.00     0.067 A 
ATOM     79  C   UNL A   1      30.621  27.756  23.963  1.00  0.00     0.017 A 
ATOM     80  C   UNL A   1      32.611  26.463  24.403  1.00  0.00     0.107 A 
ATOM     81  C   UNL A   1      30.836  27.592  22.602  1.00  0.00     0.021 A 
ATOM     82  N   UNL A   1      32.843  26.341  23.062  1.00  0.00    -0.254 NA
ATOM     83  C   UNL A   1      31.957  26.891  22.203  1.00  0.00     0.111 A 
BRANCH  80  84
ATOM     84  C   UNL A   1      33.591  25.739  25.322  1.00  0.00     0.321 C 
BRANCH  84  85
ATOM     85  N   UNL A   1      33.592  24.261  25.284  1.00  0.00    -0.322 N 
ATOM     86  C   UNL A   1      32.265  23.653  25.260  1.00  0.00     0.263 C 
ATOM     87  C   UNL A   1      34.371  23.637  26.369  1.00  0.00     0.234 C 
ATOM     88  H   UNL A   1      34.048  24.067  24.392  1.00  0.00     0.349 HD
ATOM     89  C   UNL A   1      32.005  23.083  26.640  1.00  0.00     0.068 C 
ATOM     90  C   UNL A   1      33.369  22.935  27.292  1.00  0.00     0.078 C 
BRANCH  87  91
ATOM     91  C   UNL A   1      35.461  22.701  25.857  1.00  0.00     0.098 A 
ATOM     92  C   UNL A   1      36.782  23.124  25.712  1.00  0.00     0.030 A 
ATOM     93  N   UNL A   1      35.074  21.438  25.526  1.00  0.00    -0.255 NA
ATOM     94  C   UNL A   1      37.731  22.235  25.215  1.00  0.00     0.004 A 
ATOM     95  C   UNL A   1      36.020  20.593  25.063  1.00  0.00     0.111 A 
ATOM     96  C   UNL A   1      37.346  20.942  24.885  1.00  0.00     0.020 A 
ENDBRANCH  87  91
ENDBRANCH  84  85
ENDBRANCH  80  84
ENDBRANCH  75  78
ENDBRANCH  73  74
ENDBRANCH   1  73
TORSDOF 14
ENDMDL
MODEL 2
REMARK VINA RESULT:     -12.5      5.369     11.014
REMARK SMILES O=C(NCCCCNC(=O)c1cccnc1C[N@@H+]1CCC[C@H]1c1ccccn1)c1ccc(-c2c3nc(c(-c4c(F)c(F)c(F)c(F)c4F)c4ccc([nH]4)c(-c4c(F)c(F)c(F)c(F)c4F)c4nc(c(-c5c(F)c(F)c(F)c(F)c5F)c5ccc2[nH]5)C=C4)C=C3)cc1
REMARK SMILES IDX 6 1 5 2 4 3 3 4 1 5 2 6 29 8 30 9 91 10 31 11 90 12 32 13
REMARK SMILES IDX 33 14 34 15 84 16 35 17 89 18 83 19 85 20 36 21 88 22 82 23
REMARK SMILES IDX 81 24 37 26 69 27 49 28 68 29 50 30 53 31 67 32 86 33 51 34
REMARK SMILES IDX 52 35 66 37 87 38 54 39 38 40 39 41 47 42 40 43 41 44 45 45
REMARK SMILES IDX 48 46 42 47 43 48 46 49 44 50 70 51 71 52 79 53 72 54 73 55
REMARK SMILES IDX 77 56 80 57 74 58 75 59 78 60 76 61 55 62 56 63 64 64 57 65
REMARK SMILES IDX 58 66 62 67 65 68 59 69 60 70 63 71 61 72 7 73 8 74 9 75
REMARK SMILES IDX 10 77 11 78 12 79 16 80 13 81 15 82 14 83 17 84 18 85 19 86
REMARK SMILES IDX 22 87 20 89 21 90 23 91 24 92 28 93 25 94 27 95 26 96
REMARK H PARENT 3 7 85 25 53 36 8 76 18 88
REMARK Flexibility Score: inf
ROOT
ATOM      1  C   UNL A   1      36.653  20.529  24.955  1.00  0.00     0.023 C 
ENDROOT
BRANCH   1   2
ATOM      2  C   UNL A   1      38.040  19.923  24.754  1.00  0.00     0.023 C 
BRANCH   2   3
ATOM      3  C   UNL A   1      39.026  20.187  25.882  1.00  0.00     0.116 C 
BRANCH   3   4
ATOM      4  N   UNL A   1      40.097  19.204  25.935  1.00  0.00    -0.352 N 
ATOM      5  O   UNL A   1      42.231  18.466  25.958  1.00  0.00    -0.269 OA
ATOM      6  C   UNL A   1      41.447  19.402  26.090  1.00  0.00     0.251 C 
ATOM      7  H   UNL A   1      39.815  18.265  25.846  1.00  0.00     0.163 HD
BRANCH   6   8
ATOM      8  C   UNL A   1      41.959  20.752  26.404  1.00  0.00     0.039 A 
ATOM      9  C   UNL A   1      42.224  21.665  25.379  1.00  0.00     0.014 A 
ATOM     10  C   UNL A   1      42.157  21.117  27.738  1.00  0.00     0.014 A 
ATOM     11  C   UNL A   1      42.798  22.895  25.678  1.00  0.00     0.010 A 
ATOM     12  C   UNL A   1      42.652  22.387  28.043  1.00  0.00     0.010 A 
ATOM     13  C   UNL A   1      42.984  23.282  27.015  1.00  0.00    -0.014 A 
BRANCH  13  14
ATOM     14  C   UNL A   1      43.399  24.674  27.315  1.00  0.00     0.031 A 
ATOM     15  C   UNL A   1      42.426  25.687  27.845  1.00  0.00     0.074 A 
ATOM     16  C   UNL A   1      44.681  25.016  27.078  1.00  0.00     0.049 A 
ATOM     17  N   UNL A   1      42.625  26.954  28.109  1.00  0.00    -0.248 NA
ATOM     18  C   UNL A   1      41.054  25.228  28.105  1.00  0.00     0.031 C 
ATOM     19  C   UNL A   1      45.706  24.113  26.546  1.00  0.00     0.029 A 
ATOM     20  N   UNL A   1      45.344  26.204  27.244  1.00  0.00    -0.354 N 
ATOM     21  C   UNL A   1      41.403  27.448  28.547  1.00  0.00     0.074 A 
ATOM     22  C   UNL A   1      40.463  26.349  28.502  1.00  0.00     0.031 C 
ATOM     23  C   UNL A   1      46.868  24.772  26.446  1.00  0.00     0.029 A 
ATOM     24  C   UNL A   1      46.655  26.160  26.836  1.00  0.00     0.049 A 
ATOM     25  H   UNL A   1      44.922  27.011  27.620  1.00  0.00     0.167 HD
ATOM     26  C   UNL A   1      41.105  28.708  28.946  1.00  0.00     0.037 A 
ATOM     27  C   UNL A   1      47.575  27.137  26.739  1.00  0.00     0.037 A 
ATOM     28  C   UNL A   1      42.060  29.786  29.008  1.00  0.00     0.049 A 
ATOM     29  C   UNL A   1      47.196  28.530  27.152  1.00  0.00     0.074 A 
ATOM     30  C   UNL A   1      41.874  31.073  29.483  1.00  0.00     0.029 A 
ATOM     31  N   UNL A   1      43.372  29.710  28.565  1.00  0.00    -0.354 N 
ATOM     32  N   UNL A   1      46.059  28.966  27.639  1.00  0.00    -0.248 NA
ATOM     33  C   UNL A   1      48.220  29.570  26.992  1.00  0.00     0.031 C 
ATOM     34  C   UNL A   1      43.052  31.795  29.261  1.00  0.00     0.029 A 
ATOM     35  C   UNL A   1      43.990  30.942  28.705  1.00  0.00     0.049 A 
ATOM     36  H   UNL A   1      43.800  28.900  28.205  1.00  0.00     0.167 HD
ATOM     37  C   UNL A   1      46.236  30.325  27.855  1.00  0.00     0.074 A 
ATOM     38  C   UNL A   1      47.598  30.636  27.474  1.00  0.00     0.031 C 
ATOM     39  C   UNL A   1      45.346  31.236  28.316  1.00  0.00     0.037 A 
BRANCH  26  40
ATOM     40  C   UNL A   1      39.688  29.021  29.332  1.00  0.00     0.064 A 
ATOM     41  C   UNL A   1      38.737  29.434  28.390  1.00  0.00     0.173 A 
ATOM     42  C   UNL A   1      39.252  28.793  30.648  1.00  0.00     0.173 A 
ATOM     43  F   UNL A   1      39.101  29.670  27.120  1.00  0.00    -0.203 F 
ATOM     44  C   UNL A   1      37.403  29.614  28.751  1.00  0.00     0.198 A 
ATOM     45  C   UNL A   1      37.915  28.950  30.999  1.00  0.00     0.198 A 
ATOM     46  F   UNL A   1      40.121  28.387  31.587  1.00  0.00    -0.203 F 
ATOM     47  F   UNL A   1      36.513  30.028  27.838  1.00  0.00    -0.200 F 
ATOM     48  C   UNL A   1      36.991  29.361  30.051  1.00  0.00     0.200 A 
ATOM     49  F   UNL A   1      37.517  28.687  32.252  1.00  0.00    -0.200 F 
ATOM     50  F   UNL A   1      35.703  29.511  30.390  1.00  0.00    -0.200 F 
ENDBRANCH  26  40
BRANCH  27  51
ATOM     51  C   UNL A   1      48.920  26.841  26.179  1.00  0.00     0.064 A 
ATOM     52  C   UNL A   1      49.199  27.033  24.820  1.00  0.00     0.173 A 
ATOM     53  C   UNL A   1      49.949  26.338  26.991  1.00  0.00     0.173 A 
ATOM     54  F   UNL A   1      48.244  27.495  23.999  1.00  0.00    -0.203 F 
ATOM     55  C   UNL A   1      50.444  26.705  24.288  1.00  0.00     0.198 A 
ATOM     56  C   UNL A   1      51.205  26.046  26.466  1.00  0.00     0.198 A 
ATOM     57  F   UNL A   1      49.737  26.141  28.301  1.00  0.00    -0.203 F 
ATOM     58  F   UNL A   1      50.665  26.840  22.974  1.00  0.00    -0.200 F 
ATOM     59  C   UNL A   1      51.448  26.217  25.113  1.00  0.00     0.200 A 
ATOM     60  F   UNL A   1      52.176  25.595  27.271  1.00  0.00    -0.200 F 
ATOM     61  F   UNL A   1      52.645  25.900  24.599  1.00  0.00    -0.200 F 
ENDBRANCH  27  51
BRANCH  39  62
ATOM     62  C   UNL A   1      45.820  32.653  28.443  1.00  0.00     0.064 A 
ATOM     63  C   UNL A   1      46.463  33.107  29.605  1.00  0.00     0.173 A 
ATOM     64  C   UNL A   1      45.671  33.554  27.378  1.00  0.00     0.173 A 
ATOM     65  F   UNL A   1      46.611  32.289  30.658  1.00  0.00    -0.203 F 
ATOM     66  C   UNL A   1      46.923  34.417  29.701  1.00  0.00     0.198 A 
ATOM     67  C   UNL A   1      46.161  34.853  27.466  1.00  0.00     0.198 A 
ATOM     68  F   UNL A   1      45.066  33.168  26.245  1.00  0.00    -0.203 F 
ATOM     69  F   UNL A   1      47.493  34.841  30.837  1.00  0.00    -0.200 F 
ATOM     70  C   UNL A   1      46.781  35.286  28.629  1.00  0.00     0.200 A 
ATOM     71  F   UNL A   1      46.037  35.687  26.425  1.00  0.00    -0.200 F 
ATOM     72  F   UNL A   1      47.236  36.542  28.719  1.00  0.00    -0.200 F 
ENDBRANCH  39  62
ENDBRANCH  13  14
ENDBRANCH   6   8
ENDBRANCH   3   4
ENDBRANCH   2   3
ENDBRANCH   1   2
BRANCH   1  73
ATOM     73  C   UNL A   1      36.627  21.933  25.554  1.00  0.00     0.116 C 
BRANCH  73  74
ATOM     74  N   UNL A   1      35.558  22.128  26.517  1.00  0.00    -0.352 N 
ATOM     75  C   UNL A   1      34.313  22.676  26.341  1.00  0.00     0.253 C 
ATOM     76  H   UNL A   1      35.756  21.822  27.432  1.00  0.00     0.163 HD
ATOM     77  O   UNL A   1      33.530  22.748  27.282  1.00  0.00    -0.269 OA
BRANCH  75  78
ATOM     78  C   UNL A   1      33.898  23.153  25.011  1.00  0.00     0.067 A 
ATOM     79  C   UNL A   1      33.638  22.212  24.007  1.00  0.00     0.017 A 
ATOM     80  C   UNL A   1      33.709  24.512  24.737  1.00  0.00     0.107 A 
ATOM     81  C   UNL A   1      33.241  22.641  22.748  1.00  0.00     0.021 A 
ATOM     82  N   UNL A   1      33.277  24.927  23.509  1.00  0.00    -0.254 NA
ATOM     83  C   UNL A   1      33.066  23.997  22.552  1.00  0.00     0.111 A 
BRANCH  80  84
ATOM     84  C   UNL A   1      34.024  25.612  25.746  1.00  0.00     0.321 C 
BRANCH  84  85
ATOM     85  N   UNL A   1      33.425  26.943  25.508  1.00  0.00    -0.322 N 
ATOM     86  C   UNL A   1      34.223  28.064  25.995  1.00  0.00     0.263 C 
ATOM     87  C   UNL A   1      32.055  27.081  26.035  1.00  0.00     0.234 C 
ATOM     88  H   UNL A   1      33.397  26.989  24.489  1.00  0.00     0.349 HD
ATOM     89  C   UNL A   1      33.553  28.581  27.253  1.00  0.00     0.068 C 
ATOM     90  C   UNL A   1      32.123  28.073  27.201  1.00  0.00     0.078 C 
BRANCH  87  91
ATOM     91  C   UNL A   1      31.045  27.491  24.967  1.00  0.00     0.098 A 
ATOM     92  C   UNL A   1      30.072  26.607  24.500  1.00  0.00     0.030 A 
ATOM     93  N   UNL A   1      31.157  28.757  24.476  1.00  0.00    -0.255 NA
ATOM     94  C   UNL A   1      29.194  27.027  23.505  1.00  0.00     0.004 A 
ATOM     95  C   UNL A   1      30.280  29.140  23.524  1.00  0.00     0.111 A 
ATOM     96  C   UNL A   1      29.295  28.318  23.007  1.00  0.00     0.020 A 
ENDBRANCH  87  91
ENDBRANCH  84  85
ENDBRANCH  80  84
ENDBRANCH  75  78
ENDBRANCH  73  74
ENDBRANCH   1  73
TORSDOF 14
ENDMDL
MODEL 3
REMARK VINA RESULT:     -12.5      1.139      2.299
REMARK SMILES O=C(NCCCCNC(=O)c1cccnc1C[N@@H+]1CCC[C@H]1c1ccccn1)c1ccc(-c2c3nc(c(-c4c(F)c(F)c(F)c(F)c4F)c4ccc([nH]4)c(-c4c(F)c(F)c(F)c(F)c4F)c4nc(c(-c5c(F)c(F)c(F)c(F)c5F)c5ccc2[nH]5)C=C4)C=C3)cc1
REMARK SMILES IDX 6 1 5 2 4 3 3 4 1 5 2 6 29 8 30 9 91 10 31 11 90 12 32 13
REMARK SMILES IDX 33 14 34 15 84 16 35 17 89 18 83 19 85 20 36 21 88 22 82 23
REMARK SMILES IDX 81 24 37 26 69 27 49 28 68 29 50 30 53 31 67 32 86 33 51 34
REMARK SMILES IDX 52 35 66 37 87 38 54 39 38 40 39 41 47 42 40 43 41 44 45 45
REMARK SMILES IDX 48 46 42 47 43 48 46 49 44 50 70 51 71 52 79 53 72 54 73 55
REMARK SMILES IDX 77 56 80 57 74 58 75 59 78 60 76 61 55 62 56 63 64 64 57 65
REMARK SMILES IDX 58 66 62 67 65 68 59 69 60 70 63 71 61 72 7 73 8 74 9 75
REMARK SMILES IDX 10 77 11 78 12 79 16 80 13 81 15 82 14 83 17 84 18 85 19 86
REMARK SMILES IDX 22 87 20 89 21 90 23 91 24 92 28 93 25 94 27 95 26 96
REMARK H PARENT 3 7 85 25 53 36 8 76 18 88
REMARK Flexibility Score: inf
ROOT
ATOM      1  C   UNL A   1      31.517  30.565  25.643  1.00  0.00     0.023 C 
ENDROOT
BRANCH   1   2
ATOM      2  C   UNL A   1      31.330  31.734  26.607  1.00  0.00     0.023 C 
BRANCH   2   3
ATOM      3  C   UNL A   1      32.607  32.474  26.976  1.00  0.00     0.116 C 
BRANCH   3   4
ATOM      4  N   UNL A   1      32.362  33.843  27.401  1.00  0.00    -0.352 N 
ATOM      5  O   UNL A   1      32.528  35.659  28.733  1.00  0.00    -0.269 OA
ATOM      6  C   UNL A   1      32.965  34.560  28.405  1.00  0.00     0.251 C 
ATOM      7  H   UNL A   1      31.665  34.324  26.898  1.00  0.00     0.163 HD
BRANCH   6   8
ATOM      8  C   UNL A   1      34.138  33.995  29.106  1.00  0.00     0.039 A 
ATOM      9  C   UNL A   1      33.968  33.103  30.168  1.00  0.00     0.014 A 
ATOM     10  C   UNL A   1      35.423  34.347  28.682  1.00  0.00     0.014 A 
ATOM     11  C   UNL A   1      35.073  32.657  30.882  1.00  0.00     0.010 A 
ATOM     12  C   UNL A   1      36.537  33.827  29.345  1.00  0.00     0.010 A 
ATOM     13  C   UNL A   1      36.371  32.986  30.456  1.00  0.00    -0.014 A 
BRANCH  13  14
ATOM     14  C   UNL A   1      37.533  32.330  31.102  1.00  0.00     0.031 A 
ATOM     15  C   UNL A   1      38.233  31.165  30.464  1.00  0.00     0.074 A 
ATOM     16  C   UNL A   1      37.938  32.799  32.299  1.00  0.00     0.049 A 
ATOM     17  N   UNL A   1      39.232  30.456  30.927  1.00  0.00    -0.248 NA
ATOM     18  C   UNL A   1      37.751  30.733  29.144  1.00  0.00     0.031 C 
ATOM     19  C   UNL A   1      37.316  33.916  33.017  1.00  0.00     0.029 A 
ATOM     20  N   UNL A   1      38.955  32.402  33.127  1.00  0.00    -0.354 N 
ATOM     21  C   UNL A   1      39.485  29.483  29.969  1.00  0.00     0.074 A 
ATOM     22  C   UNL A   1      38.528  29.684  28.901  1.00  0.00     0.031 C 
ATOM     23  C   UNL A   1      37.973  34.125  34.165  1.00  0.00     0.029 A 
ATOM     24  C   UNL A   1      39.013  33.114  34.301  1.00  0.00     0.049 A 
ATOM     25  H   UNL A   1      39.583  31.677  32.904  1.00  0.00     0.167 HD
ATOM     26  C   UNL A   1      40.432  28.515  29.989  1.00  0.00     0.037 A 
ATOM     27  C   UNL A   1      39.786  32.944  35.390  1.00  0.00     0.037 A 
ATOM     28  C   UNL A   1      41.393  28.345  31.050  1.00  0.00     0.049 A 
ATOM     29  C   UNL A   1      40.797  31.834  35.393  1.00  0.00     0.074 A 
ATOM     30  C   UNL A   1      42.448  27.450  31.119  1.00  0.00     0.029 A 
ATOM     31  N   UNL A   1      41.407  29.069  32.232  1.00  0.00    -0.354 N 
ATOM     32  N   UNL A   1      41.079  30.972  34.447  1.00  0.00    -0.248 NA
ATOM     33  C   UNL A   1      41.589  31.664  36.617  1.00  0.00     0.031 C 
ATOM     34  C   UNL A   1      43.054  27.584  32.372  1.00  0.00     0.029 A 
ATOM     35  C   UNL A   1      42.418  28.604  33.059  1.00  0.00     0.049 A 
ATOM     36  H   UNL A   1      40.791  29.805  32.451  1.00  0.00     0.167 HD
ATOM     37  C   UNL A   1      42.087  30.167  34.956  1.00  0.00     0.074 A 
ATOM     38  C   UNL A   1      42.390  30.662  36.282  1.00  0.00     0.031 C 
ATOM     39  C   UNL A   1      42.701  29.105  34.379  1.00  0.00     0.037 A 
BRANCH  26  40
ATOM     40  C   UNL A   1      40.482  27.537  28.851  1.00  0.00     0.064 A 
ATOM     41  C   UNL A   1      39.675  26.392  28.822  1.00  0.00     0.173 A 
ATOM     42  C   UNL A   1      41.269  27.814  27.722  1.00  0.00     0.173 A 
ATOM     43  F   UNL A   1      38.907  26.078  29.876  1.00  0.00    -0.203 F 
ATOM     44  C   UNL A   1      39.659  25.556  27.707  1.00  0.00     0.198 A 
ATOM     45  C   UNL A   1      41.232  26.991  26.600  1.00  0.00     0.198 A 
ATOM     46  F   UNL A   1      42.052  28.904  27.694  1.00  0.00    -0.203 F 
ATOM     47  F   UNL A   1      38.894  24.455  27.707  1.00  0.00    -0.200 F 
ATOM     48  C   UNL A   1      40.427  25.863  26.593  1.00  0.00     0.200 A 
ATOM     49  F   UNL A   1      41.962  27.299  25.519  1.00  0.00    -0.200 F 
ATOM     50  F   UNL A   1      40.391  25.070  25.512  1.00  0.00    -0.200 F 
ENDBRANCH  26  40
BRANCH  27  51
ATOM     51  C   UNL A   1      39.592  33.811  36.582  1.00  0.00     0.064 A 
ATOM     52  C   UNL A   1      40.243  35.046  36.695  1.00  0.00     0.173 A 
ATOM     53  C   UNL A   1      38.766  33.410  37.643  1.00  0.00     0.173 A 
ATOM     54  F   UNL A   1      41.056  35.467  35.716  1.00  0.00    -0.203 F 
ATOM     55  C   UNL A   1      40.100  35.832  37.837  1.00  0.00     0.198 A 
ATOM     56  C   UNL A   1      38.594  34.212  38.768  1.00  0.00     0.198 A 
ATOM     57  F   UNL A   1      38.115  32.238  37.584  1.00  0.00    -0.203 F 
ATOM     58  F   UNL A   1      40.782  36.980  37.947  1.00  0.00    -0.200 F 
ATOM     59  C   UNL A   1      39.271  35.417  38.870  1.00  0.00     0.200 A 
ATOM     60  F   UNL A   1      37.777  33.816  39.752  1.00  0.00    -0.200 F 
ATOM     61  F   UNL A   1      39.136  36.173  39.968  1.00  0.00    -0.200 F 
ENDBRANCH  27  51
BRANCH  39  62
ATOM     62  C   UNL A   1      43.765  28.414  35.178  1.00  0.00     0.064 A 
ATOM     63  C   UNL A   1      45.105  28.829  35.123  1.00  0.00     0.173 A 
ATOM     64  C   UNL A   1      43.438  27.356  36.039  1.00  0.00     0.173 A 
ATOM     65  F   UNL A   1      45.471  29.822  34.299  1.00  0.00    -0.203 F 
ATOM     66  C   UNL A   1      46.080  28.197  35.890  1.00  0.00     0.198 A 
ATOM     67  C   UNL A   1      44.411  26.748  36.828  1.00  0.00     0.198 A 
ATOM     68  F   UNL A   1      42.172  26.924  36.130  1.00  0.00    -0.203 F 
ATOM     69  F   UNL A   1      47.360  28.580  35.787  1.00  0.00    -0.200 F 
ATOM     70  C   UNL A   1      45.731  27.165  36.749  1.00  0.00     0.200 A 
ATOM     71  F   UNL A   1      44.070  25.762  37.668  1.00  0.00    -0.200 F 
ATOM     72  F   UNL A   1      46.669  26.567  37.494  1.00  0.00    -0.200 F 
ENDBRANCH  39  62
ENDBRANCH  13  14
ENDBRANCH   6   8
ENDBRANCH   3   4
ENDBRANCH   2   3
ENDBRANCH   1   2
BRANCH   1  73
ATOM     73  C   UNL A   1      32.787  29.742  25.843  1.00  0.00     0.116 C 
BRANCH  73  74
ATOM     74  N   UNL A   1      33.407  29.328  24.596  1.00  0.00    -0.352 N 
ATOM     75  C   UNL A   1      33.265  28.156  23.898  1.00  0.00     0.253 C 
ATOM     76  H   UNL A   1      34.021  29.985  24.194  1.00  0.00     0.163 HD
ATOM     77  O   UNL A   1      33.869  27.988  22.843  1.00  0.00    -0.269 OA
BRANCH  75  78
ATOM     78  C   UNL A   1      32.360  27.106  24.393  1.00  0.00     0.067 A 
ATOM     79  C   UNL A   1      30.977  27.296  24.277  1.00  0.00     0.017 A 
ATOM     80  C   UNL A   1      32.841  25.907  24.932  1.00  0.00     0.107 A 
ATOM     81  C   UNL A   1      30.109  26.314  24.734  1.00  0.00     0.021 A 
ATOM     82  N   UNL A   1      31.982  24.927  25.340  1.00  0.00    -0.254 NA
ATOM     83  C   UNL A   1      30.654  25.153  25.245  1.00  0.00     0.111 A 
BRANCH  80  84
ATOM     84  C   UNL A   1      34.326  25.636  25.154  1.00  0.00     0.321 C 
BRANCH  84  85
ATOM     85  N   UNL A   1      34.746  24.224  25.284  1.00  0.00    -0.322 N 
ATOM     86  C   UNL A   1      35.966  24.022  26.058  1.00  0.00     0.263 C 
ATOM     87  C   UNL A   1      34.891  23.525  23.993  1.00  0.00     0.234 C 
ATOM     88  H   UNL A   1      33.968  23.813  25.800  1.00  0.00     0.349 HD
ATOM     89  C   UNL A   1      37.076  23.703  25.075  1.00  0.00     0.068 C 
ATOM     90  C   UNL A   1      36.385  23.243  23.804  1.00  0.00     0.078 C 
BRANCH  87  91
ATOM     91  C   UNL A   1      34.033  22.267  23.899  1.00  0.00     0.098 A 
ATOM     92  C   UNL A   1      32.919  22.201  23.062  1.00  0.00     0.030 A 
ATOM     93  N   UNL A   1      34.398  21.220  24.689  1.00  0.00    -0.255 NA
ATOM     94  C   UNL A   1      32.157  21.036  23.036  1.00  0.00     0.004 A 
ATOM     95  C   UNL A   1      33.650  20.098  24.629  1.00  0.00     0.111 A 
ATOM     96  C   UNL A   1      32.528  19.960  23.831  1.00  0.00     0.020 A 
ENDBRANCH  87  91
ENDBRANCH  84  85
ENDBRANCH  80  84
ENDBRANCH  75  78
ENDBRANCH  73  74
ENDBRANCH   1  73
TORSDOF 14
ENDMDL
