MODEL 1
REMARK VINA RESULT:     -12.7      0.000      0.000
REMARK SMILES N#CCCn1cc(C(=O)NCCCCNC(=O)c2ccc(-c3c4nc(c(-c5c(F)c(F)c(F)c(F)c5F)c5ccc([nH]5)c(-c5c(F)c(F)c(F)c(F)c5F)c5nc(c(-c6c(F)c(F)c(F)c(F)c6F)c6ccc3[nH]6)C=C5)C=C4)cc2)c(-c2cccc([N+](=O)[O-])c2)n1
REMARK SMILES IDX 12 1 11 2 10 3 8 4 9 5 7 7 5 8 6 9 91 10 81 11 4 12 3 13
REMARK SMILES IDX 2 14 1 15 82 16 83 17 90 18 84 19 86 20 85 21 87 22 88 23
REMARK SMILES IDX 89 24 13 25 14 26 15 27 16 28 17 30 18 31 19 32 80 33 20 34
REMARK SMILES IDX 79 35 21 36 22 37 23 38 73 39 24 40 78 41 72 42 74 43 25 44
REMARK SMILES IDX 77 45 71 46 70 47 26 49 58 50 38 51 57 52 39 53 42 54 56 55
REMARK SMILES IDX 75 56 40 57 41 58 55 60 76 61 43 62 27 63 28 64 36 65 29 66
REMARK SMILES IDX 30 67 34 68 37 69 31 70 32 71 35 72 33 73 59 74 60 75 68 76
REMARK SMILES IDX 61 77 62 78 66 79 69 80 63 81 64 82 67 83 65 84 44 85 45 86
REMARK SMILES IDX 53 87 46 88 47 89 51 90 54 91 48 92 49 93 52 94 50 95
REMARK H PARENT 10 6 15 29 74 48 42 59
REMARK Flexibility Score: inf
ROOT
ATOM      1  C   UNL A   1      38.058  22.353  25.756  1.00  0.00     0.023 C 
ENDROOT
BRANCH   1   2
ATOM      2  C   UNL A   1      36.670  21.959  25.250  1.00  0.00     0.116 C 
BRANCH   2   3
ATOM      3  N   UNL A   1      35.697  21.970  26.317  1.00  0.00    -0.352 N 
ATOM      4  C   UNL A   1      34.423  21.471  26.408  1.00  0.00     0.255 C 
ATOM      5  O   UNL A   1      33.866  21.634  27.493  1.00  0.00    -0.269 OA
ATOM      6  H   UNL A   1      36.007  22.421  27.135  1.00  0.00     0.163 HD
BRANCH   4   7
ATOM      7  C   UNL A   1      33.808  20.734  25.312  1.00  0.00     0.085 A 
ATOM      8  N   UNL A   1      33.079  19.151  23.961  1.00  0.00    -0.270 N 
ATOM      9  C   UNL A   1      34.061  19.453  24.856  1.00  0.00     0.123 A 
ATOM     10  N   UNL A   1      32.276  20.188  23.697  1.00  0.00    -0.172 NA
ATOM     11  C   UNL A   1      32.787  21.204  24.415  1.00  0.00     0.105 A 
BRANCH   8  12
ATOM     12  C   UNL A   1      32.888  17.846  23.348  1.00  0.00     0.159 C 
BRANCH  12  13
ATOM     13  C   UNL A   1      34.093  16.917  23.370  1.00  0.00     0.144 C 
BRANCH  13  14
ATOM     14  C   UNL A   1      33.846  15.829  24.402  1.00  0.00     0.064 C 
ATOM     15  N   UNL A   1      33.642  14.926  25.258  1.00  0.00    -0.198 NA
ENDBRANCH  13  14
ENDBRANCH  12  13
ENDBRANCH   8  12
BRANCH  11  16
ATOM     16  C   UNL A   1      32.276  22.566  24.245  1.00  0.00     0.010 A 
ATOM     17  C   UNL A   1      31.425  23.125  25.215  1.00  0.00     0.011 A 
ATOM     18  C   UNL A   1      32.632  23.332  23.130  1.00  0.00     0.096 A 
ATOM     19  C   UNL A   1      30.885  24.403  25.052  1.00  0.00     0.008 A 
ATOM     20  C   UNL A   1      32.087  24.615  22.971  1.00  0.00     0.270 A 
ATOM     21  C   UNL A   1      31.207  25.150  23.923  1.00  0.00     0.085 A 
BRANCH  20  22
ATOM     22  N   UNL A   1      32.422  25.403  21.778  1.00  0.00     0.062 N 
ATOM     23  O   UNL A   1      31.552  26.162  21.326  1.00  0.00    -0.258 OA
ATOM     24  O   UNL A   1      33.549  25.257  21.286  1.00  0.00    -0.258 OA
ENDBRANCH  20  22
ENDBRANCH  11  16
ENDBRANCH   4   7
ENDBRANCH   2   3
ENDBRANCH   1   2
BRANCH   1  25
ATOM     25  C   UNL A   1      39.073  21.200  25.790  1.00  0.00     0.023 C 
BRANCH  25  26
ATOM     26  C   UNL A   1      40.252  21.413  26.735  1.00  0.00     0.116 C 
BRANCH  26  27
ATOM     27  N   UNL A   1      41.526  21.545  26.031  1.00  0.00    -0.352 N 
ATOM     28  C   UNL A   1      42.256  22.696  25.788  1.00  0.00     0.251 C 
ATOM     29  H   UNL A   1      41.915  20.709  25.685  1.00  0.00     0.163 HD
ATOM     30  O   UNL A   1      43.078  22.753  24.893  1.00  0.00    -0.269 OA
BRANCH  28  31
ATOM     31  C   UNL A   1      42.030  23.855  26.668  1.00  0.00     0.039 A 
ATOM     32  C   UNL A   1      42.668  23.974  27.904  1.00  0.00     0.014 A 
ATOM     33  C   UNL A   1      41.184  24.852  26.196  1.00  0.00     0.014 A 
ATOM     34  C   UNL A   1      42.514  25.158  28.623  1.00  0.00     0.010 A 
ATOM     35  C   UNL A   1      41.154  26.069  26.828  1.00  0.00     0.010 A 
ATOM     36  C   UNL A   1      41.772  26.211  28.067  1.00  0.00    -0.014 A 
BRANCH  36  37
ATOM     37  C   UNL A   1      41.713  27.516  28.718  1.00  0.00     0.031 A 
ATOM     38  C   UNL A   1      42.802  28.466  28.343  1.00  0.00     0.074 A 
ATOM     39  C   UNL A   1      40.623  27.925  29.402  1.00  0.00     0.049 A 
ATOM     40  N   UNL A   1      43.663  29.040  29.119  1.00  0.00    -0.248 NA
ATOM     41  C   UNL A   1      43.016  28.744  26.912  1.00  0.00     0.031 C 
ATOM     42  C   UNL A   1      39.341  27.230  29.577  1.00  0.00     0.029 A 
ATOM     43  N   UNL A   1      40.388  29.127  29.992  1.00  0.00    -0.354 N 
ATOM     44  C   UNL A   1      44.420  29.882  28.306  1.00  0.00     0.074 A 
ATOM     45  C   UNL A   1      44.081  29.549  26.947  1.00  0.00     0.031 C 
ATOM     46  C   UNL A   1      38.404  28.105  30.004  1.00  0.00     0.029 A 
ATOM     47  C   UNL A   1      39.055  29.368  30.299  1.00  0.00     0.049 A 
ATOM     48  H   UNL A   1      41.104  29.773  30.186  1.00  0.00     0.167 HD
ATOM     49  C   UNL A   1      45.109  30.939  28.820  1.00  0.00     0.037 A 
ATOM     50  C   UNL A   1      38.521  30.537  30.732  1.00  0.00     0.037 A 
ATOM     51  C   UNL A   1      45.299  30.799  30.241  1.00  0.00     0.049 A 
ATOM     52  C   UNL A   1      39.639  31.359  31.260  1.00  0.00     0.074 A 
ATOM     53  C   UNL A   1      45.912  29.853  31.040  1.00  0.00     0.029 A 
ATOM     54  N   UNL A   1      44.481  31.512  31.083  1.00  0.00    -0.354 N 
ATOM     55  N   UNL A   1      40.320  31.055  32.330  1.00  0.00    -0.248 NA
ATOM     56  C   UNL A   1      40.303  32.261  30.331  1.00  0.00     0.031 C 
ATOM     57  C   UNL A   1      45.045  29.707  32.163  1.00  0.00     0.029 A 
ATOM     58  C   UNL A   1      44.006  30.628  32.019  1.00  0.00     0.049 A 
ATOM     59  H   UNL A   1      44.276  32.474  31.028  1.00  0.00     0.167 HD
ATOM     60  C   UNL A   1      41.633  31.363  32.011  1.00  0.00     0.074 A 
ATOM     61  C   UNL A   1      41.551  32.177  30.799  1.00  0.00     0.031 C 
ATOM     62  C   UNL A   1      42.678  30.693  32.583  1.00  0.00     0.037 A 
BRANCH  49  63
ATOM     63  C   UNL A   1      45.322  32.247  28.100  1.00  0.00     0.064 A 
ATOM     64  C   UNL A   1      44.224  33.089  27.838  1.00  0.00     0.173 A 
ATOM     65  C   UNL A   1      46.512  32.569  27.412  1.00  0.00     0.173 A 
ATOM     66  F   UNL A   1      43.033  32.857  28.411  1.00  0.00    -0.203 F 
ATOM     67  C   UNL A   1      44.300  34.137  26.914  1.00  0.00     0.198 A 
ATOM     68  C   UNL A   1      46.600  33.648  26.534  1.00  0.00     0.198 A 
ATOM     69  F   UNL A   1      47.600  31.790  27.471  1.00  0.00    -0.203 F 
ATOM     70  F   UNL A   1      43.198  34.837  26.610  1.00  0.00    -0.200 F 
ATOM     71  C   UNL A   1      45.487  34.415  26.263  1.00  0.00     0.200 A 
ATOM     72  F   UNL A   1      47.755  33.886  25.896  1.00  0.00    -0.200 F 
ATOM     73  F   UNL A   1      45.549  35.383  25.339  1.00  0.00    -0.200 F 
ENDBRANCH  49  63
BRANCH  50  74
ATOM     74  C   UNL A   1      37.181  31.097  30.440  1.00  0.00     0.064 A 
ATOM     75  C   UNL A   1      36.306  31.462  31.474  1.00  0.00     0.173 A 
ATOM     76  C   UNL A   1      36.841  31.539  29.146  1.00  0.00     0.173 A 
ATOM     77  F   UNL A   1      36.580  31.118  32.741  1.00  0.00    -0.203 F 
ATOM     78  C   UNL A   1      35.172  32.245  31.233  1.00  0.00     0.198 A 
ATOM     79  C   UNL A   1      35.705  32.315  28.905  1.00  0.00     0.198 A 
ATOM     80  F   UNL A   1      37.653  31.309  28.104  1.00  0.00    -0.203 F 
ATOM     81  F   UNL A   1      34.392  32.625  32.255  1.00  0.00    -0.200 F 
ATOM     82  C   UNL A   1      34.878  32.679  29.950  1.00  0.00     0.200 A 
ATOM     83  F   UNL A   1      35.455  32.758  27.665  1.00  0.00    -0.200 F 
ATOM     84  F   UNL A   1      33.827  33.481  29.728  1.00  0.00    -0.200 F 
ENDBRANCH  50  74
BRANCH  62  85
ATOM     85  C   UNL A   1      42.381  29.770  33.736  1.00  0.00     0.064 A 
ATOM     86  C   UNL A   1      42.036  28.414  33.592  1.00  0.00     0.173 A 
ATOM     87  C   UNL A   1      42.605  30.235  35.037  1.00  0.00     0.173 A 
ATOM     88  F   UNL A   1      41.907  27.857  32.383  1.00  0.00    -0.203 F 
ATOM     89  C   UNL A   1      41.879  27.581  34.699  1.00  0.00     0.198 A 
ATOM     90  C   UNL A   1      42.484  29.393  36.140  1.00  0.00     0.198 A 
ATOM     91  F   UNL A   1      42.993  31.504  35.238  1.00  0.00    -0.203 F 
ATOM     92  F   UNL A   1      41.539  26.294  34.530  1.00  0.00    -0.200 F 
ATOM     93  C   UNL A   1      42.110  28.070  35.972  1.00  0.00     0.200 A 
ATOM     94  F   UNL A   1      42.761  29.859  37.366  1.00  0.00    -0.200 F 
ATOM     95  F   UNL A   1      42.002  27.260  37.035  1.00  0.00    -0.200 F 
ENDBRANCH  62  85
ENDBRANCH  36  37
ENDBRANCH  28  31
ENDBRANCH  26  27
ENDBRANCH  25  26
ENDBRANCH   1  25
TORSDOF 16
ENDMDL
MODEL 2
REMARK VINA RESULT:     -12.7      3.740      9.449
REMARK SMILES N#CCCn1cc(C(=O)NCCCCNC(=O)c2ccc(-c3c4nc(c(-c5c(F)c(F)c(F)c(F)c5F)c5ccc([nH]5)c(-c5c(F)c(F)c(F)c(F)c5F)c5nc(c(-c6c(F)c(F)c(F)c(F)c6F)c6ccc3[nH]6)C=C5)C=C4)cc2)c(-c2cccc([N+](=O)[O-])c2)n1
REMARK SMILES IDX 12 1 11 2 10 3 8 4 9 5 7 7 5 8 6 9 91 10 81 11 4 12 3 13
REMARK SMILES IDX 2 14 1 15 82 16 83 17 90 18 84 19 86 20 85 21 87 22 88 23
REMARK SMILES IDX 89 24 13 25 14 26 15 27 16 28 17 30 18 31 19 32 80 33 20 34
REMARK SMILES IDX 79 35 21 36 22 37 23 38 73 39 24 40 78 41 72 42 74 43 25 44
REMARK SMILES IDX 77 45 71 46 70 47 26 49 58 50 38 51 57 52 39 53 42 54 56 55
REMARK SMILES IDX 75 56 40 57 41 58 55 60 76 61 43 62 27 63 28 64 36 65 29 66
REMARK SMILES IDX 30 67 34 68 37 69 31 70 32 71 35 72 33 73 59 74 60 75 68 76
REMARK SMILES IDX 61 77 62 78 66 79 69 80 63 81 64 82 67 83 65 84 44 85 45 86
REMARK SMILES IDX 53 87 46 88 47 89 51 90 54 91 48 92 49 93 52 94 50 95
REMARK H PARENT 10 6 15 29 74 48 42 59
REMARK Flexibility Score: inf
ROOT
ATOM      1  C   UNL A   1      32.840  30.627  27.160  1.00  0.00     0.023 C 
ENDROOT
BRANCH   1   2
ATOM      2  C   UNL A   1      32.330  29.294  26.610  1.00  0.00     0.116 C 
BRANCH   2   3
ATOM      3  N   UNL A   1      33.006  28.935  25.385  1.00  0.00    -0.352 N 
ATOM      4  C   UNL A   1      32.541  28.586  24.144  1.00  0.00     0.255 C 
ATOM      5  O   UNL A   1      33.405  28.359  23.298  1.00  0.00    -0.269 OA
ATOM      6  H   UNL A   1      33.988  28.942  25.456  1.00  0.00     0.163 HD
BRANCH   4   7
ATOM      7  C   UNL A   1      31.116  28.561  23.838  1.00  0.00     0.085 A 
ATOM      8  N   UNL A   1      29.078  29.069  23.169  1.00  0.00    -0.270 N 
ATOM      9  C   UNL A   1      30.235  29.609  23.643  1.00  0.00     0.123 A 
ATOM     10  N   UNL A   1      29.089  27.732  23.162  1.00  0.00    -0.172 NA
ATOM     11  C   UNL A   1      30.280  27.400  23.693  1.00  0.00     0.105 A 
BRANCH   8  12
ATOM     12  C   UNL A   1      27.936  29.838  22.699  1.00  0.00     0.159 C 
BRANCH  12  13
ATOM     13  C   UNL A   1      27.515  31.009  23.575  1.00  0.00     0.144 C 
BRANCH  13  14
ATOM     14  C   UNL A   1      27.987  32.297  22.920  1.00  0.00     0.064 C 
ATOM     15  N   UNL A   1      28.379  33.365  22.377  1.00  0.00    -0.198 NA
ENDBRANCH  13  14
ENDBRANCH  12  13
ENDBRANCH   8  12
BRANCH  11  16
ATOM     16  C   UNL A   1      30.588  26.006  24.016  1.00  0.00     0.010 A 
ATOM     17  C   UNL A   1      31.013  25.126  23.005  1.00  0.00     0.011 A 
ATOM     18  C   UNL A   1      30.479  25.532  25.328  1.00  0.00     0.096 A 
ATOM     19  C   UNL A   1      31.265  23.780  23.277  1.00  0.00     0.008 A 
ATOM     20  C   UNL A   1      30.733  24.178  25.596  1.00  0.00     0.270 A 
ATOM     21  C   UNL A   1      31.117  23.297  24.575  1.00  0.00     0.085 A 
BRANCH  20  22
ATOM     22  N   UNL A   1      30.573  23.667  26.963  1.00  0.00     0.062 N 
ATOM     23  O   UNL A   1      29.419  23.489  27.381  1.00  0.00    -0.258 OA
ATOM     24  O   UNL A   1      31.598  23.453  27.625  1.00  0.00    -0.258 OA
ENDBRANCH  20  22
ENDBRANCH  11  16
ENDBRANCH   4   7
ENDBRANCH   2   3
ENDBRANCH   1   2
BRANCH   1  25
ATOM     25  C   UNL A   1      34.319  30.620  27.573  1.00  0.00     0.023 C 
BRANCH  25  26
ATOM     26  C   UNL A   1      34.922  32.000  27.814  1.00  0.00     0.116 C 
BRANCH  26  27
ATOM     27  N   UNL A   1      34.823  32.428  29.208  1.00  0.00    -0.352 N 
ATOM     28  C   UNL A   1      35.474  31.907  30.312  1.00  0.00     0.251 C 
ATOM     29  H   UNL A   1      34.214  33.182  29.385  1.00  0.00     0.163 HD
ATOM     30  O   UNL A   1      35.049  32.071  31.441  1.00  0.00    -0.269 OA
BRANCH  28  31
ATOM     31  C   UNL A   1      36.726  31.164  30.089  1.00  0.00     0.039 A 
ATOM     32  C   UNL A   1      37.931  31.818  29.826  1.00  0.00     0.014 A 
ATOM     33  C   UNL A   1      36.668  29.780  30.194  1.00  0.00     0.014 A 
ATOM     34  C   UNL A   1      39.100  31.062  29.759  1.00  0.00     0.010 A 
ATOM     35  C   UNL A   1      37.830  29.057  30.278  1.00  0.00     0.010 A 
ATOM     36  C   UNL A   1      39.044  29.682  30.008  1.00  0.00    -0.014 A 
BRANCH  36  37
ATOM     37  C   UNL A   1      40.262  28.883  30.097  1.00  0.00     0.031 A 
ATOM     38  C   UNL A   1      40.771  28.646  31.480  1.00  0.00     0.074 A 
ATOM     39  C   UNL A   1      40.745  28.196  29.038  1.00  0.00     0.049 A 
ATOM     40  N   UNL A   1      41.927  28.956  31.969  1.00  0.00    -0.248 NA
ATOM     41  C   UNL A   1      39.844  28.068  32.469  1.00  0.00     0.031 C 
ATOM     42  C   UNL A   1      40.168  28.066  27.694  1.00  0.00     0.029 A 
ATOM     43  N   UNL A   1      41.812  27.356  28.982  1.00  0.00    -0.354 N 
ATOM     44  C   UNL A   1      41.942  28.465  33.274  1.00  0.00     0.074 A 
ATOM     45  C   UNL A   1      40.592  28.066  33.575  1.00  0.00     0.031 C 
ATOM     46  C   UNL A   1      40.743  27.025  27.052  1.00  0.00     0.029 A 
ATOM     47  C   UNL A   1      41.840  26.534  27.863  1.00  0.00     0.049 A 
ATOM     48  H   UNL A   1      42.508  27.334  29.677  1.00  0.00     0.167 HD
ATOM     49  C   UNL A   1      43.111  28.225  33.932  1.00  0.00     0.037 A 
ATOM     50  C   UNL A   1      42.687  25.499  27.639  1.00  0.00     0.037 A 
ATOM     51  C   UNL A   1      44.211  28.920  33.315  1.00  0.00     0.049 A 
ATOM     52  C   UNL A   1      43.849  25.681  28.545  1.00  0.00     0.074 A 
ATOM     53  C   UNL A   1      44.485  30.250  33.059  1.00  0.00     0.029 A 
ATOM     54  N   UNL A   1      45.058  28.210  32.499  1.00  0.00    -0.354 N 
ATOM     55  N   UNL A   1      44.710  26.655  28.433  1.00  0.00    -0.248 NA
ATOM     56  C   UNL A   1      43.781  25.053  29.856  1.00  0.00     0.031 C 
ATOM     57  C   UNL A   1      45.070  30.258  31.758  1.00  0.00     0.029 A 
ATOM     58  C   UNL A   1      45.190  28.932  31.339  1.00  0.00     0.049 A 
ATOM     59  H   UNL A   1      45.488  27.350  32.707  1.00  0.00     0.167 HD
ATOM     60  C   UNL A   1      44.968  27.047  29.737  1.00  0.00     0.074 A 
ATOM     61  C   UNL A   1      44.432  25.974  30.572  1.00  0.00     0.031 C 
ATOM     62  C   UNL A   1      45.327  28.332  30.033  1.00  0.00     0.037 A 
BRANCH  49  63
ATOM     63  C   UNL A   1      43.313  27.111  34.927  1.00  0.00     0.064 A 
ATOM     64  C   UNL A   1      43.518  27.415  36.288  1.00  0.00     0.173 A 
ATOM     65  C   UNL A   1      43.593  25.778  34.554  1.00  0.00     0.173 A 
ATOM     66  F   UNL A   1      43.315  28.659  36.747  1.00  0.00    -0.203 F 
ATOM     67  C   UNL A   1      44.020  26.470  37.189  1.00  0.00     0.198 A 
ATOM     68  C   UNL A   1      44.040  24.824  35.467  1.00  0.00     0.198 A 
ATOM     69  F   UNL A   1      43.557  25.376  33.278  1.00  0.00    -0.203 F 
ATOM     70  F   UNL A   1      44.311  26.837  38.445  1.00  0.00    -0.200 F 
ATOM     71  C   UNL A   1      44.282  25.176  36.777  1.00  0.00     0.200 A 
ATOM     72  F   UNL A   1      44.309  23.581  35.042  1.00  0.00    -0.200 F 
ATOM     73  F   UNL A   1      44.812  24.285  37.624  1.00  0.00    -0.200 F 
ENDBRANCH  49  63
BRANCH  50  74
ATOM     74  C   UNL A   1      42.413  24.227  26.931  1.00  0.00     0.064 A 
ATOM     75  C   UNL A   1      43.297  23.732  25.960  1.00  0.00     0.173 A 
ATOM     76  C   UNL A   1      41.420  23.337  27.386  1.00  0.00     0.173 A 
ATOM     77  F   UNL A   1      44.297  24.501  25.506  1.00  0.00    -0.203 F 
ATOM     78  C   UNL A   1      43.210  22.417  25.491  1.00  0.00     0.198 A 
ATOM     79  C   UNL A   1      41.330  22.027  26.913  1.00  0.00     0.198 A 
ATOM     80  F   UNL A   1      40.577  23.689  28.367  1.00  0.00    -0.203 F 
ATOM     81  F   UNL A   1      44.111  21.960  24.609  1.00  0.00    -0.200 F 
ATOM     82  C   UNL A   1      42.233  21.561  25.976  1.00  0.00     0.200 A 
ATOM     83  F   UNL A   1      40.402  21.201  27.418  1.00  0.00    -0.200 F 
ATOM     84  F   UNL A   1      42.188  20.284  25.574  1.00  0.00    -0.200 F 
ENDBRANCH  50  74
BRANCH  62  85
ATOM     85  C   UNL A   1      45.657  29.257  28.890  1.00  0.00     0.064 A 
ATOM     86  C   UNL A   1      44.716  30.075  28.240  1.00  0.00     0.173 A 
ATOM     87  C   UNL A   1      47.002  29.433  28.543  1.00  0.00     0.173 A 
ATOM     88  F   UNL A   1      43.424  30.051  28.583  1.00  0.00    -0.203 F 
ATOM     89  C   UNL A   1      45.100  30.991  27.261  1.00  0.00     0.198 A 
ATOM     90  C   UNL A   1      47.389  30.375  27.592  1.00  0.00     0.198 A 
ATOM     91  F   UNL A   1      47.955  28.724  29.168  1.00  0.00    -0.203 F 
ATOM     92  F   UNL A   1      44.178  31.751  26.652  1.00  0.00    -0.200 F 
ATOM     93  C   UNL A   1      46.437  31.145  26.943  1.00  0.00     0.200 A 
ATOM     94  F   UNL A   1      48.690  30.556  27.326  1.00  0.00    -0.200 F 
ATOM     95  F   UNL A   1      46.813  32.055  26.033  1.00  0.00    -0.200 F 
ENDBRANCH  62  85
ENDBRANCH  36  37
ENDBRANCH  28  31
ENDBRANCH  26  27
ENDBRANCH  25  26
ENDBRANCH   1  25
TORSDOF 16
ENDMDL
MODEL 3
REMARK VINA RESULT:     -12.5      0.859      1.804
REMARK SMILES N#CCCn1cc(C(=O)NCCCCNC(=O)c2ccc(-c3c4nc(c(-c5c(F)c(F)c(F)c(F)c5F)c5ccc([nH]5)c(-c5c(F)c(F)c(F)c(F)c5F)c5nc(c(-c6c(F)c(F)c(F)c(F)c6F)c6ccc3[nH]6)C=C5)C=C4)cc2)c(-c2cccc([N+](=O)[O-])c2)n1
REMARK SMILES IDX 12 1 11 2 10 3 8 4 9 5 7 7 5 8 6 9 91 10 81 11 4 12 3 13
REMARK SMILES IDX 2 14 1 15 82 16 83 17 90 18 84 19 86 20 85 21 87 22 88 23
REMARK SMILES IDX 89 24 13 25 14 26 15 27 16 28 17 30 18 31 19 32 80 33 20 34
REMARK SMILES IDX 79 35 21 36 22 37 23 38 73 39 24 40 78 41 72 42 74 43 25 44
REMARK SMILES IDX 77 45 71 46 70 47 26 49 58 50 38 51 57 52 39 53 42 54 56 55
REMARK SMILES IDX 75 56 40 57 41 58 55 60 76 61 43 62 27 63 28 64 36 65 29 66
REMARK SMILES IDX 30 67 34 68 37 69 31 70 32 71 35 72 33 73 59 74 60 75 68 76
REMARK SMILES IDX 61 77 62 78 66 79 69 80 63 81 64 82 67 83 65 84 44 85 45 86
REMARK SMILES IDX 53 87 46 88 47 89 51 90 54 91 48 92 49 93 52 94 50 95
REMARK H PARENT 10 6 15 29 74 48 42 59
REMARK Flexibility Score: inf
ROOT
ATOM      1  C   UNL A   1      37.427  23.226  25.946  1.00  0.00     0.023 C 
ENDROOT
BRANCH   1   2
ATOM      2  C   UNL A   1      36.054  22.832  25.402  1.00  0.00     0.116 C 
BRANCH   2   3
ATOM      3  N   UNL A   1      35.081  22.709  26.463  1.00  0.00    -0.352 N 
ATOM      4  C   UNL A   1      33.925  21.981  26.574  1.00  0.00     0.255 C 
ATOM      5  O   UNL A   1      33.331  22.089  27.646  1.00  0.00    -0.269 OA
ATOM      6  H   UNL A   1      35.288  23.253  27.257  1.00  0.00     0.163 HD
BRANCH   4   7
ATOM      7  C   UNL A   1      33.478  21.086  25.515  1.00  0.00     0.085 A 
ATOM      8  N   UNL A   1      32.932  19.317  24.318  1.00  0.00    -0.270 N 
ATOM      9  C   UNL A   1      33.760  19.748  25.310  1.00  0.00     0.123 A 
ATOM     10  N   UNL A   1      32.220  20.305  23.765  1.00  0.00    -0.172 NA
ATOM     11  C   UNL A   1      32.638  21.417  24.395  1.00  0.00     0.105 A 
BRANCH   8  12
ATOM     12  C   UNL A   1      32.803  17.933  23.889  1.00  0.00     0.159 C 
BRANCH  12  13
ATOM     13  C   UNL A   1      34.079  17.265  23.398  1.00  0.00     0.144 C 
BRANCH  13  14
ATOM     14  C   UNL A   1      34.484  16.199  24.404  1.00  0.00     0.064 C 
ATOM     15  N   UNL A   1      34.821  15.315  25.238  1.00  0.00    -0.198 NA
ENDBRANCH  13  14
ENDBRANCH  12  13
ENDBRANCH   8  12
BRANCH  11  16
ATOM     16  C   UNL A   1      32.209  22.739  23.933  1.00  0.00     0.010 A 
ATOM     17  C   UNL A   1      31.045  23.325  24.460  1.00  0.00     0.011 A 
ATOM     18  C   UNL A   1      32.952  23.441  22.978  1.00  0.00     0.096 A 
ATOM     19  C   UNL A   1      30.588  24.562  24.001  1.00  0.00     0.008 A 
ATOM     20  C   UNL A   1      32.488  24.683  22.519  1.00  0.00     0.270 A 
ATOM     21  C   UNL A   1      31.303  25.243  23.020  1.00  0.00     0.085 A 
BRANCH  20  22
ATOM     22  N   UNL A   1      33.240  25.400  21.482  1.00  0.00     0.062 N 
ATOM     23  O   UNL A   1      34.034  26.279  21.850  1.00  0.00    -0.258 OA
ATOM     24  O   UNL A   1      33.033  25.094  20.300  1.00  0.00    -0.258 OA
ENDBRANCH  20  22
ENDBRANCH  11  16
ENDBRANCH   4   7
ENDBRANCH   2   3
ENDBRANCH   1   2
BRANCH   1  25
ATOM     25  C   UNL A   1      38.547  22.221  25.636  1.00  0.00     0.023 C 
BRANCH  25  26
ATOM     26  C   UNL A   1      39.660  22.164  26.677  1.00  0.00     0.116 C 
BRANCH  26  27
ATOM     27  N   UNL A   1      40.996  22.190  26.081  1.00  0.00    -0.352 N 
ATOM     28  C   UNL A   1      41.826  23.280  25.886  1.00  0.00     0.251 C 
ATOM     29  H   UNL A   1      41.349  21.322  25.779  1.00  0.00     0.163 HD
ATOM     30  O   UNL A   1      42.721  23.261  25.063  1.00  0.00    -0.269 OA
BRANCH  28  31
ATOM     31  C   UNL A   1      41.614  24.468  26.730  1.00  0.00     0.039 A 
ATOM     32  C   UNL A   1      42.175  24.573  28.004  1.00  0.00     0.014 A 
ATOM     33  C   UNL A   1      40.866  25.505  26.186  1.00  0.00     0.014 A 
ATOM     34  C   UNL A   1      42.048  25.779  28.692  1.00  0.00     0.010 A 
ATOM     35  C   UNL A   1      40.869  26.734  26.794  1.00  0.00     0.010 A 
ATOM     36  C   UNL A   1      41.410  26.863  28.070  1.00  0.00    -0.014 A 
BRANCH  36  37
ATOM     37  C   UNL A   1      41.390  28.183  28.694  1.00  0.00     0.031 A 
ATOM     38  C   UNL A   1      42.433  29.134  28.210  1.00  0.00     0.074 A 
ATOM     39  C   UNL A   1      40.354  28.597  29.456  1.00  0.00     0.049 A 
ATOM     40  N   UNL A   1      43.347  29.735  28.899  1.00  0.00    -0.248 NA
ATOM     41  C   UNL A   1      42.525  29.382  26.760  1.00  0.00     0.031 C 
ATOM     42  C   UNL A   1      39.100  27.893  29.752  1.00  0.00     0.029 A 
ATOM     43  N   UNL A   1      40.154  29.810  30.037  1.00  0.00    -0.354 N 
ATOM     44  C   UNL A   1      44.025  30.566  28.008  1.00  0.00     0.074 A 
ATOM     45  C   UNL A   1      43.579  30.198  26.689  1.00  0.00     0.031 C 
ATOM     46  C   UNL A   1      38.191  28.768  30.235  1.00  0.00     0.029 A 
ATOM     47  C   UNL A   1      38.848  30.044  30.447  1.00  0.00     0.049 A 
ATOM     48  H   UNL A   1      40.876  30.467  30.157  1.00  0.00     0.167 HD
ATOM     49  C   UNL A   1      44.741  31.642  28.440  1.00  0.00     0.037 A 
ATOM     50  C   UNL A   1      38.338  31.217  30.897  1.00  0.00     0.037 A 
ATOM     51  C   UNL A   1      45.048  31.537  29.843  1.00  0.00     0.049 A 
ATOM     52  C   UNL A   1      39.486  32.063  31.312  1.00  0.00     0.074 A 
ATOM     53  C   UNL A   1      45.736  30.615  30.610  1.00  0.00     0.029 A 
ATOM     54  N   UNL A   1      44.294  32.260  30.734  1.00  0.00    -0.354 N 
ATOM     55  N   UNL A   1      40.256  31.790  32.329  1.00  0.00    -0.248 NA
ATOM     56  C   UNL A   1      40.060  32.949  30.312  1.00  0.00     0.031 C 
ATOM     57  C   UNL A   1      44.966  30.486  31.803  1.00  0.00     0.029 A 
ATOM     58  C   UNL A   1      43.908  31.393  31.725  1.00  0.00     0.049 A 
ATOM     59  H   UNL A   1      44.073  33.218  30.674  1.00  0.00     0.167 HD
ATOM     60  C   UNL A   1      41.534  32.104  31.896  1.00  0.00     0.074 A 
ATOM     61  C   UNL A   1      41.343  32.888  30.677  1.00  0.00     0.031 C 
ATOM     62  C   UNL A   1      42.630  31.459  32.395  1.00  0.00     0.037 A 
BRANCH  49  63
ATOM     63  C   UNL A   1      44.879  32.934  27.676  1.00  0.00     0.064 A 
ATOM     64  C   UNL A   1      46.112  33.269  27.082  1.00  0.00     0.173 A 
ATOM     65  C   UNL A   1      43.934  33.981  27.744  1.00  0.00     0.173 A 
ATOM     66  F   UNL A   1      47.096  32.361  26.994  1.00  0.00    -0.203 F 
ATOM     67  C   UNL A   1      46.393  34.567  26.644  1.00  0.00     0.198 A 
ATOM     68  C   UNL A   1      44.198  35.260  27.256  1.00  0.00     0.198 A 
ATOM     69  F   UNL A   1      42.767  33.843  28.385  1.00  0.00    -0.203 F 
ATOM     70  F   UNL A   1      47.620  34.867  26.195  1.00  0.00    -0.200 F 
ATOM     71  C   UNL A   1      45.436  35.561  26.733  1.00  0.00     0.200 A 
ATOM     72  F   UNL A   1      43.264  36.214  27.372  1.00  0.00    -0.200 F 
ATOM     73  F   UNL A   1      45.721  36.817  26.364  1.00  0.00    -0.200 F 
ENDBRANCH  49  63
BRANCH  50  74
ATOM     74  C   UNL A   1      36.972  31.757  30.703  1.00  0.00     0.064 A 
ATOM     75  C   UNL A   1      36.122  31.989  31.795  1.00  0.00     0.173 A 
ATOM     76  C   UNL A   1      36.573  32.310  29.470  1.00  0.00     0.173 A 
ATOM     77  F   UNL A   1      36.450  31.533  33.013  1.00  0.00    -0.203 F 
ATOM     78  C   UNL A   1      34.956  32.752  31.668  1.00  0.00     0.198 A 
ATOM     79  C   UNL A   1      35.406  33.066  29.343  1.00  0.00     0.198 A 
ATOM     80  F   UNL A   1      37.355  32.210  28.385  1.00  0.00    -0.203 F 
ATOM     81  F   UNL A   1      34.201  33.005  32.747  1.00  0.00    -0.200 F 
ATOM     82  C   UNL A   1      34.605  33.299  30.444  1.00  0.00     0.200 A 
ATOM     83  F   UNL A   1      35.099  33.619  28.161  1.00  0.00    -0.200 F 
ATOM     84  F   UNL A   1      33.523  34.081  30.335  1.00  0.00    -0.200 F 
ENDBRANCH  50  74
BRANCH  62  85
ATOM     85  C   UNL A   1      42.440  30.559  33.588  1.00  0.00     0.064 A 
ATOM     86  C   UNL A   1      42.427  31.008  34.921  1.00  0.00     0.173 A 
ATOM     87  C   UNL A   1      42.105  29.218  33.365  1.00  0.00     0.173 A 
ATOM     88  F   UNL A   1      42.630  32.295  35.220  1.00  0.00    -0.203 F 
ATOM     89  C   UNL A   1      42.138  30.144  35.977  1.00  0.00     0.198 A 
ATOM     90  C   UNL A   1      41.780  28.366  34.417  1.00  0.00     0.198 A 
ATOM     91  F   UNL A   1      42.043  28.742  32.111  1.00  0.00    -0.203 F 
ATOM     92  F   UNL A   1      42.144  30.600  37.239  1.00  0.00    -0.200 F 
ATOM     93  C   UNL A   1      41.808  28.825  35.724  1.00  0.00     0.200 A 
ATOM     94  F   UNL A   1      41.410  27.103  34.161  1.00  0.00    -0.200 F 
ATOM     95  F   UNL A   1      41.487  28.004  36.734  1.00  0.00    -0.200 F 
ENDBRANCH  62  85
ENDBRANCH  36  37
ENDBRANCH  28  31
ENDBRANCH  26  27
ENDBRANCH  25  26
ENDBRANCH   1  25
TORSDOF 16
ENDMDL
