MODEL 1
REMARK VINA RESULT:     -12.8      0.000      0.000
REMARK SMILES O=Cc1ccc(-c2cnccc2C(=O)NCCCCNC(=O)c2ccc(-c3c4nc(c(-c5c(F)c(F)c(F)c(F)c5F)c5ccc([nH]5)c(-c5c(F)c(F)c(F)c(F)c5F)c5nc(c(-c6c(F)c(F)c(F)c(F)c6F)c6ccc3[nH]6)C=C5)C=C4)cc2)s1
REMARK SMILES IDX 17 1 16 2 15 3 13 4 14 5 12 7 7 8 8 9 9 10 11 11 10 12 6 13
REMARK SMILES IDX 3 14 4 15 86 16 5 17 2 18 1 19 18 20 19 21 20 22 21 23 22 25
REMARK SMILES IDX 23 26 24 27 85 28 25 29 84 30 26 31 27 32 28 33 78 34 29 35
REMARK SMILES IDX 83 36 77 37 79 38 30 39 82 40 76 41 75 42 31 44 63 45 43 46
REMARK SMILES IDX 62 47 44 48 47 49 61 50 80 51 45 52 46 53 60 55 81 56 48 57
REMARK SMILES IDX 32 58 33 59 41 60 34 61 35 62 39 63 42 64 36 65 37 66 40 67
REMARK SMILES IDX 38 68 64 69 65 70 73 71 66 72 67 73 71 74 74 75 68 76 69 77
REMARK SMILES IDX 72 78 70 79 49 80 50 81 58 82 51 83 52 84 56 85 59 86 53 87
REMARK SMILES IDX 54 88 57 89 55 90
REMARK H PARENT 15 6 20 24 79 43 47 54
REMARK Flexibility Score: inf
ROOT
ATOM      1  C   UNL A   1      37.013  21.482  24.590  1.00  0.00     0.023 C 
ENDROOT
BRANCH   1   2
ATOM      2  C   UNL A   1      36.603  22.483  25.658  1.00  0.00     0.116 C 
BRANCH   2   3
ATOM      3  N   UNL A   1      35.642  22.055  26.637  1.00  0.00    -0.352 N 
ATOM      4  C   UNL A   1      34.395  21.502  26.459  1.00  0.00     0.252 C 
ATOM      5  O   UNL A   1      33.820  21.103  27.475  1.00  0.00    -0.269 OA
ATOM      6  H   UNL A   1      35.917  22.175  27.574  1.00  0.00     0.163 HD
BRANCH   4   7
ATOM      7  C   UNL A   1      33.639  21.440  25.165  1.00  0.00     0.051 A 
ATOM      8  C   UNL A   1      33.266  20.320  24.399  1.00  0.00     0.023 A 
ATOM      9  C   UNL A   1      32.467  20.569  23.272  1.00  0.00     0.121 A 
ATOM     10  N   UNL A   1      32.037  21.782  22.857  1.00  0.00    -0.264 NA
ATOM     11  C   UNL A   1      33.184  22.711  24.745  1.00  0.00     0.034 A 
ATOM     12  C   UNL A   1      32.406  22.831  23.608  1.00  0.00     0.112 A 
BRANCH   8  13
ATOM     13  C   UNL A   1      33.616  18.923  24.655  1.00  0.00     0.037 A 
ATOM     14  C   UNL A   1      33.424  16.545  25.305  1.00  0.00     0.067 A 
ATOM     15  C   UNL A   1      34.623  16.819  24.679  1.00  0.00     0.024 A 
ATOM     16  S   UNL A   1      32.519  17.960  25.578  1.00  0.00    -0.132 S 
ATOM     17  C   UNL A   1      34.739  18.197  24.308  1.00  0.00     0.021 A 
BRANCH  14  18
ATOM     18  C   UNL A   1      32.894  15.271  25.736  1.00  0.00     0.270 C 
ATOM     19  O   UNL A   1      33.320  14.182  25.366  1.00  0.00    -0.297 OA
ENDBRANCH  14  18
ENDBRANCH   8  13
ENDBRANCH   4   7
ENDBRANCH   2   3
ENDBRANCH   1   2
BRANCH   1  20
ATOM     20  C   UNL A   1      37.832  20.272  25.035  1.00  0.00     0.023 C 
BRANCH  20  21
ATOM     21  C   UNL A   1      39.169  20.523  25.728  1.00  0.00     0.116 C 
BRANCH  21  22
ATOM     22  N   UNL A   1      40.075  19.382  25.765  1.00  0.00    -0.352 N 
ATOM     23  C   UNL A   1      41.406  19.295  26.106  1.00  0.00     0.251 C 
ATOM     24  H   UNL A   1      39.664  18.527  25.500  1.00  0.00     0.163 HD
ATOM     25  O   UNL A   1      41.986  18.215  26.047  1.00  0.00    -0.269 OA
BRANCH  23  26
ATOM     26  C   UNL A   1      42.175  20.498  26.480  1.00  0.00     0.039 A 
ATOM     27  C   UNL A   1      42.865  21.184  25.474  1.00  0.00     0.014 A 
ATOM     28  C   UNL A   1      42.195  20.973  27.790  1.00  0.00     0.014 A 
ATOM     29  C   UNL A   1      43.454  22.415  25.756  1.00  0.00     0.010 A 
ATOM     30  C   UNL A   1      42.701  22.241  28.050  1.00  0.00     0.010 A 
ATOM     31  C   UNL A   1      43.311  22.986  27.029  1.00  0.00    -0.014 A 
BRANCH  31  32
ATOM     32  C   UNL A   1      43.749  24.377  27.307  1.00  0.00     0.031 A 
ATOM     33  C   UNL A   1      42.767  25.388  27.822  1.00  0.00     0.074 A 
ATOM     34  C   UNL A   1      45.008  24.745  26.996  1.00  0.00     0.049 A 
ATOM     35  N   UNL A   1      42.922  26.674  28.006  1.00  0.00    -0.248 NA
ATOM     36  C   UNL A   1      41.417  24.893  28.136  1.00  0.00     0.031 C 
ATOM     37  C   UNL A   1      46.033  23.865  26.431  1.00  0.00     0.029 A 
ATOM     38  N   UNL A   1      45.637  25.961  27.093  1.00  0.00    -0.354 N 
ATOM     39  C   UNL A   1      41.687  27.144  28.429  1.00  0.00     0.074 A 
ATOM     40  C   UNL A   1      40.780  26.017  28.428  1.00  0.00     0.031 C 
ATOM     41  C   UNL A   1      47.167  24.562  26.255  1.00  0.00     0.029 A 
ATOM     42  C   UNL A   1      46.939  25.946  26.655  1.00  0.00     0.049 A 
ATOM     43  H   UNL A   1      45.196  26.769  27.445  1.00  0.00     0.167 HD
ATOM     44  C   UNL A   1      41.348  28.400  28.806  1.00  0.00     0.037 A 
ATOM     45  C   UNL A   1      47.844  26.939  26.578  1.00  0.00     0.037 A 
ATOM     46  C   UNL A   1      42.267  29.505  28.844  1.00  0.00     0.049 A 
ATOM     47  C   UNL A   1      47.449  28.319  27.029  1.00  0.00     0.074 A 
ATOM     48  C   UNL A   1      42.047  30.799  29.281  1.00  0.00     0.029 A 
ATOM     49  N   UNL A   1      43.591  29.442  28.429  1.00  0.00    -0.354 N 
ATOM     50  N   UNL A   1      46.296  28.738  27.490  1.00  0.00    -0.248 NA
ATOM     51  C   UNL A   1      48.480  29.363  26.948  1.00  0.00     0.031 C 
ATOM     52  C   UNL A   1      43.226  31.529  29.098  1.00  0.00     0.029 A 
ATOM     53  C   UNL A   1      44.194  30.679  28.584  1.00  0.00     0.049 A 
ATOM     54  H   UNL A   1      44.035  28.637  28.076  1.00  0.00     0.167 HD
ATOM     55  C   UNL A   1      46.466  30.085  27.774  1.00  0.00     0.074 A 
ATOM     56  C   UNL A   1      47.840  30.410  27.450  1.00  0.00     0.031 C 
ATOM     57  C   UNL A   1      45.564  30.976  28.256  1.00  0.00     0.037 A 
BRANCH  44  58
ATOM     58  C   UNL A   1      39.924  28.636  29.217  1.00  0.00     0.064 A 
ATOM     59  C   UNL A   1      39.489  28.406  30.530  1.00  0.00     0.173 A 
ATOM     60  C   UNL A   1      38.986  29.116  28.290  1.00  0.00     0.173 A 
ATOM     61  F   UNL A   1      40.344  27.935  31.452  1.00  0.00    -0.203 F 
ATOM     62  C   UNL A   1      38.161  28.612  30.893  1.00  0.00     0.198 A 
ATOM     63  C   UNL A   1      37.664  29.350  28.665  1.00  0.00     0.198 A 
ATOM     64  F   UNL A   1      39.348  29.357  27.021  1.00  0.00    -0.203 F 
ATOM     65  F   UNL A   1      37.758  28.332  32.140  1.00  0.00    -0.200 F 
ATOM     66  C   UNL A   1      37.252  29.089  29.963  1.00  0.00     0.200 A 
ATOM     67  F   UNL A   1      36.789  29.821  27.767  1.00  0.00    -0.200 F 
ATOM     68  F   UNL A   1      35.974  29.290  30.314  1.00  0.00    -0.200 F 
ENDBRANCH  44  58
BRANCH  45  69
ATOM     69  C   UNL A   1      49.216  26.659  26.084  1.00  0.00     0.064 A 
ATOM     70  C   UNL A   1      49.574  26.945  24.759  1.00  0.00     0.173 A 
ATOM     71  C   UNL A   1      50.199  26.107  26.919  1.00  0.00     0.173 A 
ATOM     72  F   UNL A   1      48.663  27.455  23.916  1.00  0.00    -0.203 F 
ATOM     73  C   UNL A   1      50.855  26.675  24.282  1.00  0.00     0.198 A 
ATOM     74  C   UNL A   1      51.488  25.862  26.449  1.00  0.00     0.198 A 
ATOM     75  F   UNL A   1      49.912  25.821  28.197  1.00  0.00    -0.203 F 
ATOM     76  F   UNL A   1      51.157  26.922  23.001  1.00  0.00    -0.200 F 
ATOM     77  C   UNL A   1      51.813  26.139  25.130  1.00  0.00     0.200 A 
ATOM     78  F   UNL A   1      52.415  25.357  27.275  1.00  0.00    -0.200 F 
ATOM     79  F   UNL A   1      53.047  25.884  24.673  1.00  0.00    -0.200 F 
ENDBRANCH  45  69
BRANCH  57  80
ATOM     80  C   UNL A   1      46.043  32.380  28.478  1.00  0.00     0.064 A 
ATOM     81  C   UNL A   1      46.636  32.765  29.689  1.00  0.00     0.173 A 
ATOM     82  C   UNL A   1      45.948  33.334  27.454  1.00  0.00     0.173 A 
ATOM     83  F   UNL A   1      46.733  31.892  30.702  1.00  0.00    -0.203 F 
ATOM     84  C   UNL A   1      47.102  34.064  29.872  1.00  0.00     0.198 A 
ATOM     85  C   UNL A   1      46.439  34.623  27.632  1.00  0.00     0.198 A 
ATOM     86  F   UNL A   1      45.392  33.009  26.277  1.00  0.00    -0.203 F 
ATOM     87  F   UNL A   1      47.630  34.424  31.050  1.00  0.00    -0.200 F 
ATOM     88  C   UNL A   1      47.010  34.989  28.843  1.00  0.00     0.200 A 
ATOM     89  F   UNL A   1      46.359  35.513  26.633  1.00  0.00    -0.200 F 
ATOM     90  F   UNL A   1      47.467  36.237  29.019  1.00  0.00    -0.200 F 
ENDBRANCH  57  80
ENDBRANCH  31  32
ENDBRANCH  23  26
ENDBRANCH  21  22
ENDBRANCH  20  21
ENDBRANCH   1  20
TORSDOF 13
ENDMDL
MODEL 2
REMARK VINA RESULT:     -12.8      6.913     11.113
REMARK SMILES O=Cc1ccc(-c2cnccc2C(=O)NCCCCNC(=O)c2ccc(-c3c4nc(c(-c5c(F)c(F)c(F)c(F)c5F)c5ccc([nH]5)c(-c5c(F)c(F)c(F)c(F)c5F)c5nc(c(-c6c(F)c(F)c(F)c(F)c6F)c6ccc3[nH]6)C=C5)C=C4)cc2)s1
REMARK SMILES IDX 17 1 16 2 15 3 13 4 14 5 12 7 7 8 8 9 9 10 11 11 10 12 6 13
REMARK SMILES IDX 3 14 4 15 86 16 5 17 2 18 1 19 18 20 19 21 20 22 21 23 22 25
REMARK SMILES IDX 23 26 24 27 85 28 25 29 84 30 26 31 27 32 28 33 78 34 29 35
REMARK SMILES IDX 83 36 77 37 79 38 30 39 82 40 76 41 75 42 31 44 63 45 43 46
REMARK SMILES IDX 62 47 44 48 47 49 61 50 80 51 45 52 46 53 60 55 81 56 48 57
REMARK SMILES IDX 32 58 33 59 41 60 34 61 35 62 39 63 42 64 36 65 37 66 40 67
REMARK SMILES IDX 38 68 64 69 65 70 73 71 66 72 67 73 71 74 74 75 68 76 69 77
REMARK SMILES IDX 72 78 70 79 49 80 50 81 58 82 51 83 52 84 56 85 59 86 53 87
REMARK SMILES IDX 54 88 57 89 55 90
REMARK H PARENT 15 6 20 24 79 43 47 54
REMARK Flexibility Score: inf
ROOT
ATOM      1  C   UNL A   1      31.588  30.388  26.542  1.00  0.00     0.023 C 
ENDROOT
BRANCH   1   2
ATOM      2  C   UNL A   1      32.883  29.684  26.169  1.00  0.00     0.116 C 
BRANCH   2   3
ATOM      3  N   UNL A   1      33.226  29.618  24.775  1.00  0.00    -0.352 N 
ATOM      4  C   UNL A   1      32.501  29.123  23.716  1.00  0.00     0.252 C 
ATOM      5  O   UNL A   1      32.977  29.303  22.592  1.00  0.00    -0.269 OA
ATOM      6  H   UNL A   1      34.112  29.980  24.543  1.00  0.00     0.163 HD
BRANCH   4   7
ATOM      7  C   UNL A   1      31.251  28.301  23.816  1.00  0.00     0.051 A 
ATOM      8  C   UNL A   1      29.920  28.656  23.527  1.00  0.00     0.023 A 
ATOM      9  C   UNL A   1      28.963  27.634  23.621  1.00  0.00     0.121 A 
ATOM     10  N   UNL A   1      29.206  26.351  23.973  1.00  0.00    -0.264 NA
ATOM     11  C   UNL A   1      31.514  26.959  24.173  1.00  0.00     0.034 A 
ATOM     12  C   UNL A   1      30.483  26.040  24.240  1.00  0.00     0.112 A 
BRANCH   8  13
ATOM     13  C   UNL A   1      29.428  29.976  23.132  1.00  0.00     0.037 A 
ATOM     14  C   UNL A   1      28.505  31.813  21.757  1.00  0.00     0.067 A 
ATOM     15  C   UNL A   1      28.563  32.143  23.097  1.00  0.00     0.024 A 
ATOM     16  S   UNL A   1      29.235  30.307  21.447  1.00  0.00    -0.132 S 
ATOM     17  C   UNL A   1      29.105  31.083  23.893  1.00  0.00     0.021 A 
BRANCH  14  18
ATOM     18  C   UNL A   1      27.939  32.565  20.661  1.00  0.00     0.270 C 
ATOM     19  O   UNL A   1      27.370  33.645  20.781  1.00  0.00    -0.297 OA
ENDBRANCH  14  18
ENDBRANCH   8  13
ENDBRANCH   4   7
ENDBRANCH   2   3
ENDBRANCH   1   2
BRANCH   1  20
ATOM     20  C   UNL A   1      31.580  31.915  26.508  1.00  0.00     0.023 C 
BRANCH  20  21
ATOM     21  C   UNL A   1      32.691  32.657  27.248  1.00  0.00     0.116 C 
BRANCH  21  22
ATOM     22  N   UNL A   1      32.372  34.024  27.639  1.00  0.00    -0.352 N 
ATOM     23  C   UNL A   1      32.982  34.873  28.536  1.00  0.00     0.251 C 
ATOM     24  H   UNL A   1      31.587  34.406  27.185  1.00  0.00     0.163 HD
ATOM     25  O   UNL A   1      32.525  35.996  28.726  1.00  0.00    -0.269 OA
BRANCH  23  26
ATOM     26  C   UNL A   1      34.143  34.431  29.332  1.00  0.00     0.039 A 
ATOM     27  C   UNL A   1      33.908  33.822  30.569  1.00  0.00     0.014 A 
ATOM     28  C   UNL A   1      35.447  34.577  28.862  1.00  0.00     0.014 A 
ATOM     29  C   UNL A   1      34.965  33.237  31.265  1.00  0.00     0.010 A 
ATOM     30  C   UNL A   1      36.485  33.915  29.507  1.00  0.00     0.010 A 
ATOM     31  C   UNL A   1      36.249  33.216  30.701  1.00  0.00    -0.014 A 
BRANCH  31  32
ATOM     32  C   UNL A   1      37.350  32.432  31.315  1.00  0.00     0.031 A 
ATOM     33  C   UNL A   1      37.854  32.786  32.683  1.00  0.00     0.074 A 
ATOM     34  C   UNL A   1      37.957  31.471  30.591  1.00  0.00     0.049 A 
ATOM     35  N   UNL A   1      38.883  32.308  33.336  1.00  0.00    -0.248 NA
ATOM     36  C   UNL A   1      37.127  33.846  33.399  1.00  0.00     0.031 C 
ATOM     37  C   UNL A   1      37.596  31.082  29.226  1.00  0.00     0.029 A 
ATOM     38  N   UNL A   1      39.020  30.657  30.894  1.00  0.00    -0.354 N 
ATOM     39  C   UNL A   1      38.941  33.026  34.522  1.00  0.00     0.074 A 
ATOM     40  C   UNL A   1      37.877  34.005  34.479  1.00  0.00     0.031 C 
ATOM     41  C   UNL A   1      38.404  30.090  28.819  1.00  0.00     0.029 A 
ATOM     42  C   UNL A   1      39.366  29.801  29.876  1.00  0.00     0.049 A 
ATOM     43  H   UNL A   1      39.490  30.683  31.759  1.00  0.00     0.167 HD
ATOM     44  C   UNL A   1      39.793  32.866  35.562  1.00  0.00     0.037 A 
ATOM     45  C   UNL A   1      40.355  28.890  29.803  1.00  0.00     0.037 A 
ATOM     46  C   UNL A   1      40.822  31.863  35.613  1.00  0.00     0.049 A 
ATOM     47  C   UNL A   1      41.272  28.715  30.983  1.00  0.00     0.074 A 
ATOM     48  C   UNL A   1      41.690  31.566  36.649  1.00  0.00     0.029 A 
ATOM     49  N   UNL A   1      41.118  30.987  34.578  1.00  0.00    -0.354 N 
ATOM     50  N   UNL A   1      41.276  29.355  32.127  1.00  0.00    -0.248 NA
ATOM     51  C   UNL A   1      42.319  27.691  30.863  1.00  0.00     0.031 C 
ATOM     52  C   UNL A   1      42.534  30.533  36.229  1.00  0.00     0.029 A 
ATOM     53  C   UNL A   1      42.167  30.160  34.945  1.00  0.00     0.049 A 
ATOM     54  H   UNL A   1      40.652  30.957  33.712  1.00  0.00     0.167 HD
ATOM     55  C   UNL A   1      42.308  28.801  32.870  1.00  0.00     0.074 A 
ATOM     56  C   UNL A   1      42.897  27.759  32.054  1.00  0.00     0.031 C 
ATOM     57  C   UNL A   1      42.734  29.128  34.115  1.00  0.00     0.037 A 
BRANCH  44  58
ATOM     58  C   UNL A   1      39.637  33.795  36.731  1.00  0.00     0.064 A 
ATOM     59  C   UNL A   1      38.845  33.456  37.839  1.00  0.00     0.173 A 
ATOM     60  C   UNL A   1      40.300  35.031  36.753  1.00  0.00     0.173 A 
ATOM     61  F   UNL A   1      38.179  32.291  37.862  1.00  0.00    -0.203 F 
ATOM     62  C   UNL A   1      38.695  34.334  38.908  1.00  0.00     0.198 A 
ATOM     63  C   UNL A   1      40.171  35.894  37.839  1.00  0.00     0.198 A 
ATOM     64  F   UNL A   1      41.073  35.403  35.721  1.00  0.00    -0.203 F 
ATOM     65  F   UNL A   1      37.889  34.011  39.930  1.00  0.00    -0.200 F 
ATOM     66  C   UNL A   1      39.362  35.549  38.911  1.00  0.00     0.200 A 
ATOM     67  F   UNL A   1      40.825  37.064  37.844  1.00  0.00    -0.200 F 
ATOM     68  F   UNL A   1      39.218  36.393  39.942  1.00  0.00    -0.200 F 
ENDBRANCH  44  58
BRANCH  45  69
ATOM     69  C   UNL A   1      40.510  28.057  28.583  1.00  0.00     0.064 A 
ATOM     70  C   UNL A   1      39.885  26.805  28.486  1.00  0.00     0.173 A 
ATOM     71  C   UNL A   1      41.279  28.488  27.492  1.00  0.00     0.173 A 
ATOM     72  F   UNL A   1      39.156  26.341  29.511  1.00  0.00    -0.203 F 
ATOM     73  C   UNL A   1      40.034  26.011  27.351  1.00  0.00     0.198 A 
ATOM     74  C   UNL A   1      41.406  27.703  26.347  1.00  0.00     0.198 A 
ATOM     75  F   UNL A   1      41.893  29.679  27.531  1.00  0.00    -0.203 F 
ATOM     76  F   UNL A   1      39.457  24.803  27.301  1.00  0.00    -0.200 F 
ATOM     77  C   UNL A   1      40.790  26.463  26.279  1.00  0.00     0.200 A 
ATOM     78  F   UNL A   1      42.126  28.150  25.308  1.00  0.00    -0.200 F 
ATOM     79  F   UNL A   1      40.929  25.701  25.187  1.00  0.00    -0.200 F 
ENDBRANCH  45  69
BRANCH  57  80
ATOM     80  C   UNL A   1      43.879  28.337  34.674  1.00  0.00     0.064 A 
ATOM     81  C   UNL A   1      45.204  28.774  34.537  1.00  0.00     0.173 A 
ATOM     82  C   UNL A   1      43.642  27.156  35.392  1.00  0.00     0.173 A 
ATOM     83  F   UNL A   1      45.479  29.889  33.844  1.00  0.00    -0.203 F 
ATOM     84  C   UNL A   1      46.255  28.045  35.085  1.00  0.00     0.198 A 
ATOM     85  C   UNL A   1      44.693  26.444  35.961  1.00  0.00     0.198 A 
ATOM     86  F   UNL A   1      42.390  26.701  35.553  1.00  0.00    -0.203 F 
ATOM     87  F   UNL A   1      47.517  28.458  34.909  1.00  0.00    -0.200 F 
ATOM     88  C   UNL A   1      45.999  26.886  35.802  1.00  0.00     0.200 A 
ATOM     89  F   UNL A   1      44.444  25.330  36.663  1.00  0.00    -0.200 F 
ATOM     90  F   UNL A   1      47.012  26.189  36.336  1.00  0.00    -0.200 F 
ENDBRANCH  57  80
ENDBRANCH  31  32
ENDBRANCH  23  26
ENDBRANCH  21  22
ENDBRANCH  20  21
ENDBRANCH   1  20
TORSDOF 13
ENDMDL
MODEL 3
REMARK VINA RESULT:     -12.8      6.981     12.211
REMARK SMILES O=Cc1ccc(-c2cnccc2C(=O)NCCCCNC(=O)c2ccc(-c3c4nc(c(-c5c(F)c(F)c(F)c(F)c5F)c5ccc([nH]5)c(-c5c(F)c(F)c(F)c(F)c5F)c5nc(c(-c6c(F)c(F)c(F)c(F)c6F)c6ccc3[nH]6)C=C5)C=C4)cc2)s1
REMARK SMILES IDX 17 1 16 2 15 3 13 4 14 5 12 7 7 8 8 9 9 10 11 11 10 12 6 13
REMARK SMILES IDX 3 14 4 15 86 16 5 17 2 18 1 19 18 20 19 21 20 22 21 23 22 25
REMARK SMILES IDX 23 26 24 27 85 28 25 29 84 30 26 31 27 32 28 33 78 34 29 35
REMARK SMILES IDX 83 36 77 37 79 38 30 39 82 40 76 41 75 42 31 44 63 45 43 46
REMARK SMILES IDX 62 47 44 48 47 49 61 50 80 51 45 52 46 53 60 55 81 56 48 57
REMARK SMILES IDX 32 58 33 59 41 60 34 61 35 62 39 63 42 64 36 65 37 66 40 67
REMARK SMILES IDX 38 68 64 69 65 70 73 71 66 72 67 73 71 74 74 75 68 76 69 77
REMARK SMILES IDX 72 78 70 79 49 80 50 81 58 82 51 83 52 84 56 85 59 86 53 87
REMARK SMILES IDX 54 88 57 89 55 90
REMARK H PARENT 15 6 20 24 79 43 47 54
REMARK Flexibility Score: inf
ROOT
ATOM      1  C   UNL A   1      31.910  30.069  26.881  1.00  0.00     0.023 C 
ENDROOT
BRANCH   1   2
ATOM      2  C   UNL A   1      33.134  29.300  26.410  1.00  0.00     0.116 C 
BRANCH   2   3
ATOM      3  N   UNL A   1      33.483  29.392  25.019  1.00  0.00    -0.352 N 
ATOM      4  C   UNL A   1      32.781  28.980  23.910  1.00  0.00     0.252 C 
ATOM      5  O   UNL A   1      33.251  29.295  22.813  1.00  0.00    -0.269 OA
ATOM      6  H   UNL A   1      34.353  29.813  24.831  1.00  0.00     0.163 HD
BRANCH   4   7
ATOM      7  C   UNL A   1      31.566  28.101  23.917  1.00  0.00     0.051 A 
ATOM      8  C   UNL A   1      30.231  28.417  23.601  1.00  0.00     0.023 A 
ATOM      9  C   UNL A   1      29.317  27.352  23.601  1.00  0.00     0.121 A 
ATOM     10  N   UNL A   1      29.605  26.062  23.885  1.00  0.00    -0.264 NA
ATOM     11  C   UNL A   1      31.876  26.753  24.203  1.00  0.00     0.034 A 
ATOM     12  C   UNL A   1      30.885  25.790  24.180  1.00  0.00     0.112 A 
BRANCH   8  13
ATOM     13  C   UNL A   1      29.695  29.737  23.266  1.00  0.00     0.037 A 
ATOM     14  C   UNL A   1      28.664  31.588  21.990  1.00  0.00     0.067 A 
ATOM     15  C   UNL A   1      28.791  31.887  23.332  1.00  0.00     0.024 A 
ATOM     16  S   UNL A   1      29.402  30.103  21.604  1.00  0.00    -0.132 S 
ATOM     17  C   UNL A   1      29.395  30.819  24.071  1.00  0.00     0.021 A 
BRANCH  14  18
ATOM     18  C   UNL A   1      28.025  32.355  20.945  1.00  0.00     0.270 C 
ATOM     19  O   UNL A   1      27.602  33.497  21.084  1.00  0.00    -0.297 OA
ENDBRANCH  14  18
ENDBRANCH   8  13
ENDBRANCH   4   7
ENDBRANCH   2   3
ENDBRANCH   1   2
BRANCH   1  20
ATOM     20  C   UNL A   1      31.879  31.574  26.623  1.00  0.00     0.023 C 
BRANCH  20  21
ATOM     21  C   UNL A   1      32.927  32.444  27.314  1.00  0.00     0.116 C 
BRANCH  21  22
ATOM     22  N   UNL A   1      32.497  33.799  27.633  1.00  0.00    -0.352 N 
ATOM     23  C   UNL A   1      33.032  34.739  28.486  1.00  0.00     0.251 C 
ATOM     24  H   UNL A   1      31.686  34.093  27.158  1.00  0.00     0.163 HD
ATOM     25  O   UNL A   1      32.486  35.830  28.617  1.00  0.00    -0.269 OA
BRANCH  23  26
ATOM     26  C   UNL A   1      34.220  34.433  29.306  1.00  0.00     0.039 A 
ATOM     27  C   UNL A   1      34.026  33.914  30.590  1.00  0.00     0.014 A 
ATOM     28  C   UNL A   1      35.512  34.617  28.815  1.00  0.00     0.014 A 
ATOM     29  C   UNL A   1      35.118  33.452  31.323  1.00  0.00     0.010 A 
ATOM     30  C   UNL A   1      36.589  34.072  29.503  1.00  0.00     0.010 A 
ATOM     31  C   UNL A   1      36.399  33.460  30.752  1.00  0.00    -0.014 A 
BRANCH  31  32
ATOM     32  C   UNL A   1      37.547  32.796  31.418  1.00  0.00     0.031 A 
ATOM     33  C   UNL A   1      38.238  31.641  30.755  1.00  0.00     0.074 A 
ATOM     34  C   UNL A   1      37.894  33.175  32.664  1.00  0.00     0.049 A 
ATOM     35  N   UNL A   1      39.171  30.853  31.226  1.00  0.00    -0.248 NA
ATOM     36  C   UNL A   1      37.793  31.301  29.394  1.00  0.00     0.031 C 
ATOM     37  C   UNL A   1      37.254  34.243  33.434  1.00  0.00     0.029 A 
ATOM     38  N   UNL A   1      38.860  32.692  33.512  1.00  0.00    -0.354 N 
ATOM     39  C   UNL A   1      39.403  29.912  30.232  1.00  0.00     0.074 A 
ATOM     40  C   UNL A   1      38.480  30.195  29.154  1.00  0.00     0.031 C 
ATOM     41  C   UNL A   1      37.858  34.352  34.629  1.00  0.00     0.029 A 
ATOM     42  C   UNL A   1      38.900  33.336  34.725  1.00  0.00     0.049 A 
ATOM     43  H   UNL A   1      39.467  31.954  33.273  1.00  0.00     0.167 HD
ATOM     44  C   UNL A   1      40.320  28.916  30.214  1.00  0.00     0.037 A 
ATOM     45  C   UNL A   1      39.685  33.123  35.798  1.00  0.00     0.037 A 
ATOM     46  C   UNL A   1      41.260  28.668  31.273  1.00  0.00     0.049 A 
ATOM     47  C   UNL A   1      40.713  32.027  35.742  1.00  0.00     0.074 A 
ATOM     48  C   UNL A   1      42.280  27.734  31.323  1.00  0.00     0.029 A 
ATOM     49  N   UNL A   1      41.297  29.366  32.472  1.00  0.00    -0.354 N 
ATOM     50  N   UNL A   1      40.969  31.184  34.770  1.00  0.00    -0.248 NA
ATOM     51  C   UNL A   1      41.561  31.851  36.928  1.00  0.00     0.031 C 
ATOM     52  C   UNL A   1      42.912  27.843  32.566  1.00  0.00     0.029 A 
ATOM     53  C   UNL A   1      42.311  28.872  33.276  1.00  0.00     0.049 A 
ATOM     54  H   UNL A   1      40.692  30.103  32.715  1.00  0.00     0.167 HD
ATOM     55  C   UNL A   1      42.018  30.394  35.216  1.00  0.00     0.074 A 
ATOM     56  C   UNL A   1      42.363  30.869  36.540  1.00  0.00     0.031 C 
ATOM     57  C   UNL A   1      42.636  29.364  34.589  1.00  0.00     0.037 A 
BRANCH  44  58
ATOM     58  C   UNL A   1      40.351  28.028  29.003  1.00  0.00     0.064 A 
ATOM     59  C   UNL A   1      41.089  28.371  27.860  1.00  0.00     0.173 A 
ATOM     60  C   UNL A   1      39.649  26.814  28.992  1.00  0.00     0.173 A 
ATOM     61  F   UNL A   1      41.767  29.528  27.815  1.00  0.00    -0.203 F 
ATOM     62  C   UNL A   1      41.095  27.547  26.737  1.00  0.00     0.198 A 
ATOM     63  C   UNL A   1      39.683  25.978  27.878  1.00  0.00     0.198 A 
ATOM     64  F   UNL A   1      38.931  26.436  30.060  1.00  0.00    -0.203 F 
ATOM     65  F   UNL A   1      41.762  27.922  25.637  1.00  0.00    -0.200 F 
ATOM     66  C   UNL A   1      40.397  26.350  26.749  1.00  0.00     0.200 A 
ATOM     67  F   UNL A   1      39.016  24.816  27.894  1.00  0.00    -0.200 F 
ATOM     68  F   UNL A   1      40.406  25.557  25.668  1.00  0.00    -0.200 F 
ENDBRANCH  44  58
BRANCH  45  69
ATOM     69  C   UNL A   1      39.550  33.983  37.002  1.00  0.00     0.064 A 
ATOM     70  C   UNL A   1      40.186  35.231  37.066  1.00  0.00     0.173 A 
ATOM     71  C   UNL A   1      38.784  33.585  38.107  1.00  0.00     0.173 A 
ATOM     72  F   UNL A   1      40.945  35.648  36.042  1.00  0.00    -0.203 F 
ATOM     73  C   UNL A   1      40.075  36.041  38.195  1.00  0.00     0.198 A 
ATOM     74  C   UNL A   1      38.653  34.406  39.226  1.00  0.00     0.198 A 
ATOM     75  F   UNL A   1      38.151  32.403  38.095  1.00  0.00    -0.203 F 
ATOM     76  F   UNL A   1      40.724  37.211  38.244  1.00  0.00    -0.200 F 
ATOM     77  C   UNL A   1      39.304  35.630  39.272  1.00  0.00     0.200 A 
ATOM     78  F   UNL A   1      37.896  34.011  40.258  1.00  0.00    -0.200 F 
ATOM     79  F   UNL A   1      39.193  36.409  40.355  1.00  0.00    -0.200 F 
ENDBRANCH  45  69
BRANCH  57  80
ATOM     80  C   UNL A   1      43.762  28.696  35.322  1.00  0.00     0.064 A 
ATOM     81  C   UNL A   1      45.087  29.129  35.175  1.00  0.00     0.173 A 
ATOM     82  C   UNL A   1      43.505  27.643  36.212  1.00  0.00     0.173 A 
ATOM     83  F   UNL A   1      45.383  30.121  34.323  1.00  0.00    -0.203 F 
ATOM     84  C   UNL A   1      46.119  28.519  35.882  1.00  0.00     0.198 A 
ATOM     85  C   UNL A   1      44.536  27.052  36.937  1.00  0.00     0.198 A 
ATOM     86  F   UNL A   1      42.252  27.196  36.388  1.00  0.00    -0.203 F 
ATOM     87  F   UNL A   1      47.384  28.921  35.699  1.00  0.00    -0.200 F 
ATOM     88  C   UNL A   1      45.842  27.487  36.767  1.00  0.00     0.200 A 
ATOM     89  F   UNL A   1      44.265  26.063  37.799  1.00  0.00    -0.200 F 
ATOM     90  F   UNL A   1      46.836  26.906  37.453  1.00  0.00    -0.200 F 
ENDBRANCH  57  80
ENDBRANCH  31  32
ENDBRANCH  23  26
ENDBRANCH  21  22
ENDBRANCH  20  21
ENDBRANCH   1  20
TORSDOF 13
ENDMDL
