MODEL 1
REMARK VINA RESULT:     -11.6      0.000      0.000
REMARK SMILES CC[C@H](C(=O)NCCCCNC(=O)c1ccc(-c2c3nc(c(-c4c(F)c(F)c(F)c(F)c4F)c4ccc([nH]4)c(-c4c(F)c(F)c(F)c(F)c4F)c4nc(c(-c5c(F)c(F)c(F)c(F)c5F)c5ccc2[nH]5)C=C4)C=C3)cc1)[N@@H+](C)[C@H]1CC[C@@H]([NH2+]C)CC1
REMARK SMILES IDX 8 1 7 2 6 3 4 4 5 5 3 7 2 8 1 9 77 10 78 11 79 13 86 14
REMARK SMILES IDX 80 15 85 16 81 17 82 18 83 19 84 20 9 23 10 24 11 25 12 26
REMARK SMILES IDX 13 28 14 29 15 30 76 31 16 32 75 33 17 34 18 35 19 36 69 37
REMARK SMILES IDX 20 38 74 39 68 40 70 41 21 42 73 43 67 44 66 45 22 47 54 48
REMARK SMILES IDX 34 49 53 50 35 51 38 52 52 53 71 54 36 55 37 56 51 58 72 59
REMARK SMILES IDX 39 60 23 61 24 62 32 63 25 64 26 65 30 66 33 67 27 68 28 69
REMARK SMILES IDX 31 70 29 71 55 72 56 73 64 74 57 75 58 76 62 77 65 78 59 79
REMARK SMILES IDX 60 80 63 81 61 82 40 83 41 84 49 85 42 86 43 87 47 88 50 89
REMARK SMILES IDX 44 90 45 91 48 92 46 93
REMARK H PARENT 6 6 77 12 83 21 83 22 11 27 70 46 38 57
REMARK Flexibility Score: inf
ROOT
ATOM      1  C   UNL A   1      31.498  27.562  25.773  1.00  0.00     0.023 C 
ENDROOT
BRANCH   1   2
ATOM      2  C   UNL A   1      32.108  26.238  26.212  1.00  0.00     0.116 C 
BRANCH   2   3
ATOM      3  N   UNL A   1      31.163  25.274  26.729  1.00  0.00    -0.351 N 
ATOM      4  C   UNL A   1      31.147  23.911  26.591  1.00  0.00     0.278 C 
ATOM      5  O   UNL A   1      30.318  23.321  27.290  1.00  0.00    -0.268 OA
ATOM      6  H   UNL A   1      30.422  25.653  27.256  1.00  0.00     0.163 HD
BRANCH   4   7
ATOM      7  C   UNL A   1      32.044  23.197  25.524  1.00  0.00     0.273 C 
BRANCH   7   8
ATOM      8  C   UNL A   1      31.944  23.618  24.029  1.00  0.00     0.072 C 
ATOM      9  C   UNL A   1      30.578  23.921  23.419  1.00  0.00     0.011 C 
ENDBRANCH   7   8
BRANCH   7  10
ATOM     10  N   UNL A   1      33.444  22.972  26.017  1.00  0.00    -0.325 N 
ATOM     11  C   UNL A   1      33.481  22.593  27.426  1.00  0.00     0.333 C 
ATOM     12  H   UNL A   1      33.838  23.910  25.947  1.00  0.00     0.348 HD
BRANCH  10  13
ATOM     13  C   UNL A   1      34.459  22.342  25.127  1.00  0.00     0.184 C 
ATOM     14  C   UNL A   1      35.350  23.364  24.361  1.00  0.00     0.071 C 
ATOM     15  C   UNL A   1      35.306  21.248  25.799  1.00  0.00     0.071 C 
ATOM     16  C   UNL A   1      36.498  22.731  23.573  1.00  0.00     0.071 C 
ATOM     17  C   UNL A   1      36.464  20.702  24.967  1.00  0.00     0.071 C 
ATOM     18  C   UNL A   1      37.370  21.818  24.443  1.00  0.00     0.182 C 
BRANCH  18  19
ATOM     19  N   UNL A   1      38.014  22.481  25.589  1.00  0.00    -0.346 N 
ATOM     20  C   UNL A   1      39.217  21.815  26.059  1.00  0.00     0.331 C 
ATOM     21  H   UNL A   1      37.345  22.513  26.359  1.00  0.00     0.346 HD
ATOM     22  H   UNL A   1      38.295  23.409  25.274  1.00  0.00     0.346 HD
ENDBRANCH  18  19
ENDBRANCH  10  13
ENDBRANCH   7  10
ENDBRANCH   4   7
ENDBRANCH   2   3
ENDBRANCH   1   2
BRANCH   1  23
ATOM     23  C   UNL A   1      31.884  28.788  26.601  1.00  0.00     0.023 C 
BRANCH  23  24
ATOM     24  C   UNL A   1      32.822  29.794  25.939  1.00  0.00     0.116 C 
BRANCH  24  25
ATOM     25  N   UNL A   1      32.619  31.163  26.387  1.00  0.00    -0.352 N 
ATOM     26  C   UNL A   1      33.349  31.940  27.256  1.00  0.00     0.251 C 
ATOM     27  H   UNL A   1      31.828  31.607  26.004  1.00  0.00     0.163 HD
ATOM     28  O   UNL A   1      32.929  33.048  27.573  1.00  0.00    -0.269 OA
BRANCH  26  29
ATOM     29  C   UNL A   1      34.612  31.442  27.846  1.00  0.00     0.039 A 
ATOM     30  C   UNL A   1      35.677  32.337  27.989  1.00  0.00     0.014 A 
ATOM     31  C   UNL A   1      34.768  30.113  28.243  1.00  0.00     0.014 A 
ATOM     32  C   UNL A   1      36.862  31.918  28.599  1.00  0.00     0.010 A 
ATOM     33  C   UNL A   1      35.913  29.721  28.936  1.00  0.00     0.010 A 
ATOM     34  C   UNL A   1      36.975  30.617  29.120  1.00  0.00    -0.014 A 
BRANCH  34  35
ATOM     35  C   UNL A   1      38.197  30.203  29.862  1.00  0.00     0.031 A 
ATOM     36  C   UNL A   1      38.437  30.670  31.272  1.00  0.00     0.074 A 
ATOM     37  C   UNL A   1      39.111  29.426  29.249  1.00  0.00     0.049 A 
ATOM     38  N   UNL A   1      39.427  30.382  32.082  1.00  0.00    -0.248 NA
ATOM     39  C   UNL A   1      37.453  31.603  31.842  1.00  0.00     0.031 C 
ATOM     40  C   UNL A   1      39.034  28.966  27.861  1.00  0.00     0.029 A 
ATOM     41  N   UNL A   1      40.283  28.881  29.713  1.00  0.00    -0.354 N 
ATOM     42  C   UNL A   1      39.186  31.100  33.246  1.00  0.00     0.074 A 
ATOM     43  C   UNL A   1      37.995  31.887  33.016  1.00  0.00     0.031 C 
ATOM     44  C   UNL A   1      40.087  28.174  27.601  1.00  0.00     0.029 A 
ATOM     45  C   UNL A   1      40.928  28.094  28.791  1.00  0.00     0.049 A 
ATOM     46  H   UNL A   1      40.628  29.039  30.622  1.00  0.00     0.167 HD
ATOM     47  C   UNL A   1      39.876  31.081  34.412  1.00  0.00     0.037 A 
ATOM     48  C   UNL A   1      42.064  27.379  28.895  1.00  0.00     0.037 A 
ATOM     49  C   UNL A   1      41.053  30.284  34.645  1.00  0.00     0.049 A 
ATOM     50  C   UNL A   1      42.802  27.360  30.206  1.00  0.00     0.074 A 
ATOM     51  C   UNL A   1      41.794  30.155  35.807  1.00  0.00     0.029 A 
ATOM     52  N   UNL A   1      41.665  29.482  33.693  1.00  0.00    -0.354 N 
ATOM     53  N   UNL A   1      42.515  27.974  31.328  1.00  0.00    -0.248 NA
ATOM     54  C   UNL A   1      44.013  26.531  30.269  1.00  0.00     0.031 C 
ATOM     55  C   UNL A   1      42.881  29.314  35.544  1.00  0.00     0.029 A 
ATOM     56  C   UNL A   1      42.785  28.870  34.236  1.00  0.00     0.049 A 
ATOM     57  H   UNL A   1      41.351  29.365  32.767  1.00  0.00     0.167 HD
ATOM     58  C   UNL A   1      43.487  27.581  32.238  1.00  0.00     0.074 A 
ATOM     59  C   UNL A   1      44.361  26.660  31.541  1.00  0.00     0.031 C 
ATOM     60  C   UNL A   1      43.643  27.951  33.533  1.00  0.00     0.037 A 
BRANCH  47  61
ATOM     61  C   UNL A   1      39.369  31.945  35.532  1.00  0.00     0.064 A 
ATOM     62  C   UNL A   1      38.482  31.449  36.502  1.00  0.00     0.173 A 
ATOM     63  C   UNL A   1      39.796  33.277  35.658  1.00  0.00     0.173 A 
ATOM     64  F   UNL A   1      38.033  30.187  36.423  1.00  0.00    -0.203 F 
ATOM     65  C   UNL A   1      38.018  32.260  37.534  1.00  0.00     0.198 A 
ATOM     66  C   UNL A   1      39.356  34.074  36.712  1.00  0.00     0.198 A 
ATOM     67  F   UNL A   1      40.647  33.801  34.765  1.00  0.00    -0.203 F 
ATOM     68  F   UNL A   1      37.130  31.779  38.415  1.00  0.00    -0.200 F 
ATOM     69  C   UNL A   1      38.461  33.570  37.642  1.00  0.00     0.200 A 
ATOM     70  F   UNL A   1      39.797  35.335  36.824  1.00  0.00    -0.200 F 
ATOM     71  F   UNL A   1      38.019  34.348  38.640  1.00  0.00    -0.200 F 
ENDBRANCH  47  61
BRANCH  48  72
ATOM     72  C   UNL A   1      42.548  26.579  27.737  1.00  0.00     0.064 A 
ATOM     73  C   UNL A   1      43.456  27.121  26.815  1.00  0.00     0.173 A 
ATOM     74  C   UNL A   1      42.111  25.264  27.525  1.00  0.00     0.173 A 
ATOM     75  F   UNL A   1      43.889  28.382  26.965  1.00  0.00    -0.203 F 
ATOM     76  C   UNL A   1      43.887  26.388  25.712  1.00  0.00     0.198 A 
ATOM     77  C   UNL A   1      42.567  24.520  26.438  1.00  0.00     0.198 A 
ATOM     78  F   UNL A   1      41.249  24.696  28.381  1.00  0.00    -0.203 F 
ATOM     79  F   UNL A   1      44.714  26.948  24.819  1.00  0.00    -0.200 F 
ATOM     80  C   UNL A   1      43.446  25.086  25.528  1.00  0.00     0.200 A 
ATOM     81  F   UNL A   1      42.152  23.258  26.272  1.00  0.00    -0.200 F 
ATOM     82  F   UNL A   1      43.864  24.380  24.468  1.00  0.00    -0.200 F 
ENDBRANCH  48  72
BRANCH  60  83
ATOM     83  C   UNL A   1      44.775  27.320  34.294  1.00  0.00     0.064 A 
ATOM     84  C   UNL A   1      46.036  27.928  34.388  1.00  0.00     0.173 A 
ATOM     85  C   UNL A   1      44.592  26.090  34.946  1.00  0.00     0.173 A 
ATOM     86  F   UNL A   1      46.270  29.098  33.773  1.00  0.00    -0.203 F 
ATOM     87  C   UNL A   1      47.082  27.308  35.067  1.00  0.00     0.198 A 
ATOM     88  C   UNL A   1      45.629  25.490  35.654  1.00  0.00     0.198 A 
ATOM     89  F   UNL A   1      43.403  25.469  34.896  1.00  0.00    -0.203 F 
ATOM     90  F   UNL A   1      48.296  27.876  35.085  1.00  0.00    -0.200 F 
ATOM     91  C   UNL A   1      46.877  26.093  35.703  1.00  0.00     0.200 A 
ATOM     92  F   UNL A   1      45.424  24.324  36.281  1.00  0.00    -0.200 F 
ATOM     93  F   UNL A   1      47.884  25.497  36.355  1.00  0.00    -0.200 F 
ENDBRANCH  60  83
ENDBRANCH  34  35
ENDBRANCH  26  29
ENDBRANCH  24  25
ENDBRANCH  23  24
ENDBRANCH   1  23
TORSDOF 15
ENDMDL
MODEL 2
REMARK VINA RESULT:     -11.6      4.991      8.577
REMARK SMILES CC[C@H](C(=O)NCCCCNC(=O)c1ccc(-c2c3nc(c(-c4c(F)c(F)c(F)c(F)c4F)c4ccc([nH]4)c(-c4c(F)c(F)c(F)c(F)c4F)c4nc(c(-c5c(F)c(F)c(F)c(F)c5F)c5ccc2[nH]5)C=C4)C=C3)cc1)[N@@H+](C)[C@H]1CC[C@@H]([NH2+]C)CC1
REMARK SMILES IDX 8 1 7 2 6 3 4 4 5 5 3 7 2 8 1 9 77 10 78 11 79 13 86 14
REMARK SMILES IDX 80 15 85 16 81 17 82 18 83 19 84 20 9 23 10 24 11 25 12 26
REMARK SMILES IDX 13 28 14 29 15 30 76 31 16 32 75 33 17 34 18 35 19 36 69 37
REMARK SMILES IDX 20 38 74 39 68 40 70 41 21 42 73 43 67 44 66 45 22 47 54 48
REMARK SMILES IDX 34 49 53 50 35 51 38 52 52 53 71 54 36 55 37 56 51 58 72 59
REMARK SMILES IDX 39 60 23 61 24 62 32 63 25 64 26 65 30 66 33 67 27 68 28 69
REMARK SMILES IDX 31 70 29 71 55 72 56 73 64 74 57 75 58 76 62 77 65 78 59 79
REMARK SMILES IDX 60 80 63 81 61 82 40 83 41 84 49 85 42 86 43 87 47 88 50 89
REMARK SMILES IDX 44 90 45 91 48 92 46 93
REMARK H PARENT 6 6 77 12 83 21 83 22 11 27 70 46 38 57
REMARK Flexibility Score: inf
ROOT
ATOM      1  C   UNL A   1      37.136  20.369  24.992  1.00  0.00     0.023 C 
ENDROOT
BRANCH   1   2
ATOM      2  C   UNL A   1      37.226  21.872  24.761  1.00  0.00     0.116 C 
BRANCH   2   3
ATOM      3  N   UNL A   1      36.399  22.372  23.686  1.00  0.00    -0.351 N 
ATOM      4  C   UNL A   1      35.094  22.789  23.716  1.00  0.00     0.278 C 
ATOM      5  O   UNL A   1      34.693  23.337  22.684  1.00  0.00    -0.268 OA
ATOM      6  H   UNL A   1      36.837  22.419  22.806  1.00  0.00     0.163 HD
BRANCH   4   7
ATOM      7  C   UNL A   1      34.170  22.467  24.939  1.00  0.00     0.273 C 
BRANCH   7   8
ATOM      8  C   UNL A   1      33.744  23.611  25.904  1.00  0.00     0.072 C 
ATOM      9  C   UNL A   1      34.224  25.037  25.645  1.00  0.00     0.011 C 
ENDBRANCH   7   8
BRANCH   7  10
ATOM     10  N   UNL A   1      33.073  21.507  24.585  1.00  0.00    -0.325 N 
ATOM     11  C   UNL A   1      31.851  22.188  24.171  1.00  0.00     0.333 C 
ATOM     12  H   UNL A   1      32.883  21.071  25.489  1.00  0.00     0.348 HD
BRANCH  10  13
ATOM     13  C   UNL A   1      33.393  20.227  23.894  1.00  0.00     0.184 C 
ATOM     14  C   UNL A   1      34.198  19.220  24.767  1.00  0.00     0.071 C 
ATOM     15  C   UNL A   1      32.189  19.549  23.217  1.00  0.00     0.071 C 
ATOM     16  C   UNL A   1      34.390  17.844  24.126  1.00  0.00     0.071 C 
ATOM     17  C   UNL A   1      32.447  18.157  22.646  1.00  0.00     0.071 C 
ATOM     18  C   UNL A   1      33.062  17.216  23.684  1.00  0.00     0.182 C 
BRANCH  18  19
ATOM     19  N   UNL A   1      32.086  17.001  24.764  1.00  0.00    -0.346 N 
ATOM     20  C   UNL A   1      32.449  15.940  25.688  1.00  0.00     0.331 C 
ATOM     21  H   UNL A   1      31.187  16.764  24.342  1.00  0.00     0.346 HD
ATOM     22  H   UNL A   1      32.050  17.864  25.306  1.00  0.00     0.346 HD
ENDBRANCH  18  19
ENDBRANCH  10  13
ENDBRANCH   7  10
ENDBRANCH   4   7
ENDBRANCH   2   3
ENDBRANCH   1   2
BRANCH   1  23
ATOM     23  C   UNL A   1      38.447  19.592  24.879  1.00  0.00     0.023 C 
BRANCH  23  24
ATOM     24  C   UNL A   1      39.486  19.837  25.969  1.00  0.00     0.116 C 
BRANCH  24  25
ATOM     25  N   UNL A   1      40.591  18.892  25.946  1.00  0.00    -0.352 N 
ATOM     26  C   UNL A   1      41.946  19.091  26.076  1.00  0.00     0.251 C 
ATOM     27  H   UNL A   1      40.325  17.953  25.816  1.00  0.00     0.163 HD
ATOM     28  O   UNL A   1      42.713  18.147  25.919  1.00  0.00    -0.269 OA
BRANCH  26  29
ATOM     29  C   UNL A   1      42.494  20.437  26.363  1.00  0.00     0.039 A 
ATOM     30  C   UNL A   1      43.017  21.181  25.301  1.00  0.00     0.014 A 
ATOM     31  C   UNL A   1      42.514  20.966  27.655  1.00  0.00     0.014 A 
ATOM     32  C   UNL A   1      43.484  22.479  25.524  1.00  0.00     0.010 A 
ATOM     33  C   UNL A   1      42.892  22.293  27.860  1.00  0.00     0.010 A 
ATOM     34  C   UNL A   1      43.384  23.064  26.798  1.00  0.00    -0.014 A 
BRANCH  34  35
ATOM     35  C   UNL A   1      43.785  24.481  27.013  1.00  0.00     0.031 A 
ATOM     36  C   UNL A   1      42.792  25.497  27.509  1.00  0.00     0.074 A 
ATOM     37  C   UNL A   1      45.046  24.862  26.727  1.00  0.00     0.049 A 
ATOM     38  N   UNL A   1      42.973  26.765  27.785  1.00  0.00    -0.248 NA
ATOM     39  C   UNL A   1      41.407  25.037  27.697  1.00  0.00     0.031 C 
ATOM     40  C   UNL A   1      46.085  23.994  26.171  1.00  0.00     0.029 A 
ATOM     41  N   UNL A   1      45.671  26.076  26.870  1.00  0.00    -0.354 N 
ATOM     42  C   UNL A   1      41.730  27.251  28.171  1.00  0.00     0.074 A 
ATOM     43  C   UNL A   1      40.790  26.160  28.030  1.00  0.00     0.031 C 
ATOM     44  C   UNL A   1      47.228  24.690  26.061  1.00  0.00     0.029 A 
ATOM     45  C   UNL A   1      46.997  26.059  26.510  1.00  0.00     0.049 A 
ATOM     46  H   UNL A   1      45.213  26.883  27.200  1.00  0.00     0.167 HD
ATOM     47  C   UNL A   1      41.406  28.484  28.631  1.00  0.00     0.037 A 
ATOM     48  C   UNL A   1      47.925  27.034  26.547  1.00  0.00     0.037 A 
ATOM     49  C   UNL A   1      42.346  29.564  28.785  1.00  0.00     0.049 A 
ATOM     50  C   UNL A   1      47.545  28.389  27.079  1.00  0.00     0.074 A 
ATOM     51  C   UNL A   1      42.129  30.834  29.290  1.00  0.00     0.029 A 
ATOM     52  N   UNL A   1      43.686  29.502  28.429  1.00  0.00    -0.354 N 
ATOM     53  N   UNL A   1      46.386  28.810  27.524  1.00  0.00    -0.248 NA
ATOM     54  C   UNL A   1      48.610  29.399  27.131  1.00  0.00     0.031 C 
ATOM     55  C   UNL A   1      43.324  31.555  29.196  1.00  0.00     0.029 A 
ATOM     56  C   UNL A   1      44.302  30.717  28.687  1.00  0.00     0.049 A 
ATOM     57  H   UNL A   1      44.133  28.711  28.049  1.00  0.00     0.167 HD
ATOM     58  C   UNL A   1      46.589  30.120  27.938  1.00  0.00     0.074 A 
ATOM     59  C   UNL A   1      47.988  30.416  27.710  1.00  0.00     0.031 C 
ATOM     60  C   UNL A   1      45.697  30.998  28.460  1.00  0.00     0.037 A 
BRANCH  47  61
ATOM     61  C   UNL A   1      39.972  28.729  29.008  1.00  0.00     0.064 A 
ATOM     62  C   UNL A   1      39.037  29.207  28.075  1.00  0.00     0.173 A 
ATOM     63  C   UNL A   1      39.516  28.453  30.307  1.00  0.00     0.173 A 
ATOM     64  F   UNL A   1      39.421  29.497  26.823  1.00  0.00    -0.203 F 
ATOM     65  C   UNL A   1      37.711  29.431  28.437  1.00  0.00     0.198 A 
ATOM     66  C   UNL A   1      38.182  28.646  30.655  1.00  0.00     0.198 A 
ATOM     67  F   UNL A   1      40.364  27.989  31.236  1.00  0.00    -0.203 F 
ATOM     68  F   UNL A   1      36.852  29.940  27.543  1.00  0.00    -0.200 F 
ATOM     69  C   UNL A   1      37.283  29.144  29.724  1.00  0.00     0.200 A 
ATOM     70  F   UNL A   1      37.766  28.354  31.895  1.00  0.00    -0.200 F 
ATOM     71  F   UNL A   1      36.005  29.353  30.069  1.00  0.00    -0.200 F 
ENDBRANCH  47  61
BRANCH  48  72
ATOM     72  C   UNL A   1      49.320  26.749  26.115  1.00  0.00     0.064 A 
ATOM     73  C   UNL A   1      49.729  26.990  24.795  1.00  0.00     0.173 A 
ATOM     74  C   UNL A   1      50.268  26.227  27.005  1.00  0.00     0.173 A 
ATOM     75  F   UNL A   1      48.853  27.472  23.900  1.00  0.00    -0.203 F 
ATOM     76  C   UNL A   1      51.024  26.695  24.376  1.00  0.00     0.198 A 
ATOM     77  C   UNL A   1      51.573  25.962  26.594  1.00  0.00     0.198 A 
ATOM     78  F   UNL A   1      49.931  25.985  28.281  1.00  0.00    -0.203 F 
ATOM     79  F   UNL A   1      51.372  26.887  23.097  1.00  0.00    -0.200 F 
ATOM     80  C   UNL A   1      51.947  26.186  25.278  1.00  0.00     0.200 A 
ATOM     81  F   UNL A   1      52.466  25.486  27.471  1.00  0.00    -0.200 F 
ATOM     82  F   UNL A   1      53.194  25.906  24.876  1.00  0.00    -0.200 F 
ENDBRANCH  48  72
BRANCH  60  83
ATOM     83  C   UNL A   1      46.221  32.347  28.864  1.00  0.00     0.064 A 
ATOM     84  C   UNL A   1      46.709  32.597  30.156  1.00  0.00     0.173 A 
ATOM     85  C   UNL A   1      46.244  33.403  27.940  1.00  0.00     0.173 A 
ATOM     86  F   UNL A   1      46.698  31.626  31.082  1.00  0.00    -0.203 F 
ATOM     87  C   UNL A   1      47.156  33.865  30.519  1.00  0.00     0.198 A 
ATOM     88  C   UNL A   1      46.726  34.660  28.297  1.00  0.00     0.198 A 
ATOM     89  F   UNL A   1      45.798  33.217  26.688  1.00  0.00    -0.203 F 
ATOM     90  F   UNL A   1      47.553  34.097  31.779  1.00  0.00    -0.200 F 
ATOM     91  C   UNL A   1      47.169  34.893  29.589  1.00  0.00     0.200 A 
ATOM     92  F   UNL A   1      46.752  35.648  27.392  1.00  0.00    -0.200 F 
ATOM     93  F   UNL A   1      47.598  36.113  29.942  1.00  0.00    -0.200 F 
ENDBRANCH  60  83
ENDBRANCH  34  35
ENDBRANCH  26  29
ENDBRANCH  24  25
ENDBRANCH  23  24
ENDBRANCH   1  23
TORSDOF 15
ENDMDL
MODEL 3
REMARK VINA RESULT:     -11.5      2.745      4.988
REMARK SMILES CC[C@H](C(=O)NCCCCNC(=O)c1ccc(-c2c3nc(c(-c4c(F)c(F)c(F)c(F)c4F)c4ccc([nH]4)c(-c4c(F)c(F)c(F)c(F)c4F)c4nc(c(-c5c(F)c(F)c(F)c(F)c5F)c5ccc2[nH]5)C=C4)C=C3)cc1)[N@@H+](C)[C@H]1CC[C@@H]([NH2+]C)CC1
REMARK SMILES IDX 8 1 7 2 6 3 4 4 5 5 3 7 2 8 1 9 77 10 78 11 79 13 86 14
REMARK SMILES IDX 80 15 85 16 81 17 82 18 83 19 84 20 9 23 10 24 11 25 12 26
REMARK SMILES IDX 13 28 14 29 15 30 76 31 16 32 75 33 17 34 18 35 19 36 69 37
REMARK SMILES IDX 20 38 74 39 68 40 70 41 21 42 73 43 67 44 66 45 22 47 54 48
REMARK SMILES IDX 34 49 53 50 35 51 38 52 52 53 71 54 36 55 37 56 51 58 72 59
REMARK SMILES IDX 39 60 23 61 24 62 32 63 25 64 26 65 30 66 33 67 27 68 28 69
REMARK SMILES IDX 31 70 29 71 55 72 56 73 64 74 57 75 58 76 62 77 65 78 59 79
REMARK SMILES IDX 60 80 63 81 61 82 40 83 41 84 49 85 42 86 43 87 47 88 50 89
REMARK SMILES IDX 44 90 45 91 48 92 46 93
REMARK H PARENT 6 6 77 12 83 21 83 22 11 27 70 46 38 57
REMARK Flexibility Score: inf
ROOT
ATOM      1  C   UNL A   1      31.395  30.733  26.244  1.00  0.00     0.023 C 
ENDROOT
BRANCH   1   2
ATOM      2  C   UNL A   1      32.685  29.992  26.572  1.00  0.00     0.116 C 
BRANCH   2   3
ATOM      3  N   UNL A   1      33.526  29.703  25.433  1.00  0.00    -0.351 N 
ATOM      4  C   UNL A   1      33.294  28.870  24.370  1.00  0.00     0.278 C 
ATOM      5  O   UNL A   1      34.113  28.953  23.449  1.00  0.00    -0.268 OA
ATOM      6  H   UNL A   1      34.392  30.172  25.421  1.00  0.00     0.163 HD
BRANCH   4   7
ATOM      7  C   UNL A   1      32.137  27.815  24.407  1.00  0.00     0.273 C 
BRANCH   7   8
ATOM      8  C   UNL A   1      31.535  27.383  25.775  1.00  0.00     0.072 C 
ATOM      9  C   UNL A   1      32.082  26.148  26.487  1.00  0.00     0.011 C 
ENDBRANCH   7   8
BRANCH   7  10
ATOM     10  N   UNL A   1      31.126  28.043  23.323  1.00  0.00    -0.325 N 
ATOM     11  C   UNL A   1      31.028  26.910  22.408  1.00  0.00     0.333 C 
ATOM     12  H   UNL A   1      31.552  28.812  22.804  1.00  0.00     0.348 HD
BRANCH  10  13
ATOM     13  C   UNL A   1      29.863  28.776  23.618  1.00  0.00     0.184 C 
ATOM     14  C   UNL A   1      29.944  30.308  23.356  1.00  0.00     0.071 C 
ATOM     15  C   UNL A   1      28.605  28.160  22.982  1.00  0.00     0.071 C 
ATOM     16  C   UNL A   1      28.610  31.043  23.500  1.00  0.00     0.071 C 
ATOM     17  C   UNL A   1      27.323  28.977  23.126  1.00  0.00     0.071 C 
ATOM     18  C   UNL A   1      27.503  30.418  22.641  1.00  0.00     0.182 C 
BRANCH  18  19
ATOM     19  N   UNL A   1      27.775  30.399  21.195  1.00  0.00    -0.346 N 
ATOM     20  C   UNL A   1      28.028  31.710  20.623  1.00  0.00     0.331 C 
ATOM     21  H   UNL A   1      26.966  29.995  20.721  1.00  0.00     0.346 HD
ATOM     22  H   UNL A   1      28.624  29.850  21.060  1.00  0.00     0.346 HD
ENDBRANCH  18  19
ENDBRANCH  10  13
ENDBRANCH   7  10
ENDBRANCH   4   7
ENDBRANCH   2   3
ENDBRANCH   1   2
BRANCH   1  23
ATOM     23  C   UNL A   1      31.404  32.241  26.494  1.00  0.00     0.023 C 
BRANCH  23  24
ATOM     24  C   UNL A   1      32.603  32.803  27.250  1.00  0.00     0.116 C 
BRANCH  24  25
ATOM     25  N   UNL A   1      32.402  34.158  27.740  1.00  0.00    -0.352 N 
ATOM     26  C   UNL A   1      33.079  34.875  28.699  1.00  0.00     0.251 C 
ATOM     27  H   UNL A   1      31.658  34.642  27.315  1.00  0.00     0.163 HD
ATOM     28  O   UNL A   1      32.665  35.981  29.030  1.00  0.00    -0.269 OA
BRANCH  26  29
ATOM     29  C   UNL A   1      34.275  34.314  29.368  1.00  0.00     0.039 A 
ATOM     30  C   UNL A   1      34.086  33.416  30.423  1.00  0.00     0.014 A 
ATOM     31  C   UNL A   1      35.570  34.668  28.984  1.00  0.00     0.014 A 
ATOM     32  C   UNL A   1      35.191  32.818  31.035  1.00  0.00     0.010 A 
ATOM     33  C   UNL A   1      36.667  34.001  29.530  1.00  0.00     0.010 A 
ATOM     34  C   UNL A   1      36.491  33.071  30.564  1.00  0.00    -0.014 A 
BRANCH  34  35
ATOM     35  C   UNL A   1      37.659  32.355  31.146  1.00  0.00     0.031 A 
ATOM     36  C   UNL A   1      38.151  32.681  32.530  1.00  0.00     0.074 A 
ATOM     37  C   UNL A   1      38.300  31.427  30.409  1.00  0.00     0.049 A 
ATOM     38  N   UNL A   1      39.130  32.135  33.210  1.00  0.00    -0.248 NA
ATOM     39  C   UNL A   1      37.473  33.779  33.237  1.00  0.00     0.031 C 
ATOM     40  C   UNL A   1      37.970  31.070  29.027  1.00  0.00     0.029 A 
ATOM     41  N   UNL A   1      39.359  30.609  30.718  1.00  0.00    -0.354 N 
ATOM     42  C   UNL A   1      39.187  32.826  34.413  1.00  0.00     0.074 A 
ATOM     43  C   UNL A   1      38.189  33.872  34.346  1.00  0.00     0.031 C 
ATOM     44  C   UNL A   1      38.779  30.077  28.625  1.00  0.00     0.029 A 
ATOM     45  C   UNL A   1      39.703  29.748  29.705  1.00  0.00     0.049 A 
ATOM     46  H   UNL A   1      39.827  30.637  31.583  1.00  0.00     0.167 HD
ATOM     47  C   UNL A   1      39.975  32.591  35.490  1.00  0.00     0.037 A 
ATOM     48  C   UNL A   1      40.650  28.792  29.655  1.00  0.00     0.037 A 
ATOM     49  C   UNL A   1      40.957  31.540  35.562  1.00  0.00     0.049 A 
ATOM     50  C   UNL A   1      41.501  28.538  30.870  1.00  0.00     0.074 A 
ATOM     51  C   UNL A   1      41.770  31.186  36.625  1.00  0.00     0.029 A 
ATOM     52  N   UNL A   1      41.263  30.673  34.523  1.00  0.00    -0.354 N 
ATOM     53  N   UNL A   1      41.485  29.140  32.034  1.00  0.00    -0.248 NA
ATOM     54  C   UNL A   1      42.490  27.456  30.768  1.00  0.00     0.031 C 
ATOM     55  C   UNL A   1      42.601  30.138  36.214  1.00  0.00     0.029 A 
ATOM     56  C   UNL A   1      42.265  29.797  34.914  1.00  0.00     0.049 A 
ATOM     57  H   UNL A   1      40.832  30.678  33.637  1.00  0.00     0.167 HD
ATOM     58  C   UNL A   1      42.434  28.492  32.813  1.00  0.00     0.074 A 
ATOM     59  C   UNL A   1      42.993  27.436  31.994  1.00  0.00     0.031 C 
ATOM     60  C   UNL A   1      42.809  28.748  34.091  1.00  0.00     0.037 A 
BRANCH  47  61
ATOM     61  C   UNL A   1      39.803  33.487  36.685  1.00  0.00     0.064 A 
ATOM     62  C   UNL A   1      40.533  34.679  36.822  1.00  0.00     0.173 A 
ATOM     63  C   UNL A   1      38.877  33.169  37.691  1.00  0.00     0.173 A 
ATOM     64  F   UNL A   1      41.439  35.026  35.896  1.00  0.00    -0.203 F 
ATOM     65  C   UNL A   1      40.365  35.500  37.934  1.00  0.00     0.198 A 
ATOM     66  C   UNL A   1      38.688  34.010  38.784  1.00  0.00     0.198 A 
ATOM     67  F   UNL A   1      38.148  32.046  37.608  1.00  0.00    -0.203 F 
ATOM     68  F   UNL A   1      41.113  36.604  38.068  1.00  0.00    -0.200 F 
ATOM     69  C   UNL A   1      39.438  35.169  38.910  1.00  0.00     0.200 A 
ATOM     70  F   UNL A   1      37.780  33.696  39.719  1.00  0.00    -0.200 F 
ATOM     71  F   UNL A   1      39.273  35.964  39.977  1.00  0.00    -0.200 F 
ENDBRANCH  47  61
BRANCH  48  72
ATOM     72  C   UNL A   1      40.810  27.966  28.428  1.00  0.00     0.064 A 
ATOM     73  C   UNL A   1      40.148  26.737  28.294  1.00  0.00     0.173 A 
ATOM     74  C   UNL A   1      41.630  28.382  27.370  1.00  0.00     0.173 A 
ATOM     75  F   UNL A   1      39.366  26.286  29.288  1.00  0.00    -0.203 F 
ATOM     76  C   UNL A   1      40.320  25.944  27.162  1.00  0.00     0.198 A 
ATOM     77  C   UNL A   1      41.778  27.603  26.223  1.00  0.00     0.198 A 
ATOM     78  F   UNL A   1      42.281  29.553  27.444  1.00  0.00    -0.203 F 
ATOM     79  F   UNL A   1      39.716  24.751  27.084  1.00  0.00    -0.200 F 
ATOM     80  C   UNL A   1      41.131  26.381  26.125  1.00  0.00     0.200 A 
ATOM     81  F   UNL A   1      42.548  28.036  25.217  1.00  0.00    -0.200 F 
ATOM     82  F   UNL A   1      41.293  25.620  25.034  1.00  0.00    -0.200 F 
ENDBRANCH  48  72
BRANCH  60  83
ATOM     83  C   UNL A   1      43.842  27.839  34.696  1.00  0.00     0.064 A 
ATOM     84  C   UNL A   1      43.490  26.650  35.353  1.00  0.00     0.173 A 
ATOM     85  C   UNL A   1      45.206  28.160  34.608  1.00  0.00     0.173 A 
ATOM     86  F   UNL A   1      42.200  26.302  35.476  1.00  0.00    -0.203 F 
ATOM     87  C   UNL A   1      44.462  25.841  35.937  1.00  0.00     0.198 A 
ATOM     88  C   UNL A   1      46.176  27.330  35.164  1.00  0.00     0.198 A 
ATOM     89  F   UNL A   1      45.599  29.281  33.983  1.00  0.00    -0.203 F 
ATOM     90  F   UNL A   1      44.096  24.746  36.619  1.00  0.00    -0.200 F 
ATOM     91  C   UNL A   1      45.803  26.179  35.839  1.00  0.00     0.200 A 
ATOM     92  F   UNL A   1      47.473  27.650  35.053  1.00  0.00    -0.200 F 
ATOM     93  F   UNL A   1      46.735  25.400  36.404  1.00  0.00    -0.200 F 
ENDBRANCH  60  83
ENDBRANCH  34  35
ENDBRANCH  26  29
ENDBRANCH  24  25
ENDBRANCH  23  24
ENDBRANCH   1  23
TORSDOF 15
ENDMDL
