MODEL 1
REMARK VINA RESULT:     -11.4      0.000      0.000
REMARK SMILES O=C(CC[NH2+][C@@H]1CCCC[C@@H]1[C@@H]1CCC[NH2+]1)NCCCCNC(=O)c1ccc(-c2c3nc(c(-c4c(F)c(F)c(F)c(F)c4F)c4ccc([nH]4)c(-c4c(F)c(F)c(F)c(F)c4F)c4nc(c(-c5c(F)c(F)c(F)c(F)c5F)c5ccc2[nH]5)C=C4)C=C3)cc1
REMARK SMILES IDX 18 1 17 2 1 3 2 4 3 6 4 7 5 8 6 11 7 12 11 13 8 14 10 15
REMARK SMILES IDX 9 16 12 17 13 18 16 19 14 20 15 21 19 24 20 25 21 26 22 27
REMARK SMILES IDX 23 28 24 30 25 31 26 32 87 33 27 34 86 35 28 36 29 37 30 38
REMARK SMILES IDX 80 39 31 40 85 41 79 42 81 43 32 44 84 45 78 46 77 47 33 49
REMARK SMILES IDX 65 50 45 51 64 52 46 53 49 54 63 55 82 56 47 57 48 58 62 60
REMARK SMILES IDX 83 61 50 62 34 63 35 64 43 65 36 66 37 67 41 68 44 69 38 70
REMARK SMILES IDX 39 71 42 72 40 73 66 74 67 75 75 76 68 77 69 78 73 79 76 80
REMARK SMILES IDX 70 81 71 82 74 83 72 84 51 85 52 86 60 87 53 88 54 89 58 90
REMARK SMILES IDX 61 91 55 92 56 93 59 94 57 95
REMARK H PARENT 17 5 5 9 5 10 16 22 16 23 22 29 81 48 49 59
REMARK Flexibility Score: inf
ROOT
ATOM      1  C   UNL A   1      34.537  32.521  29.160  1.00  0.00     0.116 C 
ENDROOT
BRANCH   1   2
ATOM      2  N   UNL A   1      34.041  31.407  28.385  1.00  0.00    -0.356 N 
ATOM      3  O   UNL A   1      36.068  30.652  27.601  1.00  0.00    -0.275 OA
ATOM      4  C   UNL A   1      34.848  30.549  27.677  1.00  0.00     0.225 C 
ATOM      5  H   UNL A   1      33.068  31.255  28.362  1.00  0.00     0.163 HD
BRANCH   4   6
ATOM      6  C   UNL A   1      34.075  29.430  27.014  1.00  0.00     0.161 C 
BRANCH   6   7
ATOM      7  C   UNL A   1      33.037  29.992  26.043  1.00  0.00     0.270 C 
BRANCH   7   8
ATOM      8  N   UNL A   1      33.326  29.701  24.635  1.00  0.00    -0.343 N 
ATOM      9  H   UNL A   1      34.332  29.801  24.502  1.00  0.00     0.346 HD
ATOM     10  H   UNL A   1      32.750  30.359  24.109  1.00  0.00     0.346 HD
BRANCH   8  11
ATOM     11  C   UNL A   1      32.940  28.363  24.123  1.00  0.00     0.191 C 
ATOM     12  C   UNL A   1      33.678  28.175  22.773  1.00  0.00     0.065 C 
ATOM     13  C   UNL A   1      31.439  27.907  24.049  1.00  0.00     0.105 C 
ATOM     14  C   UNL A   1      33.485  26.803  22.131  1.00  0.00     0.006 C 
ATOM     15  C   UNL A   1      31.373  26.482  23.456  1.00  0.00     0.016 C 
ATOM     16  C   UNL A   1      32.034  26.346  22.092  1.00  0.00     0.001 C 
BRANCH  13  17
ATOM     17  C   UNL A   1      30.434  28.913  23.429  1.00  0.00     0.191 C 
ATOM     18  C   UNL A   1      29.045  28.392  23.078  1.00  0.00     0.071 C 
ATOM     19  N   UNL A   1      30.847  29.660  22.233  1.00  0.00    -0.343 N 
ATOM     20  C   UNL A   1      28.453  29.609  22.391  1.00  0.00     0.067 C 
ATOM     21  C   UNL A   1      29.621  30.145  21.579  1.00  0.00     0.260 C 
ATOM     22  H   UNL A   1      31.363  29.049  21.601  1.00  0.00     0.346 HD
ATOM     23  H   UNL A   1      31.456  30.438  22.485  1.00  0.00     0.346 HD
ENDBRANCH  13  17
ENDBRANCH   8  11
ENDBRANCH   7   8
ENDBRANCH   6   7
ENDBRANCH   4   6
ENDBRANCH   1   2
BRANCH   1  24
ATOM     24  C   UNL A   1      34.457  33.826  28.375  1.00  0.00     0.023 C 
BRANCH  24  25
ATOM     25  C   UNL A   1      33.203  34.663  28.656  1.00  0.00     0.023 C 
BRANCH  25  26
ATOM     26  C   UNL A   1      33.444  35.941  29.455  1.00  0.00     0.116 C 
BRANCH  26  27
ATOM     27  N   UNL A   1      32.519  36.077  30.567  1.00  0.00    -0.352 N 
ATOM     28  C   UNL A   1      32.589  35.544  31.829  1.00  0.00     0.251 C 
ATOM     29  H   UNL A   1      31.726  36.633  30.390  1.00  0.00     0.163 HD
ATOM     30  O   UNL A   1      31.613  35.609  32.581  1.00  0.00    -0.269 OA
BRANCH  28  31
ATOM     31  C   UNL A   1      33.821  34.872  32.293  1.00  0.00     0.039 A 
ATOM     32  C   UNL A   1      33.713  33.642  32.948  1.00  0.00     0.014 A 
ATOM     33  C   UNL A   1      35.078  35.454  32.102  1.00  0.00     0.014 A 
ATOM     34  C   UNL A   1      34.867  32.968  33.357  1.00  0.00     0.010 A 
ATOM     35  C   UNL A   1      36.229  34.749  32.446  1.00  0.00     0.010 A 
ATOM     36  C   UNL A   1      36.137  33.499  33.077  1.00  0.00    -0.014 A 
BRANCH  36  37
ATOM     37  C   UNL A   1      37.375  32.758  33.431  1.00  0.00     0.031 A 
ATOM     38  C   UNL A   1      38.111  33.070  34.704  1.00  0.00     0.074 A 
ATOM     39  C   UNL A   1      37.872  31.845  32.574  1.00  0.00     0.049 A 
ATOM     40  N   UNL A   1      39.242  32.582  35.150  1.00  0.00    -0.248 NA
ATOM     41  C   UNL A   1      37.511  34.087  35.581  1.00  0.00     0.031 C 
ATOM     42  C   UNL A   1      37.277  31.481  31.288  1.00  0.00     0.029 A 
ATOM     43  N   UNL A   1      39.000  31.065  32.651  1.00  0.00    -0.354 N 
ATOM     44  C   UNL A   1      39.493  33.238  36.347  1.00  0.00     0.074 A 
ATOM     45  C   UNL A   1      38.426  34.198  36.534  1.00  0.00     0.031 C 
ATOM     46  C   UNL A   1      38.031  30.535  30.706  1.00  0.00     0.029 A 
ATOM     47  C   UNL A   1      39.184  30.255  31.556  1.00  0.00     0.049 A 
ATOM     48  H   UNL A   1      39.618  31.084  33.417  1.00  0.00     0.167 HD
ATOM     49  C   UNL A   1      40.510  33.045  37.221  1.00  0.00     0.037 A 
ATOM     50  C   UNL A   1      40.176  29.391  31.266  1.00  0.00     0.037 A 
ATOM     51  C   UNL A   1      41.559  32.074  37.044  1.00  0.00     0.049 A 
ATOM     52  C   UNL A   1      41.300  29.204  32.248  1.00  0.00     0.074 A 
ATOM     53  C   UNL A   1      42.598  31.760  37.902  1.00  0.00     0.029 A 
ATOM     54  N   UNL A   1      41.705  31.263  35.928  1.00  0.00    -0.354 N 
ATOM     55  N   UNL A   1      41.490  29.781  33.409  1.00  0.00    -0.248 NA
ATOM     56  C   UNL A   1      42.346  28.239  31.881  1.00  0.00     0.031 C 
ATOM     57  C   UNL A   1      43.401  30.796  37.284  1.00  0.00     0.029 A 
ATOM     58  C   UNL A   1      42.832  30.468  36.065  1.00  0.00     0.049 A 
ATOM     59  H   UNL A   1      41.098  31.254  35.153  1.00  0.00     0.167 HD
ATOM     60  C   UNL A   1      42.656  29.230  33.923  1.00  0.00     0.074 A 
ATOM     61  C   UNL A   1      43.124  28.262  32.954  1.00  0.00     0.031 C 
ATOM     62  C   UNL A   1      43.283  29.502  35.095  1.00  0.00     0.037 A 
BRANCH  49  63
ATOM     63  C   UNL A   1      40.539  33.903  38.454  1.00  0.00     0.064 A 
ATOM     64  C   UNL A   1      39.859  33.534  39.626  1.00  0.00     0.173 A 
ATOM     65  C   UNL A   1      41.287  35.090  38.478  1.00  0.00     0.173 A 
ATOM     66  F   UNL A   1      39.120  32.414  39.653  1.00  0.00    -0.203 F 
ATOM     67  C   UNL A   1      39.898  34.338  40.761  1.00  0.00     0.198 A 
ATOM     68  C   UNL A   1      41.351  35.875  39.627  1.00  0.00     0.198 A 
ATOM     69  F   UNL A   1      41.963  35.486  37.390  1.00  0.00    -0.203 F 
ATOM     70  F   UNL A   1      39.198  33.992  41.850  1.00  0.00    -0.200 F 
ATOM     71  C   UNL A   1      40.651  35.504  40.764  1.00  0.00     0.200 A 
ATOM     72  F   UNL A   1      42.090  36.993  39.632  1.00  0.00    -0.200 F 
ATOM     73  F   UNL A   1      40.694  36.272  41.860  1.00  0.00    -0.200 F 
ENDBRANCH  49  63
BRANCH  50  74
ATOM     74  C   UNL A   1      40.139  28.620  29.996  1.00  0.00     0.064 A 
ATOM     75  C   UNL A   1      39.499  27.373  29.931  1.00  0.00     0.173 A 
ATOM     76  C   UNL A   1      40.742  29.105  28.827  1.00  0.00     0.173 A 
ATOM     77  F   UNL A   1      38.926  26.857  31.028  1.00  0.00    -0.203 F 
ATOM     78  C   UNL A   1      39.482  26.633  28.750  1.00  0.00     0.198 A 
ATOM     79  C   UNL A   1      40.699  28.378  27.640  1.00  0.00     0.198 A 
ATOM     80  F   UNL A   1      41.363  30.293  28.836  1.00  0.00    -0.203 F 
ATOM     81  F   UNL A   1      38.905  25.425  28.728  1.00  0.00    -0.200 F 
ATOM     82  C   UNL A   1      40.077  27.139  27.604  1.00  0.00     0.200 A 
ATOM     83  F   UNL A   1      41.262  28.876  26.531  1.00  0.00    -0.200 F 
ATOM     84  F   UNL A   1      40.056  26.428  26.468  1.00  0.00    -0.200 F 
ENDBRANCH  50  74
BRANCH  62  85
ATOM     85  C   UNL A   1      44.523  28.716  35.413  1.00  0.00     0.064 A 
ATOM     86  C   UNL A   1      44.465  27.490  36.092  1.00  0.00     0.173 A 
ATOM     87  C   UNL A   1      45.781  29.177  34.995  1.00  0.00     0.173 A 
ATOM     88  F   UNL A   1      43.288  27.013  36.524  1.00  0.00    -0.203 F 
ATOM     89  C   UNL A   1      45.624  26.768  36.365  1.00  0.00     0.198 A 
ATOM     90  C   UNL A   1      46.934  28.437  35.243  1.00  0.00     0.198 A 
ATOM     91  F   UNL A   1      45.891  30.341  34.337  1.00  0.00    -0.203 F 
ATOM     92  F   UNL A   1      45.550  25.624  37.059  1.00  0.00    -0.200 F 
ATOM     93  C   UNL A   1      46.856  27.238  35.934  1.00  0.00     0.200 A 
ATOM     94  F   UNL A   1      48.121  28.887  34.813  1.00  0.00    -0.200 F 
ATOM     95  F   UNL A   1      47.969  26.538  36.191  1.00  0.00    -0.200 F 
ENDBRANCH  62  85
ENDBRANCH  36  37
ENDBRANCH  28  31
ENDBRANCH  26  27
ENDBRANCH  25  26
ENDBRANCH  24  25
ENDBRANCH   1  24
TORSDOF 15
ENDMDL
MODEL 2
REMARK VINA RESULT:     -11.3      0.881      2.027
REMARK SMILES O=C(CC[NH2+][C@@H]1CCCC[C@@H]1[C@@H]1CCC[NH2+]1)NCCCCNC(=O)c1ccc(-c2c3nc(c(-c4c(F)c(F)c(F)c(F)c4F)c4ccc([nH]4)c(-c4c(F)c(F)c(F)c(F)c4F)c4nc(c(-c5c(F)c(F)c(F)c(F)c5F)c5ccc2[nH]5)C=C4)C=C3)cc1
REMARK SMILES IDX 18 1 17 2 1 3 2 4 3 6 4 7 5 8 6 11 7 12 11 13 8 14 10 15
REMARK SMILES IDX 9 16 12 17 13 18 16 19 14 20 15 21 19 24 20 25 21 26 22 27
REMARK SMILES IDX 23 28 24 30 25 31 26 32 87 33 27 34 86 35 28 36 29 37 30 38
REMARK SMILES IDX 80 39 31 40 85 41 79 42 81 43 32 44 84 45 78 46 77 47 33 49
REMARK SMILES IDX 65 50 45 51 64 52 46 53 49 54 63 55 82 56 47 57 48 58 62 60
REMARK SMILES IDX 83 61 50 62 34 63 35 64 43 65 36 66 37 67 41 68 44 69 38 70
REMARK SMILES IDX 39 71 42 72 40 73 66 74 67 75 75 76 68 77 69 78 73 79 76 80
REMARK SMILES IDX 70 81 71 82 74 83 72 84 51 85 52 86 60 87 53 88 54 89 58 90
REMARK SMILES IDX 61 91 55 92 56 93 59 94 57 95
REMARK H PARENT 17 5 5 9 5 10 16 22 16 23 22 29 81 48 49 59
REMARK Flexibility Score: inf
ROOT
ATOM      1  C   UNL A   1      34.870  32.707  28.017  1.00  0.00     0.116 C 
ENDROOT
BRANCH   1   2
ATOM      2  N   UNL A   1      33.804  31.791  27.683  1.00  0.00    -0.356 N 
ATOM      3  O   UNL A   1      35.098  29.912  27.378  1.00  0.00    -0.275 OA
ATOM      4  C   UNL A   1      34.000  30.460  27.404  1.00  0.00     0.225 C 
ATOM      5  H   UNL A   1      32.884  32.141  27.652  1.00  0.00     0.163 HD
BRANCH   4   6
ATOM      6  C   UNL A   1      32.705  29.715  27.157  1.00  0.00     0.161 C 
BRANCH   6   7
ATOM      7  C   UNL A   1      32.208  29.956  25.732  1.00  0.00     0.270 C 
BRANCH   7   8
ATOM      8  N   UNL A   1      33.225  29.717  24.703  1.00  0.00    -0.343 N 
ATOM      9  H   UNL A   1      34.035  29.301  25.164  1.00  0.00     0.346 HD
ATOM     10  H   UNL A   1      33.388  30.630  24.279  1.00  0.00     0.346 HD
BRANCH   8  11
ATOM     11  C   UNL A   1      32.855  28.833  23.571  1.00  0.00     0.191 C 
ATOM     12  C   UNL A   1      31.310  28.699  23.599  1.00  0.00     0.065 C 
ATOM     13  C   UNL A   1      33.568  27.455  23.330  1.00  0.00     0.105 C 
ATOM     14  C   UNL A   1      30.724  27.899  22.438  1.00  0.00     0.006 C 
ATOM     15  C   UNL A   1      32.944  26.773  22.092  1.00  0.00     0.016 C 
ATOM     16  C   UNL A   1      31.437  26.580  22.183  1.00  0.00     0.001 C 
BRANCH  13  17
ATOM     17  C   UNL A   1      33.731  26.529  24.564  1.00  0.00     0.191 C 
ATOM     18  C   UNL A   1      34.322  25.144  24.330  1.00  0.00     0.071 C 
ATOM     19  N   UNL A   1      32.552  26.275  25.403  1.00  0.00    -0.343 N 
ATOM     20  C   UNL A   1      34.178  24.538  25.714  1.00  0.00     0.067 C 
ATOM     21  C   UNL A   1      32.819  25.048  26.169  1.00  0.00     0.260 C 
ATOM     22  H   UNL A   1      31.727  26.149  24.817  1.00  0.00     0.346 HD
ATOM     23  H   UNL A   1      32.376  27.062  26.028  1.00  0.00     0.346 HD
ENDBRANCH  13  17
ENDBRANCH   8  11
ENDBRANCH   7   8
ENDBRANCH   6   7
ENDBRANCH   4   6
ENDBRANCH   1   2
BRANCH   1  24
ATOM     24  C   UNL A   1      34.494  33.594  29.199  1.00  0.00     0.023 C 
BRANCH  24  25
ATOM     25  C   UNL A   1      33.281  34.500  28.956  1.00  0.00     0.023 C 
BRANCH  25  26
ATOM     26  C   UNL A   1      33.414  35.919  29.499  1.00  0.00     0.116 C 
BRANCH  26  27
ATOM     27  N   UNL A   1      32.533  36.161  30.630  1.00  0.00    -0.352 N 
ATOM     28  C   UNL A   1      32.624  35.703  31.919  1.00  0.00     0.251 C 
ATOM     29  H   UNL A   1      31.757  36.738  30.443  1.00  0.00     0.163 HD
ATOM     30  O   UNL A   1      31.677  35.853  32.695  1.00  0.00    -0.269 OA
BRANCH  28  31
ATOM     31  C   UNL A   1      33.843  35.009  32.385  1.00  0.00     0.039 A 
ATOM     32  C   UNL A   1      33.728  33.714  32.898  1.00  0.00     0.014 A 
ATOM     33  C   UNL A   1      35.093  35.633  32.337  1.00  0.00     0.014 A 
ATOM     34  C   UNL A   1      34.873  33.023  33.304  1.00  0.00     0.010 A 
ATOM     35  C   UNL A   1      36.240  34.917  32.675  1.00  0.00     0.010 A 
ATOM     36  C   UNL A   1      36.142  33.606  33.163  1.00  0.00    -0.014 A 
BRANCH  36  37
ATOM     37  C   UNL A   1      37.376  32.855  33.512  1.00  0.00     0.031 A 
ATOM     38  C   UNL A   1      38.111  33.152  34.790  1.00  0.00     0.074 A 
ATOM     39  C   UNL A   1      37.871  31.948  32.648  1.00  0.00     0.049 A 
ATOM     40  N   UNL A   1      39.238  32.653  35.234  1.00  0.00    -0.248 NA
ATOM     41  C   UNL A   1      37.513  34.162  35.675  1.00  0.00     0.031 C 
ATOM     42  C   UNL A   1      37.277  31.599  31.357  1.00  0.00     0.029 A 
ATOM     43  N   UNL A   1      38.995  31.161  32.720  1.00  0.00    -0.354 N 
ATOM     44  C   UNL A   1      39.489  33.297  36.438  1.00  0.00     0.074 A 
ATOM     45  C   UNL A   1      38.426  34.260  36.631  1.00  0.00     0.031 C 
ATOM     46  C   UNL A   1      38.028  30.655  30.768  1.00  0.00     0.029 A 
ATOM     47  C   UNL A   1      39.178  30.361  31.618  1.00  0.00     0.049 A 
ATOM     48  H   UNL A   1      39.611  31.170  33.488  1.00  0.00     0.167 HD
ATOM     49  C   UNL A   1      40.503  33.091  37.312  1.00  0.00     0.037 A 
ATOM     50  C   UNL A   1      40.166  29.495  31.323  1.00  0.00     0.037 A 
ATOM     51  C   UNL A   1      41.548  32.117  37.129  1.00  0.00     0.049 A 
ATOM     52  C   UNL A   1      41.287  29.293  32.306  1.00  0.00     0.074 A 
ATOM     53  C   UNL A   1      42.583  31.789  37.987  1.00  0.00     0.029 A 
ATOM     54  N   UNL A   1      41.693  31.316  36.006  1.00  0.00    -0.354 N 
ATOM     55  N   UNL A   1      41.477  29.858  33.473  1.00  0.00    -0.248 NA
ATOM     56  C   UNL A   1      42.329  28.326  31.932  1.00  0.00     0.031 C 
ATOM     57  C   UNL A   1      43.383  30.828  37.362  1.00  0.00     0.029 A 
ATOM     58  C   UNL A   1      42.816  30.514  36.138  1.00  0.00     0.049 A 
ATOM     59  H   UNL A   1      41.087  31.317  35.229  1.00  0.00     0.167 HD
ATOM     60  C   UNL A   1      42.639  29.297  33.984  1.00  0.00     0.074 A 
ATOM     61  C   UNL A   1      43.104  28.335  33.007  1.00  0.00     0.031 C 
ATOM     62  C   UNL A   1      43.265  29.555  35.160  1.00  0.00     0.037 A 
BRANCH  49  63
ATOM     63  C   UNL A   1      40.534  33.937  38.554  1.00  0.00     0.064 A 
ATOM     64  C   UNL A   1      39.857  33.555  39.723  1.00  0.00     0.173 A 
ATOM     65  C   UNL A   1      41.278  35.126  38.587  1.00  0.00     0.173 A 
ATOM     66  F   UNL A   1      39.122  32.433  39.742  1.00  0.00    -0.203 F 
ATOM     67  C   UNL A   1      39.898  34.348  40.867  1.00  0.00     0.198 A 
ATOM     68  C   UNL A   1      41.343  35.900  39.743  1.00  0.00     0.198 A 
ATOM     69  F   UNL A   1      41.950  35.534  37.501  1.00  0.00    -0.203 F 
ATOM     70  F   UNL A   1      39.201  33.990  41.954  1.00  0.00    -0.200 F 
ATOM     71  C   UNL A   1      40.648  35.516  40.878  1.00  0.00     0.200 A 
ATOM     72  F   UNL A   1      42.079  37.020  39.757  1.00  0.00    -0.200 F 
ATOM     73  F   UNL A   1      40.692  36.274  41.982  1.00  0.00    -0.200 F 
ENDBRANCH  49  63
BRANCH  50  74
ATOM     74  C   UNL A   1      40.128  28.736  30.046  1.00  0.00     0.064 A 
ATOM     75  C   UNL A   1      39.514  27.476  29.976  1.00  0.00     0.173 A 
ATOM     76  C   UNL A   1      40.705  29.246  28.873  1.00  0.00     0.173 A 
ATOM     77  F   UNL A   1      38.968  26.937  31.075  1.00  0.00    -0.203 F 
ATOM     78  C   UNL A   1      39.498  26.748  28.788  1.00  0.00     0.198 A 
ATOM     79  C   UNL A   1      40.662  28.530  27.679  1.00  0.00     0.198 A 
ATOM     80  F   UNL A   1      41.301  30.446  28.887  1.00  0.00    -0.203 F 
ATOM     81  F   UNL A   1      38.946  25.528  28.761  1.00  0.00    -0.200 F 
ATOM     82  C   UNL A   1      40.066  27.278  27.639  1.00  0.00     0.200 A 
ATOM     83  F   UNL A   1      41.199  29.051  26.568  1.00  0.00    -0.200 F 
ATOM     84  F   UNL A   1      40.045  26.579  26.497  1.00  0.00    -0.200 F 
ENDBRANCH  50  74
BRANCH  62  85
ATOM     85  C   UNL A   1      44.499  28.760  35.473  1.00  0.00     0.064 A 
ATOM     86  C   UNL A   1      45.778  29.212  35.117  1.00  0.00     0.173 A 
ATOM     87  C   UNL A   1      44.403  27.548  36.175  1.00  0.00     0.173 A 
ATOM     88  F   UNL A   1      45.923  30.357  34.432  1.00  0.00    -0.203 F 
ATOM     89  C   UNL A   1      46.913  28.467  35.428  1.00  0.00     0.198 A 
ATOM     90  C   UNL A   1      45.542  26.822  36.511  1.00  0.00     0.198 A 
ATOM     91  F   UNL A   1      43.204  27.073  36.545  1.00  0.00    -0.203 F 
ATOM     92  F   UNL A   1      48.121  28.894  35.034  1.00  0.00    -0.200 F 
ATOM     93  C   UNL A   1      46.795  27.277  36.131  1.00  0.00     0.200 A 
ATOM     94  F   UNL A   1      45.426  25.680  37.203  1.00  0.00    -0.200 F 
ATOM     95  F   UNL A   1      47.889  26.567  36.436  1.00  0.00    -0.200 F 
ENDBRANCH  62  85
ENDBRANCH  36  37
ENDBRANCH  28  31
ENDBRANCH  26  27
ENDBRANCH  25  26
ENDBRANCH  24  25
ENDBRANCH   1  24
TORSDOF 15
ENDMDL
MODEL 3
REMARK VINA RESULT:     -11.2      7.385     12.751
REMARK SMILES O=C(CC[NH2+][C@@H]1CCCC[C@@H]1[C@@H]1CCC[NH2+]1)NCCCCNC(=O)c1ccc(-c2c3nc(c(-c4c(F)c(F)c(F)c(F)c4F)c4ccc([nH]4)c(-c4c(F)c(F)c(F)c(F)c4F)c4nc(c(-c5c(F)c(F)c(F)c(F)c5F)c5ccc2[nH]5)C=C4)C=C3)cc1
REMARK SMILES IDX 18 1 17 2 1 3 2 4 3 6 4 7 5 8 6 11 7 12 11 13 8 14 10 15
REMARK SMILES IDX 9 16 12 17 13 18 16 19 14 20 15 21 19 24 20 25 21 26 22 27
REMARK SMILES IDX 23 28 24 30 25 31 26 32 87 33 27 34 86 35 28 36 29 37 30 38
REMARK SMILES IDX 80 39 31 40 85 41 79 42 81 43 32 44 84 45 78 46 77 47 33 49
REMARK SMILES IDX 65 50 45 51 64 52 46 53 49 54 63 55 82 56 47 57 48 58 62 60
REMARK SMILES IDX 83 61 50 62 34 63 35 64 43 65 36 66 37 67 41 68 44 69 38 70
REMARK SMILES IDX 39 71 42 72 40 73 66 74 67 75 75 76 68 77 69 78 73 79 76 80
REMARK SMILES IDX 70 81 71 82 74 83 72 84 51 85 52 86 60 87 53 88 54 89 58 90
REMARK SMILES IDX 61 91 55 92 56 93 59 94 57 95
REMARK H PARENT 17 5 5 9 5 10 16 22 16 23 22 29 81 48 49 59
REMARK Flexibility Score: inf
ROOT
ATOM      1  C   UNL A   1      40.923  22.106  26.401  1.00  0.00     0.116 C 
ENDROOT
BRANCH   1   2
ATOM      2  N   UNL A   1      39.602  22.461  25.937  1.00  0.00    -0.356 N 
ATOM      3  O   UNL A   1      39.176  24.124  27.470  1.00  0.00    -0.275 OA
ATOM      4  C   UNL A   1      38.837  23.454  26.500  1.00  0.00     0.225 C 
ATOM      5  H   UNL A   1      39.227  21.962  25.176  1.00  0.00     0.163 HD
BRANCH   4   6
ATOM      6  C   UNL A   1      37.524  23.665  25.775  1.00  0.00     0.161 C 
BRANCH   6   7
ATOM      7  C   UNL A   1      36.945  22.330  25.310  1.00  0.00     0.270 C 
BRANCH   7   8
ATOM      8  N   UNL A   1      35.873  21.818  26.170  1.00  0.00    -0.343 N 
ATOM      9  H   UNL A   1      36.111  22.059  27.132  1.00  0.00     0.346 HD
ATOM     10  H   UNL A   1      35.832  20.818  25.971  1.00  0.00     0.346 HD
BRANCH   8  11
ATOM     11  C   UNL A   1      34.498  22.313  25.914  1.00  0.00     0.191 C 
ATOM     12  C   UNL A   1      33.798  22.412  27.293  1.00  0.00     0.065 C 
ATOM     13  C   UNL A   1      33.575  21.663  24.822  1.00  0.00     0.105 C 
ATOM     14  C   UNL A   1      32.392  23.004  27.248  1.00  0.00     0.006 C 
ATOM     15  C   UNL A   1      32.211  22.389  24.818  1.00  0.00     0.016 C 
ATOM     16  C   UNL A   1      31.509  22.398  26.167  1.00  0.00     0.001 C 
BRANCH  13  17
ATOM     17  C   UNL A   1      33.483  20.114  24.819  1.00  0.00     0.191 C 
ATOM     18  C   UNL A   1      32.529  19.469  23.821  1.00  0.00     0.071 C 
ATOM     19  N   UNL A   1      33.186  19.433  26.087  1.00  0.00    -0.343 N 
ATOM     20  C   UNL A   1      32.632  18.012  24.234  1.00  0.00     0.067 C 
ATOM     21  C   UNL A   1      32.684  18.091  25.752  1.00  0.00     0.260 C 
ATOM     22  H   UNL A   1      32.477  19.952  26.605  1.00  0.00     0.346 HD
ATOM     23  H   UNL A   1      34.021  19.373  26.670  1.00  0.00     0.346 HD
ENDBRANCH  13  17
ENDBRANCH   8  11
ENDBRANCH   7   8
ENDBRANCH   6   7
ENDBRANCH   4   6
ENDBRANCH   1   2
BRANCH   1  24
ATOM     24  C   UNL A   1      40.936  20.723  27.044  1.00  0.00     0.023 C 
BRANCH  24  25
ATOM     25  C   UNL A   1      41.430  19.598  26.126  1.00  0.00     0.023 C 
BRANCH  25  26
ATOM     26  C   UNL A   1      42.824  19.068  26.445  1.00  0.00     0.116 C 
BRANCH  26  27
ATOM     27  N   UNL A   1      43.566  18.713  25.246  1.00  0.00    -0.352 N 
ATOM     28  C   UNL A   1      44.298  19.514  24.407  1.00  0.00     0.251 C 
ATOM     29  H   UNL A   1      43.540  17.761  25.001  1.00  0.00     0.163 HD
ATOM     30  O   UNL A   1      44.700  19.071  23.328  1.00  0.00    -0.269 OA
BRANCH  28  31
ATOM     31  C   UNL A   1      44.594  20.915  24.774  1.00  0.00     0.039 A 
ATOM     32  C   UNL A   1      43.989  21.944  24.048  1.00  0.00     0.014 A 
ATOM     33  C   UNL A   1      45.478  21.218  25.814  1.00  0.00     0.014 A 
ATOM     34  C   UNL A   1      44.220  23.276  24.405  1.00  0.00     0.010 A 
ATOM     35  C   UNL A   1      45.651  22.542  26.213  1.00  0.00     0.010 A 
ATOM     36  C   UNL A   1      45.026  23.584  25.513  1.00  0.00    -0.014 A 
BRANCH  36  37
ATOM     37  C   UNL A   1      45.217  24.989  25.957  1.00  0.00     0.031 A 
ATOM     38  C   UNL A   1      46.573  25.634  25.879  1.00  0.00     0.074 A 
ATOM     39  C   UNL A   1      44.182  25.667  26.490  1.00  0.00     0.049 A 
ATOM     40  N   UNL A   1      46.952  26.823  26.280  1.00  0.00    -0.248 NA
ATOM     41  C   UNL A   1      47.655  24.827  25.295  1.00  0.00     0.031 C 
ATOM     42  C   UNL A   1      42.827  25.140  26.662  1.00  0.00     0.029 A 
ATOM     43  N   UNL A   1      44.110  26.941  26.998  1.00  0.00    -0.354 N 
ATOM     44  C   UNL A   1      48.311  26.898  26.011  1.00  0.00     0.074 A 
ATOM     45  C   UNL A   1      48.705  25.619  25.460  1.00  0.00     0.031 C 
ATOM     46  C   UNL A   1      42.053  26.088  27.214  1.00  0.00     0.029 A 
ATOM     47  C   UNL A   1      42.865  27.274  27.475  1.00  0.00     0.049 A 
ATOM     48  H   UNL A   1      44.878  27.557  27.019  1.00  0.00     0.167 HD
ATOM     49  C   UNL A   1      49.151  27.946  26.188  1.00  0.00     0.037 A 
ATOM     50  C   UNL A   1      42.428  28.404  28.063  1.00  0.00     0.037 A 
ATOM     51  C   UNL A   1      48.754  29.226  26.716  1.00  0.00     0.049 A 
ATOM     52  C   UNL A   1      43.386  29.548  28.259  1.00  0.00     0.074 A 
ATOM     53  C   UNL A   1      49.517  30.369  26.875  1.00  0.00     0.029 A 
ATOM     54  N   UNL A   1      47.481  29.530  27.176  1.00  0.00    -0.354 N 
ATOM     55  N   UNL A   1      44.653  29.633  27.937  1.00  0.00    -0.248 NA
ATOM     56  C   UNL A   1      42.847  30.759  28.896  1.00  0.00     0.031 C 
ATOM     57  C   UNL A   1      48.721  31.348  27.478  1.00  0.00     0.029 A 
ATOM     58  C   UNL A   1      47.445  30.834  27.643  1.00  0.00     0.049 A 
ATOM     59  H   UNL A   1      46.715  28.909  27.171  1.00  0.00     0.167 HD
ATOM     60  C   UNL A   1      45.056  30.910  28.303  1.00  0.00     0.074 A 
ATOM     61  C   UNL A   1      43.894  31.571  28.859  1.00  0.00     0.031 C 
ATOM     62  C   UNL A   1      46.280  31.484  28.188  1.00  0.00     0.037 A 
BRANCH  49  63
ATOM     63  C   UNL A   1      50.592  27.754  25.807  1.00  0.00     0.064 A 
ATOM     64  C   UNL A   1      51.033  27.915  24.483  1.00  0.00     0.173 A 
ATOM     65  C   UNL A   1      51.552  27.442  26.782  1.00  0.00     0.173 A 
ATOM     66  F   UNL A   1      50.155  28.204  23.510  1.00  0.00    -0.203 F 
ATOM     67  C   UNL A   1      52.372  27.738  24.146  1.00  0.00     0.198 A 
ATOM     68  C   UNL A   1      52.895  27.297  26.446  1.00  0.00     0.198 A 
ATOM     69  F   UNL A   1      51.188  27.284  28.063  1.00  0.00    -0.203 F 
ATOM     70  F   UNL A   1      52.759  27.844  22.868  1.00  0.00    -0.200 F 
ATOM     71  C   UNL A   1      53.303  27.436  25.129  1.00  0.00     0.200 A 
ATOM     72  F   UNL A   1      53.796  27.020  27.399  1.00  0.00    -0.200 F 
ATOM     73  F   UNL A   1      54.593  27.273  24.804  1.00  0.00    -0.200 F 
ENDBRANCH  49  63
BRANCH  50  74
ATOM     74  C   UNL A   1      41.010  28.517  28.490  1.00  0.00     0.064 A 
ATOM     75  C   UNL A   1      40.025  28.972  27.601  1.00  0.00     0.173 A 
ATOM     76  C   UNL A   1      40.608  28.179  29.791  1.00  0.00     0.173 A 
ATOM     77  F   UNL A   1      40.364  29.328  26.354  1.00  0.00    -0.203 F 
ATOM     78  C   UNL A   1      38.697  29.104  28.003  1.00  0.00     0.198 A 
ATOM     79  C   UNL A   1      39.275  28.283  30.183  1.00  0.00     0.198 A 
ATOM     80  F   UNL A   1      41.510  27.735  30.677  1.00  0.00    -0.203 F 
ATOM     81  F   UNL A   1      37.786  29.586  27.148  1.00  0.00    -0.200 F 
ATOM     82  C   UNL A   1      38.323  28.754  29.291  1.00  0.00     0.200 A 
ATOM     83  F   UNL A   1      38.915  27.930  31.424  1.00  0.00    -0.200 F 
ATOM     84  F   UNL A   1      37.045  28.877  29.675  1.00  0.00    -0.200 F 
ENDBRANCH  50  74
BRANCH  62  85
ATOM     85  C   UNL A   1      46.418  32.910  28.638  1.00  0.00     0.064 A 
ATOM     86  C   UNL A   1      46.799  33.237  29.947  1.00  0.00     0.173 A 
ATOM     87  C   UNL A   1      46.204  33.962  27.733  1.00  0.00     0.173 A 
ATOM     88  F   UNL A   1      47.000  32.269  30.853  1.00  0.00    -0.203 F 
ATOM     89  C   UNL A   1      46.935  34.566  30.342  1.00  0.00     0.198 A 
ATOM     90  C   UNL A   1      46.371  35.288  28.123  1.00  0.00     0.198 A 
ATOM     91  F   UNL A   1      45.844  33.703  26.467  1.00  0.00    -0.203 F 
ATOM     92  F   UNL A   1      47.252  34.856  31.611  1.00  0.00    -0.200 F 
ATOM     93  C   UNL A   1      46.729  35.589  29.428  1.00  0.00     0.200 A 
ATOM     94  F   UNL A   1      46.186  36.273  27.234  1.00  0.00    -0.200 F 
ATOM     95  F   UNL A   1      46.868  36.866  29.808  1.00  0.00    -0.200 F 
ENDBRANCH  62  85
ENDBRANCH  36  37
ENDBRANCH  28  31
ENDBRANCH  26  27
ENDBRANCH  25  26
ENDBRANCH  24  25
ENDBRANCH   1  24
TORSDOF 15
ENDMDL
