MODEL 1
REMARK VINA RESULT:     -14.6      0.000      0.000
REMARK SMILES Cc1ccc(C(=O)NCCCCNC(=O)c2ccc(-c3c4nc(c(-c5c(F)c(F)c(F)c(F)c5F)c5ccc([nH]5)c(-c5c(F)c(F)c(F)c(F)c5F)c5nc(c(-c6c(F)c(F)c(F)c(F)c6F)c6ccc3[nH]6)C=C5)C=C4)cc2)cc1NC(=O)Cc1ccc2ccccc2c1
REMARK SMILES IDX 10 1 9 2 8 3 6 4 7 5 5 7 1 8 2 9 3 10 80 11 4 12 79 13 81 14
REMARK SMILES IDX 82 15 83 17 84 18 85 19 86 20 94 21 87 22 93 23 88 24 92 25
REMARK SMILES IDX 89 26 91 27 90 28 11 29 12 30 13 31 14 32 15 34 16 35 17 36
REMARK SMILES IDX 78 37 18 38 77 39 19 40 20 41 21 42 71 43 22 44 76 45 70 46
REMARK SMILES IDX 72 47 23 48 75 49 69 50 68 51 24 53 56 54 36 55 55 56 37 57
REMARK SMILES IDX 40 58 54 59 73 60 38 61 39 62 53 64 74 65 41 66 25 67 26 68
REMARK SMILES IDX 34 69 27 70 28 71 32 72 35 73 29 74 30 75 33 76 31 77 57 78
REMARK SMILES IDX 58 79 66 80 59 81 60 82 64 83 67 84 61 85 62 86 65 87 63 88
REMARK SMILES IDX 42 89 43 90 51 91 44 92 45 93 49 94 52 95 46 96 47 97 50 98
REMARK SMILES IDX 48 99
REMARK H PARENT 8 6 81 16 13 33 72 52 40 63
REMARK Flexibility Score: inf
ROOT
ATOM      1  C   UNL A   1      33.670  28.187  24.223  1.00  0.00     0.023 C 
ENDROOT
BRANCH   1   2
ATOM      2  C   UNL A   1      33.552  29.078  22.980  1.00  0.00     0.116 C 
BRANCH   2   3
ATOM      3  N   UNL A   1      32.221  29.326  22.478  1.00  0.00    -0.352 N 
ATOM      4  C   UNL A   1      31.100  28.528  22.403  1.00  0.00     0.251 C 
ATOM      5  O   UNL A   1      30.059  29.058  22.012  1.00  0.00    -0.269 OA
ATOM      6  H   UNL A   1      32.090  30.235  22.122  1.00  0.00     0.163 HD
BRANCH   4   7
ATOM      7  C   UNL A   1      31.090  27.058  22.688  1.00  0.00     0.041 A 
ATOM      8  C   UNL A   1      31.413  22.772  23.209  1.00  0.00     0.046 C 
ATOM      9  C   UNL A   1      31.259  24.269  23.125  1.00  0.00    -0.027 A 
ATOM     10  C   UNL A   1      31.876  24.877  22.012  1.00  0.00     0.006 A 
ATOM     11  C   UNL A   1      30.518  25.066  24.031  1.00  0.00     0.044 A 
ATOM     12  C   UNL A   1      31.822  26.254  21.815  1.00  0.00     0.014 A 
ATOM     13  C   UNL A   1      30.371  26.432  23.720  1.00  0.00     0.040 A 
BRANCH  11  14
ATOM     14  N   UNL A   1      29.986  24.461  25.210  1.00  0.00    -0.326 N 
ATOM     15  C   UNL A   1      30.494  24.149  26.462  1.00  0.00     0.228 C 
ATOM     16  H   UNL A   1      29.040  24.207  25.111  1.00  0.00     0.169 HD
ATOM     17  O   UNL A   1      29.753  23.560  27.251  1.00  0.00    -0.274 OA
BRANCH  15  18
ATOM     18  C   UNL A   1      31.909  24.533  26.792  1.00  0.00     0.135 C 
BRANCH  18  19
ATOM     19  C   UNL A   1      33.153  23.974  26.139  1.00  0.00    -0.038 A 
ATOM     20  C   UNL A   1      33.984  24.943  25.550  1.00  0.00     0.005 A 
ATOM     21  C   UNL A   1      33.602  22.652  26.116  1.00  0.00     0.013 A 
ATOM     22  C   UNL A   1      35.159  24.628  24.889  1.00  0.00     0.009 A 
ATOM     23  C   UNL A   1      34.843  22.315  25.504  1.00  0.00    -0.018 A 
ATOM     24  C   UNL A   1      35.607  23.321  24.866  1.00  0.00    -0.018 A 
ATOM     25  C   UNL A   1      35.394  21.021  25.548  1.00  0.00     0.009 A 
ATOM     26  C   UNL A   1      36.836  23.032  24.261  1.00  0.00     0.009 A 
ATOM     27  C   UNL A   1      36.654  20.752  24.996  1.00  0.00     0.001 A 
ATOM     28  C   UNL A   1      37.366  21.751  24.339  1.00  0.00     0.001 A 
ENDBRANCH  18  19
ENDBRANCH  15  18
ENDBRANCH  11  14
ENDBRANCH   4   7
ENDBRANCH   2   3
ENDBRANCH   1   2
BRANCH   1  29
ATOM     29  C   UNL A   1      33.147  28.758  25.542  1.00  0.00     0.023 C 
BRANCH  29  30
ATOM     30  C   UNL A   1      34.199  28.997  26.622  1.00  0.00     0.116 C 
BRANCH  30  31
ATOM     31  N   UNL A   1      34.602  30.372  26.879  1.00  0.00    -0.352 N 
ATOM     32  C   UNL A   1      35.684  30.858  27.614  1.00  0.00     0.251 C 
ATOM     33  H   UNL A   1      34.027  31.061  26.475  1.00  0.00     0.163 HD
ATOM     34  O   UNL A   1      35.803  32.055  27.790  1.00  0.00    -0.269 OA
BRANCH  32  35
ATOM     35  C   UNL A   1      36.767  29.937  28.081  1.00  0.00     0.039 A 
ATOM     36  C   UNL A   1      36.670  29.335  29.351  1.00  0.00     0.014 A 
ATOM     37  C   UNL A   1      37.911  29.726  27.329  1.00  0.00     0.014 A 
ATOM     38  C   UNL A   1      37.773  28.672  29.911  1.00  0.00     0.010 A 
ATOM     39  C   UNL A   1      39.035  29.198  27.921  1.00  0.00     0.010 A 
ATOM     40  C   UNL A   1      38.977  28.675  29.218  1.00  0.00    -0.014 A 
BRANCH  40  41
ATOM     41  C   UNL A   1      40.249  28.100  29.649  1.00  0.00     0.031 A 
ATOM     42  C   UNL A   1      40.604  26.734  29.180  1.00  0.00     0.074 A 
ATOM     43  C   UNL A   1      41.221  28.964  30.022  1.00  0.00     0.049 A 
ATOM     44  N   UNL A   1      41.732  26.154  29.409  1.00  0.00    -0.248 NA
ATOM     45  C   UNL A   1      39.677  25.887  28.424  1.00  0.00     0.031 C 
ATOM     46  C   UNL A   1      42.659  28.835  29.792  1.00  0.00     0.029 A 
ATOM     47  N   UNL A   1      41.107  30.078  30.869  1.00  0.00    -0.354 N 
ATOM     48  C   UNL A   1      41.811  25.066  28.569  1.00  0.00     0.074 A 
ATOM     49  C   UNL A   1      40.466  24.857  28.101  1.00  0.00     0.031 C 
ATOM     50  C   UNL A   1      43.316  29.629  30.650  1.00  0.00     0.029 A 
ATOM     51  C   UNL A   1      42.331  30.123  31.590  1.00  0.00     0.049 A 
ATOM     52  H   UNL A   1      40.343  30.694  30.946  1.00  0.00     0.167 HD
ATOM     53  C   UNL A   1      43.040  24.573  28.250  1.00  0.00     0.037 A 
ATOM     54  C   UNL A   1      42.379  29.889  32.938  1.00  0.00     0.037 A 
ATOM     55  C   UNL A   1      44.063  25.116  29.141  1.00  0.00     0.049 A 
ATOM     56  C   UNL A   1      43.275  28.756  33.354  1.00  0.00     0.074 A 
ATOM     57  C   UNL A   1      45.074  26.043  28.976  1.00  0.00     0.029 A 
ATOM     58  N   UNL A   1      43.958  24.875  30.509  1.00  0.00    -0.354 N 
ATOM     59  N   UNL A   1      43.666  27.814  32.545  1.00  0.00    -0.248 NA
ATOM     60  C   UNL A   1      43.741  28.559  34.723  1.00  0.00     0.031 C 
ATOM     61  C   UNL A   1      45.502  26.444  30.272  1.00  0.00     0.029 A 
ATOM     62  C   UNL A   1      44.788  25.721  31.214  1.00  0.00     0.049 A 
ATOM     63  H   UNL A   1      43.373  24.196  30.914  1.00  0.00     0.167 HD
ATOM     64  C   UNL A   1      44.357  26.873  33.253  1.00  0.00     0.074 A 
ATOM     65  C   UNL A   1      44.409  27.399  34.605  1.00  0.00     0.031 C 
ATOM     66  C   UNL A   1      44.788  25.719  32.670  1.00  0.00     0.037 A 
BRANCH  53  67
ATOM     67  C   UNL A   1      43.382  23.747  27.024  1.00  0.00     0.064 A 
ATOM     68  C   UNL A   1      42.992  22.389  26.961  1.00  0.00     0.173 A 
ATOM     69  C   UNL A   1      44.197  24.171  25.952  1.00  0.00     0.173 A 
ATOM     70  F   UNL A   1      42.225  21.843  27.915  1.00  0.00    -0.203 F 
ATOM     71  C   UNL A   1      43.395  21.535  25.926  1.00  0.00     0.198 A 
ATOM     72  C   UNL A   1      44.552  23.331  24.891  1.00  0.00     0.198 A 
ATOM     73  F   UNL A   1      44.744  25.390  25.909  1.00  0.00    -0.203 F 
ATOM     74  F   UNL A   1      43.044  20.241  25.956  1.00  0.00    -0.200 F 
ATOM     75  C   UNL A   1      44.164  22.009  24.885  1.00  0.00     0.200 A 
ATOM     76  F   UNL A   1      45.304  23.811  23.889  1.00  0.00    -0.200 F 
ATOM     77  F   UNL A   1      44.549  21.195  23.892  1.00  0.00    -0.200 F 
ENDBRANCH  53  67
BRANCH  54  78
ATOM     78  C   UNL A   1      41.090  30.201  33.607  1.00  0.00     0.064 A 
ATOM     79  C   UNL A   1      40.819  31.556  33.844  1.00  0.00     0.173 A 
ATOM     80  C   UNL A   1      40.009  29.319  33.477  1.00  0.00     0.173 A 
ATOM     81  F   UNL A   1      41.831  32.427  33.993  1.00  0.00    -0.203 F 
ATOM     82  C   UNL A   1      39.527  32.042  33.726  1.00  0.00     0.198 A 
ATOM     83  C   UNL A   1      38.712  29.814  33.379  1.00  0.00     0.198 A 
ATOM     84  F   UNL A   1      40.216  28.007  33.292  1.00  0.00    -0.203 F 
ATOM     85  F   UNL A   1      39.329  33.361  33.785  1.00  0.00    -0.200 F 
ATOM     86  C   UNL A   1      38.480  31.179  33.442  1.00  0.00     0.200 A 
ATOM     87  F   UNL A   1      37.696  28.981  33.108  1.00  0.00    -0.200 F 
ATOM     88  F   UNL A   1      37.256  31.653  33.178  1.00  0.00    -0.200 F 
ENDBRANCH  54  78
BRANCH  66  89
ATOM     89  C   UNL A   1      45.306  24.525  33.423  1.00  0.00     0.064 A 
ATOM     90  C   UNL A   1      44.525  23.399  33.734  1.00  0.00     0.173 A 
ATOM     91  C   UNL A   1      46.677  24.430  33.752  1.00  0.00     0.173 A 
ATOM     92  F   UNL A   1      43.245  23.309  33.344  1.00  0.00    -0.203 F 
ATOM     93  C   UNL A   1      45.052  22.298  34.413  1.00  0.00     0.198 A 
ATOM     94  C   UNL A   1      47.213  23.305  34.375  1.00  0.00     0.198 A 
ATOM     95  F   UNL A   1      47.534  25.417  33.455  1.00  0.00    -0.203 F 
ATOM     96  F   UNL A   1      44.252  21.274  34.738  1.00  0.00    -0.200 F 
ATOM     97  C   UNL A   1      46.397  22.250  34.729  1.00  0.00     0.200 A 
ATOM     98  F   UNL A   1      48.530  23.244  34.621  1.00  0.00    -0.200 F 
ATOM     99  F   UNL A   1      46.907  21.178  35.350  1.00  0.00    -0.200 F 
ENDBRANCH  66  89
ENDBRANCH  40  41
ENDBRANCH  32  35
ENDBRANCH  30  31
ENDBRANCH  29  30
ENDBRANCH   1  29
TORSDOF 14
ENDMDL
MODEL 2
REMARK VINA RESULT:     -14.5      3.776      9.576
REMARK SMILES Cc1ccc(C(=O)NCCCCNC(=O)c2ccc(-c3c4nc(c(-c5c(F)c(F)c(F)c(F)c5F)c5ccc([nH]5)c(-c5c(F)c(F)c(F)c(F)c5F)c5nc(c(-c6c(F)c(F)c(F)c(F)c6F)c6ccc3[nH]6)C=C5)C=C4)cc2)cc1NC(=O)Cc1ccc2ccccc2c1
REMARK SMILES IDX 10 1 9 2 8 3 6 4 7 5 5 7 1 8 2 9 3 10 80 11 4 12 79 13 81 14
REMARK SMILES IDX 82 15 83 17 84 18 85 19 86 20 94 21 87 22 93 23 88 24 92 25
REMARK SMILES IDX 89 26 91 27 90 28 11 29 12 30 13 31 14 32 15 34 16 35 17 36
REMARK SMILES IDX 78 37 18 38 77 39 19 40 20 41 21 42 71 43 22 44 76 45 70 46
REMARK SMILES IDX 72 47 23 48 75 49 69 50 68 51 24 53 56 54 36 55 55 56 37 57
REMARK SMILES IDX 40 58 54 59 73 60 38 61 39 62 53 64 74 65 41 66 25 67 26 68
REMARK SMILES IDX 34 69 27 70 28 71 32 72 35 73 29 74 30 75 33 76 31 77 57 78
REMARK SMILES IDX 58 79 66 80 59 81 60 82 64 83 67 84 61 85 62 86 65 87 63 88
REMARK SMILES IDX 42 89 43 90 51 91 44 92 45 93 49 94 52 95 46 96 47 97 50 98
REMARK SMILES IDX 48 99
REMARK H PARENT 8 6 81 16 13 33 72 52 40 63
REMARK Flexibility Score: inf
ROOT
ATOM      1  C   UNL A   1      35.184  22.415  26.447  1.00  0.00     0.023 C 
ENDROOT
BRANCH   1   2
ATOM      2  C   UNL A   1      35.272  21.166  25.561  1.00  0.00     0.116 C 
BRANCH   2   3
ATOM      3  N   UNL A   1      34.185  20.220  25.654  1.00  0.00    -0.352 N 
ATOM      4  C   UNL A   1      32.867  20.288  25.255  1.00  0.00     0.251 C 
ATOM      5  O   UNL A   1      32.190  19.265  25.377  1.00  0.00    -0.269 OA
ATOM      6  H   UNL A   1      34.430  19.368  26.083  1.00  0.00     0.163 HD
BRANCH   4   7
ATOM      7  C   UNL A   1      32.196  21.534  24.765  1.00  0.00     0.041 A 
ATOM      8  C   UNL A   1      30.145  25.220  23.791  1.00  0.00     0.046 C 
ATOM      9  C   UNL A   1      30.918  23.950  24.042  1.00  0.00    -0.027 A 
ATOM     10  C   UNL A   1      30.698  23.351  25.301  1.00  0.00     0.006 A 
ATOM     11  C   UNL A   1      31.776  23.319  23.111  1.00  0.00     0.044 A 
ATOM     12  C   UNL A   1      31.354  22.180  25.670  1.00  0.00     0.014 A 
ATOM     13  C   UNL A   1      32.310  22.065  23.470  1.00  0.00     0.040 A 
BRANCH  11  14
ATOM     14  N   UNL A   1      32.075  23.985  21.884  1.00  0.00    -0.326 N 
ATOM     15  C   UNL A   1      32.940  25.002  21.510  1.00  0.00     0.228 C 
ATOM     16  H   UNL A   1      31.546  23.641  21.128  1.00  0.00     0.169 HD
ATOM     17  O   UNL A   1      32.903  25.385  20.339  1.00  0.00    -0.274 OA
BRANCH  15  18
ATOM     18  C   UNL A   1      33.865  25.589  22.539  1.00  0.00     0.135 C 
BRANCH  18  19
ATOM     19  C   UNL A   1      33.457  26.478  23.691  1.00  0.00    -0.038 A 
ATOM     20  C   UNL A   1      33.911  26.042  24.948  1.00  0.00     0.005 A 
ATOM     21  C   UNL A   1      32.764  27.690  23.650  1.00  0.00     0.013 A 
ATOM     22  C   UNL A   1      33.627  26.712  26.126  1.00  0.00     0.009 A 
ATOM     23  C   UNL A   1      32.523  28.432  24.841  1.00  0.00    -0.018 A 
ATOM     24  C   UNL A   1      32.943  27.912  26.089  1.00  0.00    -0.018 A 
ATOM     25  C   UNL A   1      31.928  29.706  24.844  1.00  0.00     0.009 A 
ATOM     26  C   UNL A   1      32.733  28.615  27.281  1.00  0.00     0.009 A 
ATOM     27  C   UNL A   1      31.778  30.433  26.034  1.00  0.00     0.001 A 
ATOM     28  C   UNL A   1      32.163  29.881  27.251  1.00  0.00     0.001 A 
ENDBRANCH  18  19
ENDBRANCH  15  18
ENDBRANCH  11  14
ENDBRANCH   4   7
ENDBRANCH   2   3
ENDBRANCH   1   2
BRANCH   1  29
ATOM     29  C   UNL A   1      36.139  23.566  26.128  1.00  0.00     0.023 C 
BRANCH  29  30
ATOM     30  C   UNL A   1      37.424  23.176  25.402  1.00  0.00     0.116 C 
BRANCH  30  31
ATOM     31  N   UNL A   1      38.429  22.443  26.157  1.00  0.00    -0.352 N 
ATOM     32  C   UNL A   1      39.523  22.924  26.877  1.00  0.00     0.251 C 
ATOM     33  H   UNL A   1      38.323  21.465  26.159  1.00  0.00     0.163 HD
ATOM     34  O   UNL A   1      40.310  22.139  27.372  1.00  0.00    -0.269 OA
BRANCH  32  35
ATOM     35  C   UNL A   1      39.674  24.386  27.156  1.00  0.00     0.039 A 
ATOM     36  C   UNL A   1      40.290  25.218  26.201  1.00  0.00     0.014 A 
ATOM     37  C   UNL A   1      39.298  24.933  28.373  1.00  0.00     0.014 A 
ATOM     38  C   UNL A   1      40.664  26.529  26.533  1.00  0.00     0.010 A 
ATOM     39  C   UNL A   1      39.779  26.165  28.750  1.00  0.00     0.010 A 
ATOM     40  C   UNL A   1      40.472  26.969  27.837  1.00  0.00    -0.014 A 
BRANCH  40  41
ATOM     41  C   UNL A   1      40.843  28.264  28.399  1.00  0.00     0.031 A 
ATOM     42  C   UNL A   1      39.807  29.329  28.472  1.00  0.00     0.074 A 
ATOM     43  C   UNL A   1      41.904  28.292  29.238  1.00  0.00     0.049 A 
ATOM     44  N   UNL A   1      39.978  30.478  29.030  1.00  0.00    -0.248 NA
ATOM     45  C   UNL A   1      38.474  29.183  27.880  1.00  0.00     0.031 C 
ATOM     46  C   UNL A   1      42.069  29.118  30.433  1.00  0.00     0.029 A 
ATOM     47  N   UNL A   1      43.157  27.683  29.065  1.00  0.00    -0.354 N 
ATOM     48  C   UNL A   1      38.735  31.050  29.181  1.00  0.00     0.074 A 
ATOM     49  C   UNL A   1      37.866  30.289  28.322  1.00  0.00     0.031 C 
ATOM     50  C   UNL A   1      43.372  29.188  30.745  1.00  0.00     0.029 A 
ATOM     51  C   UNL A   1      44.092  28.587  29.640  1.00  0.00     0.049 A 
ATOM     52  H   UNL A   1      43.347  26.817  28.636  1.00  0.00     0.167 HD
ATOM     53  C   UNL A   1      38.564  32.001  30.141  1.00  0.00     0.037 A 
ATOM     54  C   UNL A   1      45.009  29.255  28.874  1.00  0.00     0.037 A 
ATOM     55  C   UNL A   1      39.855  32.476  30.634  1.00  0.00     0.049 A 
ATOM     56  C   UNL A   1      44.941  30.754  28.967  1.00  0.00     0.074 A 
ATOM     57  C   UNL A   1      40.549  32.292  31.815  1.00  0.00     0.029 A 
ATOM     58  N   UNL A   1      40.739  33.071  29.737  1.00  0.00    -0.354 N 
ATOM     59  N   UNL A   1      43.896  31.402  29.393  1.00  0.00    -0.248 NA
ATOM     60  C   UNL A   1      46.016  31.637  28.526  1.00  0.00     0.031 C 
ATOM     61  C   UNL A   1      41.898  32.679  31.582  1.00  0.00     0.029 A 
ATOM     62  C   UNL A   1      42.003  33.145  30.281  1.00  0.00     0.049 A 
ATOM     63  H   UNL A   1      40.494  33.392  28.840  1.00  0.00     0.167 HD
ATOM     64  C   UNL A   1      44.103  32.742  29.233  1.00  0.00     0.074 A 
ATOM     65  C   UNL A   1      45.458  32.843  28.722  1.00  0.00     0.031 C 
ATOM     66  C   UNL A   1      43.121  33.650  29.497  1.00  0.00     0.037 A 
BRANCH  53  67
ATOM     67  C   UNL A   1      37.249  32.391  30.790  1.00  0.00     0.064 A 
ATOM     68  C   UNL A   1      36.302  33.146  30.062  1.00  0.00     0.173 A 
ATOM     69  C   UNL A   1      36.913  32.184  32.146  1.00  0.00     0.173 A 
ATOM     70  F   UNL A   1      36.492  33.431  28.766  1.00  0.00    -0.203 F 
ATOM     71  C   UNL A   1      35.134  33.657  30.643  1.00  0.00     0.198 A 
ATOM     72  C   UNL A   1      35.719  32.647  32.710  1.00  0.00     0.198 A 
ATOM     73  F   UNL A   1      37.744  31.585  33.005  1.00  0.00    -0.203 F 
ATOM     74  F   UNL A   1      34.307  34.421  29.915  1.00  0.00    -0.200 F 
ATOM     75  C   UNL A   1      34.837  33.396  31.964  1.00  0.00     0.200 A 
ATOM     76  F   UNL A   1      35.451  32.385  33.998  1.00  0.00    -0.200 F 
ATOM     77  F   UNL A   1      33.720  33.882  32.522  1.00  0.00    -0.200 F 
ENDBRANCH  53  67
BRANCH  54  78
ATOM     78  C   UNL A   1      45.327  28.527  27.619  1.00  0.00     0.064 A 
ATOM     79  C   UNL A   1      46.165  27.409  27.740  1.00  0.00     0.173 A 
ATOM     80  C   UNL A   1      44.434  28.577  26.541  1.00  0.00     0.173 A 
ATOM     81  F   UNL A   1      47.047  27.336  28.750  1.00  0.00    -0.203 F 
ATOM     82  C   UNL A   1      45.954  26.289  26.951  1.00  0.00     0.198 A 
ATOM     83  C   UNL A   1      44.243  27.454  25.740  1.00  0.00     0.198 A 
ATOM     84  F   UNL A   1      43.643  29.644  26.358  1.00  0.00    -0.203 F 
ATOM     85  F   UNL A   1      46.652  25.181  27.209  1.00  0.00    -0.200 F 
ATOM     86  C   UNL A   1      44.959  26.293  25.986  1.00  0.00     0.200 A 
ATOM     87  F   UNL A   1      43.283  27.456  24.803  1.00  0.00    -0.200 F 
ATOM     88  F   UNL A   1      44.647  25.174  25.322  1.00  0.00    -0.200 F 
ENDBRANCH  54  78
BRANCH  66  89
ATOM     89  C   UNL A   1      43.170  35.099  29.097  1.00  0.00     0.064 A 
ATOM     90  C   UNL A   1      42.845  35.564  27.811  1.00  0.00     0.173 A 
ATOM     91  C   UNL A   1      43.434  36.097  30.061  1.00  0.00     0.173 A 
ATOM     92  F   UNL A   1      42.435  34.725  26.848  1.00  0.00    -0.203 F 
ATOM     93  C   UNL A   1      42.877  36.922  27.486  1.00  0.00     0.198 A 
ATOM     94  C   UNL A   1      43.407  37.455  29.749  1.00  0.00     0.198 A 
ATOM     95  F   UNL A   1      43.702  35.779  31.336  1.00  0.00    -0.203 F 
ATOM     96  F   UNL A   1      42.615  37.310  26.230  1.00  0.00    -0.200 F 
ATOM     97  C   UNL A   1      43.153  37.866  28.457  1.00  0.00     0.200 A 
ATOM     98  F   UNL A   1      43.615  38.363  30.713  1.00  0.00    -0.200 F 
ATOM     99  F   UNL A   1      43.150  39.171  28.151  1.00  0.00    -0.200 F 
ENDBRANCH  66  89
ENDBRANCH  40  41
ENDBRANCH  32  35
ENDBRANCH  30  31
ENDBRANCH  29  30
ENDBRANCH   1  29
TORSDOF 14
ENDMDL
MODEL 3
REMARK VINA RESULT:     -14.3      3.706      9.468
REMARK SMILES Cc1ccc(C(=O)NCCCCNC(=O)c2ccc(-c3c4nc(c(-c5c(F)c(F)c(F)c(F)c5F)c5ccc([nH]5)c(-c5c(F)c(F)c(F)c(F)c5F)c5nc(c(-c6c(F)c(F)c(F)c(F)c6F)c6ccc3[nH]6)C=C5)C=C4)cc2)cc1NC(=O)Cc1ccc2ccccc2c1
REMARK SMILES IDX 10 1 9 2 8 3 6 4 7 5 5 7 1 8 2 9 3 10 80 11 4 12 79 13 81 14
REMARK SMILES IDX 82 15 83 17 84 18 85 19 86 20 94 21 87 22 93 23 88 24 92 25
REMARK SMILES IDX 89 26 91 27 90 28 11 29 12 30 13 31 14 32 15 34 16 35 17 36
REMARK SMILES IDX 78 37 18 38 77 39 19 40 20 41 21 42 71 43 22 44 76 45 70 46
REMARK SMILES IDX 72 47 23 48 75 49 69 50 68 51 24 53 56 54 36 55 55 56 37 57
REMARK SMILES IDX 40 58 54 59 73 60 38 61 39 62 53 64 74 65 41 66 25 67 26 68
REMARK SMILES IDX 34 69 27 70 28 71 32 72 35 73 29 74 30 75 33 76 31 77 57 78
REMARK SMILES IDX 58 79 66 80 59 81 60 82 64 83 67 84 61 85 62 86 65 87 63 88
REMARK SMILES IDX 42 89 43 90 51 91 44 92 45 93 49 94 52 95 46 96 47 97 50 98
REMARK SMILES IDX 48 99
REMARK H PARENT 8 6 81 16 13 33 72 52 40 63
REMARK Flexibility Score: inf
ROOT
ATOM      1  C   UNL A   1      35.296  21.786  26.598  1.00  0.00     0.023 C 
ENDROOT
BRANCH   1   2
ATOM      2  C   UNL A   1      33.857  21.534  27.065  1.00  0.00     0.116 C 
BRANCH   2   3
ATOM      3  N   UNL A   1      33.070  20.605  26.288  1.00  0.00    -0.352 N 
ATOM      4  C   UNL A   1      32.499  20.703  25.037  1.00  0.00     0.251 C 
ATOM      5  O   UNL A   1      31.962  19.690  24.584  1.00  0.00    -0.269 OA
ATOM      6  H   UNL A   1      32.912  19.742  26.734  1.00  0.00     0.163 HD
BRANCH   4   7
ATOM      7  C   UNL A   1      32.421  21.969  24.241  1.00  0.00     0.041 A 
ATOM      8  C   UNL A   1      32.536  25.453  21.673  1.00  0.00     0.046 C 
ATOM      9  C   UNL A   1      32.395  24.264  22.589  1.00  0.00    -0.027 A 
ATOM     10  C   UNL A   1      33.472  23.353  22.563  1.00  0.00     0.006 A 
ATOM     11  C   UNL A   1      31.315  24.041  23.477  1.00  0.00     0.044 A 
ATOM     12  C   UNL A   1      33.469  22.205  23.351  1.00  0.00     0.014 A 
ATOM     13  C   UNL A   1      31.417  22.944  24.356  1.00  0.00     0.040 A 
BRANCH  11  14
ATOM     14  N   UNL A   1      30.183  24.908  23.421  1.00  0.00    -0.326 N 
ATOM     15  C   UNL A   1      29.548  25.746  24.326  1.00  0.00     0.228 C 
ATOM     16  H   UNL A   1      29.753  24.914  22.535  1.00  0.00     0.169 HD
ATOM     17  O   UNL A   1      28.529  26.328  23.951  1.00  0.00    -0.274 OA
BRANCH  15  18
ATOM     18  C   UNL A   1      30.123  25.899  25.706  1.00  0.00     0.135 C 
BRANCH  18  19
ATOM     19  C   UNL A   1      31.247  26.831  26.098  1.00  0.00    -0.038 A 
ATOM     20  C   UNL A   1      32.534  26.325  25.847  1.00  0.00     0.005 A 
ATOM     21  C   UNL A   1      31.160  28.132  26.598  1.00  0.00     0.013 A 
ATOM     22  C   UNL A   1      33.691  27.021  26.154  1.00  0.00     0.009 A 
ATOM     23  C   UNL A   1      32.337  28.894  26.852  1.00  0.00    -0.018 A 
ATOM     24  C   UNL A   1      33.609  28.310  26.646  1.00  0.00    -0.018 A 
ATOM     25  C   UNL A   1      32.307  30.242  27.251  1.00  0.00     0.009 A 
ATOM     26  C   UNL A   1      34.789  29.028  26.876  1.00  0.00     0.009 A 
ATOM     27  C   UNL A   1      33.490  30.975  27.418  1.00  0.00     0.001 A 
ATOM     28  C   UNL A   1      34.728  30.364  27.248  1.00  0.00     0.001 A 
ENDBRANCH  18  19
ENDBRANCH  15  18
ENDBRANCH  11  14
ENDBRANCH   4   7
ENDBRANCH   2   3
ENDBRANCH   1   2
BRANCH   1  29
ATOM     29  C   UNL A   1      35.639  23.200  26.125  1.00  0.00     0.023 C 
BRANCH  29  30
ATOM     30  C   UNL A   1      37.059  23.395  25.602  1.00  0.00     0.116 C 
BRANCH  30  31
ATOM     31  N   UNL A   1      38.123  22.630  26.236  1.00  0.00    -0.352 N 
ATOM     32  C   UNL A   1      39.285  23.078  26.864  1.00  0.00     0.251 C 
ATOM     33  H   UNL A   1      38.005  21.653  26.220  1.00  0.00     0.163 HD
ATOM     34  O   UNL A   1      40.105  22.272  27.259  1.00  0.00    -0.269 OA
BRANCH  32  35
ATOM     35  C   UNL A   1      39.480  24.530  27.171  1.00  0.00     0.039 A 
ATOM     36  C   UNL A   1      40.173  25.348  26.258  1.00  0.00     0.014 A 
ATOM     37  C   UNL A   1      39.066  25.076  28.375  1.00  0.00     0.014 A 
ATOM     38  C   UNL A   1      40.582  26.639  26.627  1.00  0.00     0.010 A 
ATOM     39  C   UNL A   1      39.575  26.284  28.792  1.00  0.00     0.010 A 
ATOM     40  C   UNL A   1      40.343  27.071  27.926  1.00  0.00    -0.014 A 
BRANCH  40  41
ATOM     41  C   UNL A   1      40.736  28.343  28.523  1.00  0.00     0.031 A 
ATOM     42  C   UNL A   1      39.733  29.440  28.580  1.00  0.00     0.074 A 
ATOM     43  C   UNL A   1      41.768  28.321  29.398  1.00  0.00     0.049 A 
ATOM     44  N   UNL A   1      39.922  30.574  29.165  1.00  0.00    -0.248 NA
ATOM     45  C   UNL A   1      38.418  29.348  27.941  1.00  0.00     0.031 C 
ATOM     46  C   UNL A   1      41.919  29.121  30.613  1.00  0.00     0.029 A 
ATOM     47  N   UNL A   1      43.006  27.675  29.256  1.00  0.00    -0.354 N 
ATOM     48  C   UNL A   1      38.695  31.183  29.284  1.00  0.00     0.074 A 
ATOM     49  C   UNL A   1      37.831  30.466  28.382  1.00  0.00     0.031 C 
ATOM     50  C   UNL A   1      43.212  29.143  30.969  1.00  0.00     0.029 A 
ATOM     51  C   UNL A   1      43.950  28.537  29.879  1.00  0.00     0.049 A 
ATOM     52  H   UNL A   1      43.182  26.811  28.819  1.00  0.00     0.167 HD
ATOM     53  C   UNL A   1      38.522  32.123  30.255  1.00  0.00     0.037 A 
ATOM     54  C   UNL A   1      44.913  29.188  29.156  1.00  0.00     0.037 A 
ATOM     55  C   UNL A   1      39.809  32.547  30.800  1.00  0.00     0.049 A 
ATOM     56  C   UNL A   1      44.892  30.687  29.275  1.00  0.00     0.074 A 
ATOM     57  C   UNL A   1      40.457  32.320  31.999  1.00  0.00     0.029 A 
ATOM     58  N   UNL A   1      40.742  33.127  29.944  1.00  0.00    -0.354 N 
ATOM     59  N   UNL A   1      43.853  31.361  29.676  1.00  0.00    -0.248 NA
ATOM     60  C   UNL A   1      46.009  31.541  28.886  1.00  0.00     0.031 C 
ATOM     61  C   UNL A   1      41.824  32.666  31.819  1.00  0.00     0.029 A 
ATOM     62  C   UNL A   1      41.990  33.151  30.532  1.00  0.00     0.049 A 
ATOM     63  H   UNL A   1      40.539  33.472  29.045  1.00  0.00     0.167 HD
ATOM     64  C   UNL A   1      44.110  32.696  29.548  1.00  0.00     0.074 A 
ATOM     65  C   UNL A   1      45.484  32.761  29.084  1.00  0.00     0.031 C 
ATOM     66  C   UNL A   1      43.149  33.631  29.795  1.00  0.00     0.037 A 
BRANCH  53  67
ATOM     67  C   UNL A   1      37.199  32.545  30.866  1.00  0.00     0.064 A 
ATOM     68  C   UNL A   1      36.266  33.273  30.092  1.00  0.00     0.173 A 
ATOM     69  C   UNL A   1      36.840  32.397  32.224  1.00  0.00     0.173 A 
ATOM     70  F   UNL A   1      36.478  33.502  28.788  1.00  0.00    -0.203 F 
ATOM     71  C   UNL A   1      35.092  33.813  30.633  1.00  0.00     0.198 A 
ATOM     72  C   UNL A   1      35.640  32.888  32.749  1.00  0.00     0.198 A 
ATOM     73  F   UNL A   1      37.655  31.832  33.121  1.00  0.00    -0.203 F 
ATOM     74  F   UNL A   1      34.279  34.547  29.860  1.00  0.00    -0.200 F 
ATOM     75  C   UNL A   1      34.773  33.609  31.959  1.00  0.00     0.200 A 
ATOM     76  F   UNL A   1      35.350  32.682  34.043  1.00  0.00    -0.200 F 
ATOM     77  F   UNL A   1      33.649  34.121  32.478  1.00  0.00    -0.200 F 
ENDBRANCH  53  67
BRANCH  54  78
ATOM     78  C   UNL A   1      45.251  28.471  27.900  1.00  0.00     0.064 A 
ATOM     79  C   UNL A   1      46.034  27.315  28.030  1.00  0.00     0.173 A 
ATOM     80  C   UNL A   1      44.405  28.581  26.788  1.00  0.00     0.173 A 
ATOM     81  F   UNL A   1      46.870  27.184  29.073  1.00  0.00    -0.203 F 
ATOM     82  C   UNL A   1      45.807  26.221  27.210  1.00  0.00     0.198 A 
ATOM     83  C   UNL A   1      44.199  27.484  25.957  1.00  0.00     0.198 A 
ATOM     84  F   UNL A   1      43.670  29.685  26.597  1.00  0.00    -0.203 F 
ATOM     85  F   UNL A   1      46.446  25.078  27.472  1.00  0.00    -0.200 F 
ATOM     86  C   UNL A   1      44.854  26.287  26.207  1.00  0.00     0.200 A 
ATOM     87  F   UNL A   1      43.279  27.546  24.983  1.00  0.00    -0.200 F 
ATOM     88  F   UNL A   1      44.521  25.196  25.507  1.00  0.00    -0.200 F 
ENDBRANCH  54  78
BRANCH  66  89
ATOM     89  C   UNL A   1      43.259  35.084  29.423  1.00  0.00     0.064 A 
ATOM     90  C   UNL A   1      43.664  36.090  30.317  1.00  0.00     0.173 A 
ATOM     91  C   UNL A   1      43.071  35.494  28.084  1.00  0.00     0.173 A 
ATOM     92  F   UNL A   1      44.013  35.802  31.579  1.00  0.00    -0.203 F 
ATOM     93  C   UNL A   1      43.779  37.425  29.925  1.00  0.00     0.198 A 
ATOM     94  C   UNL A   1      43.244  36.817  27.682  1.00  0.00     0.198 A 
ATOM     95  F   UNL A   1      42.737  34.615  27.128  1.00  0.00    -0.203 F 
ATOM     96  F   UNL A   1      44.113  38.357  30.829  1.00  0.00    -0.200 F 
ATOM     97  C   UNL A   1      43.573  37.787  28.606  1.00  0.00     0.200 A 
ATOM     98  F   UNL A   1      43.102  37.144  26.390  1.00  0.00    -0.200 F 
ATOM     99  F   UNL A   1      43.717  39.063  28.225  1.00  0.00    -0.200 F 
ENDBRANCH  66  89
ENDBRANCH  40  41
ENDBRANCH  32  35
ENDBRANCH  30  31
ENDBRANCH  29  30
ENDBRANCH   1  29
TORSDOF 14
ENDMDL
