MODEL 1
REMARK VINA RESULT:     -12.4      0.000      0.000
REMARK SMILES Cc1cc(Cl)ccc1OCC(=O)Nc1ccc(CC(=O)NCCCCNC(=O)c2ccc(-c3c4nc(c(-c5c(F)c(F)c(F)c(F)c5F)c5ccc([nH]5)c(-c5c(F)c(F)c(F)c(F)c5F)c5nc(c(-c6c(F)c(F)c(F)c(F)c6F)c6ccc3[nH]6)C=C5)C=C4)cc2)cc1
REMARK SMILES IDX 22 1 21 2 19 3 20 4 18 6 17 7 14 8 15 9 93 10 16 11 92 12
REMARK SMILES IDX 13 13 11 14 12 15 10 17 9 18 8 19 1 20 2 21 3 22 4 23 7 24
REMARK SMILES IDX 5 25 6 26 23 27 24 28 25 29 26 30 27 31 28 33 29 34 30 35
REMARK SMILES IDX 91 36 31 37 90 38 32 39 33 40 34 41 84 42 35 43 89 44 83 45
REMARK SMILES IDX 85 46 36 47 88 48 82 49 81 50 37 52 69 53 49 54 68 55 50 56
REMARK SMILES IDX 53 57 67 58 86 59 51 60 52 61 66 63 87 64 54 65 38 66 39 67
REMARK SMILES IDX 47 68 40 69 41 70 45 71 48 72 42 73 43 74 46 75 44 76 70 77
REMARK SMILES IDX 71 78 79 79 72 80 73 81 77 82 80 83 74 84 75 85 78 86 76 87
REMARK SMILES IDX 55 88 56 89 64 90 57 91 58 92 62 93 65 94 59 95 60 96 63 97
REMARK SMILES IDX 61 98
REMARK H PARENT 21 5 13 16 26 32 85 51 53 62
REMARK Flexibility Score: inf
ROOT
ATOM      1  C   UNL A   1      32.675  29.613  25.671  1.00  0.00     0.116 C 
ENDROOT
BRANCH   1   2
ATOM      2  N   UNL A   1      33.375  29.572  24.401  1.00  0.00    -0.356 N 
ATOM      3  C   UNL A   1      33.496  28.541  23.513  1.00  0.00     0.224 C 
ATOM      4  O   UNL A   1      34.203  28.707  22.517  1.00  0.00    -0.275 OA
ATOM      5  H   UNL A   1      33.828  30.406  24.142  1.00  0.00     0.163 HD
BRANCH   3   6
ATOM      6  C   UNL A   1      32.735  27.246  23.730  1.00  0.00     0.135 C 
BRANCH   6   7
ATOM      7  C   UNL A   1      33.618  26.058  24.015  1.00  0.00    -0.039 A 
ATOM      8  C   UNL A   1      35.201  23.787  24.511  1.00  0.00     0.041 A 
ATOM      9  C   UNL A   1      34.985  24.730  25.520  1.00  0.00     0.026 A 
ATOM     10  C   UNL A   1      34.577  23.964  23.285  1.00  0.00     0.026 A 
ATOM     11  C   UNL A   1      34.209  25.868  25.270  1.00  0.00     0.006 A 
ATOM     12  C   UNL A   1      33.824  25.101  23.020  1.00  0.00     0.006 A 
BRANCH   8  13
ATOM     13  N   UNL A   1      36.020  22.690  24.795  1.00  0.00    -0.323 N 
ATOM     14  C   UNL A   1      35.722  21.363  24.948  1.00  0.00     0.262 C 
ATOM     15  O   UNL A   1      36.658  20.608  25.236  1.00  0.00    -0.271 OA
ATOM     16  H   UNL A   1      36.974  22.908  24.903  1.00  0.00     0.170 HD
BRANCH  14  17
ATOM     17  C   UNL A   1      34.330  20.791  24.580  1.00  0.00     0.329 C 
BRANCH  17  18
ATOM     18  O   UNL A   1      33.167  20.801  25.384  1.00  0.00    -0.483 OA
BRANCH  18  19
ATOM     19  C   UNL A   1      32.494  21.955  25.648  1.00  0.00     0.123 A 
ATOM     20  C   UNL A   1      33.196  22.292  28.103  1.00  0.00     0.048 C 
ATOM     21  C   UNL A   1      32.478  22.679  26.845  1.00  0.00    -0.007 A 
ATOM     22  C   UNL A   1      31.689  23.849  26.913  1.00  0.00     0.027 A 
ATOM     23  C   UNL A   1      30.883  24.245  25.846  1.00  0.00     0.041 A 
ATOM     24  C   UNL A   1      31.644  22.348  24.596  1.00  0.00     0.048 A 
ATOM     25  Cl  UNL A   1      29.902  25.650  25.987  1.00  0.00    -0.084 Cl
ATOM     26  C   UNL A   1      30.847  23.489  24.686  1.00  0.00     0.024 A 
ENDBRANCH  18  19
ENDBRANCH  17  18
ENDBRANCH  14  17
ENDBRANCH   8  13
ENDBRANCH   6   7
ENDBRANCH   3   6
ENDBRANCH   1   2
BRANCH   1  27
ATOM     27  C   UNL A   1      31.484  30.574  25.635  1.00  0.00     0.023 C 
BRANCH  27  28
ATOM     28  C   UNL A   1      31.448  31.579  26.789  1.00  0.00     0.023 C 
BRANCH  28  29
ATOM     29  C   UNL A   1      32.714  32.409  26.962  1.00  0.00     0.116 C 
BRANCH  29  30
ATOM     30  N   UNL A   1      32.450  33.761  27.426  1.00  0.00    -0.352 N 
ATOM     31  C   UNL A   1      33.087  34.474  28.412  1.00  0.00     0.251 C 
ATOM     32  H   UNL A   1      31.714  34.230  26.971  1.00  0.00     0.163 HD
ATOM     33  O   UNL A   1      32.648  35.568  28.759  1.00  0.00    -0.269 OA
BRANCH  31  34
ATOM     34  C   UNL A   1      34.278  33.910  29.082  1.00  0.00     0.039 A 
ATOM     35  C   UNL A   1      34.096  32.909  30.039  1.00  0.00     0.014 A 
ATOM     36  C   UNL A   1      35.567  34.355  28.773  1.00  0.00     0.014 A 
ATOM     37  C   UNL A   1      35.207  32.317  30.641  1.00  0.00     0.010 A 
ATOM     38  C   UNL A   1      36.675  33.707  29.312  1.00  0.00     0.010 A 
ATOM     39  C   UNL A   1      36.509  32.686  30.257  1.00  0.00    -0.014 A 
BRANCH  39  40
ATOM     40  C   UNL A   1      37.692  32.005  30.844  1.00  0.00     0.031 A 
ATOM     41  C   UNL A   1      38.162  32.352  32.232  1.00  0.00     0.074 A 
ATOM     42  C   UNL A   1      38.359  31.087  30.117  1.00  0.00     0.049 A 
ATOM     43  N   UNL A   1      39.166  31.858  32.913  1.00  0.00    -0.248 NA
ATOM     44  C   UNL A   1      37.419  33.404  32.942  1.00  0.00     0.031 C 
ATOM     45  C   UNL A   1      38.035  30.700  28.743  1.00  0.00     0.029 A 
ATOM     46  N   UNL A   1      39.443  30.306  30.434  1.00  0.00    -0.354 N 
ATOM     47  C   UNL A   1      39.167  32.530  34.128  1.00  0.00     0.074 A 
ATOM     48  C   UNL A   1      38.115  33.521  34.064  1.00  0.00     0.031 C 
ATOM     49  C   UNL A   1      38.874  29.729  28.350  1.00  0.00     0.029 A 
ATOM     50  C   UNL A   1      39.819  29.451  29.425  1.00  0.00     0.049 A 
ATOM     51  H   UNL A   1      39.906  30.354  31.300  1.00  0.00     0.167 HD
ATOM     52  C   UNL A   1      39.949  32.318  35.214  1.00  0.00     0.037 A 
ATOM     53  C   UNL A   1      40.814  28.544  29.378  1.00  0.00     0.037 A 
ATOM     54  C   UNL A   1      40.995  31.331  35.280  1.00  0.00     0.049 A 
ATOM     55  C   UNL A   1      41.692  28.358  30.588  1.00  0.00     0.074 A 
ATOM     56  C   UNL A   1      41.831  31.026  36.340  1.00  0.00     0.029 A 
ATOM     57  N   UNL A   1      41.349  30.486  34.237  1.00  0.00    -0.354 N 
ATOM     58  N   UNL A   1      41.636  28.953  31.755  1.00  0.00    -0.248 NA
ATOM     59  C   UNL A   1      42.765  27.362  30.476  1.00  0.00     0.031 C 
ATOM     60  C   UNL A   1      42.722  30.030  35.924  1.00  0.00     0.029 A 
ATOM     61  C   UNL A   1      42.402  29.671  34.625  1.00  0.00     0.049 A 
ATOM     62  H   UNL A   1      40.917  30.467  33.353  1.00  0.00     0.167 HD
ATOM     63  C   UNL A   1      42.638  28.377  32.526  1.00  0.00     0.074 A 
ATOM     64  C   UNL A   1      43.269  27.368  31.701  1.00  0.00     0.031 C 
ATOM     65  C   UNL A   1      43.007  28.660  33.799  1.00  0.00     0.037 A 
BRANCH  52  66
ATOM     66  C   UNL A   1      39.688  33.158  36.433  1.00  0.00     0.064 A 
ATOM     67  C   UNL A   1      40.305  34.408  36.605  1.00  0.00     0.173 A 
ATOM     68  C   UNL A   1      38.776  32.739  37.412  1.00  0.00     0.173 A 
ATOM     69  F   UNL A   1      41.193  34.851  35.703  1.00  0.00    -0.203 F 
ATOM     70  C   UNL A   1      40.039  35.192  37.724  1.00  0.00     0.198 A 
ATOM     71  C   UNL A   1      38.487  33.541  38.514  1.00  0.00     0.198 A 
ATOM     72  F   UNL A   1      38.153  31.557  37.297  1.00  0.00    -0.203 F 
ATOM     73  F   UNL A   1      40.678  36.359  37.888  1.00  0.00    -0.200 F 
ATOM     74  C   UNL A   1      39.124  34.764  38.672  1.00  0.00     0.200 A 
ATOM     75  F   UNL A   1      37.592  33.132  39.424  1.00  0.00    -0.200 F 
ATOM     76  F   UNL A   1      38.860  35.526  39.742  1.00  0.00    -0.200 F 
ENDBRANCH  52  66
BRANCH  53  77
ATOM     77  C   UNL A   1      41.031  27.722  28.156  1.00  0.00     0.064 A 
ATOM     78  C   UNL A   1      40.484  26.435  28.045  1.00  0.00     0.173 A 
ATOM     79  C   UNL A   1      41.829  28.182  27.098  1.00  0.00     0.173 A 
ATOM     80  F   UNL A   1      39.729  25.941  29.037  1.00  0.00    -0.203 F 
ATOM     81  C   UNL A   1      40.764  25.625  26.946  1.00  0.00     0.198 A 
ATOM     82  C   UNL A   1      42.076  27.385  25.982  1.00  0.00     0.198 A 
ATOM     83  F   UNL A   1      42.371  29.408  27.148  1.00  0.00    -0.203 F 
ATOM     84  F   UNL A   1      40.289  24.372  26.903  1.00  0.00    -0.200 F 
ATOM     85  C   UNL A   1      41.557  26.102  25.915  1.00  0.00     0.200 A 
ATOM     86  F   UNL A   1      42.831  27.856  24.979  1.00  0.00    -0.200 F 
ATOM     87  F   UNL A   1      41.834  25.319  24.863  1.00  0.00    -0.200 F 
ENDBRANCH  53  77
BRANCH  65  88
ATOM     88  C   UNL A   1      44.110  27.829  34.394  1.00  0.00     0.064 A 
ATOM     89  C   UNL A   1      45.454  28.230  34.337  1.00  0.00     0.173 A 
ATOM     90  C   UNL A   1      43.815  26.618  35.038  1.00  0.00     0.173 A 
ATOM     91  F   UNL A   1      45.792  29.373  33.721  1.00  0.00    -0.203 F 
ATOM     92  C   UNL A   1      46.463  27.428  34.864  1.00  0.00     0.198 A 
ATOM     93  C   UNL A   1      44.823  25.838  35.598  1.00  0.00     0.198 A 
ATOM     94  F   UNL A   1      42.547  26.190  35.130  1.00  0.00    -0.203 F 
ATOM     95  F   UNL A   1      47.744  27.799  34.737  1.00  0.00    -0.200 F 
ATOM     96  C   UNL A   1      46.147  26.236  35.500  1.00  0.00     0.200 A 
ATOM     97  F   UNL A   1      44.514  24.695  36.227  1.00  0.00    -0.200 F 
ATOM     98  F   UNL A   1      47.120  25.468  36.006  1.00  0.00    -0.200 F 
ENDBRANCH  65  88
ENDBRANCH  39  40
ENDBRANCH  31  34
ENDBRANCH  29  30
ENDBRANCH  28  29
ENDBRANCH  27  28
ENDBRANCH   1  27
TORSDOF 16
ENDMDL
MODEL 2
REMARK VINA RESULT:     -12.3      0.321      1.807
REMARK SMILES Cc1cc(Cl)ccc1OCC(=O)Nc1ccc(CC(=O)NCCCCNC(=O)c2ccc(-c3c4nc(c(-c5c(F)c(F)c(F)c(F)c5F)c5ccc([nH]5)c(-c5c(F)c(F)c(F)c(F)c5F)c5nc(c(-c6c(F)c(F)c(F)c(F)c6F)c6ccc3[nH]6)C=C5)C=C4)cc2)cc1
REMARK SMILES IDX 22 1 21 2 19 3 20 4 18 6 17 7 14 8 15 9 93 10 16 11 92 12
REMARK SMILES IDX 13 13 11 14 12 15 10 17 9 18 8 19 1 20 2 21 3 22 4 23 7 24
REMARK SMILES IDX 5 25 6 26 23 27 24 28 25 29 26 30 27 31 28 33 29 34 30 35
REMARK SMILES IDX 91 36 31 37 90 38 32 39 33 40 34 41 84 42 35 43 89 44 83 45
REMARK SMILES IDX 85 46 36 47 88 48 82 49 81 50 37 52 69 53 49 54 68 55 50 56
REMARK SMILES IDX 53 57 67 58 86 59 51 60 52 61 66 63 87 64 54 65 38 66 39 67
REMARK SMILES IDX 47 68 40 69 41 70 45 71 48 72 42 73 43 74 46 75 44 76 70 77
REMARK SMILES IDX 71 78 79 79 72 80 73 81 77 82 80 83 74 84 75 85 78 86 76 87
REMARK SMILES IDX 55 88 56 89 64 90 57 91 58 92 62 93 65 94 59 95 60 96 63 97
REMARK SMILES IDX 61 98
REMARK H PARENT 21 5 13 16 26 32 85 51 53 62
REMARK Flexibility Score: inf
ROOT
ATOM      1  C   UNL A   1      32.968  29.884  25.980  1.00  0.00     0.116 C 
ENDROOT
BRANCH   1   2
ATOM      2  N   UNL A   1      33.590  29.688  24.685  1.00  0.00    -0.356 N 
ATOM      3  C   UNL A   1      33.630  28.568  23.904  1.00  0.00     0.224 C 
ATOM      4  O   UNL A   1      34.283  28.607  22.859  1.00  0.00    -0.275 OA
ATOM      5  H   UNL A   1      34.051  30.475  24.315  1.00  0.00     0.163 HD
BRANCH   3   6
ATOM      6  C   UNL A   1      32.847  27.329  24.297  1.00  0.00     0.135 C 
BRANCH   6   7
ATOM      7  C   UNL A   1      33.664  26.062  24.293  1.00  0.00    -0.039 A 
ATOM      8  C   UNL A   1      35.256  23.744  24.320  1.00  0.00     0.041 A 
ATOM      9  C   UNL A   1      34.550  24.102  23.168  1.00  0.00     0.026 A 
ATOM     10  C   UNL A   1      35.200  24.581  25.425  1.00  0.00     0.026 A 
ATOM     11  C   UNL A   1      33.746  25.247  23.158  1.00  0.00     0.006 A 
ATOM     12  C   UNL A   1      34.388  25.707  25.432  1.00  0.00     0.006 A 
BRANCH   8  13
ATOM     13  N   UNL A   1      36.011  22.567  24.296  1.00  0.00    -0.323 N 
ATOM     14  C   UNL A   1      36.011  21.483  25.131  1.00  0.00     0.262 C 
ATOM     15  O   UNL A   1      36.825  20.586  24.884  1.00  0.00    -0.271 OA
ATOM     16  H   UNL A   1      36.652  22.507  23.550  1.00  0.00     0.170 HD
BRANCH  14  17
ATOM     17  C   UNL A   1      34.917  21.283  26.209  1.00  0.00     0.329 C 
BRANCH  17  18
ATOM     18  O   UNL A   1      33.554  20.976  25.991  1.00  0.00    -0.483 OA
BRANCH  18  19
ATOM     19  C   UNL A   1      32.625  21.953  25.803  1.00  0.00     0.123 A 
ATOM     20  C   UNL A   1      32.103  21.557  23.313  1.00  0.00     0.048 C 
ATOM     21  C   UNL A   1      31.929  22.256  24.628  1.00  0.00    -0.007 A 
ATOM     22  C   UNL A   1      31.017  23.335  24.645  1.00  0.00     0.027 A 
ATOM     23  C   UNL A   1      30.857  24.134  25.776  1.00  0.00     0.041 A 
ATOM     24  C   UNL A   1      32.481  22.796  26.923  1.00  0.00     0.048 A 
ATOM     25  Cl  UNL A   1      29.771  25.466  25.740  1.00  0.00    -0.084 Cl
ATOM     26  C   UNL A   1      31.599  23.876  26.918  1.00  0.00     0.024 A 
ENDBRANCH  18  19
ENDBRANCH  17  18
ENDBRANCH  14  17
ENDBRANCH   8  13
ENDBRANCH   6   7
ENDBRANCH   3   6
ENDBRANCH   1   2
BRANCH   1  27
ATOM     27  C   UNL A   1      31.541  30.422  25.851  1.00  0.00     0.023 C 
BRANCH  27  28
ATOM     28  C   UNL A   1      31.314  31.779  26.524  1.00  0.00     0.023 C 
BRANCH  28  29
ATOM     29  C   UNL A   1      32.571  32.446  27.069  1.00  0.00     0.116 C 
BRANCH  29  30
ATOM     30  N   UNL A   1      32.354  33.825  27.475  1.00  0.00    -0.352 N 
ATOM     31  C   UNL A   1      33.035  34.567  28.408  1.00  0.00     0.251 C 
ATOM     32  H   UNL A   1      31.617  34.291  27.017  1.00  0.00     0.163 HD
ATOM     33  O   UNL A   1      32.633  35.688  28.713  1.00  0.00    -0.269 OA
BRANCH  31  34
ATOM     34  C   UNL A   1      34.229  34.005  29.073  1.00  0.00     0.039 A 
ATOM     35  C   UNL A   1      34.048  33.060  30.084  1.00  0.00     0.014 A 
ATOM     36  C   UNL A   1      35.520  34.398  28.705  1.00  0.00     0.014 A 
ATOM     37  C   UNL A   1      35.161  32.468  30.685  1.00  0.00     0.010 A 
ATOM     38  C   UNL A   1      36.626  33.748  29.246  1.00  0.00     0.010 A 
ATOM     39  C   UNL A   1      36.460  32.781  30.247  1.00  0.00    -0.014 A 
BRANCH  39  40
ATOM     40  C   UNL A   1      37.642  32.098  30.836  1.00  0.00     0.031 A 
ATOM     41  C   UNL A   1      38.118  32.453  32.218  1.00  0.00     0.074 A 
ATOM     42  C   UNL A   1      38.300  31.169  30.114  1.00  0.00     0.049 A 
ATOM     43  N   UNL A   1      39.123  31.959  32.900  1.00  0.00    -0.248 NA
ATOM     44  C   UNL A   1      37.385  33.516  32.922  1.00  0.00     0.031 C 
ATOM     45  C   UNL A   1      37.969  30.772  28.744  1.00  0.00     0.029 A 
ATOM     46  N   UNL A   1      39.380  30.384  30.433  1.00  0.00    -0.354 N 
ATOM     47  C   UNL A   1      39.132  32.642  34.110  1.00  0.00     0.074 A 
ATOM     48  C   UNL A   1      38.086  33.638  34.041  1.00  0.00     0.031 C 
ATOM     49  C   UNL A   1      38.801  29.793  28.356  1.00  0.00     0.029 A 
ATOM     50  C   UNL A   1      39.748  29.519  29.431  1.00  0.00     0.049 A 
ATOM     51  H   UNL A   1      39.847  30.437  31.298  1.00  0.00     0.167 HD
ATOM     52  C   UNL A   1      39.917  32.434  35.194  1.00  0.00     0.037 A 
ATOM     53  C   UNL A   1      40.737  28.605  29.387  1.00  0.00     0.037 A 
ATOM     54  C   UNL A   1      40.957  31.442  35.265  1.00  0.00     0.049 A 
ATOM     55  C   UNL A   1      41.618  28.425  30.596  1.00  0.00     0.074 A 
ATOM     56  C   UNL A   1      41.795  31.141  36.324  1.00  0.00     0.029 A 
ATOM     57  N   UNL A   1      41.302  30.585  34.228  1.00  0.00    -0.354 N 
ATOM     58  N   UNL A   1      41.570  29.029  31.758  1.00  0.00    -0.248 NA
ATOM     59  C   UNL A   1      42.685  27.421  30.488  1.00  0.00     0.031 C 
ATOM     60  C   UNL A   1      42.678  30.136  35.914  1.00  0.00     0.029 A 
ATOM     61  C   UNL A   1      42.351  29.768  34.619  1.00  0.00     0.049 A 
ATOM     62  H   UNL A   1      40.866  30.562  33.346  1.00  0.00     0.167 HD
ATOM     63  C   UNL A   1      42.572  28.454  32.530  1.00  0.00     0.074 A 
ATOM     64  C   UNL A   1      43.193  27.434  31.711  1.00  0.00     0.031 C 
ATOM     65  C   UNL A   1      42.947  28.745  33.799  1.00  0.00     0.037 A 
BRANCH  52  66
ATOM     66  C   UNL A   1      39.665  33.286  36.407  1.00  0.00     0.064 A 
ATOM     67  C   UNL A   1      38.768  32.881  37.410  1.00  0.00     0.173 A 
ATOM     68  C   UNL A   1      40.359  34.489  36.598  1.00  0.00     0.173 A 
ATOM     69  F   UNL A   1      38.071  31.744  37.273  1.00  0.00    -0.203 F 
ATOM     70  C   UNL A   1      38.558  33.663  38.543  1.00  0.00     0.198 A 
ATOM     71  C   UNL A   1      40.170  35.252  37.748  1.00  0.00     0.198 A 
ATOM     72  F   UNL A   1      41.231  34.921  35.675  1.00  0.00    -0.203 F 
ATOM     73  F   UNL A   1      37.662  33.278  39.462  1.00  0.00    -0.200 F 
ATOM     74  C   UNL A   1      39.265  34.842  38.716  1.00  0.00     0.200 A 
ATOM     75  F   UNL A   1      40.866  36.385  37.921  1.00  0.00    -0.200 F 
ATOM     76  F   UNL A   1      39.071  35.586  39.813  1.00  0.00    -0.200 F 
ENDBRANCH  52  66
BRANCH  53  77
ATOM     77  C   UNL A   1      40.944  27.772  28.172  1.00  0.00     0.064 A 
ATOM     78  C   UNL A   1      40.384  26.490  28.071  1.00  0.00     0.173 A 
ATOM     79  C   UNL A   1      41.746  28.215  27.110  1.00  0.00     0.173 A 
ATOM     80  F   UNL A   1      39.625  26.011  29.067  1.00  0.00    -0.203 F 
ATOM     81  C   UNL A   1      40.655  25.668  26.979  1.00  0.00     0.198 A 
ATOM     82  C   UNL A   1      41.984  27.407  26.000  1.00  0.00     0.198 A 
ATOM     83  F   UNL A   1      42.301  29.435  27.150  1.00  0.00    -0.203 F 
ATOM     84  F   UNL A   1      40.167  24.420  26.945  1.00  0.00    -0.200 F 
ATOM     85  C   UNL A   1      41.452  26.129  25.943  1.00  0.00     0.200 A 
ATOM     86  F   UNL A   1      42.743  27.863  24.993  1.00  0.00    -0.200 F 
ATOM     87  F   UNL A   1      41.719  25.335  24.897  1.00  0.00    -0.200 F 
ENDBRANCH  53  77
BRANCH  65  88
ATOM     88  C   UNL A   1      44.047  27.913  34.397  1.00  0.00     0.064 A 
ATOM     89  C   UNL A   1      43.793  26.678  35.013  1.00  0.00     0.173 A 
ATOM     90  C   UNL A   1      45.378  28.355  34.343  1.00  0.00     0.173 A 
ATOM     91  F   UNL A   1      42.536  26.216  35.104  1.00  0.00    -0.203 F 
ATOM     92  C   UNL A   1      44.822  25.940  35.591  1.00  0.00     0.198 A 
ATOM     93  C   UNL A   1      46.410  27.595  34.887  1.00  0.00     0.198 A 
ATOM     94  F   UNL A   1      45.681  29.523  33.758  1.00  0.00    -0.203 F 
ATOM     95  F   UNL A   1      44.544  24.797  36.234  1.00  0.00    -0.200 F 
ATOM     96  C   UNL A   1      46.130  26.395  35.522  1.00  0.00     0.200 A 
ATOM     97  F   UNL A   1      47.675  28.029  34.804  1.00  0.00    -0.200 F 
ATOM     98  F   UNL A   1      47.119  25.683  36.078  1.00  0.00    -0.200 F 
ENDBRANCH  65  88
ENDBRANCH  39  40
ENDBRANCH  31  34
ENDBRANCH  29  30
ENDBRANCH  28  29
ENDBRANCH  27  28
ENDBRANCH   1  27
TORSDOF 16
ENDMDL
MODEL 3
REMARK VINA RESULT:     -12.1      1.404      2.298
REMARK SMILES Cc1cc(Cl)ccc1OCC(=O)Nc1ccc(CC(=O)NCCCCNC(=O)c2ccc(-c3c4nc(c(-c5c(F)c(F)c(F)c(F)c5F)c5ccc([nH]5)c(-c5c(F)c(F)c(F)c(F)c5F)c5nc(c(-c6c(F)c(F)c(F)c(F)c6F)c6ccc3[nH]6)C=C5)C=C4)cc2)cc1
REMARK SMILES IDX 22 1 21 2 19 3 20 4 18 6 17 7 14 8 15 9 93 10 16 11 92 12
REMARK SMILES IDX 13 13 11 14 12 15 10 17 9 18 8 19 1 20 2 21 3 22 4 23 7 24
REMARK SMILES IDX 5 25 6 26 23 27 24 28 25 29 26 30 27 31 28 33 29 34 30 35
REMARK SMILES IDX 91 36 31 37 90 38 32 39 33 40 34 41 84 42 35 43 89 44 83 45
REMARK SMILES IDX 85 46 36 47 88 48 82 49 81 50 37 52 69 53 49 54 68 55 50 56
REMARK SMILES IDX 53 57 67 58 86 59 51 60 52 61 66 63 87 64 54 65 38 66 39 67
REMARK SMILES IDX 47 68 40 69 41 70 45 71 48 72 42 73 43 74 46 75 44 76 70 77
REMARK SMILES IDX 71 78 79 79 72 80 73 81 77 82 80 83 74 84 75 85 78 86 76 87
REMARK SMILES IDX 55 88 56 89 64 90 57 91 58 92 62 93 65 94 59 95 60 96 63 97
REMARK SMILES IDX 61 98
REMARK H PARENT 21 5 13 16 26 32 85 51 53 62
REMARK Flexibility Score: inf
ROOT
ATOM      1  C   UNL A   1      32.839  30.117  26.268  1.00  0.00     0.116 C 
ENDROOT
BRANCH   1   2
ATOM      2  N   UNL A   1      32.555  29.281  27.418  1.00  0.00    -0.356 N 
ATOM      3  C   UNL A   1      31.845  28.116  27.486  1.00  0.00     0.224 C 
ATOM      4  O   UNL A   1      31.668  27.603  28.594  1.00  0.00    -0.275 OA
ATOM      5  H   UNL A   1      32.926  29.599  28.272  1.00  0.00     0.163 HD
BRANCH   3   6
ATOM      6  C   UNL A   1      31.335  27.452  26.222  1.00  0.00     0.135 C 
BRANCH   6   7
ATOM      7  C   UNL A   1      31.554  25.961  26.182  1.00  0.00    -0.039 A 
ATOM      8  C   UNL A   1      31.895  23.169  26.164  1.00  0.00     0.041 A 
ATOM      9  C   UNL A   1      32.986  24.011  26.396  1.00  0.00     0.026 A 
ATOM     10  C   UNL A   1      30.638  23.733  26.000  1.00  0.00     0.026 A 
ATOM     11  C   UNL A   1      32.821  25.401  26.390  1.00  0.00     0.006 A 
ATOM     12  C   UNL A   1      30.468  25.111  25.971  1.00  0.00     0.006 A 
BRANCH   8  13
ATOM     13  N   UNL A   1      32.118  21.789  26.135  1.00  0.00    -0.323 N 
ATOM     14  C   UNL A   1      32.086  20.896  25.099  1.00  0.00     0.262 C 
ATOM     15  O   UNL A   1      32.291  19.709  25.375  1.00  0.00    -0.271 OA
ATOM     16  H   UNL A   1      32.336  21.391  27.009  1.00  0.00     0.170 HD
BRANCH  14  17
ATOM     17  C   UNL A   1      32.001  21.360  23.623  1.00  0.00     0.329 C 
BRANCH  17  18
ATOM     18  O   UNL A   1      33.012  22.010  22.877  1.00  0.00    -0.483 OA
BRANCH  18  19
ATOM     19  C   UNL A   1      33.097  23.367  22.825  1.00  0.00     0.123 A 
ATOM     20  C   UNL A   1      35.536  23.660  23.598  1.00  0.00     0.048 C 
ATOM     21  C   UNL A   1      34.206  24.165  23.124  1.00  0.00    -0.007 A 
ATOM     22  C   UNL A   1      34.073  25.568  23.025  1.00  0.00     0.027 A 
ATOM     23  C   UNL A   1      32.851  26.161  22.708  1.00  0.00     0.041 A 
ATOM     24  C   UNL A   1      31.862  23.984  22.546  1.00  0.00     0.048 A 
ATOM     25  Cl  UNL A   1      32.719  27.874  22.643  1.00  0.00    -0.084 Cl
ATOM     26  C   UNL A   1      31.735  25.372  22.479  1.00  0.00     0.024 A 
ENDBRANCH  18  19
ENDBRANCH  17  18
ENDBRANCH  14  17
ENDBRANCH   8  13
ENDBRANCH   6   7
ENDBRANCH   3   6
ENDBRANCH   1   2
BRANCH   1  27
ATOM     27  C   UNL A   1      31.592  30.860  25.781  1.00  0.00     0.023 C 
BRANCH  27  28
ATOM     28  C   UNL A   1      31.319  32.179  26.508  1.00  0.00     0.023 C 
BRANCH  28  29
ATOM     29  C   UNL A   1      32.517  32.774  27.238  1.00  0.00     0.116 C 
BRANCH  29  30
ATOM     30  N   UNL A   1      32.314  34.158  27.634  1.00  0.00    -0.352 N 
ATOM     31  C   UNL A   1      33.005  34.901  28.559  1.00  0.00     0.251 C 
ATOM     32  H   UNL A   1      31.579  34.627  27.175  1.00  0.00     0.163 HD
ATOM     33  O   UNL A   1      32.614  36.027  28.858  1.00  0.00    -0.269 OA
BRANCH  31  34
ATOM     34  C   UNL A   1      34.196  34.333  29.224  1.00  0.00     0.039 A 
ATOM     35  C   UNL A   1      34.011  33.467  30.304  1.00  0.00     0.014 A 
ATOM     36  C   UNL A   1      35.489  34.641  28.789  1.00  0.00     0.014 A 
ATOM     37  C   UNL A   1      35.118  32.869  30.910  1.00  0.00     0.010 A 
ATOM     38  C   UNL A   1      36.585  33.981  29.339  1.00  0.00     0.010 A 
ATOM     39  C   UNL A   1      36.413  33.093  30.410  1.00  0.00    -0.014 A 
BRANCH  39  40
ATOM     40  C   UNL A   1      37.584  32.400  31.007  1.00  0.00     0.031 A 
ATOM     41  C   UNL A   1      38.079  32.779  32.378  1.00  0.00     0.074 A 
ATOM     42  C   UNL A   1      38.217  31.439  30.305  1.00  0.00     0.049 A 
ATOM     43  N   UNL A   1      39.077  32.280  33.064  1.00  0.00    -0.248 NA
ATOM     44  C   UNL A   1      37.373  33.874  33.060  1.00  0.00     0.031 C 
ATOM     45  C   UNL A   1      37.868  31.016  28.947  1.00  0.00     0.029 A 
ATOM     46  N   UNL A   1      39.283  30.640  30.636  1.00  0.00    -0.354 N 
ATOM     47  C   UNL A   1      39.110  32.992  34.257  1.00  0.00     0.074 A 
ATOM     48  C   UNL A   1      38.084  34.009  34.170  1.00  0.00     0.031 C 
ATOM     49  C   UNL A   1      38.676  30.011  28.578  1.00  0.00     0.029 A 
ATOM     50  C   UNL A   1      39.625  29.742  29.653  1.00  0.00     0.049 A 
ATOM     51  H   UNL A   1      39.758  30.704  31.495  1.00  0.00     0.167 HD
ATOM     52  C   UNL A   1      39.898  32.795  35.341  1.00  0.00     0.037 A 
ATOM     53  C   UNL A   1      40.595  28.807  29.625  1.00  0.00     0.037 A 
ATOM     54  C   UNL A   1      40.917  31.783  35.429  1.00  0.00     0.049 A 
ATOM     55  C   UNL A   1      41.481  28.638  30.832  1.00  0.00     0.074 A 
ATOM     56  C   UNL A   1      41.757  31.490  36.489  1.00  0.00     0.029 A 
ATOM     57  N   UNL A   1      41.236  30.894  34.411  1.00  0.00    -0.354 N 
ATOM     58  N   UNL A   1      41.454  29.272  31.978  1.00  0.00    -0.248 NA
ATOM     59  C   UNL A   1      42.525  27.609  30.742  1.00  0.00     0.031 C 
ATOM     60  C   UNL A   1      42.615  30.457  36.098  1.00  0.00     0.029 A 
ATOM     61  C   UNL A   1      42.271  30.064  34.816  1.00  0.00     0.049 A 
ATOM     62  H   UNL A   1      40.794  30.858  33.533  1.00  0.00     0.167 HD
ATOM     63  C   UNL A   1      42.449  28.695  32.758  1.00  0.00     0.074 A 
ATOM     64  C   UNL A   1      43.042  27.642  31.961  1.00  0.00     0.031 C 
ATOM     65  C   UNL A   1      42.840  29.009  34.017  1.00  0.00     0.037 A 
BRANCH  52  66
ATOM     66  C   UNL A   1      39.673  33.682  36.533  1.00  0.00     0.064 A 
ATOM     67  C   UNL A   1      40.263  34.953  36.620  1.00  0.00     0.173 A 
ATOM     68  C   UNL A   1      38.822  33.284  37.575  1.00  0.00     0.173 A 
ATOM     69  F   UNL A   1      41.093  35.379  35.656  1.00  0.00    -0.203 F 
ATOM     70  C   UNL A   1      40.030  35.780  37.716  1.00  0.00     0.198 A 
ATOM     71  C   UNL A   1      38.565  34.127  38.653  1.00  0.00     0.198 A 
ATOM     72  F   UNL A   1      38.228  32.082  37.542  1.00  0.00    -0.203 F 
ATOM     73  F   UNL A   1      40.643  36.969  37.797  1.00  0.00    -0.200 F 
ATOM     74  C   UNL A   1      39.175  35.371  38.726  1.00  0.00     0.200 A 
ATOM     75  F   UNL A   1      37.727  33.736  39.624  1.00  0.00    -0.200 F 
ATOM     76  F   UNL A   1      38.942  36.173  39.774  1.00  0.00    -0.200 F 
ENDBRANCH  52  66
BRANCH  53  77
ATOM     77  C   UNL A   1      40.775  27.940  28.429  1.00  0.00     0.064 A 
ATOM     78  C   UNL A   1      41.547  28.367  27.338  1.00  0.00     0.173 A 
ATOM     79  C   UNL A   1      40.141  26.694  28.328  1.00  0.00     0.173 A 
ATOM     80  F   UNL A   1      42.159  29.560  27.376  1.00  0.00    -0.203 F 
ATOM     81  C   UNL A   1      41.639  27.602  26.177  1.00  0.00     0.198 A 
ATOM     82  C   UNL A   1      40.266  25.912  27.181  1.00  0.00     0.198 A 
ATOM     83  F   UNL A   1      39.396  26.233  29.343  1.00  0.00    -0.203 F 
ATOM     84  F   UNL A   1      42.322  28.069  25.122  1.00  0.00    -0.200 F 
ATOM     85  C   UNL A   1      41.001  26.374  26.101  1.00  0.00     0.200 A 
ATOM     86  F   UNL A   1      39.660  24.718  27.118  1.00  0.00    -0.200 F 
ATOM     87  F   UNL A   1      41.083  25.643  24.981  1.00  0.00    -0.200 F 
ENDBRANCH  53  77
BRANCH  65  88
ATOM     88  C   UNL A   1      43.926  28.169  34.628  1.00  0.00     0.064 A 
ATOM     89  C   UNL A   1      45.281  28.517  34.523  1.00  0.00     0.173 A 
ATOM     90  C   UNL A   1      43.604  27.002  35.337  1.00  0.00     0.173 A 
ATOM     91  F   UNL A   1      45.645  29.616  33.844  1.00  0.00    -0.203 F 
ATOM     92  C   UNL A   1      46.274  27.706  35.066  1.00  0.00     0.198 A 
ATOM     93  C   UNL A   1      44.597  26.213  35.913  1.00  0.00     0.198 A 
ATOM     94  F   UNL A   1      42.324  26.625  35.477  1.00  0.00    -0.203 F 
ATOM     95  F   UNL A   1      47.564  28.024  34.893  1.00  0.00    -0.200 F 
ATOM     96  C   UNL A   1      45.931  26.559  35.766  1.00  0.00     0.200 A 
ATOM     97  F   UNL A   1      44.262  25.115  36.603  1.00  0.00    -0.200 F 
ATOM     98  F   UNL A   1      46.888  25.781  36.288  1.00  0.00    -0.200 F 
ENDBRANCH  65  88
ENDBRANCH  39  40
ENDBRANCH  31  34
ENDBRANCH  29  30
ENDBRANCH  28  29
ENDBRANCH  27  28
ENDBRANCH   1  27
TORSDOF 16
ENDMDL
