MODEL 1
REMARK VINA RESULT:     -12.1      0.000      0.000
REMARK SMILES CSc1ccc(NC(=O)CC(C)(C)CC(=O)NCCCCNC(=O)c2ccc(-c3c4nc(c(-c5c(F)c(F)c(F)c(F)c5F)c5ccc([nH]5)c(-c5c(F)c(F)c(F)c(F)c5F)c5nc(c(-c6c(F)c(F)c(F)c(F)c6F)c6ccc3[nH]6)C=C5)C=C4)cc2)cc1
REMARK SMILES IDX 18 1 17 2 15 3 16 4 14 6 11 7 12 8 13 9 10 10 8 11 7 12 9 14
REMARK SMILES IDX 6 15 3 16 4 17 89 18 5 19 88 20 2 21 1 22 19 23 20 24 21 25
REMARK SMILES IDX 22 26 23 27 24 29 25 30 26 31 87 32 27 33 86 34 28 35 29 36
REMARK SMILES IDX 30 37 80 38 31 39 85 40 79 41 81 42 32 43 84 44 78 45 77 46
REMARK SMILES IDX 33 48 65 49 45 50 64 51 46 52 49 53 63 54 82 55 47 56 48 57
REMARK SMILES IDX 62 59 83 60 50 61 34 62 35 63 43 64 36 65 37 66 41 67 44 68
REMARK SMILES IDX 38 69 39 70 42 71 40 72 66 73 67 74 75 75 68 76 69 77 73 78
REMARK SMILES IDX 76 79 70 80 71 81 74 82 72 83 51 84 52 85 60 86 53 87 54 88
REMARK SMILES IDX 58 89 61 90 55 91 56 92 59 93 57 94
REMARK H PARENT 17 5 7 13 22 28 81 47 49 58
REMARK Flexibility Score: inf
ROOT
ATOM      1  C   UNL A   1      36.958  22.690  25.507  1.00  0.00     0.116 C 
ENDROOT
BRANCH   1   2
ATOM      2  N   UNL A   1      36.095  22.108  26.508  1.00  0.00    -0.356 N 
ATOM      3  C   UNL A   1      34.750  21.916  26.493  1.00  0.00     0.220 C 
ATOM      4  O   UNL A   1      34.221  21.500  27.524  1.00  0.00    -0.275 OA
ATOM      5  H   UNL A   1      36.550  21.803  27.326  1.00  0.00     0.163 HD
BRANCH   3   6
ATOM      6  C   UNL A   1      33.941  22.143  25.227  1.00  0.00     0.107 C 
BRANCH   6   7
ATOM      7  C   UNL A   1      33.296  23.536  24.954  1.00  0.00    -0.018 C 
ATOM      8  C   UNL A   1      33.791  23.924  23.542  1.00  0.00     0.012 C 
ATOM      9  C   UNL A   1      33.843  24.631  25.890  1.00  0.00     0.012 C 
BRANCH   7  10
ATOM     10  C   UNL A   1      31.746  23.509  25.137  1.00  0.00     0.107 C 
BRANCH  10  11
ATOM     11  C   UNL A   1      31.142  24.180  26.356  1.00  0.00     0.224 C 
ATOM     12  N   UNL A   1      30.531  25.400  26.295  1.00  0.00    -0.326 N 
ATOM     13  H   UNL A   1      30.190  25.725  27.160  1.00  0.00     0.169 HD
ATOM     14  O   UNL A   1      31.137  23.596  27.445  1.00  0.00    -0.275 OA
BRANCH  12  15
ATOM     15  C   UNL A   1      30.302  26.270  25.221  1.00  0.00     0.041 A 
ATOM     16  C   UNL A   1      29.771  28.370  23.410  1.00  0.00     0.007 A 
ATOM     17  C   UNL A   1      28.927  27.260  23.484  1.00  0.00     0.017 A 
ATOM     18  C   UNL A   1      30.941  28.362  24.177  1.00  0.00     0.017 A 
ATOM     19  C   UNL A   1      29.198  26.213  24.375  1.00  0.00     0.027 A 
ATOM     20  C   UNL A   1      31.220  27.309  25.056  1.00  0.00     0.027 A 
BRANCH  16  21
ATOM     21  S   UNL A   1      29.470  29.821  22.412  1.00  0.00    -0.130 SA
ATOM     22  C   UNL A   1      27.721  30.190  22.716  1.00  0.00     0.091 C 
ENDBRANCH  16  21
ENDBRANCH  12  15
ENDBRANCH  10  11
ENDBRANCH   7  10
ENDBRANCH   6   7
ENDBRANCH   3   6
ENDBRANCH   1   2
BRANCH   1  23
ATOM     23  C   UNL A   1      37.439  21.612  24.535  1.00  0.00     0.023 C 
BRANCH  23  24
ATOM     24  C   UNL A   1      38.012  20.369  25.200  1.00  0.00     0.023 C 
BRANCH  24  25
ATOM     25  C   UNL A   1      39.360  20.579  25.858  1.00  0.00     0.116 C 
BRANCH  25  26
ATOM     26  N   UNL A   1      40.181  19.376  25.900  1.00  0.00    -0.352 N 
ATOM     27  C   UNL A   1      41.537  19.292  26.102  1.00  0.00     0.251 C 
ATOM     28  H   UNL A   1      39.707  18.523  25.768  1.00  0.00     0.163 HD
ATOM     29  O   UNL A   1      42.130  18.223  26.012  1.00  0.00    -0.269 OA
BRANCH  27  30
ATOM     30  C   UNL A   1      42.270  20.539  26.385  1.00  0.00     0.039 A 
ATOM     31  C   UNL A   1      42.738  21.309  25.320  1.00  0.00     0.014 A 
ATOM     32  C   UNL A   1      42.369  20.996  27.701  1.00  0.00     0.014 A 
ATOM     33  C   UNL A   1      43.242  22.584  25.572  1.00  0.00     0.010 A 
ATOM     34  C   UNL A   1      42.774  22.301  27.938  1.00  0.00     0.010 A 
ATOM     35  C   UNL A   1      43.224  23.103  26.878  1.00  0.00    -0.014 A 
BRANCH  35  36
ATOM     36  C   UNL A   1      43.704  24.473  27.176  1.00  0.00     0.031 A 
ATOM     37  C   UNL A   1      42.736  25.488  27.716  1.00  0.00     0.074 A 
ATOM     38  C   UNL A   1      44.970  24.824  26.882  1.00  0.00     0.049 A 
ATOM     39  N   UNL A   1      42.909  26.765  27.933  1.00  0.00    -0.248 NA
ATOM     40  C   UNL A   1      41.376  25.008  28.010  1.00  0.00     0.031 C 
ATOM     41  C   UNL A   1      45.983  23.944  26.295  1.00  0.00     0.029 A 
ATOM     42  N   UNL A   1      45.619  26.025  27.025  1.00  0.00    -0.354 N 
ATOM     43  C   UNL A   1      41.676  27.243  28.355  1.00  0.00     0.074 A 
ATOM     44  C   UNL A   1      40.748  26.135  28.304  1.00  0.00     0.031 C 
ATOM     45  C   UNL A   1      47.131  24.628  26.154  1.00  0.00     0.029 A 
ATOM     46  C   UNL A   1      46.926  26.000  26.606  1.00  0.00     0.049 A 
ATOM     47  H   UNL A   1      45.187  26.830  27.394  1.00  0.00     0.167 HD
ATOM     48  C   UNL A   1      41.352  28.487  28.777  1.00  0.00     0.037 A 
ATOM     49  C   UNL A   1      47.850  26.979  26.588  1.00  0.00     0.037 A 
ATOM     50  C   UNL A   1      42.293  29.569  28.877  1.00  0.00     0.049 A 
ATOM     51  C   UNL A   1      47.475  28.345  27.097  1.00  0.00     0.074 A 
ATOM     52  C   UNL A   1      42.091  30.847  29.367  1.00  0.00     0.029 A 
ATOM     53  N   UNL A   1      43.622  29.494  28.486  1.00  0.00    -0.354 N 
ATOM     54  N   UNL A   1      46.324  28.769  27.558  1.00  0.00    -0.248 NA
ATOM     55  C   UNL A   1      48.532  29.367  27.087  1.00  0.00     0.031 C 
ATOM     56  C   UNL A   1      43.290  31.555  29.242  1.00  0.00     0.029 A 
ATOM     57  C   UNL A   1      44.249  30.706  28.712  1.00  0.00     0.049 A 
ATOM     58  H   UNL A   1      44.054  28.695  28.105  1.00  0.00     0.167 HD
ATOM     59  C   UNL A   1      46.522  30.095  27.917  1.00  0.00     0.074 A 
ATOM     60  C   UNL A   1      47.909  30.402  27.634  1.00  0.00     0.031 C 
ATOM     61  C   UNL A   1      45.635  30.982  28.431  1.00  0.00     0.037 A 
BRANCH  48  62
ATOM     62  C   UNL A   1      39.927  28.732  29.176  1.00  0.00     0.064 A 
ATOM     63  C   UNL A   1      39.479  28.492  30.484  1.00  0.00     0.173 A 
ATOM     64  C   UNL A   1      39.001  29.224  28.244  1.00  0.00     0.173 A 
ATOM     65  F   UNL A   1      40.320  28.004  31.407  1.00  0.00    -0.203 F 
ATOM     66  C   UNL A   1      38.147  28.701  30.835  1.00  0.00     0.198 A 
ATOM     67  C   UNL A   1      37.678  29.463  28.607  1.00  0.00     0.198 A 
ATOM     68  F   UNL A   1      39.378  29.472  26.981  1.00  0.00    -0.203 F 
ATOM     69  F   UNL A   1      37.730  28.409  32.074  1.00  0.00    -0.200 F 
ATOM     70  C   UNL A   1      37.251  29.193  29.900  1.00  0.00     0.200 A 
ATOM     71  F   UNL A   1      36.814  29.947  27.704  1.00  0.00    -0.200 F 
ATOM     72  F   UNL A   1      35.971  29.397  30.239  1.00  0.00    -0.200 F 
ENDBRANCH  48  62
BRANCH  49  73
ATOM     73  C   UNL A   1      49.227  26.695  26.108  1.00  0.00     0.064 A 
ATOM     74  C   UNL A   1      49.602  26.992  24.790  1.00  0.00     0.173 A 
ATOM     75  C   UNL A   1      50.193  26.120  26.947  1.00  0.00     0.173 A 
ATOM     76  F   UNL A   1      48.707  27.525  23.945  1.00  0.00    -0.203 F 
ATOM     77  C   UNL A   1      50.883  26.707  24.324  1.00  0.00     0.198 A 
ATOM     78  C   UNL A   1      51.482  25.859  26.487  1.00  0.00     0.198 A 
ATOM     79  F   UNL A   1      49.887  25.823  28.219  1.00  0.00    -0.203 F 
ATOM     80  F   UNL A   1      51.201  26.962  23.047  1.00  0.00    -0.200 F 
ATOM     81  C   UNL A   1      51.823  26.145  25.174  1.00  0.00     0.200 A 
ATOM     82  F   UNL A   1      52.392  25.328  27.314  1.00  0.00    -0.200 F 
ATOM     83  F   UNL A   1      53.057  25.873  24.725  1.00  0.00    -0.200 F 
ENDBRANCH  49  73
BRANCH  61  84
ATOM     84  C   UNL A   1      46.145  32.355  28.750  1.00  0.00     0.064 A 
ATOM     85  C   UNL A   1      46.071  33.399  27.818  1.00  0.00     0.173 A 
ATOM     86  C   UNL A   1      46.671  32.639  30.019  1.00  0.00     0.173 A 
ATOM     87  F   UNL A   1      45.590  33.171  26.587  1.00  0.00    -0.203 F 
ATOM     88  C   UNL A   1      46.523  34.676  28.138  1.00  0.00     0.198 A 
ATOM     89  C   UNL A   1      47.096  33.923  30.346  1.00  0.00     0.198 A 
ATOM     90  F   UNL A   1      46.756  31.674  30.948  1.00  0.00    -0.203 F 
ATOM     91  F   UNL A   1      46.482  35.649  27.219  1.00  0.00    -0.200 F 
ATOM     92  C   UNL A   1      47.029  34.938  29.404  1.00  0.00     0.200 A 
ATOM     93  F   UNL A   1      47.572  34.177  31.573  1.00  0.00    -0.200 F 
ATOM     94  F   UNL A   1      47.456  36.169  29.713  1.00  0.00    -0.200 F 
ENDBRANCH  61  84
ENDBRANCH  35  36
ENDBRANCH  27  30
ENDBRANCH  25  26
ENDBRANCH  24  25
ENDBRANCH  23  24
ENDBRANCH   1  23
TORSDOF 16
ENDMDL
MODEL 2
REMARK VINA RESULT:     -12.0      0.227      1.963
REMARK SMILES CSc1ccc(NC(=O)CC(C)(C)CC(=O)NCCCCNC(=O)c2ccc(-c3c4nc(c(-c5c(F)c(F)c(F)c(F)c5F)c5ccc([nH]5)c(-c5c(F)c(F)c(F)c(F)c5F)c5nc(c(-c6c(F)c(F)c(F)c(F)c6F)c6ccc3[nH]6)C=C5)C=C4)cc2)cc1
REMARK SMILES IDX 18 1 17 2 15 3 16 4 14 6 11 7 12 8 13 9 10 10 8 11 7 12 9 14
REMARK SMILES IDX 6 15 3 16 4 17 89 18 5 19 88 20 2 21 1 22 19 23 20 24 21 25
REMARK SMILES IDX 22 26 23 27 24 29 25 30 26 31 87 32 27 33 86 34 28 35 29 36
REMARK SMILES IDX 30 37 80 38 31 39 85 40 79 41 81 42 32 43 84 44 78 45 77 46
REMARK SMILES IDX 33 48 65 49 45 50 64 51 46 52 49 53 63 54 82 55 47 56 48 57
REMARK SMILES IDX 62 59 83 60 50 61 34 62 35 63 43 64 36 65 37 66 41 67 44 68
REMARK SMILES IDX 38 69 39 70 42 71 40 72 66 73 67 74 75 75 68 76 69 77 73 78
REMARK SMILES IDX 76 79 70 80 71 81 74 82 72 83 51 84 52 85 60 86 53 87 54 88
REMARK SMILES IDX 58 89 61 90 55 91 56 92 59 93 57 94
REMARK H PARENT 17 5 7 13 22 28 81 47 49 58
REMARK Flexibility Score: inf
ROOT
ATOM      1  C   UNL A   1      36.897  22.473  25.455  1.00  0.00     0.116 C 
ENDROOT
BRANCH   1   2
ATOM      2  N   UNL A   1      36.034  21.976  26.501  1.00  0.00    -0.356 N 
ATOM      3  C   UNL A   1      34.685  21.817  26.513  1.00  0.00     0.220 C 
ATOM      4  O   UNL A   1      34.159  21.478  27.574  1.00  0.00    -0.275 OA
ATOM      5  H   UNL A   1      36.492  21.711  27.331  1.00  0.00     0.163 HD
BRANCH   3   6
ATOM      6  C   UNL A   1      33.865  21.985  25.245  1.00  0.00     0.107 C 
BRANCH   6   7
ATOM      7  C   UNL A   1      33.215  23.363  24.914  1.00  0.00    -0.018 C 
ATOM      8  C   UNL A   1      33.633  23.650  23.454  1.00  0.00     0.012 C 
ATOM      9  C   UNL A   1      33.820  24.512  25.743  1.00  0.00     0.012 C 
BRANCH   7  10
ATOM     10  C   UNL A   1      31.677  23.364  25.184  1.00  0.00     0.107 C 
BRANCH  10  11
ATOM     11  C   UNL A   1      31.152  24.073  26.418  1.00  0.00     0.224 C 
ATOM     12  N   UNL A   1      30.631  25.335  26.373  1.00  0.00    -0.326 N 
ATOM     13  H   UNL A   1      30.334  25.682  27.245  1.00  0.00     0.169 HD
ATOM     14  O   UNL A   1      31.128  23.487  27.505  1.00  0.00    -0.275 OA
BRANCH  12  15
ATOM     15  C   UNL A   1      30.444  26.224  25.305  1.00  0.00     0.041 A 
ATOM     16  C   UNL A   1      29.959  28.349  23.511  1.00  0.00     0.007 A 
ATOM     17  C   UNL A   1      29.154  27.208  23.501  1.00  0.00     0.017 A 
ATOM     18  C   UNL A   1      31.073  28.363  24.358  1.00  0.00     0.017 A 
ATOM     19  C   UNL A   1      29.403  26.149  24.385  1.00  0.00     0.027 A 
ATOM     20  C   UNL A   1      31.330  27.300  25.229  1.00  0.00     0.027 A 
BRANCH  16  21
ATOM     21  S   UNL A   1      29.671  29.814  22.529  1.00  0.00    -0.130 SA
ATOM     22  C   UNL A   1      27.882  29.787  22.240  1.00  0.00     0.091 C 
ENDBRANCH  16  21
ENDBRANCH  12  15
ENDBRANCH  10  11
ENDBRANCH   7  10
ENDBRANCH   6   7
ENDBRANCH   3   6
ENDBRANCH   1   2
BRANCH   1  23
ATOM     23  C   UNL A   1      37.398  21.316  24.591  1.00  0.00     0.023 C 
BRANCH  23  24
ATOM     24  C   UNL A   1      38.012  20.162  25.368  1.00  0.00     0.023 C 
BRANCH  24  25
ATOM     25  C   UNL A   1      39.417  20.425  25.869  1.00  0.00     0.116 C 
BRANCH  25  26
ATOM     26  N   UNL A   1      40.249  19.230  25.922  1.00  0.00    -0.352 N 
ATOM     27  C   UNL A   1      41.604  19.160  26.137  1.00  0.00     0.251 C 
ATOM     28  H   UNL A   1      39.784  18.372  25.788  1.00  0.00     0.163 HD
ATOM     29  O   UNL A   1      42.209  18.097  26.056  1.00  0.00    -0.269 OA
BRANCH  27  30
ATOM     30  C   UNL A   1      42.322  20.415  26.423  1.00  0.00     0.039 A 
ATOM     31  C   UNL A   1      42.932  21.103  25.374  1.00  0.00     0.014 A 
ATOM     32  C   UNL A   1      42.268  20.962  27.708  1.00  0.00     0.014 A 
ATOM     33  C   UNL A   1      43.428  22.386  25.600  1.00  0.00     0.010 A 
ATOM     34  C   UNL A   1      42.667  22.275  27.903  1.00  0.00     0.010 A 
ATOM     35  C   UNL A   1      43.260  22.996  26.855  1.00  0.00    -0.014 A 
BRANCH  35  36
ATOM     36  C   UNL A   1      43.727  24.378  27.117  1.00  0.00     0.031 A 
ATOM     37  C   UNL A   1      42.752  25.396  27.634  1.00  0.00     0.074 A 
ATOM     38  C   UNL A   1      44.989  24.734  26.809  1.00  0.00     0.049 A 
ATOM     39  N   UNL A   1      42.912  26.681  27.818  1.00  0.00    -0.248 NA
ATOM     40  C   UNL A   1      41.397  24.911  27.945  1.00  0.00     0.031 C 
ATOM     41  C   UNL A   1      46.008  23.849  26.241  1.00  0.00     0.029 A 
ATOM     42  N   UNL A   1      45.626  25.944  26.919  1.00  0.00    -0.354 N 
ATOM     43  C   UNL A   1      41.676  27.157  28.232  1.00  0.00     0.074 A 
ATOM     44  C   UNL A   1      40.759  26.039  28.213  1.00  0.00     0.031 C 
ATOM     45  C   UNL A   1      47.149  24.540  26.078  1.00  0.00     0.029 A 
ATOM     46  C   UNL A   1      46.933  25.922  26.496  1.00  0.00     0.049 A 
ATOM     47  H   UNL A   1      45.187  26.754  27.269  1.00  0.00     0.167 HD
ATOM     48  C   UNL A   1      41.341  28.408  28.624  1.00  0.00     0.037 A 
ATOM     49  C   UNL A   1      47.847  26.909  26.450  1.00  0.00     0.037 A 
ATOM     50  C   UNL A   1      42.271  29.501  28.692  1.00  0.00     0.049 A 
ATOM     51  C   UNL A   1      47.460  28.284  26.925  1.00  0.00     0.074 A 
ATOM     52  C   UNL A   1      42.059  30.789  29.151  1.00  0.00     0.029 A 
ATOM     53  N   UNL A   1      43.600  29.429  28.299  1.00  0.00    -0.354 N 
ATOM     54  N   UNL A   1      46.306  28.708  27.380  1.00  0.00    -0.248 NA
ATOM     55  C   UNL A   1      48.506  29.315  26.886  1.00  0.00     0.031 C 
ATOM     56  C   UNL A   1      43.251  31.506  29.003  1.00  0.00     0.029 A 
ATOM     57  C   UNL A   1      44.216  30.653  28.492  1.00  0.00     0.049 A 
ATOM     58  H   UNL A   1      44.039  28.625  27.937  1.00  0.00     0.167 HD
ATOM     59  C   UNL A   1      46.492  30.044  27.704  1.00  0.00     0.074 A 
ATOM     60  C   UNL A   1      47.875  30.357  27.408  1.00  0.00     0.031 C 
ATOM     61  C   UNL A   1      45.598  30.936  28.199  1.00  0.00     0.037 A 
BRANCH  48  62
ATOM     62  C   UNL A   1      39.915  28.649  29.022  1.00  0.00     0.064 A 
ATOM     63  C   UNL A   1      38.959  29.095  28.097  1.00  0.00     0.173 A 
ATOM     64  C   UNL A   1      39.496  28.418  30.341  1.00  0.00     0.173 A 
ATOM     65  F   UNL A   1      39.314  29.347  26.828  1.00  0.00    -0.203 F 
ATOM     66  C   UNL A   1      37.644  29.337  28.485  1.00  0.00     0.198 A 
ATOM     67  C   UNL A   1      38.172  28.631  30.718  1.00  0.00     0.198 A 
ATOM     68  F   UNL A   1      40.369  27.990  31.264  1.00  0.00    -0.203 F 
ATOM     69  F   UNL A   1      36.764  29.819  27.598  1.00  0.00    -0.200 F 
ATOM     70  C   UNL A   1      37.250  29.097  29.793  1.00  0.00     0.200 A 
ATOM     71  F   UNL A   1      37.790  28.390  31.980  1.00  0.00    -0.200 F 
ATOM     72  F   UNL A   1      35.984  29.327  30.164  1.00  0.00    -0.200 F 
ENDBRANCH  48  62
BRANCH  49  73
ATOM     73  C   UNL A   1      49.225  26.626  25.972  1.00  0.00     0.064 A 
ATOM     74  C   UNL A   1      50.177  26.057  26.829  1.00  0.00     0.173 A 
ATOM     75  C   UNL A   1      49.621  26.920  24.659  1.00  0.00     0.173 A 
ATOM     76  F   UNL A   1      49.850  25.776  28.099  1.00  0.00    -0.203 F 
ATOM     77  C   UNL A   1      51.478  25.810  26.398  1.00  0.00     0.198 A 
ATOM     78  C   UNL A   1      50.916  26.649  24.221  1.00  0.00     0.198 A 
ATOM     79  F   UNL A   1      48.746  27.459  23.798  1.00  0.00    -0.203 F 
ATOM     80  F   UNL A   1      52.381  25.305  27.250  1.00  0.00    -0.200 F 
ATOM     81  C   UNL A   1      51.846  26.103  25.093  1.00  0.00     0.200 A 
ATOM     82  F   UNL A   1      51.264  26.921  22.957  1.00  0.00    -0.200 F 
ATOM     83  F   UNL A   1      53.097  25.863  24.678  1.00  0.00    -0.200 F 
ENDBRANCH  49  73
BRANCH  61  84
ATOM     84  C   UNL A   1      46.096  32.321  28.481  1.00  0.00     0.064 A 
ATOM     85  C   UNL A   1      46.631  32.668  29.729  1.00  0.00     0.173 A 
ATOM     86  C   UNL A   1      46.079  33.298  27.475  1.00  0.00     0.173 A 
ATOM     87  F   UNL A   1      46.654  31.771  30.726  1.00  0.00    -0.203 F 
ATOM     88  C   UNL A   1      47.115  33.951  29.966  1.00  0.00     0.198 A 
ATOM     89  C   UNL A   1      46.588  34.572  27.707  1.00  0.00     0.198 A 
ATOM     90  F   UNL A   1      45.582  33.012  26.261  1.00  0.00    -0.203 F 
ATOM     91  F   UNL A   1      47.584  34.274  31.179  1.00  0.00    -0.200 F 
ATOM     92  C   UNL A   1      47.099  34.899  28.954  1.00  0.00     0.200 A 
ATOM     93  F   UNL A   1      46.585  35.483  26.723  1.00  0.00    -0.200 F 
ATOM     94  F   UNL A   1      47.572  36.132  29.182  1.00  0.00    -0.200 F 
ENDBRANCH  61  84
ENDBRANCH  35  36
ENDBRANCH  27  30
ENDBRANCH  25  26
ENDBRANCH  24  25
ENDBRANCH  23  24
ENDBRANCH   1  23
TORSDOF 16
ENDMDL
MODEL 3
REMARK VINA RESULT:     -11.9      0.618      7.433
REMARK SMILES CSc1ccc(NC(=O)CC(C)(C)CC(=O)NCCCCNC(=O)c2ccc(-c3c4nc(c(-c5c(F)c(F)c(F)c(F)c5F)c5ccc([nH]5)c(-c5c(F)c(F)c(F)c(F)c5F)c5nc(c(-c6c(F)c(F)c(F)c(F)c6F)c6ccc3[nH]6)C=C5)C=C4)cc2)cc1
REMARK SMILES IDX 18 1 17 2 15 3 16 4 14 6 11 7 12 8 13 9 10 10 8 11 7 12 9 14
REMARK SMILES IDX 6 15 3 16 4 17 89 18 5 19 88 20 2 21 1 22 19 23 20 24 21 25
REMARK SMILES IDX 22 26 23 27 24 29 25 30 26 31 87 32 27 33 86 34 28 35 29 36
REMARK SMILES IDX 30 37 80 38 31 39 85 40 79 41 81 42 32 43 84 44 78 45 77 46
REMARK SMILES IDX 33 48 65 49 45 50 64 51 46 52 49 53 63 54 82 55 47 56 48 57
REMARK SMILES IDX 62 59 83 60 50 61 34 62 35 63 43 64 36 65 37 66 41 67 44 68
REMARK SMILES IDX 38 69 39 70 42 71 40 72 66 73 67 74 75 75 68 76 69 77 73 78
REMARK SMILES IDX 76 79 70 80 71 81 74 82 72 83 51 84 52 85 60 86 53 87 54 88
REMARK SMILES IDX 58 89 61 90 55 91 56 92 59 93 57 94
REMARK H PARENT 17 5 7 13 22 28 81 47 49 58
REMARK Flexibility Score: inf
ROOT
ATOM      1  C   UNL A   1      36.921  22.250  25.714  1.00  0.00     0.116 C 
ENDROOT
BRANCH   1   2
ATOM      2  N   UNL A   1      35.835  21.657  26.459  1.00  0.00    -0.356 N 
ATOM      3  C   UNL A   1      34.581  22.125  26.691  1.00  0.00     0.220 C 
ATOM      4  O   UNL A   1      33.865  21.483  27.460  1.00  0.00    -0.275 OA
ATOM      5  H   UNL A   1      36.033  20.779  26.859  1.00  0.00     0.163 HD
BRANCH   3   6
ATOM      6  C   UNL A   1      34.061  23.359  25.974  1.00  0.00     0.107 C 
BRANCH   6   7
ATOM      7  C   UNL A   1      33.087  23.206  24.767  1.00  0.00    -0.018 C 
ATOM      8  C   UNL A   1      33.522  21.892  24.079  1.00  0.00     0.012 C 
ATOM      9  C   UNL A   1      33.286  24.305  23.706  1.00  0.00     0.012 C 
BRANCH   7  10
ATOM     10  C   UNL A   1      31.591  23.265  25.212  1.00  0.00     0.107 C 
BRANCH  10  11
ATOM     11  C   UNL A   1      31.233  24.037  26.467  1.00  0.00     0.224 C 
ATOM     12  N   UNL A   1      30.801  25.333  26.433  1.00  0.00    -0.326 N 
ATOM     13  H   UNL A   1      30.611  25.720  27.319  1.00  0.00     0.169 HD
ATOM     14  O   UNL A   1      31.266  23.479  27.569  1.00  0.00    -0.275 OA
BRANCH  12  15
ATOM     15  C   UNL A   1      30.581  26.210  25.362  1.00  0.00     0.041 A 
ATOM     16  C   UNL A   1      30.006  28.304  23.559  1.00  0.00     0.007 A 
ATOM     17  C   UNL A   1      29.264  27.122  23.540  1.00  0.00     0.017 A 
ATOM     18  C   UNL A   1      31.106  28.379  24.420  1.00  0.00     0.017 A 
ATOM     19  C   UNL A   1      29.558  26.078  24.428  1.00  0.00     0.027 A 
ATOM     20  C   UNL A   1      31.409  27.331  25.296  1.00  0.00     0.027 A 
BRANCH  16  21
ATOM     21  S   UNL A   1      29.654  29.751  22.570  1.00  0.00    -0.130 SA
ATOM     22  C   UNL A   1      27.872  29.996  22.798  1.00  0.00     0.091 C 
ENDBRANCH  16  21
ENDBRANCH  12  15
ENDBRANCH  10  11
ENDBRANCH   7  10
ENDBRANCH   6   7
ENDBRANCH   3   6
ENDBRANCH   1   2
BRANCH   1  23
ATOM     23  C   UNL A   1      37.330  21.334  24.560  1.00  0.00     0.023 C 
BRANCH  23  24
ATOM     24  C   UNL A   1      38.088  20.084  24.980  1.00  0.00     0.023 C 
BRANCH  24  25
ATOM     25  C   UNL A   1      39.288  20.351  25.867  1.00  0.00     0.116 C 
BRANCH  25  26
ATOM     26  N   UNL A   1      40.230  19.240  25.920  1.00  0.00    -0.352 N 
ATOM     27  C   UNL A   1      41.589  19.302  26.113  1.00  0.00     0.251 C 
ATOM     28  H   UNL A   1      39.847  18.340  25.804  1.00  0.00     0.163 HD
ATOM     29  O   UNL A   1      42.290  18.300  26.034  1.00  0.00    -0.269 OA
BRANCH  27  30
ATOM     30  C   UNL A   1      42.188  20.622  26.372  1.00  0.00     0.039 A 
ATOM     31  C   UNL A   1      42.524  21.441  25.294  1.00  0.00     0.014 A 
ATOM     32  C   UNL A   1      42.290  21.086  27.687  1.00  0.00     0.014 A 
ATOM     33  C   UNL A   1      42.892  22.764  25.532  1.00  0.00     0.010 A 
ATOM     34  C   UNL A   1      42.555  22.428  27.913  1.00  0.00     0.010 A 
ATOM     35  C   UNL A   1      42.869  23.277  26.840  1.00  0.00    -0.014 A 
BRANCH  35  36
ATOM     36  C   UNL A   1      43.205  24.692  27.126  1.00  0.00     0.031 A 
ATOM     37  C   UNL A   1      44.600  25.183  26.861  1.00  0.00     0.074 A 
ATOM     38  C   UNL A   1      42.294  25.499  27.700  1.00  0.00     0.049 A 
ATOM     39  N   UNL A   1      45.142  26.338  27.146  1.00  0.00    -0.248 NA
ATOM     40  C   UNL A   1      45.524  24.227  26.228  1.00  0.00     0.031 C 
ATOM     41  C   UNL A   1      40.927  25.118  28.064  1.00  0.00     0.029 A 
ATOM     42  N   UNL A   1      42.385  26.812  28.092  1.00  0.00    -0.354 N 
ATOM     43  C   UNL A   1      46.470  26.234  26.759  1.00  0.00     0.074 A 
ATOM     44  C   UNL A   1      46.671  24.886  26.277  1.00  0.00     0.031 C 
ATOM     45  C   UNL A   1      40.302  26.180  28.600  1.00  0.00     0.029 A 
ATOM     46  C   UNL A   1      41.231  27.304  28.651  1.00  0.00     0.049 A 
ATOM     47  H   UNL A   1      43.203  27.350  27.983  1.00  0.00     0.167 HD
ATOM     48  C   UNL A   1      47.431  27.187  26.774  1.00  0.00     0.037 A 
ATOM     49  C   UNL A   1      40.961  28.525  29.149  1.00  0.00     0.037 A 
ATOM     50  C   UNL A   1      47.210  28.540  27.203  1.00  0.00     0.049 A 
ATOM     51  C   UNL A   1      42.035  29.578  29.121  1.00  0.00     0.074 A 
ATOM     52  C   UNL A   1      48.090  29.607  27.185  1.00  0.00     0.029 A 
ATOM     53  N   UNL A   1      46.013  29.015  27.720  1.00  0.00    -0.354 N 
ATOM     54  N   UNL A   1      43.270  29.490  28.689  1.00  0.00    -0.248 NA
ATOM     55  C   UNL A   1      41.676  30.903  29.646  1.00  0.00     0.031 C 
ATOM     56  C   UNL A   1      47.435  30.721  27.722  1.00  0.00     0.029 A 
ATOM     57  C   UNL A   1      46.136  30.357  28.037  1.00  0.00     0.049 A 
ATOM     58  H   UNL A   1      45.197  28.477  27.843  1.00  0.00     0.167 HD
ATOM     59  C   UNL A   1      43.827  30.749  28.865  1.00  0.00     0.074 A 
ATOM     60  C   UNL A   1      42.790  31.588  29.429  1.00  0.00     0.031 C 
ATOM     61  C   UNL A   1      45.084  31.173  28.588  1.00  0.00     0.037 A 
BRANCH  48  62
ATOM     62  C   UNL A   1      48.798  26.797  26.296  1.00  0.00     0.064 A 
ATOM     63  C   UNL A   1      49.206  27.020  24.972  1.00  0.00     0.173 A 
ATOM     64  C   UNL A   1      49.717  26.203  27.176  1.00  0.00     0.173 A 
ATOM     65  F   UNL A   1      48.359  27.568  24.089  1.00  0.00    -0.203 F 
ATOM     66  C   UNL A   1      50.471  26.632  24.537  1.00  0.00     0.198 A 
ATOM     67  C   UNL A   1      50.991  25.845  26.744  1.00  0.00     0.198 A 
ATOM     68  F   UNL A   1      49.378  25.969  28.452  1.00  0.00    -0.203 F 
ATOM     69  F   UNL A   1      50.816  26.802  23.254  1.00  0.00    -0.200 F 
ATOM     70  C   UNL A   1      51.364  26.052  25.424  1.00  0.00     0.200 A 
ATOM     71  F   UNL A   1      51.858  25.293  27.605  1.00  0.00    -0.200 F 
ATOM     72  F   UNL A   1      52.581  25.682  25.004  1.00  0.00    -0.200 F 
ENDBRANCH  48  62
BRANCH  49  73
ATOM     73  C   UNL A   1      39.607  28.830  29.680  1.00  0.00     0.064 A 
ATOM     74  C   UNL A   1      39.284  28.558  31.017  1.00  0.00     0.173 A 
ATOM     75  C   UNL A   1      38.610  29.391  28.868  1.00  0.00     0.173 A 
ATOM     76  F   UNL A   1      40.199  28.004  31.826  1.00  0.00    -0.203 F 
ATOM     77  C   UNL A   1      38.011  28.818  31.518  1.00  0.00     0.198 A 
ATOM     78  C   UNL A   1      37.344  29.674  29.378  1.00  0.00     0.198 A 
ATOM     79  F   UNL A   1      38.870  29.675  27.584  1.00  0.00    -0.203 F 
ATOM     80  F   UNL A   1      37.717  28.509  32.788  1.00  0.00    -0.200 F 
ATOM     81  C   UNL A   1      37.043  29.379  30.699  1.00  0.00     0.200 A 
ATOM     82  F   UNL A   1      36.415  30.228  28.588  1.00  0.00    -0.200 F 
ATOM     83  F   UNL A   1      35.818  29.631  31.182  1.00  0.00    -0.200 F 
ENDBRANCH  49  73
BRANCH  61  84
ATOM     84  C   UNL A   1      45.397  32.613  28.860  1.00  0.00     0.064 A 
ATOM     85  C   UNL A   1      45.152  33.610  27.906  1.00  0.00     0.173 A 
ATOM     86  C   UNL A   1      45.905  33.004  30.108  1.00  0.00     0.173 A 
ATOM     87  F   UNL A   1      44.681  33.283  26.694  1.00  0.00    -0.203 F 
ATOM     88  C   UNL A   1      45.422  34.947  28.185  1.00  0.00     0.198 A 
ATOM     89  C   UNL A   1      46.148  34.344  30.393  1.00  0.00     0.198 A 
ATOM     90  F   UNL A   1      46.150  32.086  31.056  1.00  0.00    -0.203 F 
ATOM     91  F   UNL A   1      45.220  35.879  27.244  1.00  0.00    -0.200 F 
ATOM     92  C   UNL A   1      45.913  35.313  29.430  1.00  0.00     0.200 A 
ATOM     93  F   UNL A   1      46.610  34.697  31.601  1.00  0.00    -0.200 F 
ATOM     94  F   UNL A   1      46.166  36.601  29.699  1.00  0.00    -0.200 F 
ENDBRANCH  61  84
ENDBRANCH  35  36
ENDBRANCH  27  30
ENDBRANCH  25  26
ENDBRANCH  24  25
ENDBRANCH  23  24
ENDBRANCH   1  23
TORSDOF 16
ENDMDL
