MODEL 1
REMARK VINA RESULT:     -12.5      0.000      0.000
REMARK SMILES O=C(NCCCCNC(=O)c1cccnc1SCC(=O)c1ccccc1Cl)c1ccc(-c2c3nc(c(-c4c(F)c(F)c(F)c(F)c4F)c4ccc([nH]4)c(-c4c(F)c(F)c(F)c(F)c4F)c4nc(c(-c5c(F)c(F)c(F)c(F)c5F)c5ccc2[nH]5)C=C4)C=C3)cc1
REMARK SMILES IDX 6 1 5 2 4 3 3 4 1 5 2 6 28 8 29 9 90 10 30 11 89 12 31 13
REMARK SMILES IDX 32 14 33 15 83 16 34 17 88 18 82 19 84 20 35 21 87 22 81 23
REMARK SMILES IDX 80 24 36 26 68 27 48 28 67 29 49 30 52 31 66 32 85 33 50 34
REMARK SMILES IDX 51 35 65 37 86 38 53 39 37 40 38 41 46 42 39 43 40 44 44 45
REMARK SMILES IDX 47 46 41 47 42 48 45 49 43 50 69 51 70 52 78 53 71 54 72 55
REMARK SMILES IDX 76 56 79 57 73 58 74 59 77 60 75 61 54 62 55 63 63 64 56 65
REMARK SMILES IDX 57 66 61 67 64 68 58 69 59 70 62 71 60 72 7 73 8 74 9 75
REMARK SMILES IDX 10 77 11 78 12 79 16 80 13 81 15 82 14 83 17 84 18 85 19 86
REMARK SMILES IDX 20 87 21 88 22 89 26 90 23 91 25 92 27 93 24 94
REMARK H PARENT 3 7 84 25 52 36 8 76
REMARK Flexibility Score: inf
ROOT
ATOM      1  C   UNL A   1      31.511  27.928  26.830  1.00  0.00     0.023 C 
ENDROOT
BRANCH   1   2
ATOM      2  C   UNL A   1      31.698  28.961  25.722  1.00  0.00     0.023 C 
BRANCH   2   3
ATOM      3  C   UNL A   1      32.907  29.876  25.854  1.00  0.00     0.116 C 
BRANCH   3   4
ATOM      4  N   UNL A   1      32.591  31.203  26.360  1.00  0.00    -0.352 N 
ATOM      5  O   UNL A   1      32.820  33.063  27.621  1.00  0.00    -0.269 OA
ATOM      6  C   UNL A   1      33.283  31.988  27.254  1.00  0.00     0.251 C 
ATOM      7  H   UNL A   1      31.761  31.598  26.011  1.00  0.00     0.163 HD
BRANCH   6   8
ATOM      8  C   UNL A   1      34.567  31.510  27.814  1.00  0.00     0.039 A 
ATOM      9  C   UNL A   1      34.735  30.176  28.185  1.00  0.00     0.014 A 
ATOM     10  C   UNL A   1      35.607  32.425  28.002  1.00  0.00     0.014 A 
ATOM     11  C   UNL A   1      35.860  29.801  28.910  1.00  0.00     0.010 A 
ATOM     12  C   UNL A   1      36.781  32.022  28.643  1.00  0.00     0.010 A 
ATOM     13  C   UNL A   1      36.897  30.718  29.150  1.00  0.00    -0.014 A 
BRANCH  13  14
ATOM     14  C   UNL A   1      38.095  30.276  29.908  1.00  0.00     0.031 A 
ATOM     15  C   UNL A   1      38.301  30.675  31.345  1.00  0.00     0.074 A 
ATOM     16  C   UNL A   1      38.980  29.461  29.302  1.00  0.00     0.049 A 
ATOM     17  N   UNL A   1      39.263  30.333  32.166  1.00  0.00    -0.248 NA
ATOM     18  C   UNL A   1      37.308  31.584  31.935  1.00  0.00     0.031 C 
ATOM     19  C   UNL A   1      38.893  29.015  27.910  1.00  0.00     0.029 A 
ATOM     20  N   UNL A   1      40.105  28.841  29.781  1.00  0.00    -0.354 N 
ATOM     21  C   UNL A   1      39.008  31.003  33.356  1.00  0.00     0.074 A 
ATOM     22  C   UNL A   1      37.811  31.790  33.145  1.00  0.00     0.031 C 
ATOM     23  C   UNL A   1      39.882  28.143  27.666  1.00  0.00     0.029 A 
ATOM     24  C   UNL A   1      40.707  28.018  28.861  1.00  0.00     0.049 A 
ATOM     25  H   UNL A   1      40.448  28.973  30.693  1.00  0.00     0.167 HD
ATOM     26  C   UNL A   1      39.705  30.957  34.518  1.00  0.00     0.037 A 
ATOM     27  C   UNL A   1      41.806  27.248  28.966  1.00  0.00     0.037 A 
ATOM     28  C   UNL A   1      40.876  30.146  34.734  1.00  0.00     0.049 A 
ATOM     29  C   UNL A   1      42.557  27.220  30.266  1.00  0.00     0.074 A 
ATOM     30  C   UNL A   1      41.619  29.993  35.892  1.00  0.00     0.029 A 
ATOM     31  N   UNL A   1      41.475  29.352  33.767  1.00  0.00    -0.354 N 
ATOM     32  N   UNL A   1      42.282  27.827  31.393  1.00  0.00    -0.248 NA
ATOM     33  C   UNL A   1      43.775  26.401  30.303  1.00  0.00     0.031 C 
ATOM     34  C   UNL A   1      42.695  29.142  35.613  1.00  0.00     0.029 A 
ATOM     35  C   UNL A   1      42.594  28.726  34.296  1.00  0.00     0.049 A 
ATOM     36  H   UNL A   1      41.155  29.249  32.843  1.00  0.00     0.167 HD
ATOM     37  C   UNL A   1      43.279  27.452  32.280  1.00  0.00     0.074 A 
ATOM     38  C   UNL A   1      44.156  26.546  31.564  1.00  0.00     0.031 C 
ATOM     39  C   UNL A   1      43.455  27.827  33.571  1.00  0.00     0.037 A 
BRANCH  26  40
ATOM     40  C   UNL A   1      39.233  31.827  35.649  1.00  0.00     0.064 A 
ATOM     41  C   UNL A   1      38.326  31.364  36.613  1.00  0.00     0.173 A 
ATOM     42  C   UNL A   1      39.735  33.131  35.795  1.00  0.00     0.173 A 
ATOM     43  F   UNL A   1      37.808  30.130  36.516  1.00  0.00    -0.203 F 
ATOM     44  C   UNL A   1      37.919  32.180  37.667  1.00  0.00     0.198 A 
ATOM     45  C   UNL A   1      39.348  33.934  36.865  1.00  0.00     0.198 A 
ATOM     46  F   UNL A   1      40.611  33.621  34.907  1.00  0.00    -0.203 F 
ATOM     47  F   UNL A   1      37.020  31.730  38.553  1.00  0.00    -0.200 F 
ATOM     48  C   UNL A   1      38.436  33.461  37.795  1.00  0.00     0.200 A 
ATOM     49  F   UNL A   1      39.857  35.167  36.995  1.00  0.00    -0.200 F 
ATOM     50  F   UNL A   1      38.049  34.242  38.814  1.00  0.00    -0.200 F 
ENDBRANCH  26  40
BRANCH  27  51
ATOM     51  C   UNL A   1      42.244  26.430  27.807  1.00  0.00     0.064 A 
ATOM     52  C   UNL A   1      43.232  26.896  26.930  1.00  0.00     0.173 A 
ATOM     53  C   UNL A   1      41.698  25.162  27.562  1.00  0.00     0.173 A 
ATOM     54  F   UNL A   1      43.771  28.111  27.112  1.00  0.00    -0.203 F 
ATOM     55  C   UNL A   1      43.651  26.129  25.845  1.00  0.00     0.198 A 
ATOM     56  C   UNL A   1      42.138  24.384  26.495  1.00  0.00     0.198 A 
ATOM     57  F   UNL A   1      40.752  24.669  28.375  1.00  0.00    -0.203 F 
ATOM     58  F   UNL A   1      44.572  26.613  25.000  1.00  0.00    -0.200 F 
ATOM     59  C   UNL A   1      43.110  24.870  25.633  1.00  0.00     0.200 A 
ATOM     60  F   UNL A   1      41.624  23.160  26.303  1.00  0.00    -0.200 F 
ATOM     61  F   UNL A   1      43.520  24.129  24.596  1.00  0.00    -0.200 F 
ENDBRANCH  27  51
BRANCH  39  62
ATOM     62  C   UNL A   1      44.624  27.230  34.298  1.00  0.00     0.064 A 
ATOM     63  C   UNL A   1      45.864  27.883  34.357  1.00  0.00     0.173 A 
ATOM     64  C   UNL A   1      44.498  25.995  34.952  1.00  0.00     0.173 A 
ATOM     65  F   UNL A   1      46.040  29.057  33.732  1.00  0.00    -0.203 F 
ATOM     66  C   UNL A   1      46.944  27.307  35.020  1.00  0.00     0.198 A 
ATOM     67  C   UNL A   1      45.572  25.436  35.639  1.00  0.00     0.198 A 
ATOM     68  F   UNL A   1      43.332  25.332  34.927  1.00  0.00    -0.203 F 
ATOM     69  F   UNL A   1      48.134  27.924  35.019  1.00  0.00    -0.200 F 
ATOM     70  C   UNL A   1      46.796  26.088  35.664  1.00  0.00     0.200 A 
ATOM     71  F   UNL A   1      45.424  24.262  36.268  1.00  0.00    -0.200 F 
ATOM     72  F   UNL A   1      47.837  25.535  36.301  1.00  0.00    -0.200 F 
ENDBRANCH  39  62
ENDBRANCH  13  14
ENDBRANCH   6   8
ENDBRANCH   3   4
ENDBRANCH   2   3
ENDBRANCH   1   2
BRANCH   1  73
ATOM     73  C   UNL A   1      32.200  26.589  26.611  1.00  0.00     0.116 C 
BRANCH  73  74
ATOM     74  N   UNL A   1      31.352  25.434  26.850  1.00  0.00    -0.352 N 
ATOM     75  C   UNL A   1      31.684  24.124  26.617  1.00  0.00     0.254 C 
ATOM     76  H   UNL A   1      30.454  25.608  27.215  1.00  0.00     0.163 HD
ATOM     77  O   UNL A   1      31.221  23.213  27.287  1.00  0.00    -0.269 OA
BRANCH  75  78
ATOM     78  C   UNL A   1      32.714  23.815  25.637  1.00  0.00     0.072 A 
ATOM     79  C   UNL A   1      34.028  23.779  26.126  1.00  0.00     0.018 A 
ATOM     80  C   UNL A   1      32.468  23.658  24.279  1.00  0.00     0.109 A 
ATOM     81  C   UNL A   1      35.084  23.637  25.240  1.00  0.00     0.021 A 
ATOM     82  N   UNL A   1      33.512  23.490  23.417  1.00  0.00    -0.249 NA
ATOM     83  C   UNL A   1      34.778  23.492  23.903  1.00  0.00     0.112 A 
BRANCH  80  84
ATOM     84  S   UNL A   1      30.961  24.034  23.416  1.00  0.00    -0.097 SA
BRANCH  84  85
ATOM     85  C   UNL A   1      30.723  25.809  23.156  1.00  0.00     0.157 C 
BRANCH  85  86
ATOM     86  C   UNL A   1      29.581  26.622  23.694  1.00  0.00     0.174 C 
ATOM     87  O   UNL A   1      29.141  26.328  24.813  1.00  0.00    -0.293 OA
BRANCH  86  88
ATOM     88  C   UNL A   1      29.156  27.951  23.126  1.00  0.00     0.037 A 
ATOM     89  C   UNL A   1      30.181  28.667  22.459  1.00  0.00     0.013 A 
ATOM     90  C   UNL A   1      27.886  28.538  23.165  1.00  0.00     0.051 A 
ATOM     91  C   UNL A   1      29.957  29.916  21.871  1.00  0.00     0.001 A 
ATOM     92  C   UNL A   1      27.673  29.808  22.592  1.00  0.00     0.021 A 
ATOM     93  Cl  UNL A   1      26.496  27.821  23.875  1.00  0.00    -0.084 Cl
ATOM     94  C   UNL A   1      28.701  30.494  21.948  1.00  0.00     0.002 A 
ENDBRANCH  86  88
ENDBRANCH  85  86
ENDBRANCH  84  85
ENDBRANCH  80  84
ENDBRANCH  75  78
ENDBRANCH  73  74
ENDBRANCH   1  73
TORSDOF 15
ENDMDL
MODEL 2
REMARK VINA RESULT:     -12.1      2.175      7.789
REMARK SMILES O=C(NCCCCNC(=O)c1cccnc1SCC(=O)c1ccccc1Cl)c1ccc(-c2c3nc(c(-c4c(F)c(F)c(F)c(F)c4F)c4ccc([nH]4)c(-c4c(F)c(F)c(F)c(F)c4F)c4nc(c(-c5c(F)c(F)c(F)c(F)c5F)c5ccc2[nH]5)C=C4)C=C3)cc1
REMARK SMILES IDX 6 1 5 2 4 3 3 4 1 5 2 6 28 8 29 9 90 10 30 11 89 12 31 13
REMARK SMILES IDX 32 14 33 15 83 16 34 17 88 18 82 19 84 20 35 21 87 22 81 23
REMARK SMILES IDX 80 24 36 26 68 27 48 28 67 29 49 30 52 31 66 32 85 33 50 34
REMARK SMILES IDX 51 35 65 37 86 38 53 39 37 40 38 41 46 42 39 43 40 44 44 45
REMARK SMILES IDX 47 46 41 47 42 48 45 49 43 50 69 51 70 52 78 53 71 54 72 55
REMARK SMILES IDX 76 56 79 57 73 58 74 59 77 60 75 61 54 62 55 63 63 64 56 65
REMARK SMILES IDX 57 66 61 67 64 68 58 69 59 70 62 71 60 72 7 73 8 74 9 75
REMARK SMILES IDX 10 77 11 78 12 79 16 80 13 81 15 82 14 83 17 84 18 85 19 86
REMARK SMILES IDX 20 87 21 88 22 89 26 90 23 91 25 92 27 93 24 94
REMARK H PARENT 3 7 84 25 52 36 8 76
REMARK Flexibility Score: inf
ROOT
ATOM      1  C   UNL A   1      31.718  30.771  26.056  1.00  0.00     0.023 C 
ENDROOT
BRANCH   1   2
ATOM      2  C   UNL A   1      31.457  32.064  26.822  1.00  0.00     0.023 C 
BRANCH   2   3
ATOM      3  C   UNL A   1      32.687  32.856  27.243  1.00  0.00     0.116 C 
BRANCH   3   4
ATOM      4  N   UNL A   1      32.402  34.231  27.624  1.00  0.00    -0.352 N 
ATOM      5  O   UNL A   1      32.573  36.143  28.815  1.00  0.00    -0.269 OA
ATOM      6  C   UNL A   1      33.000  35.016  28.584  1.00  0.00     0.251 C 
ATOM      7  H   UNL A   1      31.676  34.664  27.121  1.00  0.00     0.163 HD
BRANCH   6   8
ATOM      8  C   UNL A   1      34.130  34.481  29.375  1.00  0.00     0.039 A 
ATOM      9  C   UNL A   1      35.443  34.594  28.918  1.00  0.00     0.014 A 
ATOM     10  C   UNL A   1      33.862  33.823  30.580  1.00  0.00     0.014 A 
ATOM     11  C   UNL A   1      36.457  33.894  29.559  1.00  0.00     0.010 A 
ATOM     12  C   UNL A   1      34.902  33.202  31.279  1.00  0.00     0.010 A 
ATOM     13  C   UNL A   1      36.200  33.188  30.747  1.00  0.00    -0.014 A 
BRANCH  13  14
ATOM     14  C   UNL A   1      37.313  32.469  31.419  1.00  0.00     0.031 A 
ATOM     15  C   UNL A   1      38.087  31.391  30.710  1.00  0.00     0.074 A 
ATOM     16  C   UNL A   1      37.659  32.836  32.669  1.00  0.00     0.049 A 
ATOM     17  N   UNL A   1      39.119  30.702  31.132  1.00  0.00    -0.248 NA
ATOM     18  C   UNL A   1      37.641  31.026  29.358  1.00  0.00     0.031 C 
ATOM     19  C   UNL A   1      36.976  33.860  33.462  1.00  0.00     0.029 A 
ATOM     20  N   UNL A   1      38.681  32.414  33.479  1.00  0.00    -0.354 N 
ATOM     21  C   UNL A   1      39.427  29.809  30.114  1.00  0.00     0.074 A 
ATOM     22  C   UNL A   1      38.460  30.027  29.059  1.00  0.00     0.031 C 
ATOM     23  C   UNL A   1      37.636  34.034  34.616  1.00  0.00     0.029 A 
ATOM     24  C   UNL A   1      38.748  33.092  34.671  1.00  0.00     0.049 A 
ATOM     25  H   UNL A   1      39.307  31.696  33.230  1.00  0.00     0.167 HD
ATOM     26  C   UNL A   1      40.431  28.899  30.062  1.00  0.00     0.037 A 
ATOM     27  C   UNL A   1      39.607  32.967  35.699  1.00  0.00     0.037 A 
ATOM     28  C   UNL A   1      41.412  28.710  31.100  1.00  0.00     0.049 A 
ATOM     29  C   UNL A   1      40.707  31.949  35.613  1.00  0.00     0.074 A 
ATOM     30  C   UNL A   1      42.496  27.849  31.117  1.00  0.00     0.029 A 
ATOM     31  N   UNL A   1      41.425  29.392  32.308  1.00  0.00    -0.354 N 
ATOM     32  N   UNL A   1      41.009  31.140  34.628  1.00  0.00    -0.248 NA
ATOM     33  C   UNL A   1      41.581  31.825  36.786  1.00  0.00     0.031 C 
ATOM     34  C   UNL A   1      43.139  27.978  32.353  1.00  0.00     0.029 A 
ATOM     35  C   UNL A   1      42.485  28.953  33.088  1.00  0.00     0.049 A 
ATOM     36  H   UNL A   1      40.778  30.084  32.573  1.00  0.00     0.167 HD
ATOM     37  C   UNL A   1      42.117  30.423  35.052  1.00  0.00     0.074 A 
ATOM     38  C   UNL A   1      42.448  30.909  36.378  1.00  0.00     0.031 C 
ATOM     39  C   UNL A   1      42.800  29.448  34.404  1.00  0.00     0.037 A 
BRANCH  26  40
ATOM     40  C   UNL A   1      40.510  28.016  28.849  1.00  0.00     0.064 A 
ATOM     41  C   UNL A   1      39.812  26.803  28.766  1.00  0.00     0.173 A 
ATOM     42  C   UNL A   1      41.262  28.416  27.732  1.00  0.00     0.173 A 
ATOM     43  F   UNL A   1      39.087  26.369  29.808  1.00  0.00    -0.203 F 
ATOM     44  C   UNL A   1      39.882  26.011  27.622  1.00  0.00     0.198 A 
ATOM     45  C   UNL A   1      41.308  27.636  26.580  1.00  0.00     0.198 A 
ATOM     46  F   UNL A   1      41.942  29.571  27.754  1.00  0.00    -0.203 F 
ATOM     47  F   UNL A   1      39.240  24.836  27.581  1.00  0.00    -0.200 F 
ATOM     48  C   UNL A   1      40.624  26.431  26.528  1.00  0.00     0.200 A 
ATOM     49  F   UNL A   1      42.015  28.050  25.518  1.00  0.00    -0.200 F 
ATOM     50  F   UNL A   1      40.684  25.672  25.425  1.00  0.00    -0.200 F 
ENDBRANCH  26  40
BRANCH  27  51
ATOM     51  C   UNL A   1      39.465  33.847  36.887  1.00  0.00     0.064 A 
ATOM     52  C   UNL A   1      38.755  33.420  38.017  1.00  0.00     0.173 A 
ATOM     53  C   UNL A   1      40.048  35.121  36.924  1.00  0.00     0.173 A 
ATOM     54  F   UNL A   1      38.163  32.216  38.021  1.00  0.00    -0.203 F 
ATOM     55  C   UNL A   1      38.625  34.240  39.136  1.00  0.00     0.198 A 
ATOM     56  C   UNL A   1      39.942  35.928  38.054  1.00  0.00     0.198 A 
ATOM     57  F   UNL A   1      40.741  35.574  35.869  1.00  0.00    -0.203 F 
ATOM     58  F   UNL A   1      37.909  33.822  40.190  1.00  0.00    -0.200 F 
ATOM     59  C   UNL A   1      39.225  35.489  39.157  1.00  0.00     0.200 A 
ATOM     60  F   UNL A   1      40.538  37.129  38.076  1.00  0.00    -0.200 F 
ATOM     61  F   UNL A   1      39.108  36.273  40.237  1.00  0.00    -0.200 F 
ENDBRANCH  27  51
BRANCH  39  62
ATOM     62  C   UNL A   1      43.990  28.866  35.110  1.00  0.00     0.064 A 
ATOM     63  C   UNL A   1      45.277  29.395  34.938  1.00  0.00     0.173 A 
ATOM     64  C   UNL A   1      43.836  27.775  35.978  1.00  0.00     0.173 A 
ATOM     65  F   UNL A   1      45.478  30.427  34.104  1.00  0.00    -0.203 F 
ATOM     66  C   UNL A   1      46.374  28.833  35.586  1.00  0.00     0.198 A 
ATOM     67  C   UNL A   1      44.930  27.234  36.648  1.00  0.00     0.198 A 
ATOM     68  F   UNL A   1      42.624  27.235  36.179  1.00  0.00    -0.203 F 
ATOM     69  F   UNL A   1      47.602  29.320  35.366  1.00  0.00    -0.200 F 
ATOM     70  C   UNL A   1      46.198  27.757  36.444  1.00  0.00     0.200 A 
ATOM     71  F   UNL A   1      44.757  26.201  37.483  1.00  0.00    -0.200 F 
ATOM     72  F   UNL A   1      47.254  27.217  37.067  1.00  0.00    -0.200 F 
ENDBRANCH  39  62
ENDBRANCH  13  14
ENDBRANCH   6   8
ENDBRANCH   3   4
ENDBRANCH   2   3
ENDBRANCH   1   2
BRANCH   1  73
ATOM     73  C   UNL A   1      32.905  29.946  26.533  1.00  0.00     0.116 C 
BRANCH  73  74
ATOM     74  N   UNL A   1      33.821  29.549  25.478  1.00  0.00    -0.352 N 
ATOM     75  C   UNL A   1      33.642  28.514  24.598  1.00  0.00     0.254 C 
ATOM     76  H   UNL A   1      34.649  30.075  25.387  1.00  0.00     0.163 HD
ATOM     77  O   UNL A   1      34.104  28.542  23.466  1.00  0.00    -0.269 OA
BRANCH  75  78
ATOM     78  C   UNL A   1      32.769  27.409  24.967  1.00  0.00     0.072 A 
ATOM     79  C   UNL A   1      33.356  26.407  25.754  1.00  0.00     0.018 A 
ATOM     80  C   UNL A   1      31.465  27.267  24.510  1.00  0.00     0.109 A 
ATOM     81  C   UNL A   1      32.645  25.251  26.030  1.00  0.00     0.021 A 
ATOM     82  N   UNL A   1      30.763  26.137  24.811  1.00  0.00    -0.249 NA
ATOM     83  C   UNL A   1      31.357  25.164  25.544  1.00  0.00     0.112 A 
BRANCH  80  84
ATOM     84  S   UNL A   1      30.676  28.207  23.226  1.00  0.00    -0.097 SA
BRANCH  84  85
ATOM     85  C   UNL A   1      28.879  27.991  23.199  1.00  0.00     0.157 C 
BRANCH  85  86
ATOM     86  C   UNL A   1      27.876  29.074  22.926  1.00  0.00     0.174 C 
ATOM     87  O   UNL A   1      26.678  28.808  23.091  1.00  0.00    -0.293 OA
BRANCH  86  88
ATOM     88  C   UNL A   1      28.233  30.532  22.786  1.00  0.00     0.037 A 
ATOM     89  C   UNL A   1      28.693  31.148  23.975  1.00  0.00     0.013 A 
ATOM     90  C   UNL A   1      28.179  31.323  21.633  1.00  0.00     0.051 A 
ATOM     91  C   UNL A   1      29.070  32.494  24.021  1.00  0.00     0.001 A 
ATOM     92  C   UNL A   1      28.537  32.686  21.691  1.00  0.00     0.021 A 
ATOM     93  Cl  UNL A   1      27.703  30.765  20.080  1.00  0.00    -0.084 Cl
ATOM     94  C   UNL A   1      28.980  33.269  22.876  1.00  0.00     0.002 A 
ENDBRANCH  86  88
ENDBRANCH  85  86
ENDBRANCH  84  85
ENDBRANCH  80  84
ENDBRANCH  75  78
ENDBRANCH  73  74
ENDBRANCH   1  73
TORSDOF 15
ENDMDL
MODEL 3
REMARK VINA RESULT:     -12.1      1.758      3.564
REMARK SMILES O=C(NCCCCNC(=O)c1cccnc1SCC(=O)c1ccccc1Cl)c1ccc(-c2c3nc(c(-c4c(F)c(F)c(F)c(F)c4F)c4ccc([nH]4)c(-c4c(F)c(F)c(F)c(F)c4F)c4nc(c(-c5c(F)c(F)c(F)c(F)c5F)c5ccc2[nH]5)C=C4)C=C3)cc1
REMARK SMILES IDX 6 1 5 2 4 3 3 4 1 5 2 6 28 8 29 9 90 10 30 11 89 12 31 13
REMARK SMILES IDX 32 14 33 15 83 16 34 17 88 18 82 19 84 20 35 21 87 22 81 23
REMARK SMILES IDX 80 24 36 26 68 27 48 28 67 29 49 30 52 31 66 32 85 33 50 34
REMARK SMILES IDX 51 35 65 37 86 38 53 39 37 40 38 41 46 42 39 43 40 44 44 45
REMARK SMILES IDX 47 46 41 47 42 48 45 49 43 50 69 51 70 52 78 53 71 54 72 55
REMARK SMILES IDX 76 56 79 57 73 58 74 59 77 60 75 61 54 62 55 63 63 64 56 65
REMARK SMILES IDX 57 66 61 67 64 68 58 69 59 70 62 71 60 72 7 73 8 74 9 75
REMARK SMILES IDX 10 77 11 78 12 79 16 80 13 81 15 82 14 83 17 84 18 85 19 86
REMARK SMILES IDX 20 87 21 88 22 89 26 90 23 91 25 92 27 93 24 94
REMARK H PARENT 3 7 84 25 52 36 8 76
REMARK Flexibility Score: inf
ROOT
ATOM      1  C   UNL A   1      31.787  27.249  26.751  1.00  0.00     0.023 C 
ENDROOT
BRANCH   1   2
ATOM      2  C   UNL A   1      31.810  28.317  25.661  1.00  0.00     0.023 C 
BRANCH   2   3
ATOM      3  C   UNL A   1      32.948  29.324  25.731  1.00  0.00     0.116 C 
BRANCH   3   4
ATOM      4  N   UNL A   1      32.551  30.629  26.237  1.00  0.00    -0.352 N 
ATOM      5  O   UNL A   1      32.670  32.505  27.490  1.00  0.00    -0.269 OA
ATOM      6  C   UNL A   1      33.200  31.461  27.121  1.00  0.00     0.251 C 
ATOM      7  H   UNL A   1      31.692  30.968  25.896  1.00  0.00     0.163 HD
BRANCH   6   8
ATOM      8  C   UNL A   1      34.518  31.071  27.669  1.00  0.00     0.039 A 
ATOM      9  C   UNL A   1      34.771  29.757  28.060  1.00  0.00     0.014 A 
ATOM     10  C   UNL A   1      35.504  32.050  27.822  1.00  0.00     0.014 A 
ATOM     11  C   UNL A   1      35.927  29.462  28.773  1.00  0.00     0.010 A 
ATOM     12  C   UNL A   1      36.710  31.728  28.451  1.00  0.00     0.010 A 
ATOM     13  C   UNL A   1      36.911  30.444  28.979  1.00  0.00    -0.014 A 
BRANCH  13  14
ATOM     14  C   UNL A   1      38.145  30.088  29.725  1.00  0.00     0.031 A 
ATOM     15  C   UNL A   1      38.370  30.563  31.135  1.00  0.00     0.074 A 
ATOM     16  C   UNL A   1      39.048  29.281  29.134  1.00  0.00     0.049 A 
ATOM     17  N   UNL A   1      39.365  30.301  31.946  1.00  0.00    -0.248 NA
ATOM     18  C   UNL A   1      37.355  31.459  31.709  1.00  0.00     0.031 C 
ATOM     19  C   UNL A   1      38.946  28.766  27.768  1.00  0.00     0.029 A 
ATOM     20  N   UNL A   1      40.210  28.731  29.612  1.00  0.00    -0.354 N 
ATOM     21  C   UNL A   1      39.112  31.017  33.109  1.00  0.00     0.074 A 
ATOM     22  C   UNL A   1      37.878  31.743  32.894  1.00  0.00     0.031 C 
ATOM     23  C   UNL A   1      39.964  27.924  27.539  1.00  0.00     0.029 A 
ATOM     24  C   UNL A   1      40.823  27.890  28.717  1.00  0.00     0.049 A 
ATOM     25  H   UNL A   1      40.569  28.921  30.508  1.00  0.00     0.167 HD
ATOM     26  C   UNL A   1      39.838  31.056  34.254  1.00  0.00     0.037 A 
ATOM     27  C   UNL A   1      41.955  27.171  28.828  1.00  0.00     0.037 A 
ATOM     28  C   UNL A   1      41.047  30.304  34.476  1.00  0.00     0.049 A 
ATOM     29  C   UNL A   1      42.738  27.236  30.107  1.00  0.00     0.074 A 
ATOM     30  C   UNL A   1      41.825  30.237  35.619  1.00  0.00     0.029 A 
ATOM     31  N   UNL A   1      41.655  29.489  33.532  1.00  0.00    -0.354 N 
ATOM     32  N   UNL A   1      42.466  27.886  31.211  1.00  0.00    -0.248 NA
ATOM     33  C   UNL A   1      43.991  26.471  30.151  1.00  0.00     0.031 C 
ATOM     34  C   UNL A   1      42.928  29.419  35.353  1.00  0.00     0.029 A 
ATOM     35  C   UNL A   1      42.812  28.936  34.059  1.00  0.00     0.049 A 
ATOM     36  H   UNL A   1      41.317  29.329  32.622  1.00  0.00     0.167 HD
ATOM     37  C   UNL A   1      43.500  27.595  32.088  1.00  0.00     0.074 A 
ATOM     38  C   UNL A   1      44.396  26.692  31.393  1.00  0.00     0.031 C 
ATOM     39  C   UNL A   1      43.692  28.038  33.355  1.00  0.00     0.037 A 
BRANCH  26  40
ATOM     40  C   UNL A   1      39.358  31.959  35.354  1.00  0.00     0.064 A 
ATOM     41  C   UNL A   1      39.682  33.323  35.390  1.00  0.00     0.173 A 
ATOM     42  C   UNL A   1      38.521  31.458  36.365  1.00  0.00     0.173 A 
ATOM     43  F   UNL A   1      40.485  33.850  34.454  1.00  0.00    -0.203 F 
ATOM     44  C   UNL A   1      39.207  34.147  36.408  1.00  0.00     0.198 A 
ATOM     45  C   UNL A   1      38.026  32.290  37.366  1.00  0.00     0.198 A 
ATOM     46  F   UNL A   1      38.174  30.163  36.375  1.00  0.00    -0.203 F 
ATOM     47  F   UNL A   1      39.563  35.438  36.444  1.00  0.00    -0.200 F 
ATOM     48  C   UNL A   1      38.374  33.631  37.391  1.00  0.00     0.200 A 
ATOM     49  F   UNL A   1      37.211  31.793  38.307  1.00  0.00    -0.200 F 
ATOM     50  F   UNL A   1      37.912  34.427  38.365  1.00  0.00    -0.200 F 
ENDBRANCH  26  40
BRANCH  27  51
ATOM     51  C   UNL A   1      42.399  26.317  27.697  1.00  0.00     0.064 A 
ATOM     52  C   UNL A   1      41.852  25.043  27.501  1.00  0.00     0.173 A 
ATOM     53  C   UNL A   1      43.364  26.763  26.783  1.00  0.00     0.173 A 
ATOM     54  F   UNL A   1      40.940  24.565  28.361  1.00  0.00    -0.203 F 
ATOM     55  C   UNL A   1      42.261  24.241  26.438  1.00  0.00     0.198 A 
ATOM     56  C   UNL A   1      43.751  25.973  25.704  1.00  0.00     0.198 A 
ATOM     57  F   UNL A   1      43.914  27.978  26.925  1.00  0.00    -0.203 F 
ATOM     58  F   UNL A   1      41.749  23.011  26.293  1.00  0.00    -0.200 F 
ATOM     59  C   UNL A   1      43.204  24.709  25.536  1.00  0.00     0.200 A 
ATOM     60  F   UNL A   1      44.650  26.436  24.824  1.00  0.00    -0.200 F 
ATOM     61  F   UNL A   1      43.589  23.942  24.508  1.00  0.00    -0.200 F 
ENDBRANCH  27  51
BRANCH  39  62
ATOM     62  C   UNL A   1      44.903  27.525  34.078  1.00  0.00     0.064 A 
ATOM     63  C   UNL A   1      44.868  26.332  34.814  1.00  0.00     0.173 A 
ATOM     64  C   UNL A   1      46.114  28.230  34.022  1.00  0.00     0.173 A 
ATOM     65  F   UNL A   1      43.728  25.632  34.913  1.00  0.00    -0.203 F 
ATOM     66  C   UNL A   1      45.995  25.879  35.495  1.00  0.00     0.198 A 
ATOM     67  C   UNL A   1      47.248  27.758  34.679  1.00  0.00     0.198 A 
ATOM     68  F   UNL A   1      46.200  29.374  33.327  1.00  0.00    -0.203 F 
ATOM     69  F   UNL A   1      45.925  24.765  36.236  1.00  0.00    -0.200 F 
ATOM     70  C   UNL A   1      47.185  26.589  35.422  1.00  0.00     0.200 A 
ATOM     71  F   UNL A   1      48.398  28.441  34.599  1.00  0.00    -0.200 F 
ATOM     72  F   UNL A   1      48.268  26.152  36.077  1.00  0.00    -0.200 F 
ENDBRANCH  39  62
ENDBRANCH  13  14
ENDBRANCH   6   8
ENDBRANCH   3   4
ENDBRANCH   2   3
ENDBRANCH   1   2
BRANCH   1  73
ATOM     73  C   UNL A   1      31.895  25.808  26.270  1.00  0.00     0.116 C 
BRANCH  73  74
ATOM     74  N   UNL A   1      30.665  25.045  26.386  1.00  0.00    -0.352 N 
ATOM     75  C   UNL A   1      30.557  23.741  26.794  1.00  0.00     0.254 C 
ATOM     76  H   UNL A   1      29.829  25.509  26.150  1.00  0.00     0.163 HD
ATOM     77  O   UNL A   1      29.564  23.325  27.374  1.00  0.00    -0.269 OA
BRANCH  75  78
ATOM     78  C   UNL A   1      31.704  22.855  26.656  1.00  0.00     0.072 A 
ATOM     79  C   UNL A   1      32.459  22.651  27.820  1.00  0.00     0.018 A 
ATOM     80  C   UNL A   1      32.118  22.307  25.448  1.00  0.00     0.109 A 
ATOM     81  C   UNL A   1      33.647  21.942  27.750  1.00  0.00     0.021 A 
ATOM     82  N   UNL A   1      33.275  21.587  25.393  1.00  0.00    -0.249 NA
ATOM     83  C   UNL A   1      34.009  21.428  26.522  1.00  0.00     0.112 A 
BRANCH  80  84
ATOM     84  S   UNL A   1      31.538  22.739  23.826  1.00  0.00    -0.097 SA
BRANCH  84  85
ATOM     85  C   UNL A   1      32.883  23.026  22.650  1.00  0.00     0.157 C 
BRANCH  85  86
ATOM     86  C   UNL A   1      34.048  23.948  22.869  1.00  0.00     0.174 C 
ATOM     87  O   UNL A   1      33.940  25.118  22.480  1.00  0.00    -0.293 OA
BRANCH  86  88
ATOM     88  C   UNL A   1      35.192  23.647  23.802  1.00  0.00     0.037 A 
ATOM     89  C   UNL A   1      36.009  22.558  23.411  1.00  0.00     0.013 A 
ATOM     90  C   UNL A   1      35.543  24.321  24.978  1.00  0.00     0.051 A 
ATOM     91  C   UNL A   1      37.114  22.146  24.161  1.00  0.00     0.001 A 
ATOM     92  C   UNL A   1      36.645  23.886  25.743  1.00  0.00     0.021 A 
ATOM     93  Cl  UNL A   1      34.724  25.695  25.604  1.00  0.00    -0.084 Cl
ATOM     94  C   UNL A   1      37.427  22.806  25.338  1.00  0.00     0.002 A 
ENDBRANCH  86  88
ENDBRANCH  85  86
ENDBRANCH  84  85
ENDBRANCH  80  84
ENDBRANCH  75  78
ENDBRANCH  73  74
ENDBRANCH   1  73
TORSDOF 15
ENDMDL
