MODEL 1
REMARK VINA RESULT:     -12.9      0.000      0.000
REMARK SMILES O=C(NCCCCNC(=O)c1ccc([S@@](=O)[C@H]2CCOC3(CCCC3)C2)cc1)c1ccc(-c2c3nc(c(-c4c(F)c(F)c(F)c(F)c4F)c4ccc([nH]4)c(-c4c(F)c(F)c(F)c(F)c4F)c4nc(c(-c5c(F)c(F)c(F)c(F)c5F)c5ccc2[nH]5)C=C4)C=C3)cc1
REMARK SMILES IDX 5 1 4 2 3 3 1 4 2 5 29 7 30 8 91 9 31 10 90 11 32 12 33 13
REMARK SMILES IDX 34 14 84 15 35 16 89 17 83 18 85 19 36 20 88 21 82 22 81 23
REMARK SMILES IDX 37 25 69 26 49 27 68 28 50 29 53 30 67 31 86 32 51 33 52 34
REMARK SMILES IDX 66 36 87 37 54 38 38 39 39 40 47 41 40 42 41 43 45 44 48 45
REMARK SMILES IDX 42 46 43 47 46 48 44 49 70 50 71 51 79 52 72 53 73 54 77 55
REMARK SMILES IDX 80 56 74 57 75 58 78 59 76 60 55 61 56 62 64 63 57 64 58 65
REMARK SMILES IDX 62 66 65 67 59 68 60 69 63 70 61 71 6 72 7 73 8 74 9 75
REMARK SMILES IDX 10 77 11 78 12 79 28 80 13 81 27 82 14 83 15 84 16 85 17 86
REMARK SMILES IDX 18 87 26 88 19 89 21 90 20 91 22 92 25 93 23 94 24 95
REMARK H PARENT 3 6 85 24 53 35 8 76
REMARK Flexibility Score: inf
ROOT
ATOM      1  C   UNL A   1      31.419  32.171  26.720  1.00  0.00     0.023 C 
ENDROOT
BRANCH   1   2
ATOM      2  C   UNL A   1      32.688  32.961  27.006  1.00  0.00     0.116 C 
BRANCH   2   3
ATOM      3  N   UNL A   1      32.424  34.266  27.591  1.00  0.00    -0.352 N 
ATOM      4  O   UNL A   1      32.584  35.915  29.127  1.00  0.00    -0.269 OA
ATOM      5  C   UNL A   1      33.022  34.861  28.676  1.00  0.00     0.251 C 
ATOM      6  H   UNL A   1      31.722  34.795  27.150  1.00  0.00     0.163 HD
BRANCH   5   7
ATOM      7  C   UNL A   1      34.186  34.211  29.316  1.00  0.00     0.039 A 
ATOM      8  C   UNL A   1      34.002  33.273  30.334  1.00  0.00     0.014 A 
ATOM      9  C   UNL A   1      35.475  34.546  28.891  1.00  0.00     0.014 A 
ATOM     10  C   UNL A   1      35.103  32.772  31.016  1.00  0.00     0.010 A 
ATOM     11  C   UNL A   1      36.583  33.972  29.519  1.00  0.00     0.010 A 
ATOM     12  C   UNL A   1      36.406  33.096  30.601  1.00  0.00    -0.014 A 
BRANCH  12  13
ATOM     13  C   UNL A   1      37.556  32.421  31.250  1.00  0.00     0.031 A 
ATOM     14  C   UNL A   1      38.312  31.321  30.563  1.00  0.00     0.074 A 
ATOM     15  C   UNL A   1      37.922  32.835  32.480  1.00  0.00     0.049 A 
ATOM     16  N   UNL A   1      39.344  30.639  30.996  1.00  0.00    -0.248 NA
ATOM     17  C   UNL A   1      37.854  30.926  29.223  1.00  0.00     0.031 C 
ATOM     18  C   UNL A   1      37.243  33.881  33.249  1.00  0.00     0.029 A 
ATOM     19  N   UNL A   1      38.952  32.441  33.294  1.00  0.00    -0.354 N 
ATOM     20  C   UNL A   1      39.646  29.726  29.994  1.00  0.00     0.074 A 
ATOM     21  C   UNL A   1      38.680  29.928  28.935  1.00  0.00     0.031 C 
ATOM     22  C   UNL A   1      37.895  34.073  34.403  1.00  0.00     0.029 A 
ATOM     23  C   UNL A   1      38.996  33.121  34.486  1.00  0.00     0.049 A 
ATOM     24  H   UNL A   1      39.595  31.738  33.048  1.00  0.00     0.167 HD
ATOM     25  C   UNL A   1      40.644  28.811  29.966  1.00  0.00     0.037 A 
ATOM     26  C   UNL A   1      39.817  32.978  35.542  1.00  0.00     0.037 A 
ATOM     27  C   UNL A   1      41.616  28.636  31.016  1.00  0.00     0.049 A 
ATOM     28  C   UNL A   1      40.901  31.942  35.483  1.00  0.00     0.074 A 
ATOM     29  C   UNL A   1      42.702  27.778  31.051  1.00  0.00     0.029 A 
ATOM     30  N   UNL A   1      41.616  29.326  32.219  1.00  0.00    -0.354 N 
ATOM     31  N   UNL A   1      41.209  31.124  34.506  1.00  0.00    -0.248 NA
ATOM     32  C   UNL A   1      41.749  31.806  36.674  1.00  0.00     0.031 C 
ATOM     33  C   UNL A   1      43.329  27.912  32.294  1.00  0.00     0.029 A 
ATOM     34  C   UNL A   1      42.664  28.889  33.015  1.00  0.00     0.049 A 
ATOM     35  H   UNL A   1      40.968  30.023  32.470  1.00  0.00     0.167 HD
ATOM     36  C   UNL A   1      42.289  30.383  34.960  1.00  0.00     0.074 A 
ATOM     37  C   UNL A   1      42.604  30.870  36.287  1.00  0.00     0.031 C 
ATOM     38  C   UNL A   1      42.957  29.383  34.336  1.00  0.00     0.037 A 
BRANCH  25  39
ATOM     39  C   UNL A   1      40.746  27.907  28.771  1.00  0.00     0.064 A 
ATOM     40  C   UNL A   1      40.003  26.722  28.679  1.00  0.00     0.173 A 
ATOM     41  C   UNL A   1      41.521  28.285  27.664  1.00  0.00     0.173 A 
ATOM     42  F   UNL A   1      39.251  26.314  29.712  1.00  0.00    -0.203 F 
ATOM     43  C   UNL A   1      40.037  25.945  27.524  1.00  0.00     0.198 A 
ATOM     44  C   UNL A   1      41.536  27.517  26.503  1.00  0.00     0.198 A 
ATOM     45  F   UNL A   1      42.246  29.413  27.699  1.00  0.00    -0.203 F 
ATOM     46  F   UNL A   1      39.333  24.805  27.463  1.00  0.00    -0.200 F 
ATOM     47  C   UNL A   1      40.794  26.347  26.433  1.00  0.00     0.200 A 
ATOM     48  F   UNL A   1      42.257  27.916  25.446  1.00  0.00    -0.200 F 
ATOM     49  F   UNL A   1      40.808  25.610  25.315  1.00  0.00    -0.200 F 
ENDBRANCH  25  39
BRANCH  26  50
ATOM     50  C   UNL A   1      39.624  33.821  36.750  1.00  0.00     0.064 A 
ATOM     51  C   UNL A   1      38.841  33.378  37.825  1.00  0.00     0.173 A 
ATOM     52  C   UNL A   1      40.214  35.090  36.850  1.00  0.00     0.173 A 
ATOM     53  F   UNL A   1      38.242  32.180  37.767  1.00  0.00    -0.203 F 
ATOM     54  C   UNL A   1      38.638  34.183  38.944  1.00  0.00     0.198 A 
ATOM     55  C   UNL A   1      40.037  35.879  37.984  1.00  0.00     0.198 A 
ATOM     56  F   UNL A   1      40.977  35.557  35.851  1.00  0.00    -0.203 F 
ATOM     57  F   UNL A   1      37.844  33.756  39.935  1.00  0.00    -0.200 F 
ATOM     58  C   UNL A   1      39.240  35.429  39.025  1.00  0.00     0.200 A 
ATOM     59  F   UNL A   1      40.635  37.075  38.065  1.00  0.00    -0.200 F 
ATOM     60  F   UNL A   1      39.047  36.200  40.103  1.00  0.00    -0.200 F 
ENDBRANCH  26  50
BRANCH  38  61
ATOM     61  C   UNL A   1      44.099  28.762  35.083  1.00  0.00     0.064 A 
ATOM     62  C   UNL A   1      45.401  29.274  34.987  1.00  0.00     0.173 A 
ATOM     63  C   UNL A   1      43.887  27.653  35.917  1.00  0.00     0.173 A 
ATOM     64  F   UNL A   1      45.657  30.320  34.188  1.00  0.00    -0.203 F 
ATOM     65  C   UNL A   1      46.455  28.682  35.677  1.00  0.00     0.198 A 
ATOM     66  C   UNL A   1      44.937  27.081  36.628  1.00  0.00     0.198 A 
ATOM     67  F   UNL A   1      42.658  27.129  36.045  1.00  0.00    -0.203 F 
ATOM     68  F   UNL A   1      47.700  29.156  35.529  1.00  0.00    -0.200 F 
ATOM     69  C   UNL A   1      46.221  27.590  36.501  1.00  0.00     0.200 A 
ATOM     70  F   UNL A   1      44.709  26.035  37.433  1.00  0.00    -0.200 F 
ATOM     71  F   UNL A   1      47.237  27.023  37.166  1.00  0.00    -0.200 F 
ENDBRANCH  38  61
ENDBRANCH  12  13
ENDBRANCH   5   7
ENDBRANCH   2   3
ENDBRANCH   1   2
BRANCH   1  72
ATOM     72  C   UNL A   1      31.569  30.655  26.801  1.00  0.00     0.023 C 
BRANCH  72  73
ATOM     73  C   UNL A   1      31.840  29.961  25.468  1.00  0.00     0.116 C 
BRANCH  73  74
ATOM     74  N   UNL A   1      30.794  30.215  24.489  1.00  0.00    -0.352 N 
ATOM     75  C   UNL A   1      30.399  29.428  23.435  1.00  0.00     0.251 C 
ATOM     76  H   UNL A   1      30.306  31.062  24.595  1.00  0.00     0.163 HD
ATOM     77  O   UNL A   1      29.602  29.842  22.602  1.00  0.00    -0.269 OA
BRANCH  75  78
ATOM     78  C   UNL A   1      30.967  28.075  23.304  1.00  0.00     0.039 A 
ATOM     79  C   UNL A   1      30.230  26.982  23.765  1.00  0.00     0.015 A 
ATOM     80  C   UNL A   1      32.213  27.894  22.697  1.00  0.00     0.015 A 
ATOM     81  C   UNL A   1      30.714  25.689  23.557  1.00  0.00     0.018 A 
ATOM     82  C   UNL A   1      32.690  26.603  22.489  1.00  0.00     0.018 A 
ATOM     83  C   UNL A   1      31.946  25.495  22.916  1.00  0.00     0.039 A 
BRANCH  83  84
ATOM     84  S   UNL A   1      32.565  23.832  22.614  1.00  0.00     0.056 S 
ATOM     85  O   UNL A   1      33.334  23.918  21.329  1.00  0.00    -0.254 OA
BRANCH  84  86
ATOM     86  C   UNL A   1      33.757  23.610  23.995  1.00  0.00     0.089 C 
ATOM     87  C   UNL A   1      33.019  23.728  25.331  1.00  0.00     0.046 C 
ATOM     88  C   UNL A   1      34.560  22.312  23.989  1.00  0.00     0.053 C 
ATOM     89  C   UNL A   1      33.979  23.585  26.500  1.00  0.00     0.162 C 
ATOM     90  C   UNL A   1      35.517  22.254  25.188  1.00  0.00     0.069 C 
ATOM     91  O   UNL A   1      34.776  22.406  26.404  1.00  0.00    -0.375 OA
ATOM     92  C   UNL A   1      36.225  20.879  25.253  1.00  0.00     0.035 C 
ATOM     93  C   UNL A   1      36.668  23.283  25.088  1.00  0.00     0.035 C 
ATOM     94  C   UNL A   1      37.707  21.154  25.022  1.00  0.00     0.003 C 
ATOM     95  C   UNL A   1      37.900  22.545  25.590  1.00  0.00     0.003 C 
ENDBRANCH  84  86
ENDBRANCH  83  84
ENDBRANCH  75  78
ENDBRANCH  73  74
ENDBRANCH  72  73
ENDBRANCH   1  72
TORSDOF 13
ENDMDL
MODEL 2
REMARK VINA RESULT:     -12.9      0.483      7.328
REMARK SMILES O=C(NCCCCNC(=O)c1ccc([S@@](=O)[C@H]2CCOC3(CCCC3)C2)cc1)c1ccc(-c2c3nc(c(-c4c(F)c(F)c(F)c(F)c4F)c4ccc([nH]4)c(-c4c(F)c(F)c(F)c(F)c4F)c4nc(c(-c5c(F)c(F)c(F)c(F)c5F)c5ccc2[nH]5)C=C4)C=C3)cc1
REMARK SMILES IDX 5 1 4 2 3 3 1 4 2 5 29 7 30 8 91 9 31 10 90 11 32 12 33 13
REMARK SMILES IDX 34 14 84 15 35 16 89 17 83 18 85 19 36 20 88 21 82 22 81 23
REMARK SMILES IDX 37 25 69 26 49 27 68 28 50 29 53 30 67 31 86 32 51 33 52 34
REMARK SMILES IDX 66 36 87 37 54 38 38 39 39 40 47 41 40 42 41 43 45 44 48 45
REMARK SMILES IDX 42 46 43 47 46 48 44 49 70 50 71 51 79 52 72 53 73 54 77 55
REMARK SMILES IDX 80 56 74 57 75 58 78 59 76 60 55 61 56 62 64 63 57 64 58 65
REMARK SMILES IDX 62 66 65 67 59 68 60 69 63 70 61 71 6 72 7 73 8 74 9 75
REMARK SMILES IDX 10 77 11 78 12 79 28 80 13 81 27 82 14 83 15 84 16 85 17 86
REMARK SMILES IDX 18 87 26 88 19 89 21 90 20 91 22 92 25 93 23 94 24 95
REMARK H PARENT 3 6 85 24 53 35 8 76
REMARK Flexibility Score: inf
ROOT
ATOM      1  C   UNL A   1      31.437  32.052  26.869  1.00  0.00     0.023 C 
ENDROOT
BRANCH   1   2
ATOM      2  C   UNL A   1      32.686  32.911  27.002  1.00  0.00     0.116 C 
BRANCH   2   3
ATOM      3  N   UNL A   1      32.425  34.199  27.626  1.00  0.00    -0.352 N 
ATOM      4  O   UNL A   1      32.595  35.805  29.206  1.00  0.00    -0.269 OA
ATOM      5  C   UNL A   1      33.031  34.765  28.722  1.00  0.00     0.251 C 
ATOM      6  H   UNL A   1      31.717  34.739  27.206  1.00  0.00     0.163 HD
BRANCH   5   7
ATOM      7  C   UNL A   1      34.202  34.100  29.333  1.00  0.00     0.039 A 
ATOM      8  C   UNL A   1      34.029  33.131  30.324  1.00  0.00     0.014 A 
ATOM      9  C   UNL A   1      35.487  34.452  28.908  1.00  0.00     0.014 A 
ATOM     10  C   UNL A   1      35.137  32.613  30.982  1.00  0.00     0.010 A 
ATOM     11  C   UNL A   1      36.601  33.863  29.510  1.00  0.00     0.010 A 
ATOM     12  C   UNL A   1      36.435  32.955  30.566  1.00  0.00    -0.014 A 
BRANCH  12  13
ATOM     13  C   UNL A   1      37.593  32.264  31.186  1.00  0.00     0.031 A 
ATOM     14  C   UNL A   1      38.060  32.603  32.572  1.00  0.00     0.074 A 
ATOM     15  C   UNL A   1      38.213  31.303  30.472  1.00  0.00     0.049 A 
ATOM     16  N   UNL A   1      39.051  32.083  33.253  1.00  0.00    -0.248 NA
ATOM     17  C   UNL A   1      37.332  33.661  33.287  1.00  0.00     0.031 C 
ATOM     18  C   UNL A   1      37.855  30.909  29.107  1.00  0.00     0.029 A 
ATOM     19  N   UNL A   1      39.260  30.478  30.792  1.00  0.00    -0.354 N 
ATOM     20  C   UNL A   1      39.078  32.761  34.465  1.00  0.00     0.074 A 
ATOM     21  C   UNL A   1      38.014  33.742  34.423  1.00  0.00     0.031 C 
ATOM     22  C   UNL A   1      38.641  29.895  28.721  1.00  0.00     0.029 A 
ATOM     23  C   UNL A   1      39.599  29.611  29.782  1.00  0.00     0.049 A 
ATOM     24  H   UNL A   1      39.723  30.505  31.660  1.00  0.00     0.167 HD
ATOM     25  C   UNL A   1      39.913  32.571  35.515  1.00  0.00     0.037 A 
ATOM     26  C   UNL A   1      40.588  28.703  29.707  1.00  0.00     0.037 A 
ATOM     27  C   UNL A   1      40.953  31.574  35.556  1.00  0.00     0.049 A 
ATOM     28  C   UNL A   1      41.506  28.532  30.883  1.00  0.00     0.074 A 
ATOM     29  C   UNL A   1      41.810  31.264  36.599  1.00  0.00     0.029 A 
ATOM     30  N   UNL A   1      41.284  30.731  34.505  1.00  0.00    -0.354 N 
ATOM     31  N   UNL A   1      41.484  29.142  32.042  1.00  0.00    -0.248 NA
ATOM     32  C   UNL A   1      42.588  27.550  30.738  1.00  0.00     0.031 C 
ATOM     33  C   UNL A   1      42.691  30.269  36.164  1.00  0.00     0.029 A 
ATOM     34  C   UNL A   1      42.353  29.923  34.866  1.00  0.00     0.049 A 
ATOM     35  H   UNL A   1      40.827  30.707  33.634  1.00  0.00     0.167 HD
ATOM     36  C   UNL A   1      42.541  28.614  32.768  1.00  0.00     0.074 A 
ATOM     37  C   UNL A   1      43.164  27.611  31.929  1.00  0.00     0.031 C 
ATOM     38  C   UNL A   1      42.962  28.934  34.015  1.00  0.00     0.037 A 
BRANCH  25  39
ATOM     39  C   UNL A   1      39.760  33.461  36.714  1.00  0.00     0.064 A 
ATOM     40  C   UNL A   1      40.422  34.694  36.805  1.00  0.00     0.173 A 
ATOM     41  C   UNL A   1      38.864  33.119  37.738  1.00  0.00     0.173 A 
ATOM     42  F   UNL A   1      41.294  35.065  35.856  1.00  0.00    -0.203 F 
ATOM     43  C   UNL A   1      40.194  35.550  37.880  1.00  0.00     0.198 A 
ATOM     44  C   UNL A   1      38.622  33.986  38.800  1.00  0.00     0.198 A 
ATOM     45  F   UNL A   1      38.201  31.954  37.694  1.00  0.00    -0.203 F 
ATOM     46  F   UNL A   1      40.850  36.717  37.958  1.00  0.00    -0.200 F 
ATOM     47  C   UNL A   1      39.287  35.201  38.871  1.00  0.00     0.200 A 
ATOM     48  F   UNL A   1      37.735  33.652  39.748  1.00  0.00    -0.200 F 
ATOM     49  F   UNL A   1      39.054  36.035  39.893  1.00  0.00    -0.200 F 
ENDBRANCH  25  39
BRANCH  26  50
ATOM     50  C   UNL A   1      40.773  27.909  28.465  1.00  0.00     0.064 A 
ATOM     51  C   UNL A   1      40.196  26.640  28.324  1.00  0.00     0.173 A 
ATOM     52  C   UNL A   1      41.536  28.403  27.397  1.00  0.00     0.173 A 
ATOM     53  F   UNL A   1      39.474  26.117  29.325  1.00  0.00    -0.203 F 
ATOM     54  C   UNL A   1      40.395  25.887  27.169  1.00  0.00     0.198 A 
ATOM     55  C   UNL A   1      41.707  27.663  26.230  1.00  0.00     0.198 A 
ATOM     56  F   UNL A   1      42.104  29.615  27.481  1.00  0.00    -0.203 F 
ATOM     57  F   UNL A   1      39.875  24.655  27.080  1.00  0.00    -0.200 F 
ATOM     58  C   UNL A   1      41.145  26.400  26.122  1.00  0.00     0.200 A 
ATOM     59  F   UNL A   1      42.416  28.171  25.214  1.00  0.00    -0.200 F 
ATOM     60  F   UNL A   1      41.332  25.675  25.011  1.00  0.00    -0.200 F 
ENDBRANCH  26  50
BRANCH  38  61
ATOM     61  C   UNL A   1      44.147  28.183  34.544  1.00  0.00     0.064 A 
ATOM     62  C   UNL A   1      43.997  26.962  35.218  1.00  0.00     0.173 A 
ATOM     63  C   UNL A   1      45.446  28.680  34.361  1.00  0.00     0.173 A 
ATOM     64  F   UNL A   1      42.774  26.457  35.433  1.00  0.00    -0.203 F 
ATOM     65  C   UNL A   1      45.104  26.279  35.714  1.00  0.00     0.198 A 
ATOM     66  C   UNL A   1      46.553  27.980  34.834  1.00  0.00     0.198 A 
ATOM     67  F   UNL A   1      45.642  29.842  33.720  1.00  0.00    -0.203 F 
ATOM     68  F   UNL A   1      44.933  25.141  36.401  1.00  0.00    -0.200 F 
ATOM     69  C   UNL A   1      46.380  26.786  35.517  1.00  0.00     0.200 A 
ATOM     70  F   UNL A   1      47.786  28.464  34.632  1.00  0.00    -0.200 F 
ATOM     71  F   UNL A   1      47.445  26.126  35.994  1.00  0.00    -0.200 F 
ENDBRANCH  38  61
ENDBRANCH  12  13
ENDBRANCH   5   7
ENDBRANCH   2   3
ENDBRANCH   1   2
BRANCH   1  72
ATOM     72  C   UNL A   1      31.684  30.546  26.875  1.00  0.00     0.023 C 
BRANCH  72  73
ATOM     73  C   UNL A   1      31.956  29.931  25.505  1.00  0.00     0.116 C 
BRANCH  73  74
ATOM     74  N   UNL A   1      30.885  30.194  24.557  1.00  0.00    -0.352 N 
ATOM     75  C   UNL A   1      30.443  29.405  23.524  1.00  0.00     0.251 C 
ATOM     76  H   UNL A   1      30.414  31.051  24.671  1.00  0.00     0.163 HD
ATOM     77  O   UNL A   1      29.626  29.826  22.713  1.00  0.00    -0.269 OA
BRANCH  75  78
ATOM     78  C   UNL A   1      30.983  28.041  23.388  1.00  0.00     0.039 A 
ATOM     79  C   UNL A   1      30.239  26.965  23.876  1.00  0.00     0.015 A 
ATOM     80  C   UNL A   1      32.210  27.834  22.751  1.00  0.00     0.015 A 
ATOM     81  C   UNL A   1      30.694  25.662  23.664  1.00  0.00     0.018 A 
ATOM     82  C   UNL A   1      32.659  26.534  22.539  1.00  0.00     0.018 A 
ATOM     83  C   UNL A   1      31.906  25.442  22.993  1.00  0.00     0.039 A 
BRANCH  83  84
ATOM     84  S   UNL A   1      32.487  23.766  22.687  1.00  0.00     0.056 S 
ATOM     85  O   UNL A   1      33.278  23.843  21.414  1.00  0.00    -0.254 OA
BRANCH  84  86
ATOM     86  C   UNL A   1      33.653  23.503  24.084  1.00  0.00     0.089 C 
ATOM     87  C   UNL A   1      32.866  23.414  25.394  1.00  0.00     0.046 C 
ATOM     88  C   UNL A   1      34.570  22.288  23.976  1.00  0.00     0.053 C 
ATOM     89  C   UNL A   1      33.800  23.232  26.579  1.00  0.00     0.162 C 
ATOM     90  C   UNL A   1      35.491  22.187  25.199  1.00  0.00     0.069 C 
ATOM     91  O   UNL A   1      34.702  22.144  26.394  1.00  0.00    -0.375 OA
ATOM     92  C   UNL A   1      36.319  20.879  25.150  1.00  0.00     0.035 C 
ATOM     93  C   UNL A   1      36.547  23.317  25.251  1.00  0.00     0.035 C 
ATOM     94  C   UNL A   1      37.775  21.305  25.008  1.00  0.00     0.003 C 
ATOM     95  C   UNL A   1      37.825  22.639  25.723  1.00  0.00     0.003 C 
ENDBRANCH  84  86
ENDBRANCH  83  84
ENDBRANCH  75  78
ENDBRANCH  73  74
ENDBRANCH  72  73
ENDBRANCH   1  72
TORSDOF 13
ENDMDL
MODEL 3
REMARK VINA RESULT:     -12.9      3.490      8.483
REMARK SMILES O=C(NCCCCNC(=O)c1ccc([S@@](=O)[C@H]2CCOC3(CCCC3)C2)cc1)c1ccc(-c2c3nc(c(-c4c(F)c(F)c(F)c(F)c4F)c4ccc([nH]4)c(-c4c(F)c(F)c(F)c(F)c4F)c4nc(c(-c5c(F)c(F)c(F)c(F)c5F)c5ccc2[nH]5)C=C4)C=C3)cc1
REMARK SMILES IDX 5 1 4 2 3 3 1 4 2 5 29 7 30 8 91 9 31 10 90 11 32 12 33 13
REMARK SMILES IDX 34 14 84 15 35 16 89 17 83 18 85 19 36 20 88 21 82 22 81 23
REMARK SMILES IDX 37 25 69 26 49 27 68 28 50 29 53 30 67 31 86 32 51 33 52 34
REMARK SMILES IDX 66 36 87 37 54 38 38 39 39 40 47 41 40 42 41 43 45 44 48 45
REMARK SMILES IDX 42 46 43 47 46 48 44 49 70 50 71 51 79 52 72 53 73 54 77 55
REMARK SMILES IDX 80 56 74 57 75 58 78 59 76 60 55 61 56 62 64 63 57 64 58 65
REMARK SMILES IDX 62 66 65 67 59 68 60 69 63 70 61 71 6 72 7 73 8 74 9 75
REMARK SMILES IDX 10 77 11 78 12 79 28 80 13 81 27 82 14 83 15 84 16 85 17 86
REMARK SMILES IDX 18 87 26 88 19 89 21 90 20 91 22 92 25 93 23 94 24 95
REMARK H PARENT 3 6 85 24 53 35 8 76
REMARK Flexibility Score: inf
ROOT
ATOM      1  C   UNL A   1      33.686  28.117  25.456  1.00  0.00     0.023 C 
ENDROOT
BRANCH   1   2
ATOM      2  C   UNL A   1      34.133  28.350  26.892  1.00  0.00     0.116 C 
BRANCH   2   3
ATOM      3  N   UNL A   1      33.824  29.688  27.372  1.00  0.00    -0.352 N 
ATOM      4  O   UNL A   1      34.129  31.577  28.575  1.00  0.00    -0.269 OA
ATOM      5  C   UNL A   1      34.597  30.530  28.136  1.00  0.00     0.251 C 
ATOM      6  H   UNL A   1      32.941  30.038  27.115  1.00  0.00     0.163 HD
BRANCH   5   7
ATOM      7  C   UNL A   1      35.993  30.157  28.449  1.00  0.00     0.039 A 
ATOM      8  C   UNL A   1      37.009  30.371  27.516  1.00  0.00     0.014 A 
ATOM      9  C   UNL A   1      36.286  29.588  29.692  1.00  0.00     0.014 A 
ATOM     10  C   UNL A   1      38.289  29.894  27.770  1.00  0.00     0.010 A 
ATOM     11  C   UNL A   1      37.593  29.190  29.982  1.00  0.00     0.010 A 
ATOM     12  C   UNL A   1      38.601  29.321  29.014  1.00  0.00    -0.014 A 
BRANCH  12  13
ATOM     13  C   UNL A   1      40.011  28.967  29.309  1.00  0.00     0.031 A 
ATOM     14  C   UNL A   1      40.899  29.876  30.109  1.00  0.00     0.074 A 
ATOM     15  C   UNL A   1      40.478  27.789  28.850  1.00  0.00     0.049 A 
ATOM     16  N   UNL A   1      42.150  29.704  30.457  1.00  0.00    -0.248 NA
ATOM     17  C   UNL A   1      40.317  31.143  30.577  1.00  0.00     0.031 C 
ATOM     18  C   UNL A   1      39.707  26.839  28.043  1.00  0.00     0.029 A 
ATOM     19  N   UNL A   1      41.698  27.183  29.001  1.00  0.00    -0.354 N 
ATOM     20  C   UNL A   1      42.510  30.842  31.165  1.00  0.00     0.074 A 
ATOM     21  C   UNL A   1      41.351  31.710  31.186  1.00  0.00     0.031 C 
ATOM     22  C   UNL A   1      40.458  25.756  27.802  1.00  0.00     0.029 A 
ATOM     23  C   UNL A   1      41.780  25.960  28.380  1.00  0.00     0.049 A 
ATOM     24  H   UNL A   1      42.442  27.585  29.504  1.00  0.00     0.167 HD
ATOM     25  C   UNL A   1      43.700  31.128  31.747  1.00  0.00     0.037 A 
ATOM     26  C   UNL A   1      42.815  25.108  28.266  1.00  0.00     0.037 A 
ATOM     27  C   UNL A   1      44.840  30.246  31.741  1.00  0.00     0.049 A 
ATOM     28  C   UNL A   1      44.123  25.465  28.908  1.00  0.00     0.074 A 
ATOM     29  C   UNL A   1      46.068  30.420  32.357  1.00  0.00     0.029 A 
ATOM     30  N   UNL A   1      44.895  29.027  31.082  1.00  0.00    -0.354 N 
ATOM     31  N   UNL A   1      44.432  26.520  29.621  1.00  0.00    -0.248 NA
ATOM     32  C   UNL A   1      45.228  24.515  28.727  1.00  0.00     0.031 C 
ATOM     33  C   UNL A   1      46.883  29.332  32.029  1.00  0.00     0.029 A 
ATOM     34  C   UNL A   1      46.148  28.455  31.250  1.00  0.00     0.049 A 
ATOM     35  H   UNL A   1      44.155  28.626  30.571  1.00  0.00     0.167 HD
ATOM     36  C   UNL A   1      45.761  26.359  29.980  1.00  0.00     0.074 A 
ATOM     37  C   UNL A   1      46.191  25.088  29.434  1.00  0.00     0.031 C 
ATOM     38  C   UNL A   1      46.557  27.191  30.693  1.00  0.00     0.037 A 
BRANCH  25  39
ATOM     39  C   UNL A   1      43.854  32.453  32.435  1.00  0.00     0.064 A 
ATOM     40  C   UNL A   1      44.288  33.595  31.746  1.00  0.00     0.173 A 
ATOM     41  C   UNL A   1      43.468  32.602  33.776  1.00  0.00     0.173 A 
ATOM     42  F   UNL A   1      44.674  33.505  30.465  1.00  0.00    -0.203 F 
ATOM     43  C   UNL A   1      44.333  34.836  32.376  1.00  0.00     0.198 A 
ATOM     44  C   UNL A   1      43.494  33.848  34.397  1.00  0.00     0.198 A 
ATOM     45  F   UNL A   1      43.040  31.542  34.478  1.00  0.00    -0.203 F 
ATOM     46  F   UNL A   1      44.768  35.912  31.705  1.00  0.00    -0.200 F 
ATOM     47  C   UNL A   1      43.927  34.965  33.697  1.00  0.00     0.200 A 
ATOM     48  F   UNL A   1      43.088  33.971  35.668  1.00  0.00    -0.200 F 
ATOM     49  F   UNL A   1      43.952  36.163  34.295  1.00  0.00    -0.200 F 
ENDBRANCH  25  39
BRANCH  26  50
ATOM     50  C   UNL A   1      42.656  23.851  27.490  1.00  0.00     0.064 A 
ATOM     51  C   UNL A   1      42.156  22.687  28.092  1.00  0.00     0.173 A 
ATOM     52  C   UNL A   1      43.006  23.786  26.134  1.00  0.00     0.173 A 
ATOM     53  F   UNL A   1      41.825  22.694  29.391  1.00  0.00    -0.203 F 
ATOM     54  C   UNL A   1      42.035  21.502  27.369  1.00  0.00     0.198 A 
ATOM     55  C   UNL A   1      42.854  22.610  25.405  1.00  0.00     0.198 A 
ATOM     56  F   UNL A   1      43.483  24.874  25.511  1.00  0.00    -0.203 F 
ATOM     57  F   UNL A   1      41.603  20.391  27.980  1.00  0.00    -0.200 F 
ATOM     58  C   UNL A   1      42.378  21.466  26.026  1.00  0.00     0.200 A 
ATOM     59  F   UNL A   1      43.169  22.586  24.103  1.00  0.00    -0.200 F 
ATOM     60  F   UNL A   1      42.258  20.326  25.332  1.00  0.00    -0.200 F 
ENDBRANCH  26  50
BRANCH  38  61
ATOM     61  C   UNL A   1      47.969  26.743  30.928  1.00  0.00     0.064 A 
ATOM     62  C   UNL A   1      48.309  25.946  32.031  1.00  0.00     0.173 A 
ATOM     63  C   UNL A   1      48.988  27.099  30.032  1.00  0.00     0.173 A 
ATOM     64  F   UNL A   1      47.372  25.596  32.924  1.00  0.00    -0.203 F 
ATOM     65  C   UNL A   1      49.625  25.545  32.244  1.00  0.00     0.198 A 
ATOM     66  C   UNL A   1      50.298  26.673  30.232  1.00  0.00     0.198 A 
ATOM     67  F   UNL A   1      48.712  27.857  28.959  1.00  0.00    -0.203 F 
ATOM     68  F   UNL A   1      49.937  24.828  33.332  1.00  0.00    -0.200 F 
ATOM     69  C   UNL A   1      50.616  25.904  31.342  1.00  0.00     0.200 A 
ATOM     70  F   UNL A   1      51.252  27.009  29.354  1.00  0.00    -0.200 F 
ATOM     71  F   UNL A   1      51.882  25.515  31.547  1.00  0.00    -0.200 F 
ENDBRANCH  38  61
ENDBRANCH  12  13
ENDBRANCH   5   7
ENDBRANCH   2   3
ENDBRANCH   1   2
BRANCH   1  72
ATOM     72  C   UNL A   1      32.929  29.277  24.818  1.00  0.00     0.023 C 
BRANCH  72  73
ATOM     73  C   UNL A   1      31.415  29.243  25.008  1.00  0.00     0.116 C 
BRANCH  73  74
ATOM     74  N   UNL A   1      30.696  29.563  23.784  1.00  0.00    -0.352 N 
ATOM     75  C   UNL A   1      30.414  28.745  22.718  1.00  0.00     0.251 C 
ATOM     76  H   UNL A   1      30.367  30.487  23.711  1.00  0.00     0.163 HD
ATOM     77  O   UNL A   1      29.928  29.195  21.687  1.00  0.00    -0.269 OA
BRANCH  75  78
ATOM     78  C   UNL A   1      30.727  27.309  22.820  1.00  0.00     0.039 A 
ATOM     79  C   UNL A   1      31.856  26.812  22.164  1.00  0.00     0.015 A 
ATOM     80  C   UNL A   1      29.919  26.468  23.589  1.00  0.00     0.015 A 
ATOM     81  C   UNL A   1      32.218  25.474  22.334  1.00  0.00     0.018 A 
ATOM     82  C   UNL A   1      30.285  25.136  23.759  1.00  0.00     0.018 A 
ATOM     83  C   UNL A   1      31.433  24.632  23.135  1.00  0.00     0.039 A 
BRANCH  83  84
ATOM     84  S   UNL A   1      31.908  22.913  23.388  1.00  0.00     0.056 S 
ATOM     85  O   UNL A   1      32.595  22.497  22.120  1.00  0.00    -0.254 OA
BRANCH  84  86
ATOM     86  C   UNL A   1      33.171  23.056  24.716  1.00  0.00     0.089 C 
ATOM     87  C   UNL A   1      32.544  22.676  26.060  1.00  0.00     0.046 C 
ATOM     88  C   UNL A   1      34.448  22.244  24.521  1.00  0.00     0.053 C 
ATOM     89  C   UNL A   1      33.549  22.816  27.190  1.00  0.00     0.162 C 
ATOM     90  C   UNL A   1      35.416  22.455  25.693  1.00  0.00     0.069 C 
ATOM     91  O   UNL A   1      34.763  22.119  26.923  1.00  0.00    -0.375 OA
ATOM     92  C   UNL A   1      36.645  21.523  25.558  1.00  0.00     0.035 C 
ATOM     93  C   UNL A   1      36.009  23.883  25.733  1.00  0.00     0.035 C 
ATOM     94  C   UNL A   1      37.849  22.436  25.359  1.00  0.00     0.003 C 
ATOM     95  C   UNL A   1      37.469  23.691  26.117  1.00  0.00     0.003 C 
ENDBRANCH  84  86
ENDBRANCH  83  84
ENDBRANCH  75  78
ENDBRANCH  73  74
ENDBRANCH  72  73
ENDBRANCH   1  72
TORSDOF 13
ENDMDL
