MODEL 1
REMARK VINA RESULT:     -13.4      0.000      0.000
REMARK SMILES COc1ccc(-n2ccnc2C[N@@H+]2Cc3[nH]cnc3C[C@H]2C(=O)NCCCCNC(=O)c2ccc(-c3c4nc(c(-c5c(F)c(F)c(F)c(F)c5F)c5ccc([nH]5)c(-c5c(F)c(F)c(F)c(F)c5F)c5nc(c(-c6c(F)c(F)c(F)c(F)c6F)c6ccc3[nH]6)C=C5)C=C4)cc2)cc1
REMARK SMILES IDX 25 1 24 2 22 3 23 4 21 6 13 7 14 8 15 10 20 11 16 12 19 13
REMARK SMILES IDX 17 14 18 16 12 17 11 18 7 19 8 20 9 21 10 22 6 23 3 24 4 25
REMARK SMILES IDX 96 26 5 27 95 28 2 29 1 30 26 31 27 32 28 33 29 34 30 35
REMARK SMILES IDX 31 37 32 38 33 39 94 40 34 41 93 42 35 43 36 44 37 45 87 46
REMARK SMILES IDX 38 47 92 48 86 49 88 50 39 51 91 52 85 53 84 54 40 56 72 57
REMARK SMILES IDX 52 58 71 59 53 60 56 61 70 62 89 63 54 64 55 65 69 67 90 68
REMARK SMILES IDX 57 69 41 70 42 71 50 72 43 73 44 74 48 75 51 76 45 77 46 78
REMARK SMILES IDX 49 79 47 80 73 81 74 82 82 83 75 84 76 85 80 86 83 87 77 88
REMARK SMILES IDX 78 89 81 90 79 91 58 92 59 93 67 94 60 95 61 96 65 97 68 98
REMARK SMILES IDX 62 99 63 100 66 101 64 102
REMARK H PARENT 24 5 13 9 16 15 29 36 88 55 56 66
REMARK Flexibility Score: inf
ROOT
ATOM      1  C   UNL A   1      31.804  30.845  26.147  1.00  0.00     0.116 C 
ENDROOT
BRANCH   1   2
ATOM      2  N   UNL A   1      31.005  30.411  25.011  1.00  0.00    -0.351 N 
ATOM      3  C   UNL A   1      31.016  29.307  24.211  1.00  0.00     0.278 C 
ATOM      4  O   UNL A   1      30.085  29.242  23.394  1.00  0.00    -0.268 OA
ATOM      5  H   UNL A   1      30.303  31.057  24.766  1.00  0.00     0.163 HD
BRANCH   3   6
ATOM      6  C   UNL A   1      32.056  28.155  24.269  1.00  0.00     0.280 C 
ATOM      7  N   UNL A   1      31.434  26.913  24.860  1.00  0.00    -0.313 N 
ATOM      8  C   UNL A   1      30.859  26.021  23.851  1.00  0.00     0.320 C 
ATOM      9  H   UNL A   1      30.655  27.244  25.429  1.00  0.00     0.349 HD
ATOM     10  C   UNL A   1      31.790  25.840  22.731  1.00  0.00     0.093 A 
ATOM     11  C   UNL A   1      32.902  28.065  22.963  1.00  0.00     0.134 C 
ATOM     12  N   UNL A   1      31.929  24.766  21.908  1.00  0.00    -0.344 N 
ATOM     13  C   UNL A   1      32.717  26.754  22.306  1.00  0.00     0.074 A 
ATOM     14  C   UNL A   1      32.928  25.078  21.024  1.00  0.00     0.197 A 
ATOM     15  H   UNL A   1      31.413  23.929  21.940  1.00  0.00     0.167 HD
ATOM     16  N   UNL A   1      33.417  26.282  21.236  1.00  0.00    -0.241 NA
BRANCH   7  17
ATOM     17  C   UNL A   1      32.363  26.187  25.761  1.00  0.00     0.340 C 
BRANCH  17  18
ATOM     18  C   UNL A   1      31.732  24.914  26.303  1.00  0.00     0.168 A 
ATOM     19  N   UNL A   1      32.216  23.620  26.075  1.00  0.00    -0.299 N 
ATOM     20  C   UNL A   1      31.127  22.784  26.220  1.00  0.00     0.113 A 
ATOM     21  C   UNL A   1      30.103  23.566  26.688  1.00  0.00     0.132 A 
ATOM     22  N   UNL A   1      30.495  24.868  26.776  1.00  0.00    -0.236 NA
BRANCH  19  23
ATOM     23  C   UNL A   1      33.503  23.218  25.621  1.00  0.00     0.047 A 
ATOM     24  C   UNL A   1      36.057  22.547  24.681  1.00  0.00     0.119 A 
ATOM     25  C   UNL A   1      35.877  22.933  26.008  1.00  0.00     0.048 A 
ATOM     26  C   UNL A   1      34.955  22.438  23.833  1.00  0.00     0.048 A 
ATOM     27  C   UNL A   1      34.605  23.277  26.479  1.00  0.00     0.030 A 
ATOM     28  C   UNL A   1      33.676  22.760  24.304  1.00  0.00     0.030 A 
BRANCH  24  29
ATOM     29  O   UNL A   1      37.315  22.169  24.306  1.00  0.00    -0.497 OA
ATOM     30  C   UNL A   1      37.809  21.037  25.019  1.00  0.00     0.278 C 
ENDBRANCH  24  29
ENDBRANCH  19  23
ENDBRANCH  17  18
ENDBRANCH   7  17
ENDBRANCH   3   6
ENDBRANCH   1   2
BRANCH   1  31
ATOM     31  C   UNL A   1      32.083  29.707  27.146  1.00  0.00     0.023 C 
BRANCH  31  32
ATOM     32  C   UNL A   1      33.542  29.508  27.561  1.00  0.00     0.023 C 
BRANCH  32  33
ATOM     33  C   UNL A   1      34.398  30.763  27.454  1.00  0.00     0.116 C 
BRANCH  33  34
ATOM     34  N   UNL A   1      34.330  31.637  28.629  1.00  0.00    -0.352 N 
ATOM     35  C   UNL A   1      35.191  31.622  29.722  1.00  0.00     0.251 C 
ATOM     36  H   UNL A   1      33.604  32.300  28.646  1.00  0.00     0.163 HD
ATOM     37  O   UNL A   1      34.899  32.096  30.795  1.00  0.00    -0.269 OA
BRANCH  35  38
ATOM     38  C   UNL A   1      36.520  31.035  29.485  1.00  0.00     0.039 A 
ATOM     39  C   UNL A   1      37.675  31.814  29.376  1.00  0.00     0.014 A 
ATOM     40  C   UNL A   1      36.571  29.647  29.544  1.00  0.00     0.014 A 
ATOM     41  C   UNL A   1      38.911  31.170  29.406  1.00  0.00     0.010 A 
ATOM     42  C   UNL A   1      37.778  29.047  29.761  1.00  0.00     0.010 A 
ATOM     43  C   UNL A   1      38.952  29.783  29.617  1.00  0.00    -0.014 A 
BRANCH  43  44
ATOM     44  C   UNL A   1      40.211  29.064  29.766  1.00  0.00     0.031 A 
ATOM     45  C   UNL A   1      40.705  28.894  31.164  1.00  0.00     0.074 A 
ATOM     46  C   UNL A   1      40.749  28.385  28.727  1.00  0.00     0.049 A 
ATOM     47  N   UNL A   1      41.804  29.338  31.680  1.00  0.00    -0.248 NA
ATOM     48  C   UNL A   1      39.825  28.227  32.137  1.00  0.00     0.031 C 
ATOM     49  C   UNL A   1      40.209  28.193  27.373  1.00  0.00     0.029 A 
ATOM     50  N   UNL A   1      41.868  27.618  28.703  1.00  0.00    -0.354 N 
ATOM     51  C   UNL A   1      41.848  28.856  32.989  1.00  0.00     0.074 A 
ATOM     52  C   UNL A   1      40.539  28.321  33.261  1.00  0.00     0.031 C 
ATOM     53  C   UNL A   1      40.857  27.180  26.759  1.00  0.00     0.029 A 
ATOM     54  C   UNL A   1      41.981  26.797  27.588  1.00  0.00     0.049 A 
ATOM     55  H   UNL A   1      42.545  27.641  29.417  1.00  0.00     0.167 HD
ATOM     56  C   UNL A   1      43.031  28.732  33.656  1.00  0.00     0.037 A 
ATOM     57  C   UNL A   1      42.929  25.855  27.373  1.00  0.00     0.037 A 
ATOM     58  C   UNL A   1      44.063  29.515  33.023  1.00  0.00     0.049 A 
ATOM     59  C   UNL A   1      44.066  26.176  28.271  1.00  0.00     0.074 A 
ATOM     60  C   UNL A   1      44.236  30.860  32.762  1.00  0.00     0.029 A 
ATOM     61  N   UNL A   1      44.956  28.867  32.206  1.00  0.00    -0.354 N 
ATOM     62  N   UNL A   1      44.797  27.253  28.153  1.00  0.00    -0.248 NA
ATOM     63  C   UNL A   1      44.076  25.552  29.585  1.00  0.00     0.031 C 
ATOM     64  C   UNL A   1      44.823  30.905  31.461  1.00  0.00     0.029 A 
ATOM     65  C   UNL A   1      45.041  29.591  31.045  1.00  0.00     0.049 A 
ATOM     66  H   UNL A   1      45.445  28.038  32.416  1.00  0.00     0.167 HD
ATOM     67  C   UNL A   1      45.015  27.677  29.455  1.00  0.00     0.074 A 
ATOM     68  C   UNL A   1      44.608  26.551  30.295  1.00  0.00     0.031 C 
ATOM     69  C   UNL A   1      45.226  28.995  29.743  1.00  0.00     0.037 A 
BRANCH  56  70
ATOM     70  C   UNL A   1      43.361  27.630  34.641  1.00  0.00     0.064 A 
ATOM     71  C   UNL A   1      43.701  27.977  35.967  1.00  0.00     0.173 A 
ATOM     72  C   UNL A   1      43.667  26.304  34.268  1.00  0.00     0.173 A 
ATOM     73  F   UNL A   1      43.459  29.210  36.435  1.00  0.00    -0.203 F 
ATOM     74  C   UNL A   1      44.387  27.098  36.810  1.00  0.00     0.198 A 
ATOM     75  C   UNL A   1      44.305  25.413  35.131  1.00  0.00     0.198 A 
ATOM     76  F   UNL A   1      43.467  25.845  33.029  1.00  0.00    -0.203 F 
ATOM     77  F   UNL A   1      44.810  27.521  38.010  1.00  0.00    -0.200 F 
ATOM     78  C   UNL A   1      44.700  25.821  36.387  1.00  0.00     0.200 A 
ATOM     79  F   UNL A   1      44.610  24.182  34.697  1.00  0.00    -0.200 F 
ATOM     80  F   UNL A   1      45.420  25.001  37.164  1.00  0.00    -0.200 F 
ENDBRANCH  56  70
BRANCH  57  81
ATOM     81  C   UNL A   1      42.754  24.535  26.726  1.00  0.00     0.064 A 
ATOM     82  C   UNL A   1      43.404  24.225  25.522  1.00  0.00     0.173 A 
ATOM     83  C   UNL A   1      42.170  23.456  27.420  1.00  0.00     0.173 A 
ATOM     84  F   UNL A   1      44.023  25.190  24.825  1.00  0.00    -0.203 F 
ATOM     85  C   UNL A   1      43.486  22.910  25.052  1.00  0.00     0.198 A 
ATOM     86  C   UNL A   1      42.249  22.145  26.949  1.00  0.00     0.198 A 
ATOM     87  F   UNL A   1      41.597  23.641  28.619  1.00  0.00    -0.203 F 
ATOM     88  F   UNL A   1      44.167  22.644  23.928  1.00  0.00    -0.200 F 
ATOM     89  C   UNL A   1      42.919  21.870  25.771  1.00  0.00     0.200 A 
ATOM     90  F   UNL A   1      41.732  21.144  27.676  1.00  0.00    -0.200 F 
ATOM     91  F   UNL A   1      43.055  20.604  25.354  1.00  0.00    -0.200 F 
ENDBRANCH  57  81
BRANCH  69  92
ATOM     92  C   UNL A   1      45.437  29.945  28.594  1.00  0.00     0.064 A 
ATOM     93  C   UNL A   1      44.403  30.664  27.969  1.00  0.00     0.173 A 
ATOM     94  C   UNL A   1      46.750  30.265  28.229  1.00  0.00     0.173 A 
ATOM     95  F   UNL A   1      43.128  30.491  28.328  1.00  0.00    -0.203 F 
ATOM     96  C   UNL A   1      44.671  31.632  27.001  1.00  0.00     0.198 A 
ATOM     97  C   UNL A   1      47.018  31.255  27.286  1.00  0.00     0.198 A 
ATOM     98  F   UNL A   1      47.781  29.654  28.833  1.00  0.00    -0.203 F 
ATOM     99  F   UNL A   1      43.662  32.302  26.422  1.00  0.00    -0.200 F 
ATOM    100  C   UNL A   1      45.979  31.932  26.667  1.00  0.00     0.200 A 
ATOM    101  F   UNL A   1      48.287  31.577  27.005  1.00  0.00    -0.200 F 
ATOM    102  F   UNL A   1      46.242  32.894  25.772  1.00  0.00    -0.200 F 
ENDBRANCH  69  92
ENDBRANCH  43  44
ENDBRANCH  35  38
ENDBRANCH  33  34
ENDBRANCH  32  33
ENDBRANCH  31  32
ENDBRANCH   1  31
TORSDOF 15
ENDMDL
MODEL 2
REMARK VINA RESULT:     -13.3      3.094      8.519
REMARK SMILES COc1ccc(-n2ccnc2C[N@@H+]2Cc3[nH]cnc3C[C@H]2C(=O)NCCCCNC(=O)c2ccc(-c3c4nc(c(-c5c(F)c(F)c(F)c(F)c5F)c5ccc([nH]5)c(-c5c(F)c(F)c(F)c(F)c5F)c5nc(c(-c6c(F)c(F)c(F)c(F)c6F)c6ccc3[nH]6)C=C5)C=C4)cc2)cc1
REMARK SMILES IDX 25 1 24 2 22 3 23 4 21 6 13 7 14 8 15 10 20 11 16 12 19 13
REMARK SMILES IDX 17 14 18 16 12 17 11 18 7 19 8 20 9 21 10 22 6 23 3 24 4 25
REMARK SMILES IDX 96 26 5 27 95 28 2 29 1 30 26 31 27 32 28 33 29 34 30 35
REMARK SMILES IDX 31 37 32 38 33 39 94 40 34 41 93 42 35 43 36 44 37 45 87 46
REMARK SMILES IDX 38 47 92 48 86 49 88 50 39 51 91 52 85 53 84 54 40 56 72 57
REMARK SMILES IDX 52 58 71 59 53 60 56 61 70 62 89 63 54 64 55 65 69 67 90 68
REMARK SMILES IDX 57 69 41 70 42 71 50 72 43 73 44 74 48 75 51 76 45 77 46 78
REMARK SMILES IDX 49 79 47 80 73 81 74 82 82 83 75 84 76 85 80 86 83 87 77 88
REMARK SMILES IDX 78 89 81 90 79 91 58 92 59 93 67 94 60 95 61 96 65 97 68 98
REMARK SMILES IDX 62 99 63 100 66 101 64 102
REMARK H PARENT 24 5 13 9 16 15 29 36 88 55 56 66
REMARK Flexibility Score: inf
ROOT
ATOM      1  C   UNL A   1      34.210  24.514  25.251  1.00  0.00     0.116 C 
ENDROOT
BRANCH   1   2
ATOM      2  N   UNL A   1      33.051  24.932  26.024  1.00  0.00    -0.351 N 
ATOM      3  C   UNL A   1      32.420  26.125  26.215  1.00  0.00     0.278 C 
ATOM      4  O   UNL A   1      31.371  26.065  26.875  1.00  0.00    -0.268 OA
ATOM      5  H   UNL A   1      32.631  24.192  26.518  1.00  0.00     0.163 HD
BRANCH   3   6
ATOM      6  C   UNL A   1      32.889  27.498  25.661  1.00  0.00     0.280 C 
ATOM      7  N   UNL A   1      31.796  28.529  25.809  1.00  0.00    -0.313 N 
ATOM      8  C   UNL A   1      31.876  29.278  27.064  1.00  0.00     0.320 C 
ATOM      9  H   UNL A   1      30.926  27.997  25.845  1.00  0.00     0.349 HD
ATOM     10  C   UNL A   1      33.254  29.718  27.316  1.00  0.00     0.093 A 
ATOM     11  C   UNL A   1      34.349  27.835  26.093  1.00  0.00     0.134 C 
ATOM     12  N   UNL A   1      33.683  30.816  27.993  1.00  0.00    -0.344 N 
ATOM     13  C   UNL A   1      34.387  29.077  26.894  1.00  0.00     0.074 A 
ATOM     14  C   UNL A   1      35.051  30.789  27.954  1.00  0.00     0.197 A 
ATOM     15  H   UNL A   1      33.120  31.497  28.428  1.00  0.00     0.167 HD
ATOM     16  N   UNL A   1      35.507  29.740  27.301  1.00  0.00    -0.241 NA
BRANCH   7  17
ATOM     17  C   UNL A   1      31.710  29.437  24.638  1.00  0.00     0.340 C 
BRANCH  17  18
ATOM     18  C   UNL A   1      30.334  29.386  23.994  1.00  0.00     0.168 A 
ATOM     19  N   UNL A   1      29.867  28.346  23.182  1.00  0.00    -0.299 N 
ATOM     20  C   UNL A   1      28.891  28.907  22.382  1.00  0.00     0.113 A 
ATOM     21  C   UNL A   1      28.693  30.179  22.854  1.00  0.00     0.132 A 
ATOM     22  N   UNL A   1      29.556  30.453  23.872  1.00  0.00    -0.236 NA
BRANCH  19  23
ATOM     23  C   UNL A   1      30.374  27.024  23.049  1.00  0.00     0.047 A 
ATOM     24  C   UNL A   1      31.452  24.442  22.889  1.00  0.00     0.119 A 
ATOM     25  C   UNL A   1      30.281  24.669  23.610  1.00  0.00     0.048 A 
ATOM     26  C   UNL A   1      32.057  25.490  22.197  1.00  0.00     0.048 A 
ATOM     27  C   UNL A   1      29.744  25.958  23.700  1.00  0.00     0.030 A 
ATOM     28  C   UNL A   1      31.513  26.779  22.264  1.00  0.00     0.030 A 
BRANCH  24  29
ATOM     29  O   UNL A   1      31.887  23.150  22.795  1.00  0.00    -0.497 OA
ATOM     30  C   UNL A   1      33.062  22.997  22.004  1.00  0.00     0.278 C 
ENDBRANCH  24  29
ENDBRANCH  19  23
ENDBRANCH  17  18
ENDBRANCH   7  17
ENDBRANCH   3   6
ENDBRANCH   1   2
BRANCH   1  31
ATOM     31  C   UNL A   1      35.198  23.665  26.073  1.00  0.00     0.023 C 
BRANCH  31  32
ATOM     32  C   UNL A   1      36.609  23.517  25.502  1.00  0.00     0.023 C 
BRANCH  32  33
ATOM     33  C   UNL A   1      37.720  23.852  26.487  1.00  0.00     0.116 C 
BRANCH  33  34
ATOM     34  N   UNL A   1      38.780  22.842  26.562  1.00  0.00    -0.352 N 
ATOM     35  C   UNL A   1      40.150  23.079  26.539  1.00  0.00     0.251 C 
ATOM     36  H   UNL A   1      38.493  21.904  26.637  1.00  0.00     0.163 HD
ATOM     37  O   UNL A   1      40.960  22.228  26.250  1.00  0.00    -0.269 OA
BRANCH  35  38
ATOM     38  C   UNL A   1      40.577  24.429  26.943  1.00  0.00     0.039 A 
ATOM     39  C   UNL A   1      40.395  25.548  26.127  1.00  0.00     0.014 A 
ATOM     40  C   UNL A   1      41.017  24.539  28.257  1.00  0.00     0.014 A 
ATOM     41  C   UNL A   1      40.593  26.811  26.683  1.00  0.00     0.010 A 
ATOM     42  C   UNL A   1      41.025  25.773  28.841  1.00  0.00     0.010 A 
ATOM     43  C   UNL A   1      40.892  26.913  28.051  1.00  0.00    -0.014 A 
BRANCH  43  44
ATOM     44  C   UNL A   1      41.006  28.203  28.720  1.00  0.00     0.031 A 
ATOM     45  C   UNL A   1      42.162  29.053  28.308  1.00  0.00     0.074 A 
ATOM     46  C   UNL A   1      39.990  28.689  29.468  1.00  0.00     0.049 A 
ATOM     47  N   UNL A   1      43.143  29.472  29.038  1.00  0.00    -0.248 NA
ATOM     48  C   UNL A   1      42.297  29.404  26.884  1.00  0.00     0.031 C 
ATOM     49  C   UNL A   1      38.658  28.109  29.702  1.00  0.00     0.029 A 
ATOM     50  N   UNL A   1      39.899  29.884  30.103  1.00  0.00    -0.354 N 
ATOM     51  C   UNL A   1      43.923  30.290  28.220  1.00  0.00     0.074 A 
ATOM     52  C   UNL A   1      43.447  30.080  26.878  1.00  0.00     0.031 C 
ATOM     53  C   UNL A   1      37.829  29.050  30.201  1.00  0.00     0.029 A 
ATOM     54  C   UNL A   1      38.615  30.224  30.513  1.00  0.00     0.049 A 
ATOM     55  H   UNL A   1      40.678  30.464  30.261  1.00  0.00     0.167 HD
ATOM     56  C   UNL A   1      44.741  31.244  28.750  1.00  0.00     0.037 A 
ATOM     57  C   UNL A   1      38.228  31.401  31.058  1.00  0.00     0.037 A 
ATOM     58  C   UNL A   1      44.983  30.995  30.149  1.00  0.00     0.049 A 
ATOM     59  C   UNL A   1      39.454  32.059  31.576  1.00  0.00     0.074 A 
ATOM     60  C   UNL A   1      45.556  29.963  30.865  1.00  0.00     0.029 A 
ATOM     61  N   UNL A   1      44.265  31.721  31.068  1.00  0.00    -0.354 N 
ATOM     62  N   UNL A   1      40.165  31.584  32.563  1.00  0.00    -0.248 NA
ATOM     63  C   UNL A   1      40.151  32.970  30.681  1.00  0.00     0.031 C 
ATOM     64  C   UNL A   1      44.739  29.830  32.029  1.00  0.00     0.029 A 
ATOM     65  C   UNL A   1      43.771  30.834  31.988  1.00  0.00     0.049 A 
ATOM     66  H   UNL A   1      44.132  32.697  31.066  1.00  0.00     0.167 HD
ATOM     67  C   UNL A   1      41.482  31.792  32.182  1.00  0.00     0.074 A 
ATOM     68  C   UNL A   1      41.410  32.713  31.049  1.00  0.00     0.031 C 
ATOM     69  C   UNL A   1      42.484  30.978  32.628  1.00  0.00     0.037 A 
BRANCH  56  70
ATOM     70  C   UNL A   1      45.020  32.594  28.124  1.00  0.00     0.064 A 
ATOM     71  C   UNL A   1      43.954  33.506  27.960  1.00  0.00     0.173 A 
ATOM     72  C   UNL A   1      46.192  32.902  27.401  1.00  0.00     0.173 A 
ATOM     73  F   UNL A   1      42.788  33.318  28.596  1.00  0.00    -0.203 F 
ATOM     74  C   UNL A   1      44.024  34.576  27.062  1.00  0.00     0.198 A 
ATOM     75  C   UNL A   1      46.276  34.001  26.545  1.00  0.00     0.198 A 
ATOM     76  F   UNL A   1      47.263  32.102  27.400  1.00  0.00    -0.203 F 
ATOM     77  F   UNL A   1      42.939  35.329  26.839  1.00  0.00    -0.200 F 
ATOM     78  C   UNL A   1      45.181  34.814  26.346  1.00  0.00     0.200 A 
ATOM     79  F   UNL A   1      47.403  34.208  25.850  1.00  0.00    -0.200 F 
ATOM     80  F   UNL A   1      45.229  35.793  25.432  1.00  0.00    -0.200 F 
ENDBRANCH  56  70
BRANCH  57  81
ATOM     81  C   UNL A   1      36.955  32.121  30.831  1.00  0.00     0.064 A 
ATOM     82  C   UNL A   1      35.977  32.199  31.833  1.00  0.00     0.173 A 
ATOM     83  C   UNL A   1      36.793  32.982  29.726  1.00  0.00     0.173 A 
ATOM     84  F   UNL A   1      36.084  31.445  32.937  1.00  0.00    -0.203 F 
ATOM     85  C   UNL A   1      34.912  33.103  31.748  1.00  0.00     0.198 A 
ATOM     86  C   UNL A   1      35.730  33.881  29.640  1.00  0.00     0.198 A 
ATOM     87  F   UNL A   1      37.719  33.037  28.758  1.00  0.00    -0.203 F 
ATOM     88  F   UNL A   1      34.030  33.192  32.753  1.00  0.00    -0.200 F 
ATOM     89  C   UNL A   1      34.796  33.951  30.658  1.00  0.00     0.200 A 
ATOM     90  F   UNL A   1      35.652  34.723  28.600  1.00  0.00    -0.200 F 
ATOM     91  F   UNL A   1      33.814  34.861  30.608  1.00  0.00    -0.200 F 
ENDBRANCH  57  81
BRANCH  69  92
ATOM     92  C   UNL A   1      42.160  29.988  33.714  1.00  0.00     0.064 A 
ATOM     93  C   UNL A   1      41.728  28.671  33.474  1.00  0.00     0.173 A 
ATOM     94  C   UNL A   1      42.460  30.331  35.038  1.00  0.00     0.173 A 
ATOM     95  F   UNL A   1      41.514  28.231  32.231  1.00  0.00    -0.203 F 
ATOM     96  C   UNL A   1      41.573  27.755  34.514  1.00  0.00     0.198 A 
ATOM     97  C   UNL A   1      42.337  29.405  36.071  1.00  0.00     0.198 A 
ATOM     98  F   UNL A   1      42.932  31.554  35.322  1.00  0.00    -0.203 F 
ATOM     99  F   UNL A   1      41.160  26.504  34.254  1.00  0.00    -0.200 F 
ATOM    100  C   UNL A   1      41.886  28.121  35.810  1.00  0.00     0.200 A 
ATOM    101  F   UNL A   1      42.691  29.749  37.317  1.00  0.00    -0.200 F 
ATOM    102  F   UNL A   1      41.784  27.229  36.806  1.00  0.00    -0.200 F 
ENDBRANCH  69  92
ENDBRANCH  43  44
ENDBRANCH  35  38
ENDBRANCH  33  34
ENDBRANCH  32  33
ENDBRANCH  31  32
ENDBRANCH   1  31
TORSDOF 15
ENDMDL
MODEL 3
REMARK VINA RESULT:     -13.3      3.008      8.827
REMARK SMILES COc1ccc(-n2ccnc2C[N@@H+]2Cc3[nH]cnc3C[C@H]2C(=O)NCCCCNC(=O)c2ccc(-c3c4nc(c(-c5c(F)c(F)c(F)c(F)c5F)c5ccc([nH]5)c(-c5c(F)c(F)c(F)c(F)c5F)c5nc(c(-c6c(F)c(F)c(F)c(F)c6F)c6ccc3[nH]6)C=C5)C=C4)cc2)cc1
REMARK SMILES IDX 25 1 24 2 22 3 23 4 21 6 13 7 14 8 15 10 20 11 16 12 19 13
REMARK SMILES IDX 17 14 18 16 12 17 11 18 7 19 8 20 9 21 10 22 6 23 3 24 4 25
REMARK SMILES IDX 96 26 5 27 95 28 2 29 1 30 26 31 27 32 28 33 29 34 30 35
REMARK SMILES IDX 31 37 32 38 33 39 94 40 34 41 93 42 35 43 36 44 37 45 87 46
REMARK SMILES IDX 38 47 92 48 86 49 88 50 39 51 91 52 85 53 84 54 40 56 72 57
REMARK SMILES IDX 52 58 71 59 53 60 56 61 70 62 89 63 54 64 55 65 69 67 90 68
REMARK SMILES IDX 57 69 41 70 42 71 50 72 43 73 44 74 48 75 51 76 45 77 46 78
REMARK SMILES IDX 49 79 47 80 73 81 74 82 82 83 75 84 76 85 80 86 83 87 77 88
REMARK SMILES IDX 78 89 81 90 79 91 58 92 59 93 67 94 60 95 61 96 65 97 68 98
REMARK SMILES IDX 62 99 63 100 66 101 64 102
REMARK H PARENT 24 5 13 9 16 15 29 36 88 55 56 66
REMARK Flexibility Score: inf
ROOT
ATOM      1  C   UNL A   1      37.334  21.772  24.475  1.00  0.00     0.116 C 
ENDROOT
BRANCH   1   2
ATOM      2  N   UNL A   1      36.186  20.941  24.805  1.00  0.00    -0.351 N 
ATOM      3  C   UNL A   1      34.917  21.203  25.227  1.00  0.00     0.278 C 
ATOM      4  O   UNL A   1      34.173  20.214  25.301  1.00  0.00    -0.268 OA
ATOM      5  H   UNL A   1      36.366  19.979  24.703  1.00  0.00     0.163 HD
BRANCH   3   6
ATOM      6  C   UNL A   1      34.350  22.605  25.580  1.00  0.00     0.280 C 
ATOM      7  N   UNL A   1      33.849  23.300  24.337  1.00  0.00    -0.313 N 
ATOM      8  C   UNL A   1      32.429  23.057  24.073  1.00  0.00     0.320 C 
ATOM      9  H   UNL A   1      34.362  22.876  23.564  1.00  0.00     0.349 HD
ATOM     10  C   UNL A   1      31.641  23.221  25.301  1.00  0.00     0.093 A 
ATOM     11  C   UNL A   1      33.474  22.574  26.869  1.00  0.00     0.134 C 
ATOM     12  N   UNL A   1      30.346  23.616  25.431  1.00  0.00    -0.344 N 
ATOM     13  C   UNL A   1      32.089  23.001  26.575  1.00  0.00     0.074 A 
ATOM     14  C   UNL A   1      30.070  23.614  26.772  1.00  0.00     0.197 A 
ATOM     15  H   UNL A   1      29.727  23.856  24.703  1.00  0.00     0.167 HD
ATOM     16  N   UNL A   1      31.107  23.235  27.490  1.00  0.00    -0.241 NA
BRANCH   7  17
ATOM     17  C   UNL A   1      34.162  24.751  24.332  1.00  0.00     0.340 C 
BRANCH  17  18
ATOM     18  C   UNL A   1      33.641  25.429  23.074  1.00  0.00     0.168 A 
ATOM     19  N   UNL A   1      32.794  26.543  23.056  1.00  0.00    -0.299 N 
ATOM     20  C   UNL A   1      32.132  26.488  21.846  1.00  0.00     0.113 A 
ATOM     21  C   UNL A   1      32.719  25.475  21.133  1.00  0.00     0.132 A 
ATOM     22  N   UNL A   1      33.675  24.854  21.880  1.00  0.00    -0.236 NA
BRANCH  19  23
ATOM     23  C   UNL A   1      32.512  27.464  24.103  1.00  0.00     0.047 A 
ATOM     24  C   UNL A   1      32.061  29.233  26.230  1.00  0.00     0.119 A 
ATOM     25  C   UNL A   1      32.783  29.649  25.112  1.00  0.00     0.048 A 
ATOM     26  C   UNL A   1      31.512  27.952  26.265  1.00  0.00     0.048 A 
ATOM     27  C   UNL A   1      33.018  28.767  24.052  1.00  0.00     0.030 A 
ATOM     28  C   UNL A   1      31.725  27.070  25.198  1.00  0.00     0.030 A 
BRANCH  24  29
ATOM     29  O   UNL A   1      31.821  30.165  27.200  1.00  0.00    -0.497 OA
ATOM     30  C   UNL A   1      31.722  31.497  26.701  1.00  0.00     0.278 C 
ENDBRANCH  24  29
ENDBRANCH  19  23
ENDBRANCH  17  18
ENDBRANCH   7  17
ENDBRANCH   3   6
ENDBRANCH   1   2
BRANCH   1  31
ATOM     31  C   UNL A   1      38.150  22.179  25.716  1.00  0.00     0.023 C 
BRANCH  31  32
ATOM     32  C   UNL A   1      39.337  21.282  26.074  1.00  0.00     0.023 C 
BRANCH  32  33
ATOM     33  C   UNL A   1      40.439  21.988  26.852  1.00  0.00     0.116 C 
BRANCH  33  34
ATOM     34  N   UNL A   1      41.674  22.192  26.089  1.00  0.00    -0.352 N 
ATOM     35  C   UNL A   1      42.287  23.412  25.818  1.00  0.00     0.251 C 
ATOM     36  H   UNL A   1      42.114  21.387  25.733  1.00  0.00     0.163 HD
ATOM     37  O   UNL A   1      43.076  23.565  24.915  1.00  0.00    -0.269 OA
BRANCH  35  38
ATOM     38  C   UNL A   1      41.958  24.514  26.737  1.00  0.00     0.039 A 
ATOM     39  C   UNL A   1      42.568  24.656  27.986  1.00  0.00     0.014 A 
ATOM     40  C   UNL A   1      41.126  25.495  26.208  1.00  0.00     0.014 A 
ATOM     41  C   UNL A   1      42.388  25.853  28.677  1.00  0.00     0.010 A 
ATOM     42  C   UNL A   1      41.110  26.725  26.799  1.00  0.00     0.010 A 
ATOM     43  C   UNL A   1      41.668  26.892  28.064  1.00  0.00    -0.014 A 
BRANCH  43  44
ATOM     44  C   UNL A   1      41.534  28.204  28.684  1.00  0.00     0.031 A 
ATOM     45  C   UNL A   1      42.565  29.214  28.306  1.00  0.00     0.074 A 
ATOM     46  C   UNL A   1      40.407  28.545  29.350  1.00  0.00     0.049 A 
ATOM     47  N   UNL A   1      43.419  29.808  29.075  1.00  0.00    -0.248 NA
ATOM     48  C   UNL A   1      42.735  29.536  26.879  1.00  0.00     0.031 C 
ATOM     49  C   UNL A   1      39.171  27.767  29.529  1.00  0.00     0.029 A 
ATOM     50  N   UNL A   1      40.088  29.730  29.928  1.00  0.00    -0.354 N 
ATOM     51  C   UNL A   1      44.111  30.713  28.271  1.00  0.00     0.074 A 
ATOM     52  C   UNL A   1      43.763  30.387  26.912  1.00  0.00     0.031 C 
ATOM     53  C   UNL A   1      38.173  28.578  29.938  1.00  0.00     0.029 A 
ATOM     54  C   UNL A   1      38.743  29.873  30.247  1.00  0.00     0.049 A 
ATOM     55  H   UNL A   1      40.754  30.432  30.107  1.00  0.00     0.167 HD
ATOM     56  C   UNL A   1      44.732  31.803  28.807  1.00  0.00     0.037 A 
ATOM     57  C   UNL A   1      38.141  30.989  30.719  1.00  0.00     0.037 A 
ATOM     58  C   UNL A   1      44.919  31.640  30.228  1.00  0.00     0.049 A 
ATOM     59  C   UNL A   1      39.211  31.852  31.280  1.00  0.00     0.074 A 
ATOM     60  C   UNL A   1      45.601  30.736  31.019  1.00  0.00     0.029 A 
ATOM     61  N   UNL A   1      44.038  32.271  31.071  1.00  0.00    -0.354 N 
ATOM     62  N   UNL A   1      39.923  31.528  32.326  1.00  0.00    -0.248 NA
ATOM     63  C   UNL A   1      39.813  32.833  30.391  1.00  0.00     0.031 C 
ATOM     64  C   UNL A   1      44.741  30.511  32.136  1.00  0.00     0.029 A 
ATOM     65  C   UNL A   1      43.632  31.346  31.997  1.00  0.00     0.049 A 
ATOM     66  H   UNL A   1      43.753  33.213  31.021  1.00  0.00     0.167 HD
ATOM     67  C   UNL A   1      41.213  31.932  32.015  1.00  0.00     0.074 A 
ATOM     68  C   UNL A   1      41.070  32.793  30.842  1.00  0.00     0.031 C 
ATOM     69  C   UNL A   1      42.299  31.303  32.553  1.00  0.00     0.037 A 
BRANCH  56  70
ATOM     70  C   UNL A   1      44.835  33.159  28.143  1.00  0.00     0.064 A 
ATOM     71  C   UNL A   1      46.106  33.636  27.754  1.00  0.00     0.173 A 
ATOM     72  C   UNL A   1      43.809  34.127  28.161  1.00  0.00     0.173 A 
ATOM     73  F   UNL A   1      47.161  32.809  27.699  1.00  0.00    -0.203 F 
ATOM     74  C   UNL A   1      46.346  34.992  27.510  1.00  0.00     0.198 A 
ATOM     75  C   UNL A   1      44.042  35.471  27.866  1.00  0.00     0.198 A 
ATOM     76  F   UNL A   1      42.567  33.846  28.570  1.00  0.00    -0.203 F 
ATOM     77  F   UNL A   1      47.597  35.415  27.281  1.00  0.00    -0.200 F 
ATOM     78  C   UNL A   1      45.317  35.910  27.579  1.00  0.00     0.200 A 
ATOM     79  F   UNL A   1      43.031  36.347  27.951  1.00  0.00    -0.200 F 
ATOM     80  F   UNL A   1      45.556  37.218  27.418  1.00  0.00    -0.200 F 
ENDBRANCH  56  70
BRANCH  57  81
ATOM     81  C   UNL A   1      36.787  31.490  30.387  1.00  0.00     0.064 A 
ATOM     82  C   UNL A   1      35.965  32.064  31.368  1.00  0.00     0.173 A 
ATOM     83  C   UNL A   1      36.386  31.667  29.048  1.00  0.00     0.173 A 
ATOM     84  F   UNL A   1      36.304  31.977  32.663  1.00  0.00    -0.203 F 
ATOM     85  C   UNL A   1      34.822  32.794  31.028  1.00  0.00     0.198 A 
ATOM     86  C   UNL A   1      35.243  32.393  28.710  1.00  0.00     0.198 A 
ATOM     87  F   UNL A   1      37.149  31.223  28.038  1.00  0.00    -0.203 F 
ATOM     88  F   UNL A   1      34.094  33.380  31.990  1.00  0.00    -0.200 F 
ATOM     89  C   UNL A   1      34.468  32.968  29.700  1.00  0.00     0.200 A 
ATOM     90  F   UNL A   1      34.935  32.588  27.419  1.00  0.00    -0.200 F 
ATOM     91  F   UNL A   1      33.410  33.723  29.373  1.00  0.00    -0.200 F 
ENDBRANCH  57  81
BRANCH  69  92
ATOM     92  C   UNL A   1      42.065  30.309  33.659  1.00  0.00     0.064 A 
ATOM     93  C   UNL A   1      41.815  28.941  33.446  1.00  0.00     0.173 A 
ATOM     94  C   UNL A   1      42.271  30.723  34.980  1.00  0.00     0.173 A 
ATOM     95  F   UNL A   1      41.705  28.444  32.211  1.00  0.00    -0.203 F 
ATOM     96  C   UNL A   1      41.741  28.041  34.509  1.00  0.00     0.198 A 
ATOM     97  C   UNL A   1      42.230  29.817  36.037  1.00  0.00     0.198 A 
ATOM     98  F   UNL A   1      42.572  32.005  35.240  1.00  0.00    -0.203 F 
ATOM     99  F   UNL A   1      41.501  26.741  34.275  1.00  0.00    -0.200 F 
ATOM    100  C   UNL A   1      41.957  28.479  35.802  1.00  0.00     0.200 A 
ATOM    101  F   UNL A   1      42.491  30.238  37.282  1.00  0.00    -0.200 F 
ATOM    102  F   UNL A   1      41.934  27.608  36.822  1.00  0.00    -0.200 F 
ENDBRANCH  69  92
ENDBRANCH  43  44
ENDBRANCH  35  38
ENDBRANCH  33  34
ENDBRANCH  32  33
ENDBRANCH  31  32
ENDBRANCH   1  31
TORSDOF 15
ENDMDL
