MODEL 1
REMARK VINA RESULT:     -13.4      0.000      0.000
REMARK SMILES C[C@@H](C(=O)NCCCCNC(=O)c1ccc(-c2c3nc(c(-c4c(F)c(F)c(F)c(F)c4F)c4ccc([nH]4)c(-c4c(F)c(F)c(F)c(F)c4F)c4nc(c(-c5c(F)c(F)c(F)c(F)c5F)c5ccc2[nH]5)C=C4)C=C3)cc1)c1ccc(-c2ccc3[nH]ccc3c2)cc1
REMARK SMILES IDX 7 1 6 2 5 3 3 4 4 5 2 7 1 8 76 9 77 10 90 11 78 12 89 13
REMARK SMILES IDX 79 14 80 15 81 16 88 17 82 18 87 19 83 20 86 21 84 22 85 23
REMARK SMILES IDX 8 25 9 26 10 27 11 28 12 30 13 31 14 32 75 33 15 34 74 35
REMARK SMILES IDX 16 36 17 37 18 38 68 39 19 40 73 41 67 42 69 43 20 44 72 45
REMARK SMILES IDX 66 46 65 47 21 49 53 50 33 51 52 52 34 53 37 54 51 55 70 56
REMARK SMILES IDX 35 57 36 58 50 60 71 61 38 62 22 63 23 64 31 65 24 66 25 67
REMARK SMILES IDX 29 68 32 69 26 70 27 71 30 72 28 73 54 74 55 75 63 76 56 77
REMARK SMILES IDX 57 78 61 79 64 80 58 81 59 82 62 83 60 84 39 85 40 86 48 87
REMARK SMILES IDX 41 88 42 89 46 90 49 91 43 92 44 93 47 94 45 95
REMARK H PARENT 5 6 84 24 10 29 69 48 37 59
REMARK Flexibility Score: inf
ROOT
ATOM      1  C   UNL A   1      31.770  30.515  26.824  1.00  0.00     0.023 C 
ENDROOT
BRANCH   1   2
ATOM      2  C   UNL A   1      32.669  29.960  25.715  1.00  0.00     0.116 C 
BRANCH   2   3
ATOM      3  N   UNL A   1      31.876  29.527  24.584  1.00  0.00    -0.356 N 
ATOM      4  C   UNL A   1      32.278  28.882  23.447  1.00  0.00     0.227 C 
ATOM      5  O   UNL A   1      31.520  28.970  22.479  1.00  0.00    -0.274 OA
ATOM      6  H   UNL A   1      30.913  29.725  24.640  1.00  0.00     0.163 HD
BRANCH   4   7
ATOM      7  C   UNL A   1      33.622  28.129  23.440  1.00  0.00     0.105 C 
ATOM      8  C   UNL A   1      34.304  28.410  22.091  1.00  0.00     0.023 C 
BRANCH   7   9
ATOM      9  C   UNL A   1      33.555  26.620  23.701  1.00  0.00    -0.036 A 
ATOM     10  C   UNL A   1      33.249  25.682  22.707  1.00  0.00     0.005 A 
ATOM     11  C   UNL A   1      33.810  26.128  24.997  1.00  0.00     0.005 A 
ATOM     12  C   UNL A   1      33.357  24.311  22.954  1.00  0.00     0.009 A 
ATOM     13  C   UNL A   1      33.912  24.758  25.246  1.00  0.00     0.009 A 
ATOM     14  C   UNL A   1      33.736  23.836  24.213  1.00  0.00    -0.018 A 
BRANCH  14  15
ATOM     15  C   UNL A   1      34.001  22.414  24.417  1.00  0.00    -0.018 A 
ATOM     16  C   UNL A   1      35.274  22.005  24.844  1.00  0.00     0.011 A 
ATOM     17  C   UNL A   1      33.010  21.451  24.171  1.00  0.00     0.019 A 
ATOM     18  C   UNL A   1      35.587  20.658  25.044  1.00  0.00     0.027 A 
ATOM     19  C   UNL A   1      33.314  20.086  24.329  1.00  0.00    -0.000 A 
ATOM     20  C   UNL A   1      34.585  19.724  24.772  1.00  0.00     0.045 A 
ATOM     21  C   UNL A   1      32.589  18.883  24.108  1.00  0.00     0.028 A 
ATOM     22  N   UNL A   1      34.607  18.350  24.860  1.00  0.00    -0.361 N 
ATOM     23  C   UNL A   1      33.417  17.830  24.425  1.00  0.00     0.083 A 
ATOM     24  H   UNL A   1      35.369  17.820  25.187  1.00  0.00     0.166 HD
ENDBRANCH  14  15
ENDBRANCH   7   9
ENDBRANCH   4   7
ENDBRANCH   2   3
ENDBRANCH   1   2
BRANCH   1  25
ATOM     25  C   UNL A   1      31.602  32.034  26.810  1.00  0.00     0.023 C 
BRANCH  25  26
ATOM     26  C   UNL A   1      32.807  32.806  27.317  1.00  0.00     0.116 C 
BRANCH  26  27
ATOM     27  N   UNL A   1      32.487  34.185  27.649  1.00  0.00    -0.352 N 
ATOM     28  C   UNL A   1      33.033  34.982  28.626  1.00  0.00     0.251 C 
ATOM     29  H   UNL A   1      31.784  34.604  27.099  1.00  0.00     0.163 HD
ATOM     30  O   UNL A   1      32.553  36.074  28.885  1.00  0.00    -0.269 OA
BRANCH  28  31
ATOM     31  C   UNL A   1      34.198  34.479  29.384  1.00  0.00     0.039 A 
ATOM     32  C   UNL A   1      33.981  33.694  30.518  1.00  0.00     0.014 A 
ATOM     33  C   UNL A   1      35.496  34.753  28.946  1.00  0.00     0.014 A 
ATOM     34  C   UNL A   1      35.072  33.131  31.182  1.00  0.00     0.010 A 
ATOM     35  C   UNL A   1      36.572  34.125  29.556  1.00  0.00     0.010 A 
ATOM     36  C   UNL A   1      36.373  33.316  30.686  1.00  0.00    -0.014 A 
BRANCH  36  37
ATOM     37  C   UNL A   1      37.552  32.700  31.343  1.00  0.00     0.031 A 
ATOM     38  C   UNL A   1      38.253  31.549  30.677  1.00  0.00     0.074 A 
ATOM     39  C   UNL A   1      37.937  33.115  32.563  1.00  0.00     0.049 A 
ATOM     40  N   UNL A   1      39.216  30.788  31.131  1.00  0.00    -0.248 NA
ATOM     41  C   UNL A   1      37.780  31.182  29.333  1.00  0.00     0.031 C 
ATOM     42  C   UNL A   1      37.313  34.196  33.328  1.00  0.00     0.029 A 
ATOM     43  N   UNL A   1      38.937  32.661  33.387  1.00  0.00    -0.354 N 
ATOM     44  C   UNL A   1      39.447  29.843  30.141  1.00  0.00     0.074 A 
ATOM     45  C   UNL A   1      38.485  30.088  29.089  1.00  0.00     0.031 C 
ATOM     46  C   UNL A   1      37.954  34.332  34.499  1.00  0.00     0.029 A 
ATOM     47  C   UNL A   1      39.002  33.319  34.590  1.00  0.00     0.049 A 
ATOM     48  H   UNL A   1      39.550  31.931  33.139  1.00  0.00     0.167 HD
ATOM     49  C   UNL A   1      40.391  28.874  30.102  1.00  0.00     0.037 A 
ATOM     50  C   UNL A   1      39.806  33.117  35.651  1.00  0.00     0.037 A 
ATOM     51  C   UNL A   1      41.361  28.652  31.143  1.00  0.00     0.049 A 
ATOM     52  C   UNL A   1      40.839  32.024  35.591  1.00  0.00     0.074 A 
ATOM     53  C   UNL A   1      42.395  27.735  31.176  1.00  0.00     0.029 A 
ATOM     54  N   UNL A   1      41.409  29.357  32.336  1.00  0.00    -0.354 N 
ATOM     55  N   UNL A   1      41.091  31.174  34.625  1.00  0.00    -0.248 NA
ATOM     56  C   UNL A   1      41.706  31.867  36.768  1.00  0.00     0.031 C 
ATOM     57  C   UNL A   1      43.037  27.848  32.414  1.00  0.00     0.029 A 
ATOM     58  C   UNL A   1      42.444  28.878  33.125  1.00  0.00     0.049 A 
ATOM     59  H   UNL A   1      40.801  30.089  32.587  1.00  0.00     0.167 HD
ATOM     60  C   UNL A   1      42.162  30.406  35.061  1.00  0.00     0.074 A 
ATOM     61  C   UNL A   1      42.520  30.897  36.375  1.00  0.00     0.031 C 
ATOM     62  C   UNL A   1      42.796  29.389  34.426  1.00  0.00     0.037 A 
BRANCH  49  63
ATOM     63  C   UNL A   1      40.412  27.977  28.897  1.00  0.00     0.064 A 
ATOM     64  C   UNL A   1      39.689  26.775  28.858  1.00  0.00     0.173 A 
ATOM     65  C   UNL A   1      41.152  28.331  27.759  1.00  0.00     0.173 A 
ATOM     66  F   UNL A   1      38.974  26.382  29.924  1.00  0.00    -0.203 F 
ATOM     67  C   UNL A   1      39.737  25.943  27.742  1.00  0.00     0.198 A 
ATOM     68  C   UNL A   1      41.169  27.515  26.631  1.00  0.00     0.198 A 
ATOM     69  F   UNL A   1      41.858  29.472  27.738  1.00  0.00    -0.203 F 
ATOM     70  F   UNL A   1      39.090  24.770  27.755  1.00  0.00    -0.200 F 
ATOM     71  C   UNL A   1      40.471  26.317  26.628  1.00  0.00     0.200 A 
ATOM     72  F   UNL A   1      41.867  27.885  25.549  1.00  0.00    -0.200 F 
ATOM     73  F   UNL A   1      40.515  25.518  25.552  1.00  0.00    -0.200 F 
ENDBRANCH  49  63
BRANCH  50  74
ATOM     74  C   UNL A   1      39.680  33.985  36.852  1.00  0.00     0.064 A 
ATOM     75  C   UNL A   1      40.355  35.211  36.927  1.00  0.00     0.173 A 
ATOM     76  C   UNL A   1      38.885  33.611  37.946  1.00  0.00     0.173 A 
ATOM     77  F   UNL A   1      41.142  35.604  35.914  1.00  0.00    -0.203 F 
ATOM     78  C   UNL A   1      40.255  36.021  38.056  1.00  0.00     0.198 A 
ATOM     79  C   UNL A   1      38.763  34.434  39.062  1.00  0.00     0.198 A 
ATOM     80  F   UNL A   1      38.215  32.449  37.923  1.00  0.00    -0.203 F 
ATOM     81  F   UNL A   1      40.946  37.168  38.119  1.00  0.00    -0.200 F 
ATOM     82  C   UNL A   1      39.454  35.635  39.121  1.00  0.00     0.200 A 
ATOM     83  F   UNL A   1      37.976  34.065  40.082  1.00  0.00    -0.200 F 
ATOM     84  F   UNL A   1      39.354  36.417  40.204  1.00  0.00    -0.200 F 
ENDBRANCH  50  74
BRANCH  62  85
ATOM     85  C   UNL A   1      43.976  28.768  35.119  1.00  0.00     0.064 A 
ATOM     86  C   UNL A   1      45.277  29.268  34.958  1.00  0.00     0.173 A 
ATOM     87  C   UNL A   1      43.791  27.689  35.997  1.00  0.00     0.173 A 
ATOM     88  F   UNL A   1      45.509  30.289  34.119  1.00  0.00    -0.203 F 
ATOM     89  C   UNL A   1      46.351  28.695  35.634  1.00  0.00     0.198 A 
ATOM     90  C   UNL A   1      44.863  27.140  36.695  1.00  0.00     0.198 A 
ATOM     91  F   UNL A   1      42.566  27.177  36.191  1.00  0.00    -0.203 F 
ATOM     92  F   UNL A   1      47.592  29.159  35.430  1.00  0.00    -0.200 F 
ATOM     93  C   UNL A   1      46.142  27.638  36.508  1.00  0.00     0.200 A 
ATOM     94  F   UNL A   1      44.655  26.132  37.552  1.00  0.00    -0.200 F 
ATOM     95  F   UNL A   1      47.176  27.097  37.167  1.00  0.00    -0.200 F 
ENDBRANCH  62  85
ENDBRANCH  36  37
ENDBRANCH  28  31
ENDBRANCH  26  27
ENDBRANCH  25  26
ENDBRANCH   1  25
TORSDOF 13
ENDMDL
MODEL 2
REMARK VINA RESULT:     -13.2      1.111      2.014
REMARK SMILES C[C@@H](C(=O)NCCCCNC(=O)c1ccc(-c2c3nc(c(-c4c(F)c(F)c(F)c(F)c4F)c4ccc([nH]4)c(-c4c(F)c(F)c(F)c(F)c4F)c4nc(c(-c5c(F)c(F)c(F)c(F)c5F)c5ccc2[nH]5)C=C4)C=C3)cc1)c1ccc(-c2ccc3[nH]ccc3c2)cc1
REMARK SMILES IDX 7 1 6 2 5 3 3 4 4 5 2 7 1 8 76 9 77 10 90 11 78 12 89 13
REMARK SMILES IDX 79 14 80 15 81 16 88 17 82 18 87 19 83 20 86 21 84 22 85 23
REMARK SMILES IDX 8 25 9 26 10 27 11 28 12 30 13 31 14 32 75 33 15 34 74 35
REMARK SMILES IDX 16 36 17 37 18 38 68 39 19 40 73 41 67 42 69 43 20 44 72 45
REMARK SMILES IDX 66 46 65 47 21 49 53 50 33 51 52 52 34 53 37 54 51 55 70 56
REMARK SMILES IDX 35 57 36 58 50 60 71 61 38 62 22 63 23 64 31 65 24 66 25 67
REMARK SMILES IDX 29 68 32 69 26 70 27 71 30 72 28 73 54 74 55 75 63 76 56 77
REMARK SMILES IDX 57 78 61 79 64 80 58 81 59 82 62 83 60 84 39 85 40 86 48 87
REMARK SMILES IDX 41 88 42 89 46 90 49 91 43 92 44 93 47 94 45 95
REMARK H PARENT 5 6 84 24 10 29 69 48 37 59
REMARK Flexibility Score: inf
ROOT
ATOM      1  C   UNL A   1      31.947  30.778  25.980  1.00  0.00     0.023 C 
ENDROOT
BRANCH   1   2
ATOM      2  C   UNL A   1      33.048  30.060  26.765  1.00  0.00     0.116 C 
BRANCH   2   3
ATOM      3  N   UNL A   1      32.483  29.033  27.615  1.00  0.00    -0.356 N 
ATOM      4  C   UNL A   1      31.936  27.829  27.263  1.00  0.00     0.227 C 
ATOM      5  O   UNL A   1      31.183  27.316  28.092  1.00  0.00    -0.274 OA
ATOM      6  H   UNL A   1      32.492  29.228  28.579  1.00  0.00     0.163 HD
BRANCH   4   7
ATOM      7  C   UNL A   1      32.269  27.220  25.887  1.00  0.00     0.105 C 
ATOM      8  C   UNL A   1      31.027  27.383  24.996  1.00  0.00     0.023 C 
BRANCH   7   9
ATOM      9  C   UNL A   1      32.740  25.762  25.887  1.00  0.00    -0.036 A 
ATOM     10  C   UNL A   1      31.975  24.708  26.402  1.00  0.00     0.005 A 
ATOM     11  C   UNL A   1      34.001  25.440  25.348  1.00  0.00     0.005 A 
ATOM     12  C   UNL A   1      32.374  23.379  26.235  1.00  0.00     0.009 A 
ATOM     13  C   UNL A   1      34.405  24.113  25.186  1.00  0.00     0.009 A 
ATOM     14  C   UNL A   1      33.571  23.067  25.583  1.00  0.00    -0.018 A 
BRANCH  14  15
ATOM     15  C   UNL A   1      33.901  21.679  25.272  1.00  0.00    -0.018 A 
ATOM     16  C   UNL A   1      35.242  21.266  25.301  1.00  0.00     0.011 A 
ATOM     17  C   UNL A   1      32.900  20.758  24.924  1.00  0.00     0.019 A 
ATOM     18  C   UNL A   1      35.616  19.953  25.001  1.00  0.00     0.027 A 
ATOM     19  C   UNL A   1      33.257  19.441  24.581  1.00  0.00    -0.000 A 
ATOM     20  C   UNL A   1      34.599  19.067  24.639  1.00  0.00     0.045 A 
ATOM     21  C   UNL A   1      32.527  18.307  24.129  1.00  0.00     0.028 A 
ATOM     22  N   UNL A   1      34.666  17.740  24.281  1.00  0.00    -0.361 N 
ATOM     23  C   UNL A   1      33.423  17.281  23.935  1.00  0.00     0.083 A 
ATOM     24  H   UNL A   1      35.489  17.200  24.274  1.00  0.00     0.166 HD
ENDBRANCH  14  15
ENDBRANCH   7   9
ENDBRANCH   4   7
ENDBRANCH   2   3
ENDBRANCH   1   2
BRANCH   1  25
ATOM     25  C   UNL A   1      31.585  32.165  26.510  1.00  0.00     0.023 C 
BRANCH  25  26
ATOM     26  C   UNL A   1      32.657  32.811  27.369  1.00  0.00     0.116 C 
BRANCH  26  27
ATOM     27  N   UNL A   1      32.388  34.214  27.636  1.00  0.00    -0.352 N 
ATOM     28  C   UNL A   1      32.981  35.041  28.560  1.00  0.00     0.251 C 
ATOM     29  H   UNL A   1      31.687  34.628  27.081  1.00  0.00     0.163 HD
ATOM     30  O   UNL A   1      32.542  36.160  28.772  1.00  0.00    -0.269 OA
BRANCH  28  31
ATOM     31  C   UNL A   1      34.146  34.540  29.318  1.00  0.00     0.039 A 
ATOM     32  C   UNL A   1      33.945  34.000  30.590  1.00  0.00     0.014 A 
ATOM     33  C   UNL A   1      35.423  34.569  28.752  1.00  0.00     0.014 A 
ATOM     34  C   UNL A   1      35.022  33.433  31.273  1.00  0.00     0.010 A 
ATOM     35  C   UNL A   1      36.473  33.930  29.395  1.00  0.00     0.010 A 
ATOM     36  C   UNL A   1      36.286  33.365  30.666  1.00  0.00    -0.014 A 
BRANCH  36  37
ATOM     37  C   UNL A   1      37.444  32.733  31.345  1.00  0.00     0.031 A 
ATOM     38  C   UNL A   1      38.154  31.585  30.684  1.00  0.00     0.074 A 
ATOM     39  C   UNL A   1      37.801  33.131  32.580  1.00  0.00     0.049 A 
ATOM     40  N   UNL A   1      39.100  30.812  31.154  1.00  0.00    -0.248 NA
ATOM     41  C   UNL A   1      37.713  31.236  29.325  1.00  0.00     0.031 C 
ATOM     42  C   UNL A   1      37.164  34.208  33.340  1.00  0.00     0.029 A 
ATOM     43  N   UNL A   1      38.776  32.661  33.424  1.00  0.00    -0.354 N 
ATOM     44  C   UNL A   1      39.350  29.877  30.159  1.00  0.00     0.074 A 
ATOM     45  C   UNL A   1      38.417  30.140  29.086  1.00  0.00     0.031 C 
ATOM     46  C   UNL A   1      37.776  34.326  34.530  1.00  0.00     0.029 A 
ATOM     47  C   UNL A   1      38.814  33.305  34.636  1.00  0.00     0.049 A 
ATOM     48  H   UNL A   1      39.390  31.929  33.183  1.00  0.00     0.167 HD
ATOM     49  C   UNL A   1      40.288  28.902  30.133  1.00  0.00     0.037 A 
ATOM     50  C   UNL A   1      39.589  33.085  35.715  1.00  0.00     0.037 A 
ATOM     51  C   UNL A   1      41.229  28.661  31.196  1.00  0.00     0.049 A 
ATOM     52  C   UNL A   1      40.617  31.986  35.669  1.00  0.00     0.074 A 
ATOM     53  C   UNL A   1      42.256  27.736  31.245  1.00  0.00     0.029 A 
ATOM     54  N   UNL A   1      41.252  29.352  32.399  1.00  0.00    -0.354 N 
ATOM     55  N   UNL A   1      40.887  31.145  34.700  1.00  0.00    -0.248 NA
ATOM     56  C   UNL A   1      41.451  31.809  36.865  1.00  0.00     0.031 C 
ATOM     57  C   UNL A   1      42.868  27.831  32.500  1.00  0.00     0.029 A 
ATOM     58  C   UNL A   1      42.263  28.857  33.207  1.00  0.00     0.049 A 
ATOM     59  H   UNL A   1      40.643  30.085  32.642  1.00  0.00     0.167 HD
ATOM     60  C   UNL A   1      41.942  30.365  35.153  1.00  0.00     0.074 A 
ATOM     61  C   UNL A   1      42.269  30.838  36.482  1.00  0.00     0.031 C 
ATOM     62  C   UNL A   1      42.584  29.350  34.524  1.00  0.00     0.037 A 
BRANCH  49  63
ATOM     63  C   UNL A   1      40.335  28.018  28.919  1.00  0.00     0.064 A 
ATOM     64  C   UNL A   1      41.085  28.361  27.783  1.00  0.00     0.173 A 
ATOM     65  C   UNL A   1      39.634  26.803  28.896  1.00  0.00     0.173 A 
ATOM     66  F   UNL A   1      41.764  29.518  27.747  1.00  0.00    -0.203 F 
ATOM     67  C   UNL A   1      41.099  27.542  26.658  1.00  0.00     0.198 A 
ATOM     68  C   UNL A   1      39.679  25.969  27.783  1.00  0.00     0.198 A 
ATOM     69  F   UNL A   1      38.906  26.421  29.957  1.00  0.00    -0.203 F 
ATOM     70  F   UNL A   1      41.770  27.924  25.562  1.00  0.00    -0.200 F 
ATOM     71  C   UNL A   1      40.402  26.344  26.660  1.00  0.00     0.200 A 
ATOM     72  F   UNL A   1      39.018  24.803  27.793  1.00  0.00    -0.200 F 
ATOM     73  F   UNL A   1      40.419  25.554  25.578  1.00  0.00    -0.200 F 
ENDBRANCH  49  63
BRANCH  50  74
ATOM     74  C   UNL A   1      39.439  33.940  36.922  1.00  0.00     0.064 A 
ATOM     75  C   UNL A   1      38.689  33.505  38.022  1.00  0.00     0.173 A 
ATOM     76  C   UNL A   1      40.039  35.206  37.002  1.00  0.00     0.173 A 
ATOM     77  F   UNL A   1      38.079  32.311  37.986  1.00  0.00    -0.203 F 
ATOM     78  C   UNL A   1      38.529  34.309  39.150  1.00  0.00     0.198 A 
ATOM     79  C   UNL A   1      39.904  35.996  38.140  1.00  0.00     0.198 A 
ATOM     80  F   UNL A   1      40.771  35.668  35.977  1.00  0.00    -0.203 F 
ATOM     81  F   UNL A   1      37.770  33.885  40.169  1.00  0.00    -0.200 F 
ATOM     82  C   UNL A   1      39.142  35.551  39.210  1.00  0.00     0.200 A 
ATOM     83  F   UNL A   1      40.511  37.189  38.201  1.00  0.00    -0.200 F 
ATOM     84  F   UNL A   1      38.994  36.321  40.296  1.00  0.00    -0.200 F 
ENDBRANCH  50  74
BRANCH  62  85
ATOM     85  C   UNL A   1      43.743  28.713  35.238  1.00  0.00     0.064 A 
ATOM     86  C   UNL A   1      45.066  29.125  35.020  1.00  0.00     0.173 A 
ATOM     87  C   UNL A   1      43.516  27.712  36.196  1.00  0.00     0.173 A 
ATOM     88  F   UNL A   1      45.338  30.068  34.104  1.00  0.00    -0.203 F 
ATOM     89  C   UNL A   1      46.120  28.540  35.716  1.00  0.00     0.198 A 
ATOM     90  C   UNL A   1      44.569  27.154  36.914  1.00  0.00     0.198 A 
ATOM     91  F   UNL A   1      42.269  27.288  36.448  1.00  0.00    -0.203 F 
ATOM     92  F   UNL A   1      47.381  28.916  35.458  1.00  0.00    -0.200 F 
ATOM     93  C   UNL A   1      45.871  27.563  36.669  1.00  0.00     0.200 A 
ATOM     94  F   UNL A   1      44.323  26.223  37.846  1.00  0.00    -0.200 F 
ATOM     95  F   UNL A   1      46.886  27.011  37.347  1.00  0.00    -0.200 F 
ENDBRANCH  62  85
ENDBRANCH  36  37
ENDBRANCH  28  31
ENDBRANCH  26  27
ENDBRANCH  25  26
ENDBRANCH   1  25
TORSDOF 13
ENDMDL
MODEL 3
REMARK VINA RESULT:     -13.1      4.154     10.372
REMARK SMILES C[C@@H](C(=O)NCCCCNC(=O)c1ccc(-c2c3nc(c(-c4c(F)c(F)c(F)c(F)c4F)c4ccc([nH]4)c(-c4c(F)c(F)c(F)c(F)c4F)c4nc(c(-c5c(F)c(F)c(F)c(F)c5F)c5ccc2[nH]5)C=C4)C=C3)cc1)c1ccc(-c2ccc3[nH]ccc3c2)cc1
REMARK SMILES IDX 7 1 6 2 5 3 3 4 4 5 2 7 1 8 76 9 77 10 90 11 78 12 89 13
REMARK SMILES IDX 79 14 80 15 81 16 88 17 82 18 87 19 83 20 86 21 84 22 85 23
REMARK SMILES IDX 8 25 9 26 10 27 11 28 12 30 13 31 14 32 75 33 15 34 74 35
REMARK SMILES IDX 16 36 17 37 18 38 68 39 19 40 73 41 67 42 69 43 20 44 72 45
REMARK SMILES IDX 66 46 65 47 21 49 53 50 33 51 52 52 34 53 37 54 51 55 70 56
REMARK SMILES IDX 35 57 36 58 50 60 71 61 38 62 22 63 23 64 31 65 24 66 25 67
REMARK SMILES IDX 29 68 32 69 26 70 27 71 30 72 28 73 54 74 55 75 63 76 56 77
REMARK SMILES IDX 57 78 61 79 64 80 58 81 59 82 62 83 60 84 39 85 40 86 48 87
REMARK SMILES IDX 41 88 42 89 46 90 49 91 43 92 44 93 47 94 45 95
REMARK H PARENT 5 6 84 24 10 29 69 48 37 59
REMARK Flexibility Score: inf
ROOT
ATOM      1  C   UNL A   1      33.810  36.022  28.833  1.00  0.00     0.023 C 
ENDROOT
BRANCH   1   2
ATOM      2  C   UNL A   1      33.026  35.709  30.112  1.00  0.00     0.116 C 
BRANCH   2   3
ATOM      3  N   UNL A   1      33.613  36.386  31.249  1.00  0.00    -0.356 N 
ATOM      4  C   UNL A   1      34.335  35.862  32.285  1.00  0.00     0.227 C 
ATOM      5  O   UNL A   1      34.386  36.546  33.309  1.00  0.00    -0.274 OA
ATOM      6  H   UNL A   1      33.471  37.360  31.282  1.00  0.00     0.163 HD
BRANCH   4   7
ATOM      7  C   UNL A   1      35.000  34.482  32.121  1.00  0.00     0.105 C 
ATOM      8  C   UNL A   1      34.779  33.702  33.427  1.00  0.00     0.023 C 
BRANCH   7   9
ATOM      9  C   UNL A   1      36.486  34.485  31.745  1.00  0.00    -0.036 A 
ATOM     10  C   UNL A   1      37.510  34.744  32.665  1.00  0.00     0.005 A 
ATOM     11  C   UNL A   1      36.866  34.219  30.415  1.00  0.00     0.005 A 
ATOM     12  C   UNL A   1      38.852  34.578  32.313  1.00  0.00     0.009 A 
ATOM     13  C   UNL A   1      38.207  34.058  30.060  1.00  0.00     0.009 A 
ATOM     14  C   UNL A   1      39.212  34.188  31.020  1.00  0.00    -0.018 A 
BRANCH  14  15
ATOM     15  C   UNL A   1      40.601  33.863  30.707  1.00  0.00    -0.018 A 
ATOM     16  C   UNL A   1      41.225  34.484  29.614  1.00  0.00     0.011 A 
ATOM     17  C   UNL A   1      41.313  32.923  31.469  1.00  0.00     0.019 A 
ATOM     18  C   UNL A   1      42.548  34.202  29.262  1.00  0.00     0.027 A 
ATOM     19  C   UNL A   1      42.633  32.595  31.110  1.00  0.00    -0.000 A 
ATOM     20  C   UNL A   1      43.222  33.248  30.028  1.00  0.00     0.045 A 
ATOM     21  C   UNL A   1      43.589  31.667  31.608  1.00  0.00     0.028 A 
ATOM     22  N   UNL A   1      44.504  32.763  29.910  1.00  0.00    -0.361 N 
ATOM     23  C   UNL A   1      44.724  31.779  30.837  1.00  0.00     0.083 A 
ATOM     24  H   UNL A   1      45.166  33.077  29.253  1.00  0.00     0.166 HD
ENDBRANCH  14  15
ENDBRANCH   7   9
ENDBRANCH   4   7
ENDBRANCH   2   3
ENDBRANCH   1   2
BRANCH   1  25
ATOM     25  C   UNL A   1      34.028  34.825  27.908  1.00  0.00     0.023 C 
BRANCH  25  26
ATOM     26  C   UNL A   1      33.760  33.476  28.550  1.00  0.00     0.116 C 
BRANCH  26  27
ATOM     27  N   UNL A   1      33.168  32.525  27.623  1.00  0.00    -0.352 N 
ATOM     28  C   UNL A   1      33.667  31.316  27.199  1.00  0.00     0.251 C 
ATOM     29  H   UNL A   1      32.293  32.781  27.250  1.00  0.00     0.163 HD
ATOM     30  O   UNL A   1      33.124  30.697  26.298  1.00  0.00    -0.269 OA
BRANCH  28  31
ATOM     31  C   UNL A   1      34.894  30.792  27.833  1.00  0.00     0.039 A 
ATOM     32  C   UNL A   1      36.085  31.507  27.698  1.00  0.00     0.014 A 
ATOM     33  C   UNL A   1      34.851  29.618  28.589  1.00  0.00     0.014 A 
ATOM     34  C   UNL A   1      37.227  31.074  28.375  1.00  0.00     0.010 A 
ATOM     35  C   UNL A   1      35.962  29.237  29.328  1.00  0.00     0.010 A 
ATOM     36  C   UNL A   1      37.164  29.955  29.221  1.00  0.00    -0.014 A 
BRANCH  36  37
ATOM     37  C   UNL A   1      38.346  29.490  29.987  1.00  0.00     0.031 A 
ATOM     38  C   UNL A   1      38.600  30.041  31.363  1.00  0.00     0.074 A 
ATOM     39  C   UNL A   1      39.228  28.647  29.420  1.00  0.00     0.049 A 
ATOM     40  N   UNL A   1      39.632  29.868  32.149  1.00  0.00    -0.248 NA
ATOM     41  C   UNL A   1      37.568  30.935  31.912  1.00  0.00     0.031 C 
ATOM     42  C   UNL A   1      39.112  28.075  28.078  1.00  0.00     0.029 A 
ATOM     43  N   UNL A   1      40.411  28.139  29.896  1.00  0.00    -0.354 N 
ATOM     44  C   UNL A   1      39.383  30.648  33.270  1.00  0.00     0.074 A 
ATOM     45  C   UNL A   1      38.134  31.339  33.039  1.00  0.00     0.031 C 
ATOM     46  C   UNL A   1      40.171  27.284  27.845  1.00  0.00     0.029 A 
ATOM     47  C   UNL A   1      41.063  27.329  29.000  1.00  0.00     0.049 A 
ATOM     48  H   UNL A   1      40.760  28.339  30.795  1.00  0.00     0.167 HD
ATOM     49  C   UNL A   1      40.119  30.758  34.401  1.00  0.00     0.037 A 
ATOM     50  C   UNL A   1      42.253  26.705  29.095  1.00  0.00     0.037 A 
ATOM     51  C   UNL A   1      41.349  30.048  34.635  1.00  0.00     0.049 A 
ATOM     52  C   UNL A   1      43.061  26.854  30.357  1.00  0.00     0.074 A 
ATOM     53  C   UNL A   1      42.142  30.046  35.768  1.00  0.00     0.029 A 
ATOM     54  N   UNL A   1      41.965  29.216  33.711  1.00  0.00    -0.354 N 
ATOM     55  N   UNL A   1      42.789  27.545  31.437  1.00  0.00    -0.248 NA
ATOM     56  C   UNL A   1      44.338  26.130  30.414  1.00  0.00     0.031 C 
ATOM     57  C   UNL A   1      43.266  29.254  35.511  1.00  0.00     0.029 A 
ATOM     58  C   UNL A   1      43.142  28.712  34.242  1.00  0.00     0.049 A 
ATOM     59  H   UNL A   1      41.618  29.012  32.814  1.00  0.00     0.167 HD
ATOM     60  C   UNL A   1      43.840  27.313  32.314  1.00  0.00     0.074 A 
ATOM     61  C   UNL A   1      44.751  26.410  31.643  1.00  0.00     0.031 C 
ATOM     62  C   UNL A   1      44.031  27.802  33.565  1.00  0.00     0.037 A 
BRANCH  49  63
ATOM     63  C   UNL A   1      39.613  31.688  35.467  1.00  0.00     0.064 A 
ATOM     64  C   UNL A   1      40.081  33.007  35.581  1.00  0.00     0.173 A 
ATOM     65  C   UNL A   1      38.633  31.263  36.377  1.00  0.00     0.173 A 
ATOM     66  F   UNL A   1      41.027  33.461  34.744  1.00  0.00    -0.203 F 
ATOM     67  C   UNL A   1      39.620  33.849  36.589  1.00  0.00     0.198 A 
ATOM     68  C   UNL A   1      38.147  32.119  37.361  1.00  0.00     0.198 A 
ATOM     69  F   UNL A   1      38.145  30.015  36.311  1.00  0.00    -0.203 F 
ATOM     70  F   UNL A   1      40.130  35.081  36.716  1.00  0.00    -0.200 F 
ATOM     71  C   UNL A   1      38.648  33.407  37.473  1.00  0.00     0.200 A 
ATOM     72  F   UNL A   1      37.197  31.696  38.206  1.00  0.00    -0.200 F 
ATOM     73  F   UNL A   1      38.201  34.220  38.441  1.00  0.00    -0.200 F 
ENDBRANCH  49  63
BRANCH  50  74
ATOM     74  C   UNL A   1      42.741  25.864  27.970  1.00  0.00     0.064 A 
ATOM     75  C   UNL A   1      43.605  26.391  27.001  1.00  0.00     0.173 A 
ATOM     76  C   UNL A   1      42.356  24.521  27.840  1.00  0.00     0.173 A 
ATOM     77  F   UNL A   1      43.985  27.675  27.070  1.00  0.00    -0.203 F 
ATOM     78  C   UNL A   1      44.052  25.613  25.934  1.00  0.00     0.198 A 
ATOM     79  C   UNL A   1      42.827  23.736  26.790  1.00  0.00     0.198 A 
ATOM     80  F   UNL A   1      41.534  23.967  28.744  1.00  0.00    -0.203 F 
ATOM     81  F   UNL A   1      44.842  26.154  24.998  1.00  0.00    -0.200 F 
ATOM     82  C   UNL A   1      43.668  24.284  25.833  1.00  0.00     0.200 A 
ATOM     83  F   UNL A   1      42.466  22.448  26.705  1.00  0.00    -0.200 F 
ATOM     84  F   UNL A   1      44.103  23.535  24.812  1.00  0.00    -0.200 F 
ENDBRANCH  50  74
BRANCH  62  85
ATOM     85  C   UNL A   1      45.245  27.331  34.315  1.00  0.00     0.064 A 
ATOM     86  C   UNL A   1      45.224  26.173  35.107  1.00  0.00     0.173 A 
ATOM     87  C   UNL A   1      46.460  28.023  34.195  1.00  0.00     0.173 A 
ATOM     88  F   UNL A   1      44.084  25.484  35.266  1.00  0.00    -0.203 F 
ATOM     89  C   UNL A   1      46.370  25.740  35.769  1.00  0.00     0.198 A 
ATOM     90  C   UNL A   1      47.611  27.568  34.831  1.00  0.00     0.198 A 
ATOM     91  F   UNL A   1      46.536  29.132  33.444  1.00  0.00    -0.203 F 
ATOM     92  F   UNL A   1      46.316  24.657  36.558  1.00  0.00    -0.200 F 
ATOM     93  C   UNL A   1      47.564  26.431  35.624  1.00  0.00     0.200 A 
ATOM     94  F   UNL A   1      48.766  28.228  34.674  1.00  0.00    -0.200 F 
ATOM     95  F   UNL A   1      48.668  26.004  36.251  1.00  0.00    -0.200 F 
ENDBRANCH  62  85
ENDBRANCH  36  37
ENDBRANCH  28  31
ENDBRANCH  26  27
ENDBRANCH  25  26
ENDBRANCH   1  25
TORSDOF 13
ENDMDL
