MODEL 1
REMARK VINA RESULT:     -12.0      0.000      0.000
REMARK SMILES CC[C@@H](NC(=O)N1C[C@H]2CCCC[N@@H+]2C[C@@H]1C)C(=O)NCCCCNC(=O)c1ccc(-c2c3nc(c(-c4c(F)c(F)c(F)c(F)c4F)c4ccc([nH]4)c(-c4c(F)c(F)c(F)c(F)c4F)c4nc(c(-c5c(F)c(F)c(F)c(F)c5F)c5ccc2[nH]5)C=C4)C=C3)cc1
REMARK SMILES IDX 22 1 21 2 20 3 18 4 19 5 3 7 2 8 1 9 4 10 5 11 6 13 7 14
REMARK SMILES IDX 8 15 16 16 9 17 15 18 17 19 10 20 14 21 11 22 13 23 12 25
REMARK SMILES IDX 23 26 24 27 25 28 26 29 27 31 28 32 29 33 90 34 30 35 89 36
REMARK SMILES IDX 31 37 32 38 33 39 83 40 34 41 88 42 82 43 84 44 35 45 87 46
REMARK SMILES IDX 81 47 80 48 36 50 68 51 48 52 67 53 49 54 52 55 66 56 85 57
REMARK SMILES IDX 50 58 51 59 65 61 86 62 53 63 37 64 38 65 46 66 39 67 40 68
REMARK SMILES IDX 44 69 47 70 41 71 42 72 45 73 43 74 69 75 70 76 78 77 71 78
REMARK SMILES IDX 72 79 76 80 79 81 73 82 74 83 77 84 75 85 54 86 55 87 63 88
REMARK SMILES IDX 56 89 57 90 61 91 64 92 58 93 59 94 62 95 60 96
REMARK H PARENT 20 6 4 12 14 24 25 30 84 49 52 60
REMARK Flexibility Score: inf
ROOT
ATOM      1  C   UNL A   1      31.610  30.818  26.107  1.00  0.00     0.023 C 
ENDROOT
BRANCH   1   2
ATOM      2  C   UNL A   1      31.778  29.683  27.108  1.00  0.00     0.116 C 
BRANCH   2   3
ATOM      3  N   UNL A   1      32.892  28.836  26.739  1.00  0.00    -0.354 N 
ATOM      4  C   UNL A   1      32.958  27.888  25.766  1.00  0.00     0.242 C 
ATOM      5  O   UNL A   1      34.026  27.282  25.631  1.00  0.00    -0.273 OA
ATOM      6  H   UNL A   1      33.714  28.963  27.264  1.00  0.00     0.163 HD
BRANCH   4   7
ATOM      7  C   UNL A   1      31.709  27.459  24.983  1.00  0.00     0.172 C 
BRANCH   7   8
ATOM      8  C   UNL A   1      32.266  27.050  23.588  1.00  0.00     0.032 C 
ATOM      9  C   UNL A   1      31.301  27.093  22.418  1.00  0.00     0.006 C 
ENDBRANCH   7   8
BRANCH   7  10
ATOM     10  N   UNL A   1      30.885  26.412  25.599  1.00  0.00    -0.326 N 
ATOM     11  C   UNL A   1      31.097  25.145  26.035  1.00  0.00     0.318 C 
ATOM     12  H   UNL A   1      29.952  26.698  25.725  1.00  0.00     0.166 HD
ATOM     13  O   UNL A   1      30.236  24.699  26.795  1.00  0.00    -0.249 OA
BRANCH  11  14
ATOM     14  N   UNL A   1      32.091  24.364  25.504  1.00  0.00    -0.310 N 
ATOM     15  C   UNL A   1      33.300  24.022  26.261  1.00  0.00     0.186 C 
ATOM     16  C   UNL A   1      31.755  23.313  24.509  1.00  0.00     0.139 C 
ATOM     17  C   UNL A   1      34.505  23.903  25.311  1.00  0.00     0.203 C 
ATOM     18  C   UNL A   1      32.997  22.882  23.654  1.00  0.00     0.287 C 
ATOM     19  C   UNL A   1      30.654  23.696  23.499  1.00  0.00     0.037 C 
ATOM     20  C   UNL A   1      35.807  23.605  26.063  1.00  0.00     0.067 C 
ATOM     21  N   UNL A   1      34.329  22.857  24.280  1.00  0.00    -0.329 N 
ATOM     22  C   UNL A   1      36.995  23.692  25.103  1.00  0.00     0.012 C 
ATOM     23  C   UNL A   1      35.384  23.009  23.257  1.00  0.00     0.262 C 
ATOM     24  H   UNL A   1      34.409  21.950  24.740  1.00  0.00     0.348 HD
ATOM     25  C   UNL A   1      36.777  22.826  23.863  1.00  0.00     0.062 C 
ENDBRANCH  11  14
ENDBRANCH   7  10
ENDBRANCH   4   7
ENDBRANCH   2   3
ENDBRANCH   1   2
BRANCH   1  26
ATOM     26  C   UNL A   1      31.402  32.185  26.760  1.00  0.00     0.023 C 
BRANCH  26  27
ATOM     27  C   UNL A   1      32.692  32.890  27.157  1.00  0.00     0.116 C 
BRANCH  27  28
ATOM     28  N   UNL A   1      32.460  34.244  27.630  1.00  0.00    -0.352 N 
ATOM     29  C   UNL A   1      32.994  34.874  28.725  1.00  0.00     0.251 C 
ATOM     30  H   UNL A   1      31.833  34.780  27.094  1.00  0.00     0.163 HD
ATOM     31  O   UNL A   1      32.534  35.937  29.122  1.00  0.00    -0.269 OA
BRANCH  29  32
ATOM     32  C   UNL A   1      34.132  34.250  29.426  1.00  0.00     0.039 A 
ATOM     33  C   UNL A   1      33.880  33.407  30.508  1.00  0.00     0.014 A 
ATOM     34  C   UNL A   1      35.444  34.507  29.012  1.00  0.00     0.014 A 
ATOM     35  C   UNL A   1      34.947  32.787  31.158  1.00  0.00     0.010 A 
ATOM     36  C   UNL A   1      36.498  33.831  29.612  1.00  0.00     0.010 A 
ATOM     37  C   UNL A   1      36.263  32.980  30.702  1.00  0.00    -0.014 A 
BRANCH  37  38
ATOM     38  C   UNL A   1      37.407  32.326  31.383  1.00  0.00     0.031 A 
ATOM     39  C   UNL A   1      38.133  31.195  30.710  1.00  0.00     0.074 A 
ATOM     40  C   UNL A   1      37.760  32.716  32.622  1.00  0.00     0.049 A 
ATOM     41  N   UNL A   1      39.136  30.476  31.147  1.00  0.00    -0.248 NA
ATOM     42  C   UNL A   1      37.651  30.804  29.376  1.00  0.00     0.031 C 
ATOM     43  C   UNL A   1      37.106  33.772  33.394  1.00  0.00     0.029 A 
ATOM     44  N   UNL A   1      38.758  32.266  33.449  1.00  0.00    -0.354 N 
ATOM     45  C   UNL A   1      39.390  29.542  30.152  1.00  0.00     0.074 A 
ATOM     46  C   UNL A   1      38.400  29.744  29.118  1.00  0.00     0.031 C 
ATOM     47  C   UNL A   1      37.740  33.912  34.569  1.00  0.00     0.029 A 
ATOM     48  C   UNL A   1      38.820  32.932  34.647  1.00  0.00     0.049 A 
ATOM     49  H   UNL A   1      39.370  31.534  33.206  1.00  0.00     0.167 HD
ATOM     50  C   UNL A   1      40.377  28.614  30.094  1.00  0.00     0.037 A 
ATOM     51  C   UNL A   1      39.656  32.770  35.690  1.00  0.00     0.037 A 
ATOM     52  C   UNL A   1      41.370  28.430  31.119  1.00  0.00     0.049 A 
ATOM     53  C   UNL A   1      40.737  31.725  35.609  1.00  0.00     0.074 A 
ATOM     54  C   UNL A   1      42.445  27.560  31.134  1.00  0.00     0.029 A 
ATOM     55  N   UNL A   1      41.404  29.126  32.320  1.00  0.00    -0.354 N 
ATOM     56  N   UNL A   1      41.016  30.895  34.634  1.00  0.00    -0.248 NA
ATOM     57  C   UNL A   1      41.625  31.604  36.772  1.00  0.00     0.031 C 
ATOM     58  C   UNL A   1      43.096  27.688  32.367  1.00  0.00     0.029 A 
ATOM     59  C   UNL A   1      42.466  28.686  33.094  1.00  0.00     0.049 A 
ATOM     60  H   UNL A   1      40.767  29.830  32.583  1.00  0.00     0.167 HD
ATOM     61  C   UNL A   1      42.134  30.181  35.047  1.00  0.00     0.074 A 
ATOM     62  C   UNL A   1      42.484  30.684  36.360  1.00  0.00     0.031 C 
ATOM     63  C   UNL A   1      42.810  29.203  34.395  1.00  0.00     0.037 A 
BRANCH  50  64
ATOM     64  C   UNL A   1      40.413  27.722  28.886  1.00  0.00     0.064 A 
ATOM     65  C   UNL A   1      41.194  28.031  27.759  1.00  0.00     0.173 A 
ATOM     66  C   UNL A   1      39.659  26.539  28.851  1.00  0.00     0.173 A 
ATOM     67  F   UNL A   1      41.926  29.154  27.733  1.00  0.00    -0.203 F 
ATOM     68  C   UNL A   1      41.180  27.216  26.630  1.00  0.00     0.198 A 
ATOM     69  C   UNL A   1      39.678  25.707  27.735  1.00  0.00     0.198 A 
ATOM     70  F   UNL A   1      38.901  26.190  29.901  1.00  0.00    -0.203 F 
ATOM     71  F   UNL A   1      41.878  27.571  25.542  1.00  0.00    -0.200 F 
ATOM     72  C   UNL A   1      40.427  26.053  26.620  1.00  0.00     0.200 A 
ATOM     73  F   UNL A   1      38.961  24.575  27.733  1.00  0.00    -0.200 F 
ATOM     74  F   UNL A   1      40.413  25.270  25.533  1.00  0.00    -0.200 F 
ENDBRANCH  50  64
BRANCH  51  75
ATOM     75  C   UNL A   1      39.535  33.653  36.879  1.00  0.00     0.064 A 
ATOM     76  C   UNL A   1      40.240  34.863  36.948  1.00  0.00     0.173 A 
ATOM     77  C   UNL A   1      38.709  33.316  37.961  1.00  0.00     0.173 A 
ATOM     78  F   UNL A   1      41.056  35.219  35.946  1.00  0.00    -0.203 F 
ATOM     79  C   UNL A   1      40.138  35.693  38.062  1.00  0.00     0.198 A 
ATOM     80  C   UNL A   1      38.586  34.161  39.061  1.00  0.00     0.198 A 
ATOM     81  F   UNL A   1      38.007  32.174  37.940  1.00  0.00    -0.203 F 
ATOM     82  F   UNL A   1      40.855  36.824  38.120  1.00  0.00    -0.200 F 
ATOM     83  C   UNL A   1      39.305  35.345  39.115  1.00  0.00     0.200 A 
ATOM     84  F   UNL A   1      37.767  33.829  40.069  1.00  0.00    -0.200 F 
ATOM     85  F   UNL A   1      39.201  36.148  40.182  1.00  0.00    -0.200 F 
ENDBRANCH  51  75
BRANCH  63  86
ATOM     86  C   UNL A   1      44.035  28.647  35.067  1.00  0.00     0.064 A 
ATOM     87  C   UNL A   1      43.970  27.557  35.948  1.00  0.00     0.173 A 
ATOM     88  C   UNL A   1      45.299  29.196  34.796  1.00  0.00     0.173 A 
ATOM     89  F   UNL A   1      42.786  27.004  36.252  1.00  0.00    -0.203 F 
ATOM     90  C   UNL A   1      45.119  27.061  36.558  1.00  0.00     0.198 A 
ATOM     91  C   UNL A   1      46.449  28.674  35.380  1.00  0.00     0.198 A 
ATOM     92  F   UNL A   1      45.419  30.234  33.954  1.00  0.00    -0.203 F 
ATOM     93  F   UNL A   1      45.026  26.056  37.441  1.00  0.00    -0.200 F 
ATOM     94  C   UNL A   1      46.358  27.614  36.268  1.00  0.00     0.200 A 
ATOM     95  F   UNL A   1      47.645  29.200  35.084  1.00  0.00    -0.200 F 
ATOM     96  F   UNL A   1      47.462  27.130  36.851  1.00  0.00    -0.200 F 
ENDBRANCH  63  86
ENDBRANCH  37  38
ENDBRANCH  29  32
ENDBRANCH  27  28
ENDBRANCH  26  27
ENDBRANCH   1  26
TORSDOF 14
ENDMDL
MODEL 2
REMARK VINA RESULT:     -12.0      0.631      7.459
REMARK SMILES CC[C@@H](NC(=O)N1C[C@H]2CCCC[N@@H+]2C[C@@H]1C)C(=O)NCCCCNC(=O)c1ccc(-c2c3nc(c(-c4c(F)c(F)c(F)c(F)c4F)c4ccc([nH]4)c(-c4c(F)c(F)c(F)c(F)c4F)c4nc(c(-c5c(F)c(F)c(F)c(F)c5F)c5ccc2[nH]5)C=C4)C=C3)cc1
REMARK SMILES IDX 22 1 21 2 20 3 18 4 19 5 3 7 2 8 1 9 4 10 5 11 6 13 7 14
REMARK SMILES IDX 8 15 16 16 9 17 15 18 17 19 10 20 14 21 11 22 13 23 12 25
REMARK SMILES IDX 23 26 24 27 25 28 26 29 27 31 28 32 29 33 90 34 30 35 89 36
REMARK SMILES IDX 31 37 32 38 33 39 83 40 34 41 88 42 82 43 84 44 35 45 87 46
REMARK SMILES IDX 81 47 80 48 36 50 68 51 48 52 67 53 49 54 52 55 66 56 85 57
REMARK SMILES IDX 50 58 51 59 65 61 86 62 53 63 37 64 38 65 46 66 39 67 40 68
REMARK SMILES IDX 44 69 47 70 41 71 42 72 45 73 43 74 69 75 70 76 78 77 71 78
REMARK SMILES IDX 72 79 76 80 79 81 73 82 74 83 77 84 75 85 54 86 55 87 63 88
REMARK SMILES IDX 56 89 57 90 61 91 64 92 58 93 59 94 62 95 60 96
REMARK H PARENT 20 6 4 12 14 24 25 30 84 49 52 60
REMARK Flexibility Score: inf
ROOT
ATOM      1  C   UNL A   1      31.510  30.788  26.088  1.00  0.00     0.023 C 
ENDROOT
BRANCH   1   2
ATOM      2  C   UNL A   1      31.759  29.668  27.088  1.00  0.00     0.116 C 
BRANCH   2   3
ATOM      3  N   UNL A   1      32.891  28.862  26.682  1.00  0.00    -0.354 N 
ATOM      4  C   UNL A   1      32.969  27.939  25.687  1.00  0.00     0.242 C 
ATOM      5  O   UNL A   1      34.052  27.368  25.521  1.00  0.00    -0.273 OA
ATOM      6  H   UNL A   1      33.718  29.003  27.197  1.00  0.00     0.163 HD
BRANCH   4   7
ATOM      7  C   UNL A   1      31.720  27.491  24.914  1.00  0.00     0.172 C 
BRANCH   7   8
ATOM      8  C   UNL A   1      32.277  27.043  23.532  1.00  0.00     0.032 C 
ATOM      9  C   UNL A   1      31.328  27.103  22.351  1.00  0.00     0.006 C 
ENDBRANCH   7   8
BRANCH   7  10
ATOM     10  N   UNL A   1      30.893  26.462  25.558  1.00  0.00    -0.326 N 
ATOM     11  C   UNL A   1      31.102  25.207  26.025  1.00  0.00     0.318 C 
ATOM     12  H   UNL A   1      29.961  26.755  25.678  1.00  0.00     0.166 HD
ATOM     13  O   UNL A   1      30.241  24.783  26.798  1.00  0.00    -0.249 OA
BRANCH  11  14
ATOM     14  N   UNL A   1      32.092  24.409  25.512  1.00  0.00    -0.310 N 
ATOM     15  C   UNL A   1      33.299  24.078  26.278  1.00  0.00     0.186 C 
ATOM     16  C   UNL A   1      31.751  23.338  24.541  1.00  0.00     0.139 C 
ATOM     17  C   UNL A   1      34.503  23.931  25.331  1.00  0.00     0.203 C 
ATOM     18  C   UNL A   1      32.992  22.881  23.697  1.00  0.00     0.287 C 
ATOM     19  C   UNL A   1      30.653  23.703  23.522  1.00  0.00     0.037 C 
ATOM     20  C   UNL A   1      35.805  23.644  26.090  1.00  0.00     0.067 C 
ATOM     21  N   UNL A   1      34.323  22.863  24.324  1.00  0.00    -0.329 N 
ATOM     22  C   UNL A   1      36.993  23.703  25.129  1.00  0.00     0.012 C 
ATOM     23  C   UNL A   1      35.379  22.987  23.299  1.00  0.00     0.262 C 
ATOM     24  H   UNL A   1      34.398  21.967  24.804  1.00  0.00     0.348 HD
ATOM     25  C   UNL A   1      36.771  22.811  23.909  1.00  0.00     0.062 C 
ENDBRANCH  11  14
ENDBRANCH   7  10
ENDBRANCH   4   7
ENDBRANCH   2   3
ENDBRANCH   1   2
BRANCH   1  26
ATOM     26  C   UNL A   1      31.374  32.168  26.736  1.00  0.00     0.023 C 
BRANCH  26  27
ATOM     27  C   UNL A   1      32.702  32.820  27.099  1.00  0.00     0.116 C 
BRANCH  27  28
ATOM     28  N   UNL A   1      32.531  34.163  27.626  1.00  0.00    -0.352 N 
ATOM     29  C   UNL A   1      33.136  34.741  28.713  1.00  0.00     0.251 C 
ATOM     30  H   UNL A   1      31.896  34.735  27.138  1.00  0.00     0.163 HD
ATOM     31  O   UNL A   1      32.727  35.803  29.166  1.00  0.00    -0.269 OA
BRANCH  29  32
ATOM     32  C   UNL A   1      34.287  34.062  29.338  1.00  0.00     0.039 A 
ATOM     33  C   UNL A   1      34.053  33.033  30.249  1.00  0.00     0.014 A 
ATOM     34  C   UNL A   1      35.593  34.452  29.021  1.00  0.00     0.014 A 
ATOM     35  C   UNL A   1      35.135  32.365  30.821  1.00  0.00     0.010 A 
ATOM     36  C   UNL A   1      36.667  33.736  29.534  1.00  0.00     0.010 A 
ATOM     37  C   UNL A   1      36.450  32.698  30.453  1.00  0.00    -0.014 A 
BRANCH  37  38
ATOM     38  C   UNL A   1      37.609  31.994  31.052  1.00  0.00     0.031 A 
ATOM     39  C   UNL A   1      38.061  32.342  32.443  1.00  0.00     0.074 A 
ATOM     40  C   UNL A   1      38.282  31.078  30.331  1.00  0.00     0.049 A 
ATOM     41  N   UNL A   1      39.065  31.865  33.134  1.00  0.00    -0.248 NA
ATOM     42  C   UNL A   1      37.296  33.387  33.142  1.00  0.00     0.031 C 
ATOM     43  C   UNL A   1      37.965  30.684  28.959  1.00  0.00     0.029 A 
ATOM     44  N   UNL A   1      39.374  30.313  30.655  1.00  0.00    -0.354 N 
ATOM     45  C   UNL A   1      39.060  32.561  34.335  1.00  0.00     0.074 A 
ATOM     46  C   UNL A   1      37.995  33.535  34.255  1.00  0.00     0.031 C 
ATOM     47  C   UNL A   1      38.822  29.727  28.568  1.00  0.00     0.029 A 
ATOM     48  C   UNL A   1      39.770  29.468  29.649  1.00  0.00     0.049 A 
ATOM     49  H   UNL A   1      39.830  30.367  31.526  1.00  0.00     0.167 HD
ATOM     50  C   UNL A   1      39.857  32.387  35.417  1.00  0.00     0.037 A 
ATOM     51  C   UNL A   1      40.782  28.582  29.606  1.00  0.00     0.037 A 
ATOM     52  C   UNL A   1      40.905  31.403  35.496  1.00  0.00     0.049 A 
ATOM     53  C   UNL A   1      41.663  28.414  30.815  1.00  0.00     0.074 A 
ATOM     54  C   UNL A   1      41.732  31.105  36.564  1.00  0.00     0.029 A 
ATOM     55  N   UNL A   1      41.276  30.560  34.457  1.00  0.00    -0.354 N 
ATOM     56  N   UNL A   1      41.606  29.025  31.974  1.00  0.00    -0.248 NA
ATOM     57  C   UNL A   1      42.743  27.423  30.712  1.00  0.00     0.031 C 
ATOM     58  C   UNL A   1      42.641  30.123  36.154  1.00  0.00     0.029 A 
ATOM     59  C   UNL A   1      42.338  29.761  34.851  1.00  0.00     0.049 A 
ATOM     60  H   UNL A   1      40.848  30.534  33.570  1.00  0.00     0.167 HD
ATOM     61  C   UNL A   1      42.613  28.467  32.751  1.00  0.00     0.074 A 
ATOM     62  C   UNL A   1      43.260  27.463  31.931  1.00  0.00     0.031 C 
ATOM     63  C   UNL A   1      42.966  28.757  34.028  1.00  0.00     0.037 A 
BRANCH  50  64
ATOM     64  C   UNL A   1      39.629  33.293  36.593  1.00  0.00     0.064 A 
ATOM     65  C   UNL A   1      38.745  32.954  37.631  1.00  0.00     0.173 A 
ATOM     66  C   UNL A   1      40.305  34.519  36.688  1.00  0.00     0.173 A 
ATOM     67  F   UNL A   1      38.064  31.799  37.587  1.00  0.00    -0.203 F 
ATOM     68  C   UNL A   1      38.511  33.827  38.690  1.00  0.00     0.198 A 
ATOM     69  C   UNL A   1      40.097  35.373  37.769  1.00  0.00     0.198 A 
ATOM     70  F   UNL A   1      41.168  34.892  35.731  1.00  0.00    -0.203 F 
ATOM     71  F   UNL A   1      37.609  33.511  39.630  1.00  0.00    -0.200 F 
ATOM     72  C   UNL A   1      39.191  35.033  38.762  1.00  0.00     0.200 A 
ATOM     73  F   UNL A   1      40.767  36.531  37.844  1.00  0.00    -0.200 F 
ATOM     74  F   UNL A   1      38.965  35.872  39.781  1.00  0.00    -0.200 F 
ENDBRANCH  50  64
BRANCH  51  75
ATOM     75  C   UNL A   1      40.986  27.750  28.392  1.00  0.00     0.064 A 
ATOM     76  C   UNL A   1      40.302  26.536  28.232  1.00  0.00     0.173 A 
ATOM     77  C   UNL A   1      41.853  28.151  27.366  1.00  0.00     0.173 A 
ATOM     78  F   UNL A   1      39.476  26.102  29.195  1.00  0.00    -0.203 F 
ATOM     79  C   UNL A   1      40.492  25.746  27.100  1.00  0.00     0.198 A 
ATOM     80  C   UNL A   1      42.020  27.374  26.221  1.00  0.00     0.198 A 
ATOM     81  F   UNL A   1      42.524  29.307  27.467  1.00  0.00    -0.203 F 
ATOM     82  F   UNL A   1      39.857  24.571  26.992  1.00  0.00    -0.200 F 
ATOM     83  C   UNL A   1      41.345  26.169  26.092  1.00  0.00     0.200 A 
ATOM     84  F   UNL A   1      42.833  27.794  25.242  1.00  0.00    -0.200 F 
ATOM     85  F   UNL A   1      41.521  25.413  25.001  1.00  0.00    -0.200 F 
ENDBRANCH  51  75
BRANCH  63  86
ATOM     86  C   UNL A   1      44.068  27.939  34.641  1.00  0.00     0.064 A 
ATOM     87  C   UNL A   1      45.407  28.360  34.618  1.00  0.00     0.173 A 
ATOM     88  C   UNL A   1      43.772  26.731  35.292  1.00  0.00     0.173 A 
ATOM     89  F   UNL A   1      45.746  29.500  33.997  1.00  0.00    -0.203 F 
ATOM     90  C   UNL A   1      46.410  27.583  35.193  1.00  0.00     0.198 A 
ATOM     91  C   UNL A   1      44.772  25.976  35.897  1.00  0.00     0.198 A 
ATOM     92  F   UNL A   1      42.506  26.287  35.351  1.00  0.00    -0.203 F 
ATOM     93  F   UNL A   1      47.689  27.977  35.109  1.00  0.00    -0.200 F 
ATOM     94  C   UNL A   1      46.092  26.398  35.838  1.00  0.00     0.200 A 
ATOM     95  F   UNL A   1      44.459  24.839  36.533  1.00  0.00    -0.200 F 
ATOM     96  F   UNL A   1      47.058  25.657  36.397  1.00  0.00    -0.200 F 
ENDBRANCH  63  86
ENDBRANCH  37  38
ENDBRANCH  29  32
ENDBRANCH  27  28
ENDBRANCH  26  27
ENDBRANCH   1  26
TORSDOF 14
ENDMDL
MODEL 3
REMARK VINA RESULT:     -11.9      5.198     10.555
REMARK SMILES CC[C@@H](NC(=O)N1C[C@H]2CCCC[N@@H+]2C[C@@H]1C)C(=O)NCCCCNC(=O)c1ccc(-c2c3nc(c(-c4c(F)c(F)c(F)c(F)c4F)c4ccc([nH]4)c(-c4c(F)c(F)c(F)c(F)c4F)c4nc(c(-c5c(F)c(F)c(F)c(F)c5F)c5ccc2[nH]5)C=C4)C=C3)cc1
REMARK SMILES IDX 22 1 21 2 20 3 18 4 19 5 3 7 2 8 1 9 4 10 5 11 6 13 7 14
REMARK SMILES IDX 8 15 16 16 9 17 15 18 17 19 10 20 14 21 11 22 13 23 12 25
REMARK SMILES IDX 23 26 24 27 25 28 26 29 27 31 28 32 29 33 90 34 30 35 89 36
REMARK SMILES IDX 31 37 32 38 33 39 83 40 34 41 88 42 82 43 84 44 35 45 87 46
REMARK SMILES IDX 81 47 80 48 36 50 68 51 48 52 67 53 49 54 52 55 66 56 85 57
REMARK SMILES IDX 50 58 51 59 65 61 86 62 53 63 37 64 38 65 46 66 39 67 40 68
REMARK SMILES IDX 44 69 47 70 41 71 42 72 45 73 43 74 69 75 70 76 78 77 71 78
REMARK SMILES IDX 72 79 76 80 79 81 73 82 74 83 77 84 75 85 54 86 55 87 63 88
REMARK SMILES IDX 56 89 57 90 61 91 64 92 58 93 59 94 62 95 60 96
REMARK H PARENT 20 6 4 12 14 24 25 30 84 49 52 60
REMARK Flexibility Score: inf
ROOT
ATOM      1  C   UNL A   1      36.840  20.545  25.001  1.00  0.00     0.023 C 
ENDROOT
BRANCH   1   2
ATOM      2  C   UNL A   1      36.980  21.784  24.127  1.00  0.00     0.116 C 
BRANCH   2   3
ATOM      3  N   UNL A   1      36.533  22.964  24.836  1.00  0.00    -0.354 N 
ATOM      4  C   UNL A   1      35.263  23.393  25.067  1.00  0.00     0.242 C 
ATOM      5  O   UNL A   1      35.120  24.441  25.703  1.00  0.00    -0.273 OA
ATOM      6  H   UNL A   1      37.246  23.534  25.202  1.00  0.00     0.163 HD
BRANCH   4   7
ATOM      7  C   UNL A   1      34.057  22.702  24.414  1.00  0.00     0.172 C 
BRANCH   7   8
ATOM      8  C   UNL A   1      32.938  22.811  25.489  1.00  0.00     0.032 C 
ATOM      9  C   UNL A   1      31.802  21.808  25.411  1.00  0.00     0.006 C 
ENDBRANCH   7   8
BRANCH   7  10
ATOM     10  N   UNL A   1      33.643  23.220  23.104  1.00  0.00    -0.326 N 
ATOM     11  C   UNL A   1      33.291  24.434  22.611  1.00  0.00     0.318 C 
ATOM     12  H   UNL A   1      33.613  22.516  22.417  1.00  0.00     0.166 HD
ATOM     13  O   UNL A   1      33.327  24.534  21.384  1.00  0.00    -0.249 OA
BRANCH  11  14
ATOM     14  N   UNL A   1      32.747  25.401  23.417  1.00  0.00    -0.310 N 
ATOM     15  C   UNL A   1      33.490  26.608  23.793  1.00  0.00     0.186 C 
ATOM     16  C   UNL A   1      31.282  25.648  23.391  1.00  0.00     0.139 C 
ATOM     17  C   UNL A   1      33.087  27.059  25.208  1.00  0.00     0.203 C 
ATOM     18  C   UNL A   1      30.779  26.386  24.680  1.00  0.00     0.287 C 
ATOM     19  C   UNL A   1      30.407  24.386  23.252  1.00  0.00     0.037 C 
ATOM     20  C   UNL A   1      33.881  28.285  25.673  1.00  0.00     0.067 C 
ATOM     21  N   UNL A   1      31.648  27.382  25.326  1.00  0.00    -0.329 N 
ATOM     22  C   UNL A   1      33.586  28.570  27.147  1.00  0.00     0.012 C 
ATOM     23  C   UNL A   1      31.303  27.520  26.755  1.00  0.00     0.262 C 
ATOM     24  H   UNL A   1      31.485  28.261  24.835  1.00  0.00     0.348 HD
ATOM     25  C   UNL A   1      32.084  28.662  27.409  1.00  0.00     0.062 C 
ENDBRANCH  11  14
ENDBRANCH   7  10
ENDBRANCH   4   7
ENDBRANCH   2   3
ENDBRANCH   1   2
BRANCH   1  26
ATOM     26  C   UNL A   1      38.068  19.634  24.972  1.00  0.00     0.023 C 
BRANCH  26  27
ATOM     27  C   UNL A   1      39.239  20.138  25.804  1.00  0.00     0.116 C 
BRANCH  27  28
ATOM     28  N   UNL A   1      40.281  19.137  25.954  1.00  0.00    -0.352 N 
ATOM     29  C   UNL A   1      41.624  19.321  26.164  1.00  0.00     0.251 C 
ATOM     30  H   UNL A   1      39.985  18.201  25.897  1.00  0.00     0.163 HD
ATOM     31  O   UNL A   1      42.410  18.389  26.047  1.00  0.00    -0.269 OA
BRANCH  29  32
ATOM     32  C   UNL A   1      42.115  20.664  26.528  1.00  0.00     0.039 A 
ATOM     33  C   UNL A   1      42.488  21.546  25.514  1.00  0.00     0.014 A 
ATOM     34  C   UNL A   1      42.208  21.042  27.872  1.00  0.00     0.014 A 
ATOM     35  C   UNL A   1      42.923  22.829  25.846  1.00  0.00     0.010 A 
ATOM     36  C   UNL A   1      42.570  22.343  28.196  1.00  0.00     0.010 A 
ATOM     37  C   UNL A   1      42.949  23.243  27.189  1.00  0.00    -0.014 A 
BRANCH  37  38
ATOM     38  C   UNL A   1      43.408  24.604  27.556  1.00  0.00     0.031 A 
ATOM     39  C   UNL A   1      42.405  25.657  27.934  1.00  0.00     0.074 A 
ATOM     40  C   UNL A   1      44.719  24.906  27.504  1.00  0.00     0.049 A 
ATOM     41  N   UNL A   1      42.599  26.911  28.259  1.00  0.00    -0.248 NA
ATOM     42  C   UNL A   1      40.990  25.254  27.920  1.00  0.00     0.031 C 
ATOM     43  C   UNL A   1      45.783  23.981  27.113  1.00  0.00     0.029 A 
ATOM     44  N   UNL A   1      45.378  26.076  27.781  1.00  0.00    -0.354 N 
ATOM     45  C   UNL A   1      41.335  27.445  28.469  1.00  0.00     0.074 A 
ATOM     46  C   UNL A   1      40.380  26.400  28.176  1.00  0.00     0.031 C 
ATOM     47  C   UNL A   1      46.966  24.610  27.207  1.00  0.00     0.029 A 
ATOM     48  C   UNL A   1      46.739  25.990  27.628  1.00  0.00     0.049 A 
ATOM     49  H   UNL A   1      44.918  26.900  28.062  1.00  0.00     0.167 HD
ATOM     50  C   UNL A   1      41.002  28.689  28.893  1.00  0.00     0.037 A 
ATOM     51  C   UNL A   1      47.695  26.920  27.810  1.00  0.00     0.037 A 
ATOM     52  C   UNL A   1      41.959  29.719  29.200  1.00  0.00     0.049 A 
ATOM     53  C   UNL A   1      47.301  28.298  28.269  1.00  0.00     0.074 A 
ATOM     54  C   UNL A   1      41.731  30.992  29.689  1.00  0.00     0.029 A 
ATOM     55  N   UNL A   1      43.332  29.594  29.036  1.00  0.00    -0.354 N 
ATOM     56  N   UNL A   1      46.109  28.773  28.536  1.00  0.00    -0.248 NA
ATOM     57  C   UNL A   1      48.390  29.266  28.461  1.00  0.00     0.031 C 
ATOM     58  C   UNL A   1      42.960  31.658  29.768  1.00  0.00     0.029 A 
ATOM     59  C   UNL A   1      43.961  30.777  29.390  1.00  0.00     0.049 A 
ATOM     60  H   UNL A   1      43.792  28.784  28.715  1.00  0.00     0.167 HD
ATOM     61  C   UNL A   1      46.306  30.080  28.966  1.00  0.00     0.074 A 
ATOM     62  C   UNL A   1      47.734  30.317  28.929  1.00  0.00     0.031 C 
ATOM     63  C   UNL A   1      45.386  30.996  29.359  1.00  0.00     0.037 A 
BRANCH  50  64
ATOM     64  C   UNL A   1      39.539  28.999  29.033  1.00  0.00     0.064 A 
ATOM     65  C   UNL A   1      38.874  28.898  30.267  1.00  0.00     0.173 A 
ATOM     66  C   UNL A   1      38.788  29.406  27.920  1.00  0.00     0.173 A 
ATOM     67  F   UNL A   1      39.540  28.503  31.362  1.00  0.00    -0.203 F 
ATOM     68  C   UNL A   1      37.507  29.146  30.369  1.00  0.00     0.198 A 
ATOM     69  C   UNL A   1      37.429  29.690  28.034  1.00  0.00     0.198 A 
ATOM     70  F   UNL A   1      39.371  29.527  26.718  1.00  0.00    -0.203 F 
ATOM     71  F   UNL A   1      36.883  28.973  31.542  1.00  0.00    -0.200 F 
ATOM     72  C   UNL A   1      36.787  29.546  29.254  1.00  0.00     0.200 A 
ATOM     73  F   UNL A   1      36.738  30.091  26.958  1.00  0.00    -0.200 F 
ATOM     74  F   UNL A   1      35.472  29.783  29.353  1.00  0.00    -0.200 F 
ENDBRANCH  50  64
BRANCH  51  75
ATOM     75  C   UNL A   1      49.123  26.562  27.605  1.00  0.00     0.064 A 
ATOM     76  C   UNL A   1      49.940  26.228  28.694  1.00  0.00     0.173 A 
ATOM     77  C   UNL A   1      49.696  26.536  26.325  1.00  0.00     0.173 A 
ATOM     78  F   UNL A   1      49.443  26.256  29.938  1.00  0.00    -0.203 F 
ATOM     79  C   UNL A   1      51.282  25.898  28.512  1.00  0.00     0.198 A 
ATOM     80  C   UNL A   1      51.030  26.178  26.143  1.00  0.00     0.198 A 
ATOM     81  F   UNL A   1      48.954  26.840  25.251  1.00  0.00    -0.203 F 
ATOM     82  F   UNL A   1      52.052  25.622  29.574  1.00  0.00    -0.200 F 
ATOM     83  C   UNL A   1      51.824  25.867  27.236  1.00  0.00     0.200 A 
ATOM     84  F   UNL A   1      51.545  26.133  24.906  1.00  0.00    -0.200 F 
ATOM     85  F   UNL A   1      53.111  25.542  27.061  1.00  0.00    -0.200 F 
ENDBRANCH  51  75
BRANCH  63  86
ATOM     86  C   UNL A   1      45.900  32.326  29.837  1.00  0.00     0.064 A 
ATOM     87  C   UNL A   1      46.054  33.419  28.971  1.00  0.00     0.173 A 
ATOM     88  C   UNL A   1      46.210  32.516  31.194  1.00  0.00     0.173 A 
ATOM     89  F   UNL A   1      45.785  33.287  27.663  1.00  0.00    -0.203 F 
ATOM     90  C   UNL A   1      46.532  34.640  29.438  1.00  0.00     0.198 A 
ATOM     91  C   UNL A   1      46.653  33.749  31.663  1.00  0.00     0.198 A 
ATOM     92  F   UNL A   1      46.072  31.506  32.067  1.00  0.00    -0.203 F 
ATOM     93  F   UNL A   1      46.726  35.653  28.582  1.00  0.00    -0.200 F 
ATOM     94  C   UNL A   1      46.824  34.807  30.784  1.00  0.00     0.200 A 
ATOM     95  F   UNL A   1      46.918  33.911  32.967  1.00  0.00    -0.200 F 
ATOM     96  F   UNL A   1      47.276  35.985  31.232  1.00  0.00    -0.200 F 
ENDBRANCH  63  86
ENDBRANCH  37  38
ENDBRANCH  29  32
ENDBRANCH  27  28
ENDBRANCH  26  27
ENDBRANCH   1  26
TORSDOF 14
ENDMDL
