MODEL 1
REMARK VINA RESULT:     -12.0      0.000      0.000
REMARK SMILES COc1ccccc1C[N@@H+](C)[C@@H](C)c1ccc(C(=O)NCCCCNC(=O)c2ccc(-c3c4nc(c(-c5c(F)c(F)c(F)c(F)c5F)c5ccc([nH]5)c(-c5c(F)c(F)c(F)c(F)c5F)c5nc(c(-c6c(F)c(F)c(F)c(F)c6F)c6ccc3[nH]6)C=C5)C=C4)cc2)o1
REMARK SMILES IDX 21 1 20 2 18 3 19 4 17 6 14 7 15 8 91 9 16 10 12 11 13 12
REMARK SMILES IDX 10 13 11 14 9 16 8 17 3 18 4 19 5 20 7 21 6 22 2 23 1 24
REMARK SMILES IDX 22 25 23 26 24 27 25 28 26 29 27 31 28 32 29 33 90 34 30 35
REMARK SMILES IDX 89 36 31 37 32 38 33 39 83 40 34 41 88 42 82 43 84 44 35 45
REMARK SMILES IDX 87 46 81 47 80 48 36 50 68 51 48 52 67 53 49 54 52 55 66 56
REMARK SMILES IDX 85 57 50 58 51 59 65 61 86 62 53 63 37 64 38 65 46 66 39 67
REMARK SMILES IDX 40 68 44 69 47 70 41 71 42 72 45 73 43 74 69 75 70 76 78 77
REMARK SMILES IDX 71 78 72 79 76 80 79 81 73 82 74 83 77 84 75 85 54 86 55 87
REMARK SMILES IDX 63 88 56 89 57 90 61 91 64 92 58 93 59 94 62 95 60 96
REMARK H PARENT 20 5 10 15 25 30 84 49 52 60
REMARK Flexibility Score: inf
ROOT
ATOM      1  C   UNL A   1      32.385  30.025  25.556  1.00  0.00     0.116 C 
ENDROOT
BRANCH   1   2
ATOM      2  N   UNL A   1      31.350  29.705  24.605  1.00  0.00    -0.349 N 
ATOM      3  C   UNL A   1      31.343  28.789  23.578  1.00  0.00     0.287 C 
ATOM      4  O   UNL A   1      30.491  28.994  22.709  1.00  0.00    -0.266 OA
ATOM      5  H   UNL A   1      30.519  30.223  24.706  1.00  0.00     0.163 HD
BRANCH   3   6
ATOM      6  C   UNL A   1      32.245  27.652  23.572  1.00  0.00     0.191 A 
ATOM      7  C   UNL A   1      32.641  25.498  23.926  1.00  0.00     0.161 A 
ATOM      8  C   UNL A   1      33.866  26.084  23.697  1.00  0.00     0.053 A 
ATOM      9  O   UNL A   1      31.661  26.428  23.780  1.00  0.00    -0.450 OA
ATOM     10  C   UNL A   1      33.608  27.453  23.430  1.00  0.00     0.057 A 
BRANCH   7  11
ATOM     11  C   UNL A   1      32.223  24.089  24.234  1.00  0.00     0.248 C 
ATOM     12  C   UNL A   1      30.865  23.763  23.598  1.00  0.00     0.084 C 
BRANCH  11  13
ATOM     13  N   UNL A   1      32.401  23.739  25.672  1.00  0.00    -0.325 N 
ATOM     14  C   UNL A   1      31.312  24.323  26.466  1.00  0.00     0.333 C 
ATOM     15  H   UNL A   1      32.390  22.720  25.697  1.00  0.00     0.348 HD
BRANCH  13  16
ATOM     16  C   UNL A   1      33.686  24.167  26.264  1.00  0.00     0.303 C 
BRANCH  16  17
ATOM     17  C   UNL A   1      34.899  23.337  25.918  1.00  0.00     0.048 A 
ATOM     18  C   UNL A   1      34.853  21.935  25.885  1.00  0.00     0.127 A 
ATOM     19  C   UNL A   1      35.984  21.189  25.540  1.00  0.00     0.047 A 
ATOM     20  C   UNL A   1      37.174  21.833  25.203  1.00  0.00     0.004 A 
ATOM     21  C   UNL A   1      36.107  23.970  25.571  1.00  0.00     0.013 A 
ATOM     22  C   UNL A   1      37.236  23.224  25.220  1.00  0.00     0.001 A 
BRANCH  18  23
ATOM     23  O   UNL A   1      33.755  21.259  26.349  1.00  0.00    -0.496 OA
ATOM     24  C   UNL A   1      33.302  20.283  25.418  1.00  0.00     0.278 C 
ENDBRANCH  18  23
ENDBRANCH  16  17
ENDBRANCH  13  16
ENDBRANCH  11  13
ENDBRANCH   7  11
ENDBRANCH   3   6
ENDBRANCH   1   2
BRANCH   1  25
ATOM     25  C   UNL A   1      31.728  30.545  26.834  1.00  0.00     0.023 C 
BRANCH  25  26
ATOM     26  C   UNL A   1      31.529  32.066  26.819  1.00  0.00     0.023 C 
BRANCH  26  27
ATOM     27  C   UNL A   1      32.758  32.861  27.248  1.00  0.00     0.116 C 
BRANCH  27  28
ATOM     28  N   UNL A   1      32.438  34.232  27.613  1.00  0.00    -0.352 N 
ATOM     29  C   UNL A   1      32.983  35.010  28.604  1.00  0.00     0.251 C 
ATOM     30  H   UNL A   1      31.735  34.661  27.075  1.00  0.00     0.163 HD
ATOM     31  O   UNL A   1      32.506  36.099  28.878  1.00  0.00    -0.269 OA
BRANCH  29  32
ATOM     32  C   UNL A   1      34.143  34.492  29.354  1.00  0.00     0.039 A 
ATOM     33  C   UNL A   1      33.923  33.872  30.586  1.00  0.00     0.014 A 
ATOM     34  C   UNL A   1      35.431  34.592  28.823  1.00  0.00     0.014 A 
ATOM     35  C   UNL A   1      34.997  33.299  31.262  1.00  0.00     0.010 A 
ATOM     36  C   UNL A   1      36.488  33.959  29.464  1.00  0.00     0.010 A 
ATOM     37  C   UNL A   1      36.281  33.310  30.690  1.00  0.00    -0.014 A 
BRANCH  37  38
ATOM     38  C   UNL A   1      37.423  32.649  31.365  1.00  0.00     0.031 A 
ATOM     39  C   UNL A   1      38.107  31.484  30.709  1.00  0.00     0.074 A 
ATOM     40  C   UNL A   1      37.795  33.057  32.592  1.00  0.00     0.049 A 
ATOM     41  N   UNL A   1      39.075  30.729  31.164  1.00  0.00    -0.248 NA
ATOM     42  C   UNL A   1      37.621  31.097  29.376  1.00  0.00     0.031 C 
ATOM     43  C   UNL A   1      37.171  34.144  33.348  1.00  0.00     0.029 A 
ATOM     44  N   UNL A   1      38.784  32.599  33.426  1.00  0.00    -0.354 N 
ATOM     45  C   UNL A   1      39.301  29.775  30.182  1.00  0.00     0.074 A 
ATOM     46  C   UNL A   1      38.335  30.008  29.132  1.00  0.00     0.031 C 
ATOM     47  C   UNL A   1      37.804  34.283  34.523  1.00  0.00     0.029 A 
ATOM     48  C   UNL A   1      38.854  33.273  34.620  1.00  0.00     0.049 A 
ATOM     49  H   UNL A   1      39.385  31.856  33.190  1.00  0.00     0.167 HD
ATOM     50  C   UNL A   1      40.248  28.807  30.149  1.00  0.00     0.037 A 
ATOM     51  C   UNL A   1      39.670  33.090  35.675  1.00  0.00     0.037 A 
ATOM     52  C   UNL A   1      41.223  28.598  31.187  1.00  0.00     0.049 A 
ATOM     53  C   UNL A   1      40.712  32.007  35.612  1.00  0.00     0.074 A 
ATOM     54  C   UNL A   1      42.260  27.684  31.224  1.00  0.00     0.029 A 
ATOM     55  N   UNL A   1      41.278  29.317  32.372  1.00  0.00    -0.354 N 
ATOM     56  N   UNL A   1      40.965  31.155  34.648  1.00  0.00    -0.248 NA
ATOM     57  C   UNL A   1      41.589  31.864  36.782  1.00  0.00     0.031 C 
ATOM     58  C   UNL A   1      42.917  27.819  32.452  1.00  0.00     0.029 A 
ATOM     59  C   UNL A   1      42.321  28.853  33.157  1.00  0.00     0.049 A 
ATOM     60  H   UNL A   1      40.667  30.048  32.620  1.00  0.00     0.167 HD
ATOM     61  C   UNL A   1      42.043  30.397  35.080  1.00  0.00     0.074 A 
ATOM     62  C   UNL A   1      42.409  30.900  36.389  1.00  0.00     0.031 C 
ATOM     63  C   UNL A   1      42.675  29.376  34.452  1.00  0.00     0.037 A 
BRANCH  50  64
ATOM     64  C   UNL A   1      40.279  27.907  28.949  1.00  0.00     0.064 A 
ATOM     65  C   UNL A   1      41.035  28.225  27.811  1.00  0.00     0.173 A 
ATOM     66  C   UNL A   1      39.575  26.693  28.950  1.00  0.00     0.173 A 
ATOM     67  F   UNL A   1      41.717  29.379  27.754  1.00  0.00    -0.203 F 
ATOM     68  C   UNL A   1      41.064  27.376  26.708  1.00  0.00     0.198 A 
ATOM     69  C   UNL A   1      39.630  25.832  27.858  1.00  0.00     0.198 A 
ATOM     70  F   UNL A   1      38.839  26.338  30.014  1.00  0.00    -0.203 F 
ATOM     71  F   UNL A   1      41.753  27.725  25.613  1.00  0.00    -0.200 F 
ATOM     72  C   UNL A   1      40.367  26.177  26.735  1.00  0.00     0.200 A 
ATOM     73  F   UNL A   1      38.967  24.667  27.890  1.00  0.00    -0.200 F 
ATOM     74  F   UNL A   1      40.402  25.356  25.676  1.00  0.00    -0.200 F 
ENDBRANCH  50  64
BRANCH  51  75
ATOM     75  C   UNL A   1      39.553  33.968  36.867  1.00  0.00     0.064 A 
ATOM     76  C   UNL A   1      40.206  35.208  36.914  1.00  0.00     0.173 A 
ATOM     77  C   UNL A   1      38.799  33.586  37.986  1.00  0.00     0.173 A 
ATOM     78  F   UNL A   1      40.955  35.609  35.876  1.00  0.00    -0.203 F 
ATOM     79  C   UNL A   1      40.131  36.020  38.043  1.00  0.00     0.198 A 
ATOM     80  C   UNL A   1      38.699  34.413  39.104  1.00  0.00     0.198 A 
ATOM     81  F   UNL A   1      38.150  32.413  37.990  1.00  0.00    -0.203 F 
ATOM     82  F   UNL A   1      40.806  37.177  38.080  1.00  0.00    -0.200 F 
ATOM     83  C   UNL A   1      39.373  35.624  39.136  1.00  0.00     0.200 A 
ATOM     84  F   UNL A   1      37.956  34.032  40.152  1.00  0.00    -0.200 F 
ATOM     85  F   UNL A   1      39.300  36.407  40.222  1.00  0.00    -0.200 F 
ENDBRANCH  51  75
BRANCH  63  86
ATOM     86  C   UNL A   1      43.852  28.760  35.153  1.00  0.00     0.064 A 
ATOM     87  C   UNL A   1      43.704  27.662  36.012  1.00  0.00     0.173 A 
ATOM     88  C   UNL A   1      45.147  29.251  34.928  1.00  0.00     0.173 A 
ATOM     89  F   UNL A   1      42.486  27.166  36.272  1.00  0.00    -0.203 F 
ATOM     90  C   UNL A   1      44.809  27.093  36.640  1.00  0.00     0.198 A 
ATOM     91  C   UNL A   1      46.251  28.660  35.532  1.00  0.00     0.198 A 
ATOM     92  F   UNL A   1      45.341  30.294  34.108  1.00  0.00    -0.203 F 
ATOM     93  F   UNL A   1      44.641  26.075  37.495  1.00  0.00    -0.200 F 
ATOM     94  C   UNL A   1      46.082  27.587  36.395  1.00  0.00     0.200 A 
ATOM     95  F   UNL A   1      47.482  29.130  35.282  1.00  0.00    -0.200 F 
ATOM     96  F   UNL A   1      47.144  27.033  36.994  1.00  0.00    -0.200 F 
ENDBRANCH  63  86
ENDBRANCH  37  38
ENDBRANCH  29  32
ENDBRANCH  27  28
ENDBRANCH  26  27
ENDBRANCH  25  26
ENDBRANCH   1  25
TORSDOF 16
ENDMDL
MODEL 2
REMARK VINA RESULT:     -12.0      0.599      2.058
REMARK SMILES COc1ccccc1C[N@@H+](C)[C@@H](C)c1ccc(C(=O)NCCCCNC(=O)c2ccc(-c3c4nc(c(-c5c(F)c(F)c(F)c(F)c5F)c5ccc([nH]5)c(-c5c(F)c(F)c(F)c(F)c5F)c5nc(c(-c6c(F)c(F)c(F)c(F)c6F)c6ccc3[nH]6)C=C5)C=C4)cc2)o1
REMARK SMILES IDX 21 1 20 2 18 3 19 4 17 6 14 7 15 8 91 9 16 10 12 11 13 12
REMARK SMILES IDX 10 13 11 14 9 16 8 17 3 18 4 19 5 20 7 21 6 22 2 23 1 24
REMARK SMILES IDX 22 25 23 26 24 27 25 28 26 29 27 31 28 32 29 33 90 34 30 35
REMARK SMILES IDX 89 36 31 37 32 38 33 39 83 40 34 41 88 42 82 43 84 44 35 45
REMARK SMILES IDX 87 46 81 47 80 48 36 50 68 51 48 52 67 53 49 54 52 55 66 56
REMARK SMILES IDX 85 57 50 58 51 59 65 61 86 62 53 63 37 64 38 65 46 66 39 67
REMARK SMILES IDX 40 68 44 69 47 70 41 71 42 72 45 73 43 74 69 75 70 76 78 77
REMARK SMILES IDX 71 78 72 79 76 80 79 81 73 82 74 83 77 84 75 85 54 86 55 87
REMARK SMILES IDX 63 88 56 89 57 90 61 91 64 92 58 93 59 94 62 95 60 96
REMARK H PARENT 20 5 10 15 25 30 84 49 52 60
REMARK Flexibility Score: inf
ROOT
ATOM      1  C   UNL A   1      33.125  29.737  26.230  1.00  0.00     0.116 C 
ENDROOT
BRANCH   1   2
ATOM      2  N   UNL A   1      33.258  29.771  24.795  1.00  0.00    -0.349 N 
ATOM      3  C   UNL A   1      32.982  28.802  23.857  1.00  0.00     0.287 C 
ATOM      4  O   UNL A   1      33.538  28.965  22.767  1.00  0.00    -0.266 OA
ATOM      5  H   UNL A   1      33.598  30.619  24.428  1.00  0.00     0.163 HD
BRANCH   3   6
ATOM      6  C   UNL A   1      32.065  27.714  24.141  1.00  0.00     0.191 A 
ATOM      7  C   UNL A   1      31.623  25.544  24.271  1.00  0.00     0.161 A 
ATOM      8  C   UNL A   1      30.418  26.193  24.419  1.00  0.00     0.053 A 
ATOM      9  O   UNL A   1      32.622  26.460  24.176  1.00  0.00    -0.450 OA
ATOM     10  C   UNL A   1      30.707  27.580  24.377  1.00  0.00     0.057 A 
BRANCH   7  11
ATOM     11  C   UNL A   1      32.007  24.092  24.255  1.00  0.00     0.248 C 
ATOM     12  C   UNL A   1      31.068  23.281  23.351  1.00  0.00     0.084 C 
BRANCH  11  13
ATOM     13  N   UNL A   1      32.269  23.552  25.619  1.00  0.00    -0.325 N 
ATOM     14  C   UNL A   1      31.150  23.884  26.511  1.00  0.00     0.333 C 
ATOM     15  H   UNL A   1      32.369  22.545  25.488  1.00  0.00     0.348 HD
BRANCH  13  16
ATOM     16  C   UNL A   1      33.519  24.026  26.248  1.00  0.00     0.303 C 
BRANCH  16  17
ATOM     17  C   UNL A   1      34.789  23.313  25.850  1.00  0.00     0.048 A 
ATOM     18  C   UNL A   1      34.863  21.914  25.782  1.00  0.00     0.127 A 
ATOM     19  C   UNL A   1      36.043  21.276  25.389  1.00  0.00     0.047 A 
ATOM     20  C   UNL A   1      37.164  22.028  25.040  1.00  0.00     0.004 A 
ATOM     21  C   UNL A   1      35.928  24.056  25.491  1.00  0.00     0.013 A 
ATOM     22  C   UNL A   1      37.108  23.419  25.092  1.00  0.00     0.001 A 
BRANCH  18  23
ATOM     23  O   UNL A   1      33.840  21.134  26.255  1.00  0.00    -0.496 OA
ATOM     24  C   UNL A   1      33.384  20.207  25.277  1.00  0.00     0.278 C 
ENDBRANCH  18  23
ENDBRANCH  16  17
ENDBRANCH  13  16
ENDBRANCH  11  13
ENDBRANCH   7  11
ENDBRANCH   3   6
ENDBRANCH   1   2
BRANCH   1  25
ATOM     25  C   UNL A   1      31.735  30.248  26.602  1.00  0.00     0.023 C 
BRANCH  25  26
ATOM     26  C   UNL A   1      31.629  31.776  26.538  1.00  0.00     0.023 C 
BRANCH  26  27
ATOM     27  C   UNL A   1      32.803  32.512  27.175  1.00  0.00     0.116 C 
BRANCH  27  28
ATOM     28  N   UNL A   1      32.483  33.889  27.515  1.00  0.00    -0.352 N 
ATOM     29  C   UNL A   1      33.020  34.682  28.499  1.00  0.00     0.251 C 
ATOM     30  H   UNL A   1      31.785  34.311  26.964  1.00  0.00     0.163 HD
ATOM     31  O   UNL A   1      32.543  35.776  28.751  1.00  0.00    -0.269 OA
BRANCH  29  32
ATOM     32  C   UNL A   1      34.172  34.174  29.267  1.00  0.00     0.039 A 
ATOM     33  C   UNL A   1      33.932  33.407  30.409  1.00  0.00     0.014 A 
ATOM     34  C   UNL A   1      35.477  34.429  28.838  1.00  0.00     0.014 A 
ATOM     35  C   UNL A   1      35.008  32.846  31.093  1.00  0.00     0.010 A 
ATOM     36  C   UNL A   1      36.543  33.812  29.479  1.00  0.00     0.010 A 
ATOM     37  C   UNL A   1      36.318  33.017  30.613  1.00  0.00    -0.014 A 
BRANCH  37  38
ATOM     38  C   UNL A   1      37.469  32.375  31.290  1.00  0.00     0.031 A 
ATOM     39  C   UNL A   1      38.171  31.219  30.638  1.00  0.00     0.074 A 
ATOM     40  C   UNL A   1      37.834  32.791  32.517  1.00  0.00     0.049 A 
ATOM     41  N   UNL A   1      39.149  30.479  31.096  1.00  0.00    -0.248 NA
ATOM     42  C   UNL A   1      37.692  30.822  29.305  1.00  0.00     0.031 C 
ATOM     43  C   UNL A   1      37.193  33.871  33.270  1.00  0.00     0.029 A 
ATOM     44  N   UNL A   1      38.828  32.349  33.353  1.00  0.00    -0.354 N 
ATOM     45  C   UNL A   1      39.391  29.527  30.116  1.00  0.00     0.074 A 
ATOM     46  C   UNL A   1      38.422  29.743  29.064  1.00  0.00     0.031 C 
ATOM     47  C   UNL A   1      37.823  34.021  34.446  1.00  0.00     0.029 A 
ATOM     48  C   UNL A   1      38.887  33.027  34.545  1.00  0.00     0.049 A 
ATOM     49  H   UNL A   1      39.441  31.615  33.120  1.00  0.00     0.167 HD
ATOM     50  C   UNL A   1      40.351  28.573  30.086  1.00  0.00     0.037 A 
ATOM     51  C   UNL A   1      39.705  32.858  35.602  1.00  0.00     0.037 A 
ATOM     52  C   UNL A   1      41.329  28.380  31.125  1.00  0.00     0.049 A 
ATOM     53  C   UNL A   1      40.762  31.790  35.542  1.00  0.00     0.074 A 
ATOM     54  C   UNL A   1      42.379  27.482  31.165  1.00  0.00     0.029 A 
ATOM     55  N   UNL A   1      41.372  29.102  32.309  1.00  0.00    -0.354 N 
ATOM     56  N   UNL A   1      41.029  30.940  34.581  1.00  0.00    -0.248 NA
ATOM     57  C   UNL A   1      41.640  31.663  36.714  1.00  0.00     0.031 C 
ATOM     58  C   UNL A   1      43.033  27.629  32.393  1.00  0.00     0.029 A 
ATOM     59  C   UNL A   1      42.420  28.655  33.096  1.00  0.00     0.049 A 
ATOM     60  H   UNL A   1      40.750  29.825  32.554  1.00  0.00     0.167 HD
ATOM     61  C   UNL A   1      42.118  30.199  35.015  1.00  0.00     0.074 A 
ATOM     62  C   UNL A   1      42.475  30.711  36.323  1.00  0.00     0.031 C 
ATOM     63  C   UNL A   1      42.766  29.186  34.390  1.00  0.00     0.037 A 
BRANCH  50  64
ATOM     64  C   UNL A   1      40.397  27.670  28.888  1.00  0.00     0.064 A 
ATOM     65  C   UNL A   1      39.652  26.483  28.833  1.00  0.00     0.173 A 
ATOM     66  C   UNL A   1      41.165  28.014  27.766  1.00  0.00     0.173 A 
ATOM     67  F   UNL A   1      38.911  26.102  29.885  1.00  0.00    -0.203 F 
ATOM     68  C   UNL A   1      39.696  25.659  27.712  1.00  0.00     0.198 A 
ATOM     69  C   UNL A   1      41.183  27.204  26.633  1.00  0.00     0.198 A 
ATOM     70  F   UNL A   1      41.894  29.141  27.762  1.00  0.00    -0.203 F 
ATOM     71  F   UNL A   1      39.015  24.505  27.703  1.00  0.00    -0.200 F 
ATOM     72  C   UNL A   1      40.455  26.024  26.610  1.00  0.00     0.200 A 
ATOM     73  F   UNL A   1      41.907  27.564  25.564  1.00  0.00    -0.200 F 
ATOM     74  F   UNL A   1      40.490  25.235  25.528  1.00  0.00    -0.200 F 
ENDBRANCH  50  64
BRANCH  51  75
ATOM     75  C   UNL A   1      39.573  33.737  36.793  1.00  0.00     0.064 A 
ATOM     76  C   UNL A   1      38.773  33.358  37.880  1.00  0.00     0.173 A 
ATOM     77  C   UNL A   1      40.232  34.972  36.867  1.00  0.00     0.173 A 
ATOM     78  F   UNL A   1      38.108  32.193  37.848  1.00  0.00    -0.203 F 
ATOM     79  C   UNL A   1      38.617  34.192  38.985  1.00  0.00     0.198 A 
ATOM     80  C   UNL A   1      40.098  35.793  37.985  1.00  0.00     0.198 A 
ATOM     81  F   UNL A   1      41.014  35.379  35.856  1.00  0.00    -0.203 F 
ATOM     82  F   UNL A   1      37.806  33.827  39.987  1.00  0.00    -0.200 F 
ATOM     83  C   UNL A   1      39.283  35.408  39.038  1.00  0.00     0.200 A 
ATOM     84  F   UNL A   1      40.754  36.961  38.039  1.00  0.00    -0.200 F 
ATOM     85  F   UNL A   1      39.132  36.210  40.102  1.00  0.00    -0.200 F 
ENDBRANCH  51  75
BRANCH  63  86
ATOM     86  C   UNL A   1      43.950  28.589  35.094  1.00  0.00     0.064 A 
ATOM     87  C   UNL A   1      45.244  29.101  34.921  1.00  0.00     0.173 A 
ATOM     88  C   UNL A   1      43.780  27.517  35.983  1.00  0.00     0.173 A 
ATOM     89  F   UNL A   1      45.461  30.115  34.070  1.00  0.00    -0.203 F 
ATOM     90  C   UNL A   1      46.328  28.545  35.595  1.00  0.00     0.198 A 
ATOM     91  C   UNL A   1      44.861  26.985  36.678  1.00  0.00     0.198 A 
ATOM     92  F   UNL A   1      42.561  26.996  36.188  1.00  0.00    -0.203 F 
ATOM     93  F   UNL A   1      47.563  29.019  35.379  1.00  0.00    -0.200 F 
ATOM     94  C   UNL A   1      46.135  27.493  36.477  1.00  0.00     0.200 A 
ATOM     95  F   UNL A   1      44.669  25.977  37.542  1.00  0.00    -0.200 F 
ATOM     96  F   UNL A   1      47.179  26.965  37.131  1.00  0.00    -0.200 F 
ENDBRANCH  63  86
ENDBRANCH  37  38
ENDBRANCH  29  32
ENDBRANCH  27  28
ENDBRANCH  26  27
ENDBRANCH  25  26
ENDBRANCH   1  25
TORSDOF 16
ENDMDL
MODEL 3
REMARK VINA RESULT:     -11.8      4.237     10.487
REMARK SMILES COc1ccccc1C[N@@H+](C)[C@@H](C)c1ccc(C(=O)NCCCCNC(=O)c2ccc(-c3c4nc(c(-c5c(F)c(F)c(F)c(F)c5F)c5ccc([nH]5)c(-c5c(F)c(F)c(F)c(F)c5F)c5nc(c(-c6c(F)c(F)c(F)c(F)c6F)c6ccc3[nH]6)C=C5)C=C4)cc2)o1
REMARK SMILES IDX 21 1 20 2 18 3 19 4 17 6 14 7 15 8 91 9 16 10 12 11 13 12
REMARK SMILES IDX 10 13 11 14 9 16 8 17 3 18 4 19 5 20 7 21 6 22 2 23 1 24
REMARK SMILES IDX 22 25 23 26 24 27 25 28 26 29 27 31 28 32 29 33 90 34 30 35
REMARK SMILES IDX 89 36 31 37 32 38 33 39 83 40 34 41 88 42 82 43 84 44 35 45
REMARK SMILES IDX 87 46 81 47 80 48 36 50 68 51 48 52 67 53 49 54 52 55 66 56
REMARK SMILES IDX 85 57 50 58 51 59 65 61 86 62 53 63 37 64 38 65 46 66 39 67
REMARK SMILES IDX 40 68 44 69 47 70 41 71 42 72 45 73 43 74 69 75 70 76 78 77
REMARK SMILES IDX 71 78 72 79 76 80 79 81 73 82 74 83 77 84 75 85 54 86 55 87
REMARK SMILES IDX 63 88 56 89 57 90 61 91 64 92 58 93 59 94 62 95 60 96
REMARK H PARENT 20 5 10 15 25 30 84 49 52 60
REMARK Flexibility Score: inf
ROOT
ATOM      1  C   UNL A   1      33.519  34.844  30.059  1.00  0.00     0.116 C 
ENDROOT
BRANCH   1   2
ATOM      2  N   UNL A   1      33.496  36.166  30.633  1.00  0.00    -0.349 N 
ATOM      3  C   UNL A   1      33.745  36.575  31.924  1.00  0.00     0.287 C 
ATOM      4  O   UNL A   1      33.289  37.686  32.210  1.00  0.00    -0.266 OA
ATOM      5  H   UNL A   1      33.268  36.888  30.005  1.00  0.00     0.163 HD
BRANCH   3   6
ATOM      6  C   UNL A   1      34.528  35.764  32.837  1.00  0.00     0.191 A 
ATOM      7  C   UNL A   1      36.225  34.391  33.232  1.00  0.00     0.161 A 
ATOM      8  C   UNL A   1      35.463  34.402  34.378  1.00  0.00     0.053 A 
ATOM      9  O   UNL A   1      35.702  35.265  32.332  1.00  0.00    -0.450 OA
ATOM     10  C   UNL A   1      34.401  35.312  34.140  1.00  0.00     0.057 A 
BRANCH   7  11
ATOM     11  C   UNL A   1      37.485  33.669  32.849  1.00  0.00     0.248 C 
ATOM     12  C   UNL A   1      38.256  34.437  31.765  1.00  0.00     0.084 C 
BRANCH  11  13
ATOM     13  N   UNL A   1      37.266  32.213  32.622  1.00  0.00    -0.325 N 
ATOM     14  C   UNL A   1      35.876  31.974  32.213  1.00  0.00     0.333 C 
ATOM     15  H   UNL A   1      37.930  31.958  31.891  1.00  0.00     0.348 HD
BRANCH  13  16
ATOM     16  C   UNL A   1      37.562  31.349  33.785  1.00  0.00     0.303 C 
BRANCH  16  17
ATOM     17  C   UNL A   1      38.683  30.351  33.618  1.00  0.00     0.048 A 
ATOM     18  C   UNL A   1      39.965  30.583  34.138  1.00  0.00     0.127 A 
ATOM     19  C   UNL A   1      40.981  29.635  33.990  1.00  0.00     0.047 A 
ATOM     20  C   UNL A   1      40.727  28.430  33.336  1.00  0.00     0.004 A 
ATOM     21  C   UNL A   1      38.443  29.129  32.964  1.00  0.00     0.013 A 
ATOM     22  C   UNL A   1      39.458  28.178  32.820  1.00  0.00     0.001 A 
BRANCH  18  23
ATOM     23  O   UNL A   1      40.300  31.807  34.656  1.00  0.00    -0.496 OA
ATOM     24  C   UNL A   1      40.498  31.751  36.063  1.00  0.00     0.278 C 
ENDBRANCH  18  23
ENDBRANCH  16  17
ENDBRANCH  13  16
ENDBRANCH  11  13
ENDBRANCH   7  11
ENDBRANCH   3   6
ENDBRANCH   1   2
BRANCH   1  25
ATOM     25  C   UNL A   1      33.876  34.963  28.578  1.00  0.00     0.023 C 
BRANCH  25  26
ATOM     26  C   UNL A   1      34.613  33.727  28.047  1.00  0.00     0.023 C 
BRANCH  26  27
ATOM     27  C   UNL A   1      34.510  32.502  28.950  1.00  0.00     0.116 C 
BRANCH  27  28
ATOM     28  N   UNL A   1      33.932  31.354  28.270  1.00  0.00    -0.352 N 
ATOM     29  C   UNL A   1      34.547  30.200  27.852  1.00  0.00     0.251 C 
ATOM     30  H   UNL A   1      32.967  31.411  28.085  1.00  0.00     0.163 HD
ATOM     31  O   UNL A   1      33.950  29.386  27.166  1.00  0.00    -0.269 OA
BRANCH  29  32
ATOM     32  C   UNL A   1      35.956  29.973  28.225  1.00  0.00     0.039 A 
ATOM     33  C   UNL A   1      36.237  29.386  29.461  1.00  0.00     0.014 A 
ATOM     34  C   UNL A   1      36.985  30.309  27.342  1.00  0.00     0.014 A 
ATOM     35  C   UNL A   1      37.557  29.083  29.787  1.00  0.00     0.010 A 
ATOM     36  C   UNL A   1      38.291  29.943  27.639  1.00  0.00     0.010 A 
ATOM     37  C   UNL A   1      38.588  29.330  28.866  1.00  0.00    -0.014 A 
BRANCH  37  38
ATOM     38  C   UNL A   1      39.990  28.955  29.170  1.00  0.00     0.031 A 
ATOM     39  C   UNL A   1      40.872  29.908  29.923  1.00  0.00     0.074 A 
ATOM     40  C   UNL A   1      40.480  27.790  28.708  1.00  0.00     0.049 A 
ATOM     41  N   UNL A   1      42.141  29.798  30.225  1.00  0.00    -0.248 NA
ATOM     42  C   UNL A   1      40.256  31.166  30.372  1.00  0.00     0.031 C 
ATOM     43  C   UNL A   1      39.730  26.808  27.922  1.00  0.00     0.029 A 
ATOM     44  N   UNL A   1      41.729  27.235  28.826  1.00  0.00    -0.354 N 
ATOM     45  C   UNL A   1      42.474  30.972  30.885  1.00  0.00     0.074 A 
ATOM     46  C   UNL A   1      41.293  31.807  30.891  1.00  0.00     0.031 C 
ATOM     47  C   UNL A   1      40.528  25.764  27.646  1.00  0.00     0.029 A 
ATOM     48  C   UNL A   1      41.852  26.018  28.204  1.00  0.00     0.049 A 
ATOM     49  H   UNL A   1      42.468  27.670  29.309  1.00  0.00     0.167 HD
ATOM     50  C   UNL A   1      43.653  31.313  31.457  1.00  0.00     0.037 A 
ATOM     51  C   UNL A   1      42.918  25.202  28.092  1.00  0.00     0.037 A 
ATOM     52  C   UNL A   1      44.817  30.466  31.471  1.00  0.00     0.049 A 
ATOM     53  C   UNL A   1      44.216  25.606  28.736  1.00  0.00     0.074 A 
ATOM     54  C   UNL A   1      46.041  30.692  32.073  1.00  0.00     0.029 A 
ATOM     55  N   UNL A   1      44.897  29.228  30.850  1.00  0.00    -0.354 N 
ATOM     56  N   UNL A   1      44.501  26.688  29.419  1.00  0.00    -0.248 NA
ATOM     57  C   UNL A   1      45.341  24.670  28.600  1.00  0.00     0.031 C 
ATOM     58  C   UNL A   1      46.878  29.610  31.780  1.00  0.00     0.029 A 
ATOM     59  C   UNL A   1      46.158  28.687  31.038  1.00  0.00     0.049 A 
ATOM     60  H   UNL A   1      44.167  28.798  30.350  1.00  0.00     0.167 HD
ATOM     61  C   UNL A   1      45.823  26.551  29.819  1.00  0.00     0.074 A 
ATOM     62  C   UNL A   1      46.281  25.273  29.315  1.00  0.00     0.031 C 
ATOM     63  C   UNL A   1      46.590  27.407  30.538  1.00  0.00     0.037 A 
BRANCH  50  64
ATOM     64  C   UNL A   1      43.740  32.655  32.123  1.00  0.00     0.064 A 
ATOM     65  C   UNL A   1      43.933  33.832  31.383  1.00  0.00     0.173 A 
ATOM     66  C   UNL A   1      43.591  32.772  33.513  1.00  0.00     0.173 A 
ATOM     67  F   UNL A   1      44.093  33.774  30.052  1.00  0.00    -0.203 F 
ATOM     68  C   UNL A   1      44.002  35.072  32.012  1.00  0.00     0.198 A 
ATOM     69  C   UNL A   1      43.630  34.017  34.136  1.00  0.00     0.198 A 
ATOM     70  F   UNL A   1      43.401  31.680  34.268  1.00  0.00    -0.203 F 
ATOM     71  F   UNL A   1      44.237  36.176  31.290  1.00  0.00    -0.200 F 
ATOM     72  C   UNL A   1      43.843  35.164  33.387  1.00  0.00     0.200 A 
ATOM     73  F   UNL A   1      43.464  34.107  35.463  1.00  0.00    -0.200 F 
ATOM     74  F   UNL A   1      43.901  36.359  33.990  1.00  0.00    -0.200 F 
ENDBRANCH  50  64
BRANCH  51  75
ATOM     75  C   UNL A   1      42.796  23.913  27.363  1.00  0.00     0.064 A 
ATOM     76  C   UNL A   1      42.316  22.766  28.010  1.00  0.00     0.173 A 
ATOM     77  C   UNL A   1      43.165  23.796  26.016  1.00  0.00     0.173 A 
ATOM     78  F   UNL A   1      41.969  22.822  29.304  1.00  0.00    -0.203 F 
ATOM     79  C   UNL A   1      42.233  21.545  27.344  1.00  0.00     0.198 A 
ATOM     80  C   UNL A   1      43.053  22.582  25.341  1.00  0.00     0.198 A 
ATOM     81  F   UNL A   1      43.625  24.865  25.350  1.00  0.00    -0.203 F 
ATOM     82  F   UNL A   1      41.818  20.453  28.000  1.00  0.00    -0.200 F 
ATOM     83  C   UNL A   1      42.597  21.455  26.008  1.00  0.00     0.200 A 
ATOM     84  F   UNL A   1      43.393  22.503  24.048  1.00  0.00    -0.200 F 
ATOM     85  F   UNL A   1      42.516  20.280  25.368  1.00  0.00    -0.200 F 
ENDBRANCH  51  75
BRANCH  63  86
ATOM     86  C   UNL A   1      47.991  26.972  30.857  1.00  0.00     0.064 A 
ATOM     87  C   UNL A   1      48.270  26.120  31.934  1.00  0.00     0.173 A 
ATOM     88  C   UNL A   1      49.062  27.382  30.047  1.00  0.00     0.173 A 
ATOM     89  F   UNL A   1      47.284  25.713  32.747  1.00  0.00    -0.203 F 
ATOM     90  C   UNL A   1      49.574  25.713  32.204  1.00  0.00     0.198 A 
ATOM     91  C   UNL A   1      50.359  26.948  30.301  1.00  0.00     0.198 A 
ATOM     92  F   UNL A   1      48.846  28.191  28.999  1.00  0.00    -0.203 F 
ATOM     93  F   UNL A   1      49.825  24.937  33.268  1.00  0.00    -0.200 F 
ATOM     94  C   UNL A   1      50.616  26.121  31.384  1.00  0.00     0.200 A 
ATOM     95  F   UNL A   1      51.361  27.332  29.499  1.00  0.00    -0.200 F 
ATOM     96  F   UNL A   1      51.869  25.722  31.641  1.00  0.00    -0.200 F 
ENDBRANCH  63  86
ENDBRANCH  37  38
ENDBRANCH  29  32
ENDBRANCH  27  28
ENDBRANCH  26  27
ENDBRANCH  25  26
ENDBRANCH   1  25
TORSDOF 16
ENDMDL
