MODEL 1
REMARK VINA RESULT:     -12.5      0.000      0.000
REMARK SMILES O=C(NCCCCNC(=O)[C@@H](NC(=O)c1cscn1)c1ccccc1C(F)(F)F)c1ccc(-c2c3nc(c(-c4c(F)c(F)c(F)c(F)c4F)c4ccc([nH]4)c(-c4c(F)c(F)c(F)c(F)c4F)c4nc(c(-c5c(F)c(F)c(F)c(F)c5F)c5ccc2[nH]5)C=C4)C=C3)cc1
REMARK SMILES IDX 5 1 4 2 3 3 1 4 2 5 30 7 31 8 92 9 32 10 91 11 33 12 34 13
REMARK SMILES IDX 35 14 85 15 36 16 90 17 84 18 86 19 37 20 89 21 83 22 82 23
REMARK SMILES IDX 38 25 70 26 50 27 69 28 51 29 54 30 68 31 87 32 52 33 53 34
REMARK SMILES IDX 67 36 88 37 55 38 39 39 40 40 48 41 41 42 42 43 46 44 49 45
REMARK SMILES IDX 43 46 44 47 47 48 45 49 71 50 72 51 80 52 73 53 74 54 78 55
REMARK SMILES IDX 81 56 75 57 76 58 79 59 77 60 56 61 57 62 65 63 58 64 59 65
REMARK SMILES IDX 63 66 66 67 60 68 61 69 64 70 62 71 6 72 7 73 8 74 9 75
REMARK SMILES IDX 10 77 11 78 12 79 13 80 14 82 15 83 16 84 19 85 17 86 18 87
REMARK SMILES IDX 20 88 21 89 25 90 22 91 24 92 23 93 26 94 27 95 28 96 29 97
REMARK H PARENT 3 6 86 24 54 35 8 76 12 81
REMARK Flexibility Score: inf
ROOT
ATOM      1  C   UNL A   1      37.972  19.884  24.956  1.00  0.00     0.023 C 
ENDROOT
BRANCH   1   2
ATOM      2  C   UNL A   1      39.107  20.227  25.908  1.00  0.00     0.116 C 
BRANCH   2   3
ATOM      3  N   UNL A   1      40.139  19.205  25.941  1.00  0.00    -0.352 N 
ATOM      4  O   UNL A   1      42.263  18.431  25.948  1.00  0.00    -0.269 OA
ATOM      5  C   UNL A   1      41.500  19.370  26.086  1.00  0.00     0.251 C 
ATOM      6  H   UNL A   1      39.826  18.277  25.848  1.00  0.00     0.163 HD
BRANCH   5   7
ATOM      7  C   UNL A   1      42.012  20.720  26.390  1.00  0.00     0.039 A 
ATOM      8  C   UNL A   1      42.218  21.106  27.716  1.00  0.00     0.014 A 
ATOM      9  C   UNL A   1      42.243  21.614  25.343  1.00  0.00     0.014 A 
ATOM     10  C   UNL A   1      42.521  22.428  28.005  1.00  0.00     0.010 A 
ATOM     11  C   UNL A   1      42.641  22.921  25.633  1.00  0.00     0.010 A 
ATOM     12  C   UNL A   1      42.759  23.343  26.966  1.00  0.00    -0.014 A 
BRANCH  12  13
ATOM     13  C   UNL A   1      43.206  24.715  27.306  1.00  0.00     0.031 A 
ATOM     14  C   UNL A   1      44.610  25.170  27.034  1.00  0.00     0.074 A 
ATOM     15  C   UNL A   1      42.307  25.559  27.848  1.00  0.00     0.049 A 
ATOM     16  N   UNL A   1      45.157  26.337  27.271  1.00  0.00    -0.248 NA
ATOM     17  C   UNL A   1      45.523  24.193  26.424  1.00  0.00     0.031 C 
ATOM     18  C   UNL A   1      40.917  25.217  28.160  1.00  0.00     0.029 A 
ATOM     19  N   UNL A   1      42.415  26.874  28.215  1.00  0.00    -0.354 N 
ATOM     20  C   UNL A   1      46.478  26.230  26.857  1.00  0.00     0.074 A 
ATOM     21  C   UNL A   1      46.660  24.876  26.378  1.00  0.00     0.031 C 
ATOM     22  C   UNL A   1      40.290  26.305  28.627  1.00  0.00     0.029 A 
ATOM     23  C   UNL A   1      41.249  27.398  28.715  1.00  0.00     0.049 A 
ATOM     24  H   UNL A   1      43.248  27.392  28.129  1.00  0.00     0.167 HD
ATOM     25  C   UNL A   1      47.443  27.181  26.873  1.00  0.00     0.037 A 
ATOM     26  C   UNL A   1      40.986  28.619  29.214  1.00  0.00     0.037 A 
ATOM     27  C   UNL A   1      47.245  28.529  27.345  1.00  0.00     0.049 A 
ATOM     28  C   UNL A   1      42.086  29.638  29.251  1.00  0.00     0.074 A 
ATOM     29  C   UNL A   1      48.150  29.575  27.373  1.00  0.00     0.029 A 
ATOM     30  N   UNL A   1      46.059  29.015  27.877  1.00  0.00    -0.354 N 
ATOM     31  N   UNL A   1      43.322  29.535  28.830  1.00  0.00    -0.248 NA
ATOM     32  C   UNL A   1      41.755  30.942  29.839  1.00  0.00     0.031 C 
ATOM     33  C   UNL A   1      47.528  30.679  27.969  1.00  0.00     0.029 A 
ATOM     34  C   UNL A   1      46.218  30.338  28.261  1.00  0.00     0.049 A 
ATOM     35  H   UNL A   1      45.226  28.497  27.968  1.00  0.00     0.167 HD
ATOM     36  C   UNL A   1      43.914  30.764  29.081  1.00  0.00     0.074 A 
ATOM     37  C   UNL A   1      42.892  31.604  29.673  1.00  0.00     0.031 C 
ATOM     38  C   UNL A   1      45.189  31.160  28.848  1.00  0.00     0.037 A 
BRANCH  25  39
ATOM     39  C   UNL A   1      48.811  26.799  26.385  1.00  0.00     0.064 A 
ATOM     40  C   UNL A   1      49.198  26.984  25.048  1.00  0.00     0.173 A 
ATOM     41  C   UNL A   1      49.768  26.292  27.278  1.00  0.00     0.173 A 
ATOM     42  F   UNL A   1      48.320  27.455  24.150  1.00  0.00    -0.203 F 
ATOM     43  C   UNL A   1      50.483  26.655  24.621  1.00  0.00     0.198 A 
ATOM     44  C   UNL A   1      51.061  25.993  26.854  1.00  0.00     0.198 A 
ATOM     45  F   UNL A   1      49.455  26.104  28.568  1.00  0.00    -0.203 F 
ATOM     46  F   UNL A   1      50.817  26.802  23.331  1.00  0.00    -0.200 F 
ATOM     47  C   UNL A   1      51.415  26.168  25.525  1.00  0.00     0.200 A 
ATOM     48  F   UNL A   1      51.964  25.536  27.732  1.00  0.00    -0.200 F 
ATOM     49  F   UNL A   1      52.654  25.863  25.115  1.00  0.00    -0.200 F 
ENDBRANCH  25  39
BRANCH  26  50
ATOM     50  C   UNL A   1      39.624  28.930  29.721  1.00  0.00     0.064 A 
ATOM     51  C   UNL A   1      39.272  28.665  31.050  1.00  0.00     0.173 A 
ATOM     52  C   UNL A   1      38.656  29.514  28.891  1.00  0.00     0.173 A 
ATOM     53  F   UNL A   1      40.160  28.093  31.877  1.00  0.00    -0.203 F 
ATOM     54  C   UNL A   1      37.996  28.957  31.526  1.00  0.00     0.198 A 
ATOM     55  C   UNL A   1      37.392  29.836  29.377  1.00  0.00     0.198 A 
ATOM     56  F   UNL A   1      38.947  29.796  27.613  1.00  0.00    -0.203 F 
ATOM     57  F   UNL A   1      37.671  28.654  32.790  1.00  0.00    -0.200 F 
ATOM     58  C   UNL A   1      37.059  29.549  30.692  1.00  0.00     0.200 A 
ATOM     59  F   UNL A   1      36.497  30.426  28.573  1.00  0.00    -0.200 F 
ATOM     60  F   UNL A   1      35.836  29.838  31.154  1.00  0.00    -0.200 F 
ENDBRANCH  26  50
BRANCH  38  61
ATOM     61  C   UNL A   1      45.537  32.575  29.204  1.00  0.00     0.064 A 
ATOM     62  C   UNL A   1      45.344  33.631  28.300  1.00  0.00     0.173 A 
ATOM     63  C   UNL A   1      46.051  32.881  30.473  1.00  0.00     0.173 A 
ATOM     64  F   UNL A   1      44.874  33.387  27.067  1.00  0.00    -0.203 F 
ATOM     65  C   UNL A   1      45.681  34.936  28.644  1.00  0.00     0.198 A 
ATOM     66  C   UNL A   1      46.356  34.193  30.824  1.00  0.00     0.198 A 
ATOM     67  F   UNL A   1      46.251  31.909  31.375  1.00  0.00    -0.203 F 
ATOM     68  F   UNL A   1      45.540  35.922  27.746  1.00  0.00    -0.200 F 
ATOM     69  C   UNL A   1      46.179  35.218  29.907  1.00  0.00     0.200 A 
ATOM     70  F   UNL A   1      46.825  34.465  32.050  1.00  0.00    -0.200 F 
ATOM     71  F   UNL A   1      46.498  36.477  30.238  1.00  0.00    -0.200 F 
ENDBRANCH  38  61
ENDBRANCH  12  13
ENDBRANCH   5   7
ENDBRANCH   2   3
ENDBRANCH   1   2
BRANCH   1  72
ATOM     72  C   UNL A   1      37.178  21.093  24.469  1.00  0.00     0.023 C 
BRANCH  72  73
ATOM     73  C   UNL A   1      36.653  21.992  25.590  1.00  0.00     0.116 C 
BRANCH  73  74
ATOM     74  N   UNL A   1      35.604  21.314  26.320  1.00  0.00    -0.354 N 
ATOM     75  C   UNL A   1      34.256  21.478  26.205  1.00  0.00     0.247 C 
ATOM     76  H   UNL A   1      35.902  20.650  26.983  1.00  0.00     0.163 HD
ATOM     77  O   UNL A   1      33.566  21.187  27.186  1.00  0.00    -0.272 OA
BRANCH  75  78
ATOM     78  C   UNL A   1      33.615  22.076  24.916  1.00  0.00     0.203 C 
BRANCH  78  79
ATOM     79  N   UNL A   1      32.448  21.234  24.524  1.00  0.00    -0.335 N 
ATOM     80  C   UNL A   1      32.387  20.169  23.654  1.00  0.00     0.271 C 
ATOM     81  H   UNL A   1      31.595  21.476  24.952  1.00  0.00     0.165 HD
ATOM     82  O   UNL A   1      32.000  20.343  22.502  1.00  0.00    -0.267 OA
BRANCH  80  83
ATOM     83  C   UNL A   1      32.669  18.826  24.167  1.00  0.00     0.139 A 
ATOM     84  C   UNL A   1      33.250  17.819  23.412  1.00  0.00     0.100 A 
ATOM     85  N   UNL A   1      32.374  18.453  25.483  1.00  0.00    -0.240 NA
ATOM     86  S   UNL A   1      33.546  16.436  24.384  1.00  0.00    -0.130 S 
ATOM     87  C   UNL A   1      32.802  17.229  25.709  1.00  0.00     0.176 A 
ENDBRANCH  80  83
ENDBRANCH  78  79
BRANCH  78  88
ATOM     88  C   UNL A   1      33.621  23.616  24.890  1.00  0.00    -0.004 A 
ATOM     89  C   UNL A   1      33.769  24.368  26.057  1.00  0.00     0.007 A 
ATOM     90  C   UNL A   1      33.448  24.372  23.696  1.00  0.00     0.061 A 
ATOM     91  C   UNL A   1      33.930  25.755  26.078  1.00  0.00     0.000 A 
ATOM     92  C   UNL A   1      33.630  25.780  23.718  1.00  0.00     0.013 A 
ATOM     93  C   UNL A   1      33.894  26.464  24.896  1.00  0.00     0.001 A 
BRANCH  90  94
ATOM     94  C   UNL A   1      33.033  23.802  22.351  1.00  0.00     0.416 C 
ATOM     95  F   UNL A   1      33.020  24.759  21.376  1.00  0.00    -0.166 F 
ATOM     96  F   UNL A   1      33.891  22.841  21.912  1.00  0.00    -0.166 F 
ATOM     97  F   UNL A   1      31.791  23.260  22.327  1.00  0.00    -0.166 F 
ENDBRANCH  90  94
ENDBRANCH  78  88
ENDBRANCH  75  78
ENDBRANCH  73  74
ENDBRANCH  72  73
ENDBRANCH   1  72
TORSDOF 15
ENDMDL
MODEL 2
REMARK VINA RESULT:     -12.5      5.516     10.599
REMARK SMILES O=C(NCCCCNC(=O)[C@@H](NC(=O)c1cscn1)c1ccccc1C(F)(F)F)c1ccc(-c2c3nc(c(-c4c(F)c(F)c(F)c(F)c4F)c4ccc([nH]4)c(-c4c(F)c(F)c(F)c(F)c4F)c4nc(c(-c5c(F)c(F)c(F)c(F)c5F)c5ccc2[nH]5)C=C4)C=C3)cc1
REMARK SMILES IDX 5 1 4 2 3 3 1 4 2 5 30 7 31 8 92 9 32 10 91 11 33 12 34 13
REMARK SMILES IDX 35 14 85 15 36 16 90 17 84 18 86 19 37 20 89 21 83 22 82 23
REMARK SMILES IDX 38 25 70 26 50 27 69 28 51 29 54 30 68 31 87 32 52 33 53 34
REMARK SMILES IDX 67 36 88 37 55 38 39 39 40 40 48 41 41 42 42 43 46 44 49 45
REMARK SMILES IDX 43 46 44 47 47 48 45 49 71 50 72 51 80 52 73 53 74 54 78 55
REMARK SMILES IDX 81 56 75 57 76 58 79 59 77 60 56 61 57 62 65 63 58 64 59 65
REMARK SMILES IDX 63 66 66 67 60 68 61 69 64 70 62 71 6 72 7 73 8 74 9 75
REMARK SMILES IDX 10 77 11 78 12 79 13 80 14 82 15 83 16 84 19 85 17 86 18 87
REMARK SMILES IDX 20 88 21 89 25 90 22 91 24 92 23 93 26 94 27 95 28 96 29 97
REMARK H PARENT 3 6 86 24 54 35 8 76 12 81
REMARK Flexibility Score: inf
ROOT
ATOM      1  C   UNL A   1      31.388  32.270  26.548  1.00  0.00     0.023 C 
ENDROOT
BRANCH   1   2
ATOM      2  C   UNL A   1      32.578  32.864  27.284  1.00  0.00     0.116 C 
BRANCH   2   3
ATOM      3  N   UNL A   1      32.367  34.251  27.662  1.00  0.00    -0.352 N 
ATOM      4  O   UNL A   1      32.631  36.093  28.946  1.00  0.00    -0.269 OA
ATOM      5  C   UNL A   1      33.013  34.978  28.638  1.00  0.00     0.251 C 
ATOM      6  H   UNL A   1      31.674  34.733  27.155  1.00  0.00     0.163 HD
BRANCH   5   7
ATOM      7  C   UNL A   1      34.167  34.362  29.320  1.00  0.00     0.039 A 
ATOM      8  C   UNL A   1      35.459  34.568  28.831  1.00  0.00     0.014 A 
ATOM      9  C   UNL A   1      33.947  33.539  30.426  1.00  0.00     0.014 A 
ATOM     10  C   UNL A   1      36.516  33.843  29.360  1.00  0.00     0.010 A 
ATOM     11  C   UNL A   1      35.028  32.881  31.018  1.00  0.00     0.010 A 
ATOM     12  C   UNL A   1      36.315  33.010  30.474  1.00  0.00    -0.014 A 
BRANCH  12  13
ATOM     13  C   UNL A   1      37.487  32.348  31.096  1.00  0.00     0.031 A 
ATOM     14  C   UNL A   1      37.957  32.720  32.471  1.00  0.00     0.074 A 
ATOM     15  C   UNL A   1      38.110  31.378  30.399  1.00  0.00     0.049 A 
ATOM     16  N   UNL A   1      38.964  32.236  33.155  1.00  0.00    -0.248 NA
ATOM     17  C   UNL A   1      37.210  33.777  33.170  1.00  0.00     0.031 C 
ATOM     18  C   UNL A   1      37.738  30.942  29.051  1.00  0.00     0.029 A 
ATOM     19  N   UNL A   1      39.169  30.574  30.728  1.00  0.00    -0.354 N 
ATOM     20  C   UNL A   1      38.982  32.936  34.354  1.00  0.00     0.074 A 
ATOM     21  C   UNL A   1      37.902  33.899  34.296  1.00  0.00     0.031 C 
ATOM     22  C   UNL A   1      38.525  29.920  28.686  1.00  0.00     0.029 A 
ATOM     23  C   UNL A   1      39.499  29.678  29.742  1.00  0.00     0.049 A 
ATOM     24  H   UNL A   1      39.647  30.633  31.587  1.00  0.00     0.167 HD
ATOM     25  C   UNL A   1      39.823  32.780  35.406  1.00  0.00     0.037 A 
ATOM     26  C   UNL A   1      40.494  28.774  29.683  1.00  0.00     0.037 A 
ATOM     27  C   UNL A   1      40.888  31.810  35.455  1.00  0.00     0.049 A 
ATOM     28  C   UNL A   1      41.430  28.651  30.849  1.00  0.00     0.074 A 
ATOM     29  C   UNL A   1      41.774  31.552  36.486  1.00  0.00     0.029 A 
ATOM     30  N   UNL A   1      41.215  30.941  34.423  1.00  0.00    -0.354 N 
ATOM     31  N   UNL A   1      41.419  29.298  31.989  1.00  0.00    -0.248 NA
ATOM     32  C   UNL A   1      42.520  27.677  30.719  1.00  0.00     0.031 C 
ATOM     33  C   UNL A   1      42.669  30.564  36.060  1.00  0.00     0.029 A 
ATOM     34  C   UNL A   1      42.307  30.165  34.784  1.00  0.00     0.049 A 
ATOM     35  H   UNL A   1      40.742  30.884  33.561  1.00  0.00     0.167 HD
ATOM     36  C   UNL A   1      42.486  28.797  32.721  1.00  0.00     0.074 A 
ATOM     37  C   UNL A   1      43.109  27.776  31.902  1.00  0.00     0.031 C 
ATOM     38  C   UNL A   1      42.913  29.153  33.957  1.00  0.00     0.037 A 
BRANCH  25  39
ATOM     39  C   UNL A   1      39.642  33.690  36.588  1.00  0.00     0.064 A 
ATOM     40  C   UNL A   1      40.228  34.964  36.636  1.00  0.00     0.173 A 
ATOM     41  C   UNL A   1      38.826  33.305  37.663  1.00  0.00     0.173 A 
ATOM     42  F   UNL A   1      41.026  35.378  35.640  1.00  0.00    -0.203 F 
ATOM     43  C   UNL A   1      40.022  35.808  37.725  1.00  0.00     0.198 A 
ATOM     44  C   UNL A   1      38.597  34.163  38.736  1.00  0.00     0.198 A 
ATOM     45  F   UNL A   1      38.234  32.101  37.664  1.00  0.00    -0.203 F 
ATOM     46  F   UNL A   1      40.625  37.004  37.768  1.00  0.00    -0.200 F 
ATOM     47  C   UNL A   1      39.201  35.410  38.770  1.00  0.00     0.200 A 
ATOM     48  F   UNL A   1      37.792  33.782  39.737  1.00  0.00    -0.200 F 
ATOM     49  F   UNL A   1      38.994  36.228  39.811  1.00  0.00    -0.200 F 
ENDBRANCH  25  39
BRANCH  26  50
ATOM     50  C   UNL A   1      40.650  27.928  28.472  1.00  0.00     0.064 A 
ATOM     51  C   UNL A   1      40.037  26.672  28.387  1.00  0.00     0.173 A 
ATOM     52  C   UNL A   1      41.401  28.366  27.372  1.00  0.00     0.173 A 
ATOM     53  F   UNL A   1      39.321  26.204  29.420  1.00  0.00    -0.203 F 
ATOM     54  C   UNL A   1      40.182  25.878  27.251  1.00  0.00     0.198 A 
ATOM     55  C   UNL A   1      41.519  27.585  26.225  1.00  0.00     0.198 A 
ATOM     56  F   UNL A   1      42.001  29.565  27.401  1.00  0.00    -0.203 F 
ATOM     57  F   UNL A   1      39.620  24.663  27.212  1.00  0.00    -0.200 F 
ATOM     58  C   UNL A   1      40.916  26.338  26.169  1.00  0.00     0.200 A 
ATOM     59  F   UNL A   1      42.213  28.043  25.174  1.00  0.00    -0.200 F 
ATOM     60  F   UNL A   1      41.048  25.578  25.073  1.00  0.00    -0.200 F 
ENDBRANCH  26  50
BRANCH  38  61
ATOM     61  C   UNL A   1      44.092  28.407  34.509  1.00  0.00     0.064 A 
ATOM     62  C   UNL A   1      45.405  28.875  34.341  1.00  0.00     0.173 A 
ATOM     63  C   UNL A   1      43.904  27.221  35.234  1.00  0.00     0.173 A 
ATOM     64  F   UNL A   1      45.638  29.994  33.638  1.00  0.00    -0.203 F 
ATOM     65  C   UNL A   1      46.487  28.165  34.853  1.00  0.00     0.198 A 
ATOM     66  C   UNL A   1      44.987  26.532  35.772  1.00  0.00     0.198 A 
ATOM     67  F   UNL A   1      42.670  26.734  35.427  1.00  0.00    -0.203 F 
ATOM     68  F   UNL A   1      47.736  28.601  34.633  1.00  0.00    -0.200 F 
ATOM     69  C   UNL A   1      46.278  27.000  35.574  1.00  0.00     0.200 A 
ATOM     70  F   UNL A   1      44.782  25.413  36.480  1.00  0.00    -0.200 F 
ATOM     71  F   UNL A   1      47.321  26.320  36.070  1.00  0.00    -0.200 F 
ENDBRANCH  38  61
ENDBRANCH  12  13
ENDBRANCH   5   7
ENDBRANCH   2   3
ENDBRANCH   1   2
BRANCH   1  72
ATOM     72  C   UNL A   1      31.676  30.933  25.870  1.00  0.00     0.023 C 
BRANCH  72  73
ATOM     73  C   UNL A   1      32.819  30.140  26.507  1.00  0.00     0.116 C 
BRANCH  73  74
ATOM     74  N   UNL A   1      32.294  29.210  27.482  1.00  0.00    -0.354 N 
ATOM     75  C   UNL A   1      31.886  27.923  27.285  1.00  0.00     0.247 C 
ATOM     76  H   UNL A   1      32.220  29.548  28.403  1.00  0.00     0.163 HD
ATOM     77  O   UNL A   1      31.064  27.464  28.082  1.00  0.00    -0.272 OA
BRANCH  75  78
ATOM     78  C   UNL A   1      32.382  27.089  26.065  1.00  0.00     0.203 C 
BRANCH  78  79
ATOM     79  N   UNL A   1      32.774  25.731  26.538  1.00  0.00    -0.335 N 
ATOM     80  C   UNL A   1      32.135  24.523  26.366  1.00  0.00     0.271 C 
ATOM     81  H   UNL A   1      33.614  25.692  27.049  1.00  0.00     0.165 HD
ATOM     82  O   UNL A   1      31.426  24.074  27.262  1.00  0.00    -0.267 OA
BRANCH  80  83
ATOM     83  C   UNL A   1      32.422  23.743  25.159  1.00  0.00     0.139 A 
ATOM     84  C   UNL A   1      31.448  23.119  24.396  1.00  0.00     0.100 A 
ATOM     85  N   UNL A   1      33.723  23.572  24.673  1.00  0.00    -0.240 NA
ATOM     86  S   UNL A   1      32.144  22.418  22.993  1.00  0.00    -0.130 S 
ATOM     87  C   UNL A   1      33.693  22.907  23.538  1.00  0.00     0.176 A 
ENDBRANCH  80  83
ENDBRANCH  78  79
BRANCH  78  88
ATOM     88  C   UNL A   1      31.585  27.362  24.776  1.00  0.00    -0.004 A 
ATOM     89  C   UNL A   1      30.198  27.206  24.725  1.00  0.00     0.007 A 
ATOM     90  C   UNL A   1      32.199  27.758  23.554  1.00  0.00     0.061 A 
ATOM     91  C   UNL A   1      29.410  27.579  23.634  1.00  0.00     0.000 A 
ATOM     92  C   UNL A   1      31.393  28.153  22.453  1.00  0.00     0.013 A 
ATOM     93  C   UNL A   1      30.008  28.089  22.501  1.00  0.00     0.001 A 
BRANCH  90  94
ATOM     94  C   UNL A   1      33.694  27.764  23.286  1.00  0.00     0.416 C 
ATOM     95  F   UNL A   1      34.255  26.539  23.511  1.00  0.00    -0.166 F 
ATOM     96  F   UNL A   1      33.984  28.070  21.992  1.00  0.00    -0.166 F 
ATOM     97  F   UNL A   1      34.402  28.622  24.060  1.00  0.00    -0.166 F 
ENDBRANCH  90  94
ENDBRANCH  78  88
ENDBRANCH  75  78
ENDBRANCH  73  74
ENDBRANCH  72  73
ENDBRANCH   1  72
TORSDOF 15
ENDMDL
MODEL 3
REMARK VINA RESULT:     -12.4      5.493     10.619
REMARK SMILES O=C(NCCCCNC(=O)[C@@H](NC(=O)c1cscn1)c1ccccc1C(F)(F)F)c1ccc(-c2c3nc(c(-c4c(F)c(F)c(F)c(F)c4F)c4ccc([nH]4)c(-c4c(F)c(F)c(F)c(F)c4F)c4nc(c(-c5c(F)c(F)c(F)c(F)c5F)c5ccc2[nH]5)C=C4)C=C3)cc1
REMARK SMILES IDX 5 1 4 2 3 3 1 4 2 5 30 7 31 8 92 9 32 10 91 11 33 12 34 13
REMARK SMILES IDX 35 14 85 15 36 16 90 17 84 18 86 19 37 20 89 21 83 22 82 23
REMARK SMILES IDX 38 25 70 26 50 27 69 28 51 29 54 30 68 31 87 32 52 33 53 34
REMARK SMILES IDX 67 36 88 37 55 38 39 39 40 40 48 41 41 42 42 43 46 44 49 45
REMARK SMILES IDX 43 46 44 47 47 48 45 49 71 50 72 51 80 52 73 53 74 54 78 55
REMARK SMILES IDX 81 56 75 57 76 58 79 59 77 60 56 61 57 62 65 63 58 64 59 65
REMARK SMILES IDX 63 66 66 67 60 68 61 69 64 70 62 71 6 72 7 73 8 74 9 75
REMARK SMILES IDX 10 77 11 78 12 79 13 80 14 82 15 83 16 84 19 85 17 86 18 87
REMARK SMILES IDX 20 88 21 89 25 90 22 91 24 92 23 93 26 94 27 95 28 96 29 97
REMARK H PARENT 3 6 86 24 54 35 8 76 12 81
REMARK Flexibility Score: inf
ROOT
ATOM      1  C   UNL A   1      31.381  32.261  26.544  1.00  0.00     0.023 C 
ENDROOT
BRANCH   1   2
ATOM      2  C   UNL A   1      32.568  32.848  27.289  1.00  0.00     0.116 C 
BRANCH   2   3
ATOM      3  N   UNL A   1      32.362  34.236  27.665  1.00  0.00    -0.352 N 
ATOM      4  O   UNL A   1      32.637  36.080  28.945  1.00  0.00    -0.269 OA
ATOM      5  C   UNL A   1      33.016  34.964  28.636  1.00  0.00     0.251 C 
ATOM      6  H   UNL A   1      31.667  34.719  27.162  1.00  0.00     0.163 HD
BRANCH   5   7
ATOM      7  C   UNL A   1      34.173  34.347  29.312  1.00  0.00     0.039 A 
ATOM      8  C   UNL A   1      35.466  34.591  28.845  1.00  0.00     0.014 A 
ATOM      9  C   UNL A   1      33.955  33.487  30.390  1.00  0.00     0.014 A 
ATOM     10  C   UNL A   1      36.529  33.867  29.363  1.00  0.00     0.010 A 
ATOM     11  C   UNL A   1      35.041  32.830  30.974  1.00  0.00     0.010 A 
ATOM     12  C   UNL A   1      36.332  32.997  30.448  1.00  0.00    -0.014 A 
BRANCH  12  13
ATOM     13  C   UNL A   1      37.508  32.336  31.063  1.00  0.00     0.031 A 
ATOM     14  C   UNL A   1      37.984  32.707  32.437  1.00  0.00     0.074 A 
ATOM     15  C   UNL A   1      38.130  31.370  30.361  1.00  0.00     0.049 A 
ATOM     16  N   UNL A   1      38.996  32.224  33.115  1.00  0.00    -0.248 NA
ATOM     17  C   UNL A   1      37.238  33.760  33.141  1.00  0.00     0.031 C 
ATOM     18  C   UNL A   1      37.752  30.935  29.014  1.00  0.00     0.029 A 
ATOM     19  N   UNL A   1      39.192  30.567  30.683  1.00  0.00    -0.354 N 
ATOM     20  C   UNL A   1      39.019  32.921  34.315  1.00  0.00     0.074 A 
ATOM     21  C   UNL A   1      37.936  33.882  34.264  1.00  0.00     0.031 C 
ATOM     22  C   UNL A   1      38.539  29.916  28.643  1.00  0.00     0.029 A 
ATOM     23  C   UNL A   1      39.519  29.673  29.694  1.00  0.00     0.049 A 
ATOM     24  H   UNL A   1      39.674  30.626  31.540  1.00  0.00     0.167 HD
ATOM     25  C   UNL A   1      39.864  32.765  35.362  1.00  0.00     0.037 A 
ATOM     26  C   UNL A   1      40.516  28.773  29.628  1.00  0.00     0.037 A 
ATOM     27  C   UNL A   1      40.933  31.797  35.403  1.00  0.00     0.049 A 
ATOM     28  C   UNL A   1      41.458  28.649  30.789  1.00  0.00     0.074 A 
ATOM     29  C   UNL A   1      41.824  31.539  36.430  1.00  0.00     0.029 A 
ATOM     30  N   UNL A   1      41.256  30.931  34.368  1.00  0.00    -0.354 N 
ATOM     31  N   UNL A   1      41.452  29.294  31.930  1.00  0.00    -0.248 NA
ATOM     32  C   UNL A   1      42.549  27.678  30.650  1.00  0.00     0.031 C 
ATOM     33  C   UNL A   1      42.719  30.554  35.997  1.00  0.00     0.029 A 
ATOM     34  C   UNL A   1      42.351  30.157  34.722  1.00  0.00     0.049 A 
ATOM     35  H   UNL A   1      40.779  30.875  33.509  1.00  0.00     0.167 HD
ATOM     36  C   UNL A   1      42.523  28.793  32.655  1.00  0.00     0.074 A 
ATOM     37  C   UNL A   1      43.144  27.776  31.831  1.00  0.00     0.031 C 
ATOM     38  C   UNL A   1      42.956  29.148  33.890  1.00  0.00     0.037 A 
BRANCH  25  39
ATOM     39  C   UNL A   1      39.688  33.672  36.547  1.00  0.00     0.064 A 
ATOM     40  C   UNL A   1      40.287  34.940  36.603  1.00  0.00     0.173 A 
ATOM     41  C   UNL A   1      38.862  33.291  37.616  1.00  0.00     0.173 A 
ATOM     42  F   UNL A   1      41.094  35.350  35.612  1.00  0.00    -0.203 F 
ATOM     43  C   UNL A   1      40.085  35.781  37.694  1.00  0.00     0.198 A 
ATOM     44  C   UNL A   1      38.638  34.147  38.692  1.00  0.00     0.198 A 
ATOM     45  F   UNL A   1      38.258  32.094  37.610  1.00  0.00    -0.203 F 
ATOM     46  F   UNL A   1      40.700  36.971  37.744  1.00  0.00    -0.200 F 
ATOM     47  C   UNL A   1      39.254  35.388  38.733  1.00  0.00     0.200 A 
ATOM     48  F   UNL A   1      37.824  33.771  39.687  1.00  0.00    -0.200 F 
ATOM     49  F   UNL A   1      39.051  36.204  39.777  1.00  0.00    -0.200 F 
ENDBRANCH  25  39
BRANCH  26  50
ATOM     50  C   UNL A   1      40.668  27.929  28.414  1.00  0.00     0.064 A 
ATOM     51  C   UNL A   1      41.428  28.367  27.323  1.00  0.00     0.173 A 
ATOM     52  C   UNL A   1      40.071  26.663  28.330  1.00  0.00     0.173 A 
ATOM     53  F   UNL A   1      42.006  29.578  27.351  1.00  0.00    -0.203 F 
ATOM     54  C   UNL A   1      41.572  27.577  26.185  1.00  0.00     0.198 A 
ATOM     55  C   UNL A   1      40.243  25.861  27.205  1.00  0.00     0.198 A 
ATOM     56  F   UNL A   1      39.341  26.194  29.352  1.00  0.00    -0.203 F 
ATOM     57  F   UNL A   1      42.269  28.038  25.137  1.00  0.00    -0.200 F 
ATOM     58  C   UNL A   1      40.986  26.322  26.129  1.00  0.00     0.200 A 
ATOM     59  F   UNL A   1      39.691  24.640  27.165  1.00  0.00    -0.200 F 
ATOM     60  F   UNL A   1      41.133  25.559  25.038  1.00  0.00    -0.200 F 
ENDBRANCH  26  50
BRANCH  38  61
ATOM     61  C   UNL A   1      44.139  28.404  34.434  1.00  0.00     0.064 A 
ATOM     62  C   UNL A   1      43.991  27.200  35.141  1.00  0.00     0.173 A 
ATOM     63  C   UNL A   1      45.439  28.890  34.229  1.00  0.00     0.173 A 
ATOM     64  F   UNL A   1      42.768  26.704  35.380  1.00  0.00    -0.203 F 
ATOM     65  C   UNL A   1      45.100  26.528  35.646  1.00  0.00     0.198 A 
ATOM     66  C   UNL A   1      46.547  28.197  34.708  1.00  0.00     0.198 A 
ATOM     67  F   UNL A   1      45.636  30.034  33.556  1.00  0.00    -0.203 F 
ATOM     68  F   UNL A   1      44.931  25.408  36.365  1.00  0.00    -0.200 F 
ATOM     69  C   UNL A   1      46.376  27.021  35.423  1.00  0.00     0.200 A 
ATOM     70  F   UNL A   1      47.780  28.669  34.481  1.00  0.00    -0.200 F 
ATOM     71  F   UNL A   1      47.443  26.369  35.907  1.00  0.00    -0.200 F 
ENDBRANCH  38  61
ENDBRANCH  12  13
ENDBRANCH   5   7
ENDBRANCH   2   3
ENDBRANCH   1   2
BRANCH   1  72
ATOM     72  C   UNL A   1      31.671  30.930  25.854  1.00  0.00     0.023 C 
BRANCH  72  73
ATOM     73  C   UNL A   1      32.819  30.137  26.481  1.00  0.00     0.116 C 
BRANCH  73  74
ATOM     74  N   UNL A   1      32.303  29.211  27.465  1.00  0.00    -0.354 N 
ATOM     75  C   UNL A   1      31.897  27.923  27.279  1.00  0.00     0.247 C 
ATOM     76  H   UNL A   1      32.236  29.555  28.385  1.00  0.00     0.163 HD
ATOM     77  O   UNL A   1      31.082  27.466  28.085  1.00  0.00    -0.272 OA
BRANCH  75  78
ATOM     78  C   UNL A   1      32.385  27.082  26.061  1.00  0.00     0.203 C 
BRANCH  78  79
ATOM     79  N   UNL A   1      32.766  25.722  26.537  1.00  0.00    -0.335 N 
ATOM     80  C   UNL A   1      32.122  24.517  26.359  1.00  0.00     0.271 C 
ATOM     81  H   UNL A   1      33.602  25.678  27.055  1.00  0.00     0.165 HD
ATOM     82  O   UNL A   1      31.403  24.072  27.249  1.00  0.00    -0.267 OA
BRANCH  80  83
ATOM     83  C   UNL A   1      32.414  23.736  25.154  1.00  0.00     0.139 A 
ATOM     84  C   UNL A   1      31.456  23.034  24.441  1.00  0.00     0.100 A 
ATOM     85  N   UNL A   1      33.703  23.644  24.619  1.00  0.00    -0.240 NA
ATOM     86  S   UNL A   1      32.143  22.356  23.022  1.00  0.00    -0.130 S 
ATOM     87  C   UNL A   1      33.675  22.958  23.496  1.00  0.00     0.176 A 
ENDBRANCH  80  83
ENDBRANCH  78  79
BRANCH  78  88
ATOM     88  C   UNL A   1      31.590  27.360  24.772  1.00  0.00    -0.004 A 
ATOM     89  C   UNL A   1      30.204  27.199  24.716  1.00  0.00     0.007 A 
ATOM     90  C   UNL A   1      32.206  27.765  23.553  1.00  0.00     0.061 A 
ATOM     91  C   UNL A   1      29.417  27.575  23.625  1.00  0.00     0.000 A 
ATOM     92  C   UNL A   1      31.401  28.163  22.452  1.00  0.00     0.013 A 
ATOM     93  C   UNL A   1      30.016  28.093  22.497  1.00  0.00     0.001 A 
BRANCH  90  94
ATOM     94  C   UNL A   1      33.701  27.777  23.289  1.00  0.00     0.416 C 
ATOM     95  F   UNL A   1      34.258  26.542  23.460  1.00  0.00    -0.166 F 
ATOM     96  F   UNL A   1      33.996  28.140  22.010  1.00  0.00    -0.166 F 
ATOM     97  F   UNL A   1      34.410  28.598  24.102  1.00  0.00    -0.166 F 
ENDBRANCH  90  94
ENDBRANCH  78  88
ENDBRANCH  75  78
ENDBRANCH  73  74
ENDBRANCH  72  73
ENDBRANCH   1  72
TORSDOF 15
ENDMDL
