MODEL 1
REMARK VINA RESULT:     -12.0      0.000      0.000
REMARK SMILES CCC[C@H](Nc1cc(C)c(N)c(C(=O)NCCCCNC(=O)c2ccc(-c3c4nc(c(-c5c(F)c(F)c(F)c(F)c5F)c5ccc([nH]5)c(-c5c(F)c(F)c(F)c(F)c5F)c5nc(c(-c6c(F)c(F)c(F)c(F)c6F)c6ccc3[nH]6)C=C5)C=C4)cc2)c1)c1cccs1
REMARK SMILES IDX 16 1 15 2 13 3 14 4 12 6 6 7 7 8 86 9 8 10 9 11 10 12 5 13
REMARK SMILES IDX 4 15 3 16 2 17 1 18 87 19 88 20 91 21 89 22 90 23 11 24
REMARK SMILES IDX 17 27 18 28 19 29 20 30 21 31 22 33 23 34 24 35 85 36 25 37
REMARK SMILES IDX 84 38 26 39 27 40 28 41 78 42 29 43 83 44 77 45 79 46 30 47
REMARK SMILES IDX 82 48 76 49 75 50 31 52 63 53 43 54 62 55 44 56 47 57 61 58
REMARK SMILES IDX 80 59 45 60 46 61 60 63 81 64 48 65 32 66 33 67 41 68 34 69
REMARK SMILES IDX 35 70 39 71 42 72 36 73 37 74 40 75 38 76 64 77 65 78 73 79
REMARK SMILES IDX 66 80 67 81 71 82 74 83 68 84 69 85 72 86 70 87 49 88 50 89
REMARK SMILES IDX 58 90 51 91 52 92 56 93 59 94 53 95 54 96 57 97 55 98
REMARK H PARENT 15 5 5 14 11 25 11 26 20 32 79 51 47 62
REMARK Flexibility Score: inf
ROOT
ATOM      1  C   UNL A   1      33.399  29.928  26.686  1.00  0.00     0.116 C 
ENDROOT
BRANCH   1   2
ATOM      2  N   UNL A   1      33.682  29.678  25.287  1.00  0.00    -0.352 N 
ATOM      3  C   UNL A   1      33.300  28.720  24.378  1.00  0.00     0.253 C 
ATOM      4  O   UNL A   1      33.755  28.888  23.242  1.00  0.00    -0.269 OA
ATOM      5  H   UNL A   1      34.288  30.350  24.897  1.00  0.00     0.163 HD
BRANCH   3   6
ATOM      6  C   UNL A   1      32.389  27.550  24.665  1.00  0.00     0.065 A 
ATOM      7  C   UNL A   1      32.022  25.280  25.555  1.00  0.00     0.036 A 
ATOM      8  C   UNL A   1      30.700  25.345  25.132  1.00  0.00     0.031 A 
ATOM      9  C   UNL A   1      32.845  26.384  25.296  1.00  0.00     0.041 A 
ATOM     10  C   UNL A   1      30.197  26.476  24.466  1.00  0.00    -0.025 A 
ATOM     11  C   UNL A   1      28.780  26.434  23.954  1.00  0.00     0.046 C 
ATOM     12  C   UNL A   1      31.035  27.590  24.232  1.00  0.00     0.047 A 
BRANCH   7  13
ATOM     13  N   UNL A   1      32.617  24.134  26.049  1.00  0.00    -0.377 N 
ATOM     14  H   UNL A   1      32.584  23.993  27.023  1.00  0.00     0.161 HD
BRANCH  13  15
ATOM     15  C   UNL A   1      33.295  23.106  25.244  1.00  0.00     0.119 C 
BRANCH  15  16
ATOM     16  C   UNL A   1      32.684  23.058  23.822  1.00  0.00     0.030 C 
BRANCH  16  17
ATOM     17  C   UNL A   1      33.589  23.690  22.751  1.00  0.00    -0.001 C 
ATOM     18  C   UNL A   1      32.897  24.784  21.949  1.00  0.00     0.004 C 
ENDBRANCH  16  17
ENDBRANCH  15  16
BRANCH  15  19
ATOM     19  C   UNL A   1      34.825  23.086  25.268  1.00  0.00     0.027 A 
ATOM     20  C   UNL A   1      35.736  24.107  25.495  1.00  0.00     0.017 A 
ATOM     21  S   UNL A   1      35.659  21.583  25.098  1.00  0.00    -0.147 S 
ATOM     22  C   UNL A   1      37.091  23.676  25.464  1.00  0.00     0.012 A 
ATOM     23  C   UNL A   1      37.190  22.324  25.249  1.00  0.00     0.065 A 
ENDBRANCH  15  19
ENDBRANCH  13  15
ENDBRANCH   7  13
BRANCH  12  24
ATOM     24  N   UNL A   1      30.545  28.649  23.466  1.00  0.00    -0.398 N 
ATOM     25  H   UNL A   1      31.025  29.509  23.452  1.00  0.00     0.156 HD
ATOM     26  H   UNL A   1      29.721  28.536  22.940  1.00  0.00     0.156 HD
ENDBRANCH  12  24
ENDBRANCH   3   6
ENDBRANCH   1   2
BRANCH   1  27
ATOM     27  C   UNL A   1      31.950  30.385  26.876  1.00  0.00     0.023 C 
BRANCH  27  28
ATOM     28  C   UNL A   1      31.752  31.902  26.777  1.00  0.00     0.023 C 
BRANCH  28  29
ATOM     29  C   UNL A   1      32.856  32.742  27.414  1.00  0.00     0.116 C 
BRANCH  29  30
ATOM     30  N   UNL A   1      32.456  34.112  27.693  1.00  0.00    -0.352 N 
ATOM     31  C   UNL A   1      33.003  34.994  28.597  1.00  0.00     0.251 C 
ATOM     32  H   UNL A   1      31.696  34.454  27.168  1.00  0.00     0.163 HD
ATOM     33  O   UNL A   1      32.501  36.090  28.786  1.00  0.00    -0.269 OA
BRANCH  31  34
ATOM     34  C   UNL A   1      34.184  34.569  29.378  1.00  0.00     0.039 A 
ATOM     35  C   UNL A   1      33.984  34.023  30.647  1.00  0.00     0.014 A 
ATOM     36  C   UNL A   1      35.467  34.659  28.835  1.00  0.00     0.014 A 
ATOM     37  C   UNL A   1      35.069  33.488  31.343  1.00  0.00     0.010 A 
ATOM     38  C   UNL A   1      36.536  34.070  29.501  1.00  0.00     0.010 A 
ATOM     39  C   UNL A   1      36.343  33.467  30.754  1.00  0.00    -0.014 A 
BRANCH  39  40
ATOM     40  C   UNL A   1      37.482  32.784  31.416  1.00  0.00     0.031 A 
ATOM     41  C   UNL A   1      38.138  31.601  30.766  1.00  0.00     0.074 A 
ATOM     42  C   UNL A   1      37.865  33.183  32.644  1.00  0.00     0.049 A 
ATOM     43  N   UNL A   1      39.091  30.830  31.223  1.00  0.00    -0.248 NA
ATOM     44  C   UNL A   1      37.637  31.216  29.438  1.00  0.00     0.031 C 
ATOM     45  C   UNL A   1      37.263  34.283  33.400  1.00  0.00     0.029 A 
ATOM     46  N   UNL A   1      38.840  32.700  33.480  1.00  0.00    -0.354 N 
ATOM     47  C   UNL A   1      39.294  29.863  30.248  1.00  0.00     0.074 A 
ATOM     48  C   UNL A   1      38.332  30.115  29.197  1.00  0.00     0.031 C 
ATOM     49  C   UNL A   1      37.894  34.401  34.580  1.00  0.00     0.029 A 
ATOM     50  C   UNL A   1      38.917  33.365  34.678  1.00  0.00     0.049 A 
ATOM     51  H   UNL A   1      39.428  31.947  33.242  1.00  0.00     0.167 HD
ATOM     52  C   UNL A   1      40.214  28.870  30.225  1.00  0.00     0.037 A 
ATOM     53  C   UNL A   1      39.717  33.157  35.741  1.00  0.00     0.037 A 
ATOM     54  C   UNL A   1      41.184  28.642  31.264  1.00  0.00     0.049 A 
ATOM     55  C   UNL A   1      40.729  32.045  35.690  1.00  0.00     0.074 A 
ATOM     56  C   UNL A   1      42.210  27.713  31.296  1.00  0.00     0.029 A 
ATOM     57  N   UNL A   1      41.243  29.345  32.458  1.00  0.00    -0.354 N 
ATOM     58  N   UNL A   1      40.968  31.189  34.728  1.00  0.00    -0.248 NA
ATOM     59  C   UNL A   1      41.584  31.875  36.872  1.00  0.00     0.031 C 
ATOM     60  C   UNL A   1      42.861  27.825  32.530  1.00  0.00     0.029 A 
ATOM     61  C   UNL A   1      42.270  28.853  33.247  1.00  0.00     0.049 A 
ATOM     62  H   UNL A   1      40.643  30.085  32.707  1.00  0.00     0.167 HD
ATOM     63  C   UNL A   1      42.009  30.390  35.177  1.00  0.00     0.074 A 
ATOM     64  C   UNL A   1      42.369  30.876  36.494  1.00  0.00     0.031 C 
ATOM     65  C   UNL A   1      42.611  29.345  34.557  1.00  0.00     0.037 A 
BRANCH  52  66
ATOM     66  C   UNL A   1      40.217  27.958  29.034  1.00  0.00     0.064 A 
ATOM     67  C   UNL A   1      40.935  28.271  27.869  1.00  0.00     0.173 A 
ATOM     68  C   UNL A   1      39.520  26.741  29.068  1.00  0.00     0.173 A 
ATOM     69  F   UNL A   1      41.609  29.429  27.783  1.00  0.00    -0.203 F 
ATOM     70  C   UNL A   1      40.929  27.415  26.772  1.00  0.00     0.198 A 
ATOM     71  C   UNL A   1      39.540  25.873  27.979  1.00  0.00     0.198 A 
ATOM     72  F   UNL A   1      38.822  26.390  30.159  1.00  0.00    -0.203 F 
ATOM     73  F   UNL A   1      41.582  27.758  25.654  1.00  0.00    -0.200 F 
ATOM     74  C   UNL A   1      40.239  26.214  26.829  1.00  0.00     0.200 A 
ATOM     75  F   UNL A   1      38.882  24.707  28.040  1.00  0.00    -0.200 F 
ATOM     76  F   UNL A   1      40.238  25.388  25.774  1.00  0.00    -0.200 F 
ENDBRANCH  52  66
BRANCH  53  77
ATOM     77  C   UNL A   1      39.606  34.035  36.934  1.00  0.00     0.064 A 
ATOM     78  C   UNL A   1      38.826  33.655  38.034  1.00  0.00     0.173 A 
ATOM     79  C   UNL A   1      40.282  35.262  37.003  1.00  0.00     0.173 A 
ATOM     80  F   UNL A   1      38.145  32.500  38.005  1.00  0.00    -0.203 F 
ATOM     81  C   UNL A   1      38.713  34.477  39.153  1.00  0.00     0.198 A 
ATOM     82  C   UNL A   1      40.188  36.071  38.134  1.00  0.00     0.198 A 
ATOM     83  F   UNL A   1      41.045  35.668  35.978  1.00  0.00    -0.203 F 
ATOM     84  F   UNL A   1      37.930  34.107  40.176  1.00  0.00    -0.200 F 
ATOM     85  C   UNL A   1      39.399  35.681  39.205  1.00  0.00     0.200 A 
ATOM     86  F   UNL A   1      40.863  37.227  38.186  1.00  0.00    -0.200 F 
ATOM     87  F   UNL A   1      39.295  36.467  40.285  1.00  0.00    -0.200 F 
ENDBRANCH  53  77
BRANCH  65  88
ATOM     88  C   UNL A   1      43.730  28.667  35.290  1.00  0.00     0.064 A 
ATOM     89  C   UNL A   1      43.489  27.603  36.172  1.00  0.00     0.173 A 
ATOM     90  C   UNL A   1      45.062  29.054  35.073  1.00  0.00     0.173 A 
ATOM     91  F   UNL A   1      42.233  27.208  36.424  1.00  0.00    -0.203 F 
ATOM     92  C   UNL A   1      44.539  26.965  36.826  1.00  0.00     0.198 A 
ATOM     93  C   UNL A   1      46.111  28.396  35.708  1.00  0.00     0.198 A 
ATOM     94  F   UNL A   1      45.345  30.063  34.235  1.00  0.00    -0.203 F 
ATOM     95  F   UNL A   1      44.284  25.979  37.696  1.00  0.00    -0.200 F 
ATOM     96  C   UNL A   1      45.849  27.356  36.588  1.00  0.00     0.200 A 
ATOM     97  F   UNL A   1      47.376  28.767  35.468  1.00  0.00    -0.200 F 
ATOM     98  F   UNL A   1      46.859  26.735  37.212  1.00  0.00    -0.200 F 
ENDBRANCH  65  88
ENDBRANCH  39  40
ENDBRANCH  31  34
ENDBRANCH  29  30
ENDBRANCH  28  29
ENDBRANCH  27  28
ENDBRANCH   1  27
TORSDOF 17
ENDMDL
MODEL 2
REMARK VINA RESULT:     -11.8      5.752     11.167
REMARK SMILES CCC[C@H](Nc1cc(C)c(N)c(C(=O)NCCCCNC(=O)c2ccc(-c3c4nc(c(-c5c(F)c(F)c(F)c(F)c5F)c5ccc([nH]5)c(-c5c(F)c(F)c(F)c(F)c5F)c5nc(c(-c6c(F)c(F)c(F)c(F)c6F)c6ccc3[nH]6)C=C5)C=C4)cc2)c1)c1cccs1
REMARK SMILES IDX 16 1 15 2 13 3 14 4 12 6 6 7 7 8 86 9 8 10 9 11 10 12 5 13
REMARK SMILES IDX 4 15 3 16 2 17 1 18 87 19 88 20 91 21 89 22 90 23 11 24
REMARK SMILES IDX 17 27 18 28 19 29 20 30 21 31 22 33 23 34 24 35 85 36 25 37
REMARK SMILES IDX 84 38 26 39 27 40 28 41 78 42 29 43 83 44 77 45 79 46 30 47
REMARK SMILES IDX 82 48 76 49 75 50 31 52 63 53 43 54 62 55 44 56 47 57 61 58
REMARK SMILES IDX 80 59 45 60 46 61 60 63 81 64 48 65 32 66 33 67 41 68 34 69
REMARK SMILES IDX 35 70 39 71 42 72 36 73 37 74 40 75 38 76 64 77 65 78 73 79
REMARK SMILES IDX 66 80 67 81 71 82 74 83 68 84 69 85 72 86 70 87 49 88 50 89
REMARK SMILES IDX 58 90 51 91 52 92 56 93 59 94 53 95 54 96 57 97 55 98
REMARK H PARENT 15 5 5 14 11 25 11 26 20 32 79 51 47 62
REMARK Flexibility Score: inf
ROOT
ATOM      1  C   UNL A   1      37.477  22.594  25.570  1.00  0.00     0.116 C 
ENDROOT
BRANCH   1   2
ATOM      2  N   UNL A   1      36.367  22.554  26.501  1.00  0.00    -0.352 N 
ATOM      3  C   UNL A   1      35.015  22.785  26.405  1.00  0.00     0.253 C 
ATOM      4  O   UNL A   1      34.396  22.610  27.460  1.00  0.00    -0.269 OA
ATOM      5  H   UNL A   1      36.646  22.305  27.412  1.00  0.00     0.163 HD
BRANCH   3   6
ATOM      6  C   UNL A   1      34.280  23.195  25.152  1.00  0.00     0.065 A 
ATOM      7  C   UNL A   1      33.453  24.940  23.618  1.00  0.00     0.036 A 
ATOM      8  C   UNL A   1      32.845  23.954  22.851  1.00  0.00     0.031 A 
ATOM      9  C   UNL A   1      34.147  24.536  24.767  1.00  0.00     0.041 A 
ATOM     10  C   UNL A   1      32.917  22.598  23.206  1.00  0.00    -0.025 A 
ATOM     11  C   UNL A   1      32.153  21.598  22.377  1.00  0.00     0.046 C 
ATOM     12  C   UNL A   1      33.640  22.205  24.356  1.00  0.00     0.047 A 
BRANCH   7  13
ATOM     13  N   UNL A   1      33.266  26.296  23.422  1.00  0.00    -0.377 N 
ATOM     14  H   UNL A   1      33.883  26.751  22.803  1.00  0.00     0.161 HD
BRANCH  13  15
ATOM     15  C   UNL A   1      32.224  27.117  24.057  1.00  0.00     0.119 C 
BRANCH  15  16
ATOM     16  C   UNL A   1      30.958  26.263  24.314  1.00  0.00     0.030 C 
BRANCH  16  17
ATOM     17  C   UNL A   1      30.748  25.922  25.799  1.00  0.00    -0.001 C 
ATOM     18  C   UNL A   1      30.656  24.424  26.064  1.00  0.00     0.004 C 
ENDBRANCH  16  17
ENDBRANCH  15  16
BRANCH  15  19
ATOM     19  C   UNL A   1      32.638  27.992  25.241  1.00  0.00     0.027 A 
ATOM     20  C   UNL A   1      33.646  27.820  26.179  1.00  0.00     0.017 A 
ATOM     21  S   UNL A   1      31.862  29.515  25.488  1.00  0.00    -0.147 S 
ATOM     22  C   UNL A   1      33.735  28.884  27.119  1.00  0.00     0.012 A 
ATOM     23  C   UNL A   1      32.815  29.869  26.860  1.00  0.00     0.065 A 
ENDBRANCH  15  19
ENDBRANCH  13  15
ENDBRANCH   7  13
BRANCH  12  24
ATOM     24  N   UNL A   1      33.597  20.867  24.751  1.00  0.00    -0.398 N 
ATOM     25  H   UNL A   1      34.020  20.175  24.193  1.00  0.00     0.156 HD
ATOM     26  H   UNL A   1      33.144  20.616  25.588  1.00  0.00     0.156 HD
ENDBRANCH  12  24
ENDBRANCH   3   6
ENDBRANCH   1   2
BRANCH   1  27
ATOM     27  C   UNL A   1      37.380  21.450  24.556  1.00  0.00     0.023 C 
BRANCH  27  28
ATOM     28  C   UNL A   1      38.079  20.158  24.999  1.00  0.00     0.023 C 
BRANCH  28  29
ATOM     29  C   UNL A   1      39.301  20.358  25.891  1.00  0.00     0.116 C 
BRANCH  29  30
ATOM     30  N   UNL A   1      40.198  19.213  25.912  1.00  0.00    -0.352 N 
ATOM     31  C   UNL A   1      41.558  19.198  26.126  1.00  0.00     0.251 C 
ATOM     32  H   UNL A   1      39.780  18.337  25.753  1.00  0.00     0.163 HD
ATOM     33  O   UNL A   1      42.196  18.163  26.025  1.00  0.00    -0.269 OA
BRANCH  31  34
ATOM     34  C   UNL A   1      42.244  20.471  26.429  1.00  0.00     0.039 A 
ATOM     35  C   UNL A   1      42.777  21.211  25.372  1.00  0.00     0.014 A 
ATOM     36  C   UNL A   1      42.307  20.952  27.739  1.00  0.00     0.014 A 
ATOM     37  C   UNL A   1      43.303  22.480  25.619  1.00  0.00     0.010 A 
ATOM     38  C   UNL A   1      42.774  22.241  27.974  1.00  0.00     0.010 A 
ATOM     39  C   UNL A   1      43.263  23.020  26.914  1.00  0.00    -0.014 A 
BRANCH  39  40
ATOM     40  C   UNL A   1      43.692  24.416  27.176  1.00  0.00     0.031 A 
ATOM     41  C   UNL A   1      42.700  25.439  27.644  1.00  0.00     0.074 A 
ATOM     42  C   UNL A   1      44.962  24.775  26.906  1.00  0.00     0.049 A 
ATOM     43  N   UNL A   1      42.869  26.720  27.852  1.00  0.00    -0.248 NA
ATOM     44  C   UNL A   1      41.328  24.966  27.886  1.00  0.00     0.031 C 
ATOM     45  C   UNL A   1      46.001  23.882  26.391  1.00  0.00     0.029 A 
ATOM     46  N   UNL A   1      45.592  25.991  27.012  1.00  0.00    -0.354 N 
ATOM     47  C   UNL A   1      41.626  27.207  28.233  1.00  0.00     0.074 A 
ATOM     48  C   UNL A   1      40.702  26.095  28.182  1.00  0.00     0.031 C 
ATOM     49  C   UNL A   1      47.142  24.575  26.242  1.00  0.00     0.029 A 
ATOM     50  C   UNL A   1      46.906  25.966  26.616  1.00  0.00     0.049 A 
ATOM     51  H   UNL A   1      45.142  26.803  27.340  1.00  0.00     0.167 HD
ATOM     52  C   UNL A   1      41.294  28.464  28.611  1.00  0.00     0.037 A 
ATOM     53  C   UNL A   1      47.816  26.956  26.554  1.00  0.00     0.037 A 
ATOM     54  C   UNL A   1      42.224  29.560  28.685  1.00  0.00     0.049 A 
ATOM     55  C   UNL A   1      47.420  28.344  26.978  1.00  0.00     0.074 A 
ATOM     56  C   UNL A   1      42.004  30.850  29.133  1.00  0.00     0.029 A 
ATOM     57  N   UNL A   1      43.553  29.495  28.290  1.00  0.00    -0.354 N 
ATOM     58  N   UNL A   1      46.263  28.775  27.416  1.00  0.00    -0.248 NA
ATOM     59  C   UNL A   1      48.458  29.381  26.902  1.00  0.00     0.031 C 
ATOM     60  C   UNL A   1      43.187  31.579  28.968  1.00  0.00     0.029 A 
ATOM     61  C   UNL A   1      44.157  30.731  28.459  1.00  0.00     0.049 A 
ATOM     62  H   UNL A   1      43.999  28.690  27.942  1.00  0.00     0.167 HD
ATOM     63  C   UNL A   1      46.436  30.125  27.685  1.00  0.00     0.074 A 
ATOM     64  C   UNL A   1      47.816  30.439  27.377  1.00  0.00     0.031 C 
ATOM     65  C   UNL A   1      45.531  31.025  28.142  1.00  0.00     0.037 A 
BRANCH  52  66
ATOM     66  C   UNL A   1      39.863  28.719  28.982  1.00  0.00     0.064 A 
ATOM     67  C   UNL A   1      39.399  28.542  30.295  1.00  0.00     0.173 A 
ATOM     68  C   UNL A   1      38.949  29.176  28.020  1.00  0.00     0.173 A 
ATOM     69  F   UNL A   1      40.231  28.096  31.249  1.00  0.00    -0.203 F 
ATOM     70  C   UNL A   1      38.068  28.783  30.624  1.00  0.00     0.198 A 
ATOM     71  C   UNL A   1      37.625  29.444  28.359  1.00  0.00     0.198 A 
ATOM     72  F   UNL A   1      39.341  29.368  26.751  1.00  0.00    -0.203 F 
ATOM     73  F   UNL A   1      37.638  28.559  31.873  1.00  0.00    -0.200 F 
ATOM     74  C   UNL A   1      37.184  29.241  29.659  1.00  0.00     0.200 A 
ATOM     75  F   UNL A   1      36.774  29.897  27.428  1.00  0.00    -0.200 F 
ATOM     76  F   UNL A   1      35.904  29.477  29.978  1.00  0.00    -0.200 F 
ENDBRANCH  52  66
BRANCH  53  77
ATOM     77  C   UNL A   1      49.196  26.664  26.090  1.00  0.00     0.064 A 
ATOM     78  C   UNL A   1      50.167  26.188  26.981  1.00  0.00     0.173 A 
ATOM     79  C   UNL A   1      49.570  26.843  24.750  1.00  0.00     0.173 A 
ATOM     80  F   UNL A   1      49.862  26.020  28.276  1.00  0.00    -0.203 F 
ATOM     81  C   UNL A   1      51.465  25.917  26.554  1.00  0.00     0.198 A 
ATOM     82  C   UNL A   1      50.861  26.548  24.319  1.00  0.00     0.198 A 
ATOM     83  F   UNL A   1      48.676  27.292  23.857  1.00  0.00    -0.203 F 
ATOM     84  F   UNL A   1      52.384  25.499  27.435  1.00  0.00    -0.200 F 
ATOM     85  C   UNL A   1      51.810  26.092  25.222  1.00  0.00     0.200 A 
ATOM     86  F   UNL A   1      51.187  26.704  23.028  1.00  0.00    -0.200 F 
ATOM     87  F   UNL A   1      53.056  25.825  24.810  1.00  0.00    -0.200 F 
ENDBRANCH  53  77
BRANCH  65  88
ATOM     88  C   UNL A   1      46.010  32.432  28.351  1.00  0.00     0.064 A 
ATOM     89  C   UNL A   1      46.584  32.837  29.564  1.00  0.00     0.173 A 
ATOM     90  C   UNL A   1      45.933  33.372  27.311  1.00  0.00     0.173 A 
ATOM     91  F   UNL A   1      46.664  31.979  30.593  1.00  0.00    -0.203 F 
ATOM     92  C   UNL A   1      47.048  34.138  29.737  1.00  0.00     0.198 A 
ATOM     93  C   UNL A   1      46.423  34.664  27.478  1.00  0.00     0.198 A 
ATOM     94  F   UNL A   1      45.397  33.032  26.130  1.00  0.00    -0.203 F 
ATOM     95  F   UNL A   1      47.555  34.516  30.918  1.00  0.00    -0.200 F 
ATOM     96  C   UNL A   1      46.974  35.048  28.692  1.00  0.00     0.200 A 
ATOM     97  F   UNL A   1      46.361  35.538  26.465  1.00  0.00    -0.200 F 
ATOM     98  F   UNL A   1      47.428  36.298  28.857  1.00  0.00    -0.200 F 
ENDBRANCH  65  88
ENDBRANCH  39  40
ENDBRANCH  31  34
ENDBRANCH  29  30
ENDBRANCH  28  29
ENDBRANCH  27  28
ENDBRANCH   1  27
TORSDOF 17
ENDMDL
MODEL 3
REMARK VINA RESULT:     -11.7      5.738     11.199
REMARK SMILES CCC[C@H](Nc1cc(C)c(N)c(C(=O)NCCCCNC(=O)c2ccc(-c3c4nc(c(-c5c(F)c(F)c(F)c(F)c5F)c5ccc([nH]5)c(-c5c(F)c(F)c(F)c(F)c5F)c5nc(c(-c6c(F)c(F)c(F)c(F)c6F)c6ccc3[nH]6)C=C5)C=C4)cc2)c1)c1cccs1
REMARK SMILES IDX 16 1 15 2 13 3 14 4 12 6 6 7 7 8 86 9 8 10 9 11 10 12 5 13
REMARK SMILES IDX 4 15 3 16 2 17 1 18 87 19 88 20 91 21 89 22 90 23 11 24
REMARK SMILES IDX 17 27 18 28 19 29 20 30 21 31 22 33 23 34 24 35 85 36 25 37
REMARK SMILES IDX 84 38 26 39 27 40 28 41 78 42 29 43 83 44 77 45 79 46 30 47
REMARK SMILES IDX 82 48 76 49 75 50 31 52 63 53 43 54 62 55 44 56 47 57 61 58
REMARK SMILES IDX 80 59 45 60 46 61 60 63 81 64 48 65 32 66 33 67 41 68 34 69
REMARK SMILES IDX 35 70 39 71 42 72 36 73 37 74 40 75 38 76 64 77 65 78 73 79
REMARK SMILES IDX 66 80 67 81 71 82 74 83 68 84 69 85 72 86 70 87 49 88 50 89
REMARK SMILES IDX 58 90 51 91 52 92 56 93 59 94 53 95 54 96 57 97 55 98
REMARK H PARENT 15 5 5 14 11 25 11 26 20 32 79 51 47 62
REMARK Flexibility Score: inf
ROOT
ATOM      1  C   UNL A   1      37.435  22.545  25.587  1.00  0.00     0.116 C 
ENDROOT
BRANCH   1   2
ATOM      2  N   UNL A   1      36.316  22.612  26.505  1.00  0.00    -0.352 N 
ATOM      3  C   UNL A   1      34.972  22.866  26.375  1.00  0.00     0.253 C 
ATOM      4  O   UNL A   1      34.338  22.796  27.434  1.00  0.00    -0.269 OA
ATOM      5  H   UNL A   1      36.581  22.434  27.438  1.00  0.00     0.163 HD
BRANCH   3   6
ATOM      6  C   UNL A   1      34.258  23.185  25.083  1.00  0.00     0.065 A 
ATOM      7  C   UNL A   1      33.473  24.815  23.407  1.00  0.00     0.036 A 
ATOM      8  C   UNL A   1      32.865  23.779  22.708  1.00  0.00     0.031 A 
ATOM      9  C   UNL A   1      34.146  24.494  24.594  1.00  0.00     0.041 A 
ATOM     10  C   UNL A   1      32.917  22.453  23.169  1.00  0.00    -0.025 A 
ATOM     11  C   UNL A   1      32.154  21.399  22.407  1.00  0.00     0.046 C 
ATOM     12  C   UNL A   1      33.619  22.143  24.356  1.00  0.00     0.047 A 
BRANCH   7  13
ATOM     13  N   UNL A   1      33.303  26.153  23.103  1.00  0.00    -0.377 N 
ATOM     14  H   UNL A   1      33.635  26.462  22.229  1.00  0.00     0.161 HD
BRANCH  13  15
ATOM     15  C   UNL A   1      32.670  27.154  23.975  1.00  0.00     0.119 C 
BRANCH  15  16
ATOM     16  C   UNL A   1      33.599  28.382  24.135  1.00  0.00     0.030 C 
BRANCH  16  17
ATOM     17  C   UNL A   1      33.970  28.676  25.598  1.00  0.00    -0.001 C 
ATOM     18  C   UNL A   1      33.429  27.639  26.574  1.00  0.00     0.004 C 
ENDBRANCH  16  17
ENDBRANCH  15  16
BRANCH  15  19
ATOM     19  C   UNL A   1      31.208  27.509  23.697  1.00  0.00     0.027 A 
ATOM     20  C   UNL A   1      30.647  28.660  23.163  1.00  0.00     0.017 A 
ATOM     21  S   UNL A   1      29.980  26.323  23.955  1.00  0.00    -0.147 S 
ATOM     22  C   UNL A   1      29.232  28.593  23.031  1.00  0.00     0.012 A 
ATOM     23  C   UNL A   1      28.740  27.376  23.434  1.00  0.00     0.065 A 
ENDBRANCH  15  19
ENDBRANCH  13  15
ENDBRANCH   7  13
BRANCH  12  24
ATOM     24  N   UNL A   1      33.556  20.840  24.852  1.00  0.00    -0.398 N 
ATOM     25  H   UNL A   1      34.381  20.377  25.127  1.00  0.00     0.156 HD
ATOM     26  H   UNL A   1      32.687  20.384  24.928  1.00  0.00     0.156 HD
ENDBRANCH  12  24
ENDBRANCH   3   6
ENDBRANCH   1   2
BRANCH   1  27
ATOM     27  C   UNL A   1      37.266  21.382  24.605  1.00  0.00     0.023 C 
BRANCH  27  28
ATOM     28  C   UNL A   1      38.056  20.122  24.981  1.00  0.00     0.023 C 
BRANCH  28  29
ATOM     29  C   UNL A   1      39.332  20.374  25.780  1.00  0.00     0.116 C 
BRANCH  29  30
ATOM     30  N   UNL A   1      40.215  19.219  25.841  1.00  0.00    -0.352 N 
ATOM     31  C   UNL A   1      41.565  19.191  26.109  1.00  0.00     0.251 C 
ATOM     32  H   UNL A   1      39.795  18.347  25.669  1.00  0.00     0.163 HD
ATOM     33  O   UNL A   1      42.196  18.149  26.038  1.00  0.00    -0.269 OA
BRANCH  31  34
ATOM     34  C   UNL A   1      42.252  20.458  26.435  1.00  0.00     0.039 A 
ATOM     35  C   UNL A   1      42.772  21.224  25.390  1.00  0.00     0.014 A 
ATOM     36  C   UNL A   1      42.328  20.909  27.755  1.00  0.00     0.014 A 
ATOM     37  C   UNL A   1      43.299  22.488  25.661  1.00  0.00     0.010 A 
ATOM     38  C   UNL A   1      42.795  22.192  28.015  1.00  0.00     0.010 A 
ATOM     39  C   UNL A   1      43.271  22.997  26.969  1.00  0.00    -0.014 A 
BRANCH  39  40
ATOM     40  C   UNL A   1      43.700  24.388  27.258  1.00  0.00     0.031 A 
ATOM     41  C   UNL A   1      42.709  25.401  27.747  1.00  0.00     0.074 A 
ATOM     42  C   UNL A   1      44.971  24.752  26.995  1.00  0.00     0.049 A 
ATOM     43  N   UNL A   1      42.878  26.678  27.980  1.00  0.00    -0.248 NA
ATOM     44  C   UNL A   1      41.337  24.923  27.979  1.00  0.00     0.031 C 
ATOM     45  C   UNL A   1      46.010  23.870  26.462  1.00  0.00     0.029 A 
ATOM     46  N   UNL A   1      45.600  25.965  27.125  1.00  0.00    -0.354 N 
ATOM     47  C   UNL A   1      41.635  27.157  28.372  1.00  0.00     0.074 A 
ATOM     48  C   UNL A   1      40.711  26.046  28.298  1.00  0.00     0.031 C 
ATOM     49  C   UNL A   1      47.151  24.565  26.327  1.00  0.00     0.029 A 
ATOM     50  C   UNL A   1      46.914  25.948  26.729  1.00  0.00     0.049 A 
ATOM     51  H   UNL A   1      45.150  26.770  27.470  1.00  0.00     0.167 HD
ATOM     52  C   UNL A   1      41.303  28.406  28.775  1.00  0.00     0.037 A 
ATOM     53  C   UNL A   1      47.824  26.940  26.686  1.00  0.00     0.037 A 
ATOM     54  C   UNL A   1      42.233  29.500  28.870  1.00  0.00     0.049 A 
ATOM     55  C   UNL A   1      47.428  28.318  27.139  1.00  0.00     0.074 A 
ATOM     56  C   UNL A   1      42.013  30.781  29.345  1.00  0.00     0.029 A 
ATOM     57  N   UNL A   1      43.561  29.443  28.474  1.00  0.00    -0.354 N 
ATOM     58  N   UNL A   1      46.271  28.741  27.585  1.00  0.00    -0.248 NA
ATOM     59  C   UNL A   1      48.467  29.356  27.083  1.00  0.00     0.031 C 
ATOM     60  C   UNL A   1      43.196  31.513  29.194  1.00  0.00     0.029 A 
ATOM     61  C   UNL A   1      44.166  30.675  28.668  1.00  0.00     0.049 A 
ATOM     62  H   UNL A   1      44.008  28.645  28.110  1.00  0.00     0.167 HD
ATOM     63  C   UNL A   1      46.444  30.085  27.881  1.00  0.00     0.074 A 
ATOM     64  C   UNL A   1      47.825  30.405  27.579  1.00  0.00     0.031 C 
ATOM     65  C   UNL A   1      45.540  30.976  28.357  1.00  0.00     0.037 A 
BRANCH  52  66
ATOM     66  C   UNL A   1      39.872  28.654  29.151  1.00  0.00     0.064 A 
ATOM     67  C   UNL A   1      39.406  28.439  30.457  1.00  0.00     0.173 A 
ATOM     68  C   UNL A   1      38.961  29.142  28.202  1.00  0.00     0.173 A 
ATOM     69  F   UNL A   1      40.235  27.962  31.399  1.00  0.00    -0.203 F 
ATOM     70  C   UNL A   1      38.075  28.673  30.791  1.00  0.00     0.198 A 
ATOM     71  C   UNL A   1      37.637  29.402  28.547  1.00  0.00     0.198 A 
ATOM     72  F   UNL A   1      39.355  29.370  26.940  1.00  0.00    -0.203 F 
ATOM     73  F   UNL A   1      37.642  28.414  32.033  1.00  0.00    -0.200 F 
ATOM     74  C   UNL A   1      37.193  29.162  29.839  1.00  0.00     0.200 A 
ATOM     75  F   UNL A   1      36.789  29.886  27.628  1.00  0.00    -0.200 F 
ATOM     76  F   UNL A   1      35.914  29.391  30.164  1.00  0.00    -0.200 F 
ENDBRANCH  52  66
BRANCH  53  77
ATOM     77  C   UNL A   1      49.204  26.656  26.216  1.00  0.00     0.064 A 
ATOM     78  C   UNL A   1      49.570  26.890  24.884  1.00  0.00     0.173 A 
ATOM     79  C   UNL A   1      50.185  26.159  27.087  1.00  0.00     0.173 A 
ATOM     80  F   UNL A   1      48.661  27.347  24.010  1.00  0.00    -0.203 F 
ATOM     81  C   UNL A   1      50.861  26.621  24.435  1.00  0.00     0.198 A 
ATOM     82  C   UNL A   1      51.483  25.914  26.642  1.00  0.00     0.198 A 
ATOM     83  F   UNL A   1      49.886  25.924  28.372  1.00  0.00    -0.203 F 
ATOM     84  F   UNL A   1      51.175  26.818  23.147  1.00  0.00    -0.200 F 
ATOM     85  C   UNL A   1      51.819  26.139  25.316  1.00  0.00     0.200 A 
ATOM     86  F   UNL A   1      52.408  25.462  27.499  1.00  0.00    -0.200 F 
ATOM     87  F   UNL A   1      53.062  25.888  24.885  1.00  0.00    -0.200 F 
ENDBRANCH  53  77
BRANCH  65  88
ATOM     88  C   UNL A   1      46.019  32.378  28.593  1.00  0.00     0.064 A 
ATOM     89  C   UNL A   1      46.567  32.766  29.825  1.00  0.00     0.173 A 
ATOM     90  C   UNL A   1      45.970  33.331  27.564  1.00  0.00     0.173 A 
ATOM     91  F   UNL A   1      46.620  31.895  30.844  1.00  0.00    -0.203 F 
ATOM     92  C   UNL A   1      47.031  34.063  30.024  1.00  0.00     0.198 A 
ATOM     93  C   UNL A   1      46.460  34.619  27.758  1.00  0.00     0.198 A 
ATOM     94  F   UNL A   1      45.459  33.008  26.367  1.00  0.00    -0.203 F 
ATOM     95  F   UNL A   1      47.513  34.424  31.221  1.00  0.00    -0.200 F 
ATOM     96  C   UNL A   1      46.984  34.986  28.989  1.00  0.00     0.200 A 
ATOM     97  F   UNL A   1      46.424  35.506  26.755  1.00  0.00    -0.200 F 
ATOM     98  F   UNL A   1      47.439  36.232  29.180  1.00  0.00    -0.200 F 
ENDBRANCH  65  88
ENDBRANCH  39  40
ENDBRANCH  31  34
ENDBRANCH  29  30
ENDBRANCH  28  29
ENDBRANCH  27  28
ENDBRANCH   1  27
TORSDOF 17
ENDMDL
