MODEL 1
REMARK VINA RESULT:     -14.1      0.000      0.000
REMARK SMILES O=C(NCCCCNC(=O)c1cc(N2CCN(c3ccc(F)cc3)CC2)ccc1NC(=O)C1CCCC1)c1ccc(-c2c3nc(c(-c4c(F)c(F)c(F)c(F)c4F)c4ccc([nH]4)c(-c4c(F)c(F)c(F)c(F)c4F)c4nc(c(-c5c(F)c(F)c(F)c(F)c5F)c5ccc2[nH]5)C=C4)C=C3)cc1
REMARK SMILES IDX 5 1 4 2 3 3 1 4 2 5 38 7 39 8 100 9 40 10 99 11 41 12 42 13
REMARK SMILES IDX 43 14 93 15 44 16 98 17 92 18 94 19 45 20 97 21 91 22 90 23
REMARK SMILES IDX 46 25 78 26 58 27 77 28 59 29 62 30 76 31 95 32 60 33 61 34
REMARK SMILES IDX 75 36 96 37 63 38 47 39 48 40 56 41 49 42 50 43 54 44 57 45
REMARK SMILES IDX 51 46 52 47 55 48 53 49 79 50 80 51 88 52 81 53 82 54 86 55
REMARK SMILES IDX 89 56 83 57 84 58 87 59 85 60 64 61 65 62 73 63 66 64 67 65
REMARK SMILES IDX 71 66 74 67 68 68 69 69 72 70 70 71 6 72 7 73 8 74 9 75
REMARK SMILES IDX 10 77 11 78 12 79 29 80 13 81 28 82 27 83 30 84 31 85 32 87
REMARK SMILES IDX 33 88 34 89 37 90 35 91 36 92 14 93 15 94 26 95 16 96 25 97
REMARK SMILES IDX 17 98 18 99 19 100 24 101 20 102 23 103 21 104 22 105
REMARK H PARENT 3 6 94 24 62 35 8 76 30 86
REMARK Flexibility Score: inf
ROOT
ATOM      1  C   UNL A   1      31.358  31.648  26.719  1.00  0.00     0.023 C 
ENDROOT
BRANCH   1   2
ATOM      2  C   UNL A   1      32.654  32.435  26.875  1.00  0.00     0.116 C 
BRANCH   2   3
ATOM      3  N   UNL A   1      32.431  33.794  27.338  1.00  0.00    -0.352 N 
ATOM      4  O   UNL A   1      32.595  35.550  28.748  1.00  0.00    -0.269 OA
ATOM      5  C   UNL A   1      33.029  34.468  28.377  1.00  0.00     0.251 C 
ATOM      6  H   UNL A   1      31.755  34.305  26.837  1.00  0.00     0.163 HD
BRANCH   5   7
ATOM      7  C   UNL A   1      34.200  33.871  29.059  1.00  0.00     0.039 A 
ATOM      8  C   UNL A   1      34.033  32.837  29.982  1.00  0.00     0.014 A 
ATOM      9  C   UNL A   1      35.483  34.332  28.744  1.00  0.00     0.014 A 
ATOM     10  C   UNL A   1      35.131  32.347  30.680  1.00  0.00     0.010 A 
ATOM     11  C   UNL A   1      36.594  33.776  29.382  1.00  0.00     0.010 A 
ATOM     12  C   UNL A   1      36.426  32.786  30.363  1.00  0.00    -0.014 A 
BRANCH  12  13
ATOM     13  C   UNL A   1      37.594  32.099  30.967  1.00  0.00     0.031 A 
ATOM     14  C   UNL A   1      38.366  31.053  30.218  1.00  0.00     0.074 A 
ATOM     15  C   UNL A   1      37.937  32.429  32.229  1.00  0.00     0.049 A 
ATOM     16  N   UNL A   1      39.380  30.332  30.627  1.00  0.00    -0.248 NA
ATOM     17  C   UNL A   1      37.948  30.770  28.836  1.00  0.00     0.031 C 
ATOM     18  C   UNL A   1      37.243  33.422  33.055  1.00  0.00     0.029 A 
ATOM     19  N   UNL A   1      38.945  31.973  33.039  1.00  0.00    -0.354 N 
ATOM     20  C   UNL A   1      39.708  29.498  29.566  1.00  0.00     0.074 A 
ATOM     21  C   UNL A   1      38.779  29.791  28.495  1.00  0.00     0.031 C 
ATOM     22  C   UNL A   1      37.853  33.511  34.244  1.00  0.00     0.029 A 
ATOM     23  C   UNL A   1      38.933  32.534  34.293  1.00  0.00     0.049 A 
ATOM     24  H   UNL A   1      39.611  31.308  32.751  1.00  0.00     0.167 HD
ATOM     25  C   UNL A   1      40.697  28.574  29.503  1.00  0.00     0.037 A 
ATOM     26  C   UNL A   1      39.677  32.261  35.380  1.00  0.00     0.037 A 
ATOM     27  C   UNL A   1      41.630  28.310  30.570  1.00  0.00     0.049 A 
ATOM     28  C   UNL A   1      40.735  31.201  35.285  1.00  0.00     0.074 A 
ATOM     29  C   UNL A   1      42.720  27.457  30.568  1.00  0.00     0.029 A 
ATOM     30  N   UNL A   1      41.572  28.881  31.833  1.00  0.00    -0.354 N 
ATOM     31  N   UNL A   1      41.089  30.477  34.251  1.00  0.00    -0.248 NA
ATOM     32  C   UNL A   1      41.494  30.910  36.509  1.00  0.00     0.031 C 
ATOM     33  C   UNL A   1      43.278  27.456  31.850  1.00  0.00     0.029 A 
ATOM     34  C   UNL A   1      42.575  28.356  32.634  1.00  0.00     0.049 A 
ATOM     35  H   UNL A   1      40.917  29.558  32.118  1.00  0.00     0.167 HD
ATOM     36  C   UNL A   1      42.113  29.655  34.695  1.00  0.00     0.074 A 
ATOM     37  C   UNL A   1      42.349  29.992  36.082  1.00  0.00     0.031 C 
ATOM     38  C   UNL A   1      42.792  28.699  34.016  1.00  0.00     0.037 A 
BRANCH  25  39
ATOM     39  C   UNL A   1      40.829  27.749  28.255  1.00  0.00     0.064 A 
ATOM     40  C   UNL A   1      41.643  28.148  27.185  1.00  0.00     0.173 A 
ATOM     41  C   UNL A   1      40.223  26.484  28.183  1.00  0.00     0.173 A 
ATOM     42  F   UNL A   1      42.243  29.348  27.203  1.00  0.00    -0.203 F 
ATOM     43  C   UNL A   1      41.841  27.314  26.087  1.00  0.00     0.198 A 
ATOM     44  C   UNL A   1      40.443  25.643  27.095  1.00  0.00     0.198 A 
ATOM     45  F   UNL A   1      39.443  26.050  29.184  1.00  0.00    -0.203 F 
ATOM     46  F   UNL A   1      42.608  27.721  25.067  1.00  0.00    -0.200 F 
ATOM     47  C   UNL A   1      41.251  26.058  26.048  1.00  0.00     0.200 A 
ATOM     48  F   UNL A   1      39.886  24.424  27.069  1.00  0.00    -0.200 F 
ATOM     49  F   UNL A   1      41.463  25.248  25.002  1.00  0.00    -0.200 F 
ENDBRANCH  25  39
BRANCH  26  50
ATOM     50  C   UNL A   1      39.406  32.962  36.663  1.00  0.00     0.064 A 
ATOM     51  C   UNL A   1      40.103  34.125  37.018  1.00  0.00     0.173 A 
ATOM     52  C   UNL A   1      38.459  32.466  37.574  1.00  0.00     0.173 A 
ATOM     53  F   UNL A   1      41.032  34.627  36.191  1.00  0.00    -0.203 F 
ATOM     54  C   UNL A   1      39.887  34.745  38.246  1.00  0.00     0.198 A 
ATOM     55  C   UNL A   1      38.216  33.110  38.784  1.00  0.00     0.198 A 
ATOM     56  F   UNL A   1      37.761  31.359  37.284  1.00  0.00    -0.203 F 
ATOM     57  F   UNL A   1      40.612  35.819  38.587  1.00  0.00    -0.200 F 
ATOM     58  C   UNL A   1      38.940  34.242  39.126  1.00  0.00     0.200 A 
ATOM     59  F   UNL A   1      37.288  32.630  39.622  1.00  0.00    -0.200 F 
ATOM     60  F   UNL A   1      38.735  34.839  40.307  1.00  0.00    -0.200 F 
ENDBRANCH  26  50
BRANCH  38  61
ATOM     61  C   UNL A   1      43.857  27.954  34.764  1.00  0.00     0.064 A 
ATOM     62  C   UNL A   1      45.158  28.463  34.884  1.00  0.00     0.173 A 
ATOM     63  C   UNL A   1      43.563  26.738  35.402  1.00  0.00     0.173 A 
ATOM     64  F   UNL A   1      45.492  29.611  34.274  1.00  0.00    -0.203 F 
ATOM     65  C   UNL A   1      46.133  27.774  35.600  1.00  0.00     0.198 A 
ATOM     66  C   UNL A   1      44.531  26.069  36.144  1.00  0.00     0.198 A 
ATOM     67  F   UNL A   1      42.333  26.211  35.320  1.00  0.00    -0.203 F 
ATOM     68  F   UNL A   1      47.382  28.256  35.662  1.00  0.00    -0.200 F 
ATOM     69  C   UNL A   1      45.816  26.583  36.237  1.00  0.00     0.200 A 
ATOM     70  F   UNL A   1      44.221  24.926  36.772  1.00  0.00    -0.200 F 
ATOM     71  F   UNL A   1      46.752  25.928  36.937  1.00  0.00    -0.200 F 
ENDBRANCH  38  61
ENDBRANCH  12  13
ENDBRANCH   5   7
ENDBRANCH   2   3
ENDBRANCH   1   2
BRANCH   1  72
ATOM     72  C   UNL A   1      31.361  30.585  25.616  1.00  0.00     0.023 C 
BRANCH  72  73
ATOM     73  C   UNL A   1      32.396  29.475  25.780  1.00  0.00     0.116 C 
BRANCH  73  74
ATOM     74  N   UNL A   1      33.431  29.532  24.762  1.00  0.00    -0.352 N 
ATOM     75  C   UNL A   1      33.729  28.670  23.741  1.00  0.00     0.253 C 
ATOM     76  H   UNL A   1      34.015  30.322  24.815  1.00  0.00     0.163 HD
ATOM     77  O   UNL A   1      34.789  28.828  23.137  1.00  0.00    -0.269 OA
BRANCH  75  78
ATOM     78  C   UNL A   1      32.823  27.580  23.312  1.00  0.00     0.065 A 
ATOM     79  C   UNL A   1      33.219  26.269  23.673  1.00  0.00     0.042 A 
ATOM     80  C   UNL A   1      31.726  27.776  22.451  1.00  0.00     0.054 A 
ATOM     81  C   UNL A   1      32.584  25.142  23.146  1.00  0.00     0.038 A 
ATOM     82  C   UNL A   1      31.170  26.650  21.854  1.00  0.00     0.029 A 
ATOM     83  C   UNL A   1      31.560  25.368  22.224  1.00  0.00     0.028 A 
BRANCH  80  84
ATOM     84  N   UNL A   1      31.213  29.063  22.189  1.00  0.00    -0.325 N 
ATOM     85  C   UNL A   1      29.929  29.551  22.259  1.00  0.00     0.227 C 
ATOM     86  H   UNL A   1      31.887  29.723  21.908  1.00  0.00     0.169 HD
ATOM     87  O   UNL A   1      29.771  30.762  22.085  1.00  0.00    -0.274 OA
BRANCH  85  88
ATOM     88  C   UNL A   1      28.747  28.638  22.568  1.00  0.00     0.079 C 
ATOM     89  C   UNL A   1      28.914  27.711  23.775  1.00  0.00     0.013 C 
ATOM     90  C   UNL A   1      27.442  29.339  22.953  1.00  0.00     0.013 C 
ATOM     91  C   UNL A   1      27.534  27.077  23.873  1.00  0.00     0.001 C 
ATOM     92  C   UNL A   1      26.567  28.201  23.497  1.00  0.00     0.001 C 
ENDBRANCH  85  88
ENDBRANCH  80  84
BRANCH  81  93
ATOM     93  N   UNL A   1      32.988  23.860  23.422  1.00  0.00    -0.368 N 
ATOM     94  C   UNL A   1      33.282  23.350  24.773  1.00  0.00     0.138 C 
ATOM     95  C   UNL A   1      33.033  22.858  22.346  1.00  0.00     0.138 C 
ATOM     96  C   UNL A   1      32.428  22.081  25.103  1.00  0.00     0.138 C 
ATOM     97  C   UNL A   1      32.070  21.703  22.667  1.00  0.00     0.138 C 
ATOM     98  N   UNL A   1      32.392  21.122  23.977  1.00  0.00    -0.368 N 
BRANCH  98  99
ATOM     99  C   UNL A   1      33.045  19.909  24.059  1.00  0.00     0.037 A 
ATOM    100  C   UNL A   1      32.461  18.757  23.512  1.00  0.00     0.029 A 
ATOM    101  C   UNL A   1      34.321  19.784  24.631  1.00  0.00     0.029 A 
ATOM    102  C   UNL A   1      33.137  17.532  23.514  1.00  0.00     0.041 A 
ATOM    103  C   UNL A   1      34.994  18.560  24.655  1.00  0.00     0.041 A 
ATOM    104  C   UNL A   1      34.397  17.446  24.087  1.00  0.00     0.123 A 
ATOM    105  F   UNL A   1      35.048  16.276  24.087  1.00  0.00    -0.207 F 
ENDBRANCH  98  99
ENDBRANCH  81  93
ENDBRANCH  75  78
ENDBRANCH  73  74
ENDBRANCH  72  73
ENDBRANCH   1  72
TORSDOF 15
ENDMDL
MODEL 2
REMARK VINA RESULT:     -14.0      0.276      1.526
REMARK SMILES O=C(NCCCCNC(=O)c1cc(N2CCN(c3ccc(F)cc3)CC2)ccc1NC(=O)C1CCCC1)c1ccc(-c2c3nc(c(-c4c(F)c(F)c(F)c(F)c4F)c4ccc([nH]4)c(-c4c(F)c(F)c(F)c(F)c4F)c4nc(c(-c5c(F)c(F)c(F)c(F)c5F)c5ccc2[nH]5)C=C4)C=C3)cc1
REMARK SMILES IDX 5 1 4 2 3 3 1 4 2 5 38 7 39 8 100 9 40 10 99 11 41 12 42 13
REMARK SMILES IDX 43 14 93 15 44 16 98 17 92 18 94 19 45 20 97 21 91 22 90 23
REMARK SMILES IDX 46 25 78 26 58 27 77 28 59 29 62 30 76 31 95 32 60 33 61 34
REMARK SMILES IDX 75 36 96 37 63 38 47 39 48 40 56 41 49 42 50 43 54 44 57 45
REMARK SMILES IDX 51 46 52 47 55 48 53 49 79 50 80 51 88 52 81 53 82 54 86 55
REMARK SMILES IDX 89 56 83 57 84 58 87 59 85 60 64 61 65 62 73 63 66 64 67 65
REMARK SMILES IDX 71 66 74 67 68 68 69 69 72 70 70 71 6 72 7 73 8 74 9 75
REMARK SMILES IDX 10 77 11 78 12 79 29 80 13 81 28 82 27 83 30 84 31 85 32 87
REMARK SMILES IDX 33 88 34 89 37 90 35 91 36 92 14 93 15 94 26 95 16 96 25 97
REMARK SMILES IDX 17 98 18 99 19 100 24 101 20 102 23 103 21 104 22 105
REMARK H PARENT 3 6 94 24 62 35 8 76 30 86
REMARK Flexibility Score: inf
ROOT
ATOM      1  C   UNL A   1      31.340  31.678  26.707  1.00  0.00     0.023 C 
ENDROOT
BRANCH   1   2
ATOM      2  C   UNL A   1      32.646  32.422  26.957  1.00  0.00     0.116 C 
BRANCH   2   3
ATOM      3  N   UNL A   1      32.436  33.799  27.372  1.00  0.00    -0.352 N 
ATOM      4  O   UNL A   1      32.617  35.602  28.719  1.00  0.00    -0.269 OA
ATOM      5  C   UNL A   1      33.041  34.503  28.386  1.00  0.00     0.251 C 
ATOM      6  H   UNL A   1      31.765  34.298  26.853  1.00  0.00     0.163 HD
BRANCH   5   7
ATOM      7  C   UNL A   1      34.207  33.920  29.088  1.00  0.00     0.039 A 
ATOM      8  C   UNL A   1      34.029  32.939  30.066  1.00  0.00     0.014 A 
ATOM      9  C   UNL A   1      35.495  34.338  28.739  1.00  0.00     0.014 A 
ATOM     10  C   UNL A   1      35.124  32.465  30.780  1.00  0.00     0.010 A 
ATOM     11  C   UNL A   1      36.602  33.795  29.395  1.00  0.00     0.010 A 
ATOM     12  C   UNL A   1      36.423  32.861  30.429  1.00  0.00    -0.014 A 
BRANCH  12  13
ATOM     13  C   UNL A   1      37.584  32.184  31.058  1.00  0.00     0.031 A 
ATOM     14  C   UNL A   1      38.337  31.095  30.353  1.00  0.00     0.074 A 
ATOM     15  C   UNL A   1      37.937  32.564  32.304  1.00  0.00     0.049 A 
ATOM     16  N   UNL A   1      39.343  30.378  30.789  1.00  0.00    -0.248 NA
ATOM     17  C   UNL A   1      37.910  30.759  28.986  1.00  0.00     0.031 C 
ATOM     18  C   UNL A   1      37.260  33.601  33.088  1.00  0.00     0.029 A 
ATOM     19  N   UNL A   1      38.941  32.128  33.129  1.00  0.00    -0.354 N 
ATOM     20  C   UNL A   1      39.654  29.493  29.765  1.00  0.00     0.074 A 
ATOM     21  C   UNL A   1      38.725  29.754  28.685  1.00  0.00     0.031 C 
ATOM     22  C   UNL A   1      37.876  33.733  34.270  1.00  0.00     0.029 A 
ATOM     23  C   UNL A   1      38.942  32.743  34.358  1.00  0.00     0.049 A 
ATOM     24  H   UNL A   1      39.596  31.441  32.868  1.00  0.00     0.167 HD
ATOM     25  C   UNL A   1      40.629  28.554  29.739  1.00  0.00     0.037 A 
ATOM     26  C   UNL A   1      39.686  32.506  35.454  1.00  0.00     0.037 A 
ATOM     27  C   UNL A   1      41.562  28.322  30.813  1.00  0.00     0.049 A 
ATOM     28  C   UNL A   1      40.728  31.427  35.401  1.00  0.00     0.074 A 
ATOM     29  C   UNL A   1      42.640  27.454  30.845  1.00  0.00     0.029 A 
ATOM     30  N   UNL A   1      41.517  28.948  32.050  1.00  0.00    -0.354 N 
ATOM     31  N   UNL A   1      41.067  30.655  34.398  1.00  0.00    -0.248 NA
ATOM     32  C   UNL A   1      41.488  31.179  36.633  1.00  0.00     0.031 C 
ATOM     33  C   UNL A   1      43.203  27.501  32.123  1.00  0.00     0.029 A 
ATOM     34  C   UNL A   1      42.516  28.444  32.869  1.00  0.00     0.049 A 
ATOM     35  H   UNL A   1      40.874  29.647  32.308  1.00  0.00     0.167 HD
ATOM     36  C   UNL A   1      42.081  29.838  34.873  1.00  0.00     0.074 A 
ATOM     37  C   UNL A   1      42.328  30.231  36.244  1.00  0.00     0.031 C 
ATOM     38  C   UNL A   1      42.744  28.843  34.235  1.00  0.00     0.037 A 
BRANCH  25  39
ATOM     39  C   UNL A   1      40.745  27.674  28.527  1.00  0.00     0.064 A 
ATOM     40  C   UNL A   1      40.021  26.479  28.407  1.00  0.00     0.173 A 
ATOM     41  C   UNL A   1      41.503  28.096  27.423  1.00  0.00     0.173 A 
ATOM     42  F   UNL A   1      39.283  26.029  29.433  1.00  0.00    -0.203 F 
ATOM     43  C   UNL A   1      40.056  25.736  27.228  1.00  0.00     0.198 A 
ATOM     44  C   UNL A   1      41.516  27.364  26.238  1.00  0.00     0.198 A 
ATOM     45  F   UNL A   1      42.206  29.237  27.482  1.00  0.00    -0.203 F 
ATOM     46  F   UNL A   1      39.371  24.588  27.140  1.00  0.00    -0.200 F 
ATOM     47  C   UNL A   1      40.793  26.186  26.142  1.00  0.00     0.200 A 
ATOM     48  F   UNL A   1      42.214  27.810  25.185  1.00  0.00    -0.200 F 
ATOM     49  F   UNL A   1      40.805  25.482  25.001  1.00  0.00    -0.200 F 
ENDBRANCH  25  39
BRANCH  26  50
ATOM     50  C   UNL A   1      39.431  33.267  36.706  1.00  0.00     0.064 A 
ATOM     51  C   UNL A   1      38.515  32.809  37.662  1.00  0.00     0.173 A 
ATOM     52  C   UNL A   1      40.083  34.485  36.959  1.00  0.00     0.173 A 
ATOM     53  F   UNL A   1      37.852  31.661  37.457  1.00  0.00    -0.203 F 
ATOM     54  C   UNL A   1      38.237  33.553  38.806  1.00  0.00     0.198 A 
ATOM     55  C   UNL A   1      39.834  35.208  38.122  1.00  0.00     0.198 A 
ATOM     56  F   UNL A   1      40.973  34.968  36.080  1.00  0.00    -0.203 F 
ATOM     57  F   UNL A   1      37.310  33.123  39.672  1.00  0.00    -0.200 F 
ATOM     58  C   UNL A   1      38.900  34.749  39.038  1.00  0.00     0.200 A 
ATOM     59  F   UNL A   1      40.490  36.353  38.350  1.00  0.00    -0.200 F 
ATOM     60  F   UNL A   1      38.630  35.465  40.138  1.00  0.00    -0.200 F 
ENDBRANCH  26  50
BRANCH  38  61
ATOM     61  C   UNL A   1      43.800  28.115  35.011  1.00  0.00     0.064 A 
ATOM     62  C   UNL A   1      45.117  28.593  35.077  1.00  0.00     0.173 A 
ATOM     63  C   UNL A   1      43.485  26.951  35.729  1.00  0.00     0.173 A 
ATOM     64  F   UNL A   1      45.473  29.690  34.392  1.00  0.00    -0.203 F 
ATOM     65  C   UNL A   1      46.085  27.922  35.819  1.00  0.00     0.198 A 
ATOM     66  C   UNL A   1      44.447  26.302  36.496  1.00  0.00     0.198 A 
ATOM     67  F   UNL A   1      42.239  26.456  35.701  1.00  0.00    -0.203 F 
ATOM     68  F   UNL A   1      47.348  28.371  35.831  1.00  0.00    -0.200 F 
ATOM     69  C   UNL A   1      45.747  26.783  36.536  1.00  0.00     0.200 A 
ATOM     70  F   UNL A   1      44.116  25.210  37.200  1.00  0.00    -0.200 F 
ATOM     71  F   UNL A   1      46.676  26.146  37.260  1.00  0.00    -0.200 F 
ENDBRANCH  38  61
ENDBRANCH  12  13
ENDBRANCH   5   7
ENDBRANCH   2   3
ENDBRANCH   1   2
BRANCH   1  72
ATOM     72  C   UNL A   1      31.409  30.556  25.667  1.00  0.00     0.023 C 
BRANCH  72  73
ATOM     73  C   UNL A   1      32.550  29.558  25.856  1.00  0.00     0.116 C 
BRANCH  73  74
ATOM     74  N   UNL A   1      33.519  29.620  24.777  1.00  0.00    -0.352 N 
ATOM     75  C   UNL A   1      33.760  28.758  23.741  1.00  0.00     0.253 C 
ATOM     76  H   UNL A   1      34.100  30.414  24.792  1.00  0.00     0.163 HD
ATOM     77  O   UNL A   1      34.779  28.921  23.072  1.00  0.00    -0.269 OA
BRANCH  75  78
ATOM     78  C   UNL A   1      32.836  27.661  23.370  1.00  0.00     0.065 A 
ATOM     79  C   UNL A   1      33.244  26.357  23.742  1.00  0.00     0.042 A 
ATOM     80  C   UNL A   1      31.706  27.841  22.549  1.00  0.00     0.054 A 
ATOM     81  C   UNL A   1      32.587  25.221  23.263  1.00  0.00     0.038 A 
ATOM     82  C   UNL A   1      31.126  26.705  21.998  1.00  0.00     0.029 A 
ATOM     83  C   UNL A   1      31.528  25.430  22.378  1.00  0.00     0.028 A 
BRANCH  80  84
ATOM     84  N   UNL A   1      31.185  29.124  22.281  1.00  0.00    -0.325 N 
ATOM     85  C   UNL A   1      29.894  29.598  22.326  1.00  0.00     0.227 C 
ATOM     86  H   UNL A   1      31.857  29.792  22.016  1.00  0.00     0.169 HD
ATOM     87  O   UNL A   1      29.727  30.809  22.153  1.00  0.00    -0.274 OA
BRANCH  85  88
ATOM     88  C   UNL A   1      28.716  28.672  22.607  1.00  0.00     0.079 C 
ATOM     89  C   UNL A   1      28.874  27.731  23.804  1.00  0.00     0.013 C 
ATOM     90  C   UNL A   1      27.400  29.357  22.983  1.00  0.00     0.013 C 
ATOM     91  C   UNL A   1      27.499  27.084  23.876  1.00  0.00     0.001 C 
ATOM     92  C   UNL A   1      26.528  28.205  23.501  1.00  0.00     0.001 C 
ENDBRANCH  85  88
ENDBRANCH  80  84
BRANCH  81  93
ATOM     93  N   UNL A   1      33.000  23.944  23.550  1.00  0.00    -0.368 N 
ATOM     94  C   UNL A   1      33.250  23.432  24.909  1.00  0.00     0.138 C 
ATOM     95  C   UNL A   1      33.101  22.947  22.472  1.00  0.00     0.138 C 
ATOM     96  C   UNL A   1      32.404  22.149  25.201  1.00  0.00     0.138 C 
ATOM     97  C   UNL A   1      32.144  21.777  22.752  1.00  0.00     0.138 C 
ATOM     98  N   UNL A   1      32.425  21.195  24.071  1.00  0.00    -0.368 N 
BRANCH  98  99
ATOM     99  C   UNL A   1      33.093  19.991  24.173  1.00  0.00     0.037 A 
ATOM    100  C   UNL A   1      32.532  18.827  23.628  1.00  0.00     0.029 A 
ATOM    101  C   UNL A   1      34.362  19.889  24.764  1.00  0.00     0.029 A 
ATOM    102  C   UNL A   1      33.224  17.611  23.650  1.00  0.00     0.041 A 
ATOM    103  C   UNL A   1      35.051  18.674  24.808  1.00  0.00     0.041 A 
ATOM    104  C   UNL A   1      34.477  17.547  24.241  1.00  0.00     0.123 A 
ATOM    105  F   UNL A   1      35.143  16.385  24.261  1.00  0.00    -0.207 F 
ENDBRANCH  98  99
ENDBRANCH  81  93
ENDBRANCH  75  78
ENDBRANCH  73  74
ENDBRANCH  72  73
ENDBRANCH   1  72
TORSDOF 15
ENDMDL
MODEL 3
REMARK VINA RESULT:     -13.6      1.865      7.102
REMARK SMILES O=C(NCCCCNC(=O)c1cc(N2CCN(c3ccc(F)cc3)CC2)ccc1NC(=O)C1CCCC1)c1ccc(-c2c3nc(c(-c4c(F)c(F)c(F)c(F)c4F)c4ccc([nH]4)c(-c4c(F)c(F)c(F)c(F)c4F)c4nc(c(-c5c(F)c(F)c(F)c(F)c5F)c5ccc2[nH]5)C=C4)C=C3)cc1
REMARK SMILES IDX 5 1 4 2 3 3 1 4 2 5 38 7 39 8 100 9 40 10 99 11 41 12 42 13
REMARK SMILES IDX 43 14 93 15 44 16 98 17 92 18 94 19 45 20 97 21 91 22 90 23
REMARK SMILES IDX 46 25 78 26 58 27 77 28 59 29 62 30 76 31 95 32 60 33 61 34
REMARK SMILES IDX 75 36 96 37 63 38 47 39 48 40 56 41 49 42 50 43 54 44 57 45
REMARK SMILES IDX 51 46 52 47 55 48 53 49 79 50 80 51 88 52 81 53 82 54 86 55
REMARK SMILES IDX 89 56 83 57 84 58 87 59 85 60 64 61 65 62 73 63 66 64 67 65
REMARK SMILES IDX 71 66 74 67 68 68 69 69 72 70 70 71 6 72 7 73 8 74 9 75
REMARK SMILES IDX 10 77 11 78 12 79 29 80 13 81 28 82 27 83 30 84 31 85 32 87
REMARK SMILES IDX 33 88 34 89 37 90 35 91 36 92 14 93 15 94 26 95 16 96 25 97
REMARK SMILES IDX 17 98 18 99 19 100 24 101 20 102 23 103 21 104 22 105
REMARK H PARENT 3 6 94 24 62 35 8 76 30 86
REMARK Flexibility Score: inf
ROOT
ATOM      1  C   UNL A   1      33.114  31.760  27.749  1.00  0.00     0.023 C 
ENDROOT
BRANCH   1   2
ATOM      2  C   UNL A   1      33.247  33.126  27.086  1.00  0.00     0.116 C 
BRANCH   2   3
ATOM      3  N   UNL A   1      32.756  34.206  27.926  1.00  0.00    -0.352 N 
ATOM      4  O   UNL A   1      32.562  35.435  29.811  1.00  0.00    -0.269 OA
ATOM      5  C   UNL A   1      33.205  34.623  29.157  1.00  0.00     0.251 C 
ATOM      6  H   UNL A   1      31.994  34.711  27.561  1.00  0.00     0.163 HD
BRANCH   5   7
ATOM      7  C   UNL A   1      34.468  34.075  29.700  1.00  0.00     0.039 A 
ATOM      8  C   UNL A   1      34.459  33.253  30.829  1.00  0.00     0.014 A 
ATOM      9  C   UNL A   1      35.673  34.364  29.050  1.00  0.00     0.014 A 
ATOM     10  C   UNL A   1      35.659  32.820  31.379  1.00  0.00     0.010 A 
ATOM     11  C   UNL A   1      36.871  33.853  29.554  1.00  0.00     0.010 A 
ATOM     12  C   UNL A   1      36.874  33.085  30.729  1.00  0.00    -0.014 A 
BRANCH  12  13
ATOM     13  C   UNL A   1      38.116  32.434  31.217  1.00  0.00     0.031 A 
ATOM     14  C   UNL A   1      38.937  33.033  32.320  1.00  0.00     0.074 A 
ATOM     15  C   UNL A   1      38.502  31.286  30.622  1.00  0.00     0.049 A 
ATOM     16  N   UNL A   1      40.068  32.608  32.825  1.00  0.00    -0.248 NA
ATOM     17  C   UNL A   1      38.434  34.270  32.938  1.00  0.00     0.031 C 
ATOM     18  C   UNL A   1      37.786  30.626  29.526  1.00  0.00     0.029 A 
ATOM     19  N   UNL A   1      39.583  30.473  30.847  1.00  0.00    -0.354 N 
ATOM     20  C   UNL A   1      40.424  33.531  33.799  1.00  0.00     0.074 A 
ATOM     21  C   UNL A   1      39.394  34.548  33.811  1.00  0.00     0.031 C 
ATOM     22  C   UNL A   1      38.435  29.505  29.186  1.00  0.00     0.029 A 
ATOM     23  C   UNL A   1      39.649  29.404  29.986  1.00  0.00     0.049 A 
ATOM     24  H   UNL A   1      40.247  30.640  31.554  1.00  0.00     0.167 HD
ATOM     25  C   UNL A   1      41.513  33.520  34.604  1.00  0.00     0.037 A 
ATOM     26  C   UNL A   1      40.604  28.470  29.824  1.00  0.00     0.037 A 
ATOM     27  C   UNL A   1      42.518  32.486  34.596  1.00  0.00     0.049 A 
ATOM     28  C   UNL A   1      41.817  28.515  30.707  1.00  0.00     0.074 A 
ATOM     29  C   UNL A   1      43.610  32.341  35.434  1.00  0.00     0.029 A 
ATOM     30  N   UNL A   1      42.563  31.432  33.695  1.00  0.00    -0.354 N 
ATOM     31  N   UNL A   1      42.101  29.346  31.680  1.00  0.00    -0.248 NA
ATOM     32  C   UNL A   1      42.850  27.499  30.465  1.00  0.00     0.031 C 
ATOM     33  C   UNL A   1      44.356  31.243  34.997  1.00  0.00     0.029 A 
ATOM     34  C   UNL A   1      43.695  30.665  33.924  1.00  0.00     0.049 A 
ATOM     35  H   UNL A   1      41.891  31.254  32.998  1.00  0.00     0.167 HD
ATOM     36  C   UNL A   1      43.335  28.950  32.171  1.00  0.00     0.074 A 
ATOM     37  C   UNL A   1      43.732  27.783  31.413  1.00  0.00     0.031 C 
ATOM     38  C   UNL A   1      44.079  29.509  33.156  1.00  0.00     0.037 A 
BRANCH  25  39
ATOM     39  C   UNL A   1      41.712  34.663  35.557  1.00  0.00     0.064 A 
ATOM     40  C   UNL A   1      41.241  34.619  36.878  1.00  0.00     0.173 A 
ATOM     41  C   UNL A   1      42.488  35.769  35.175  1.00  0.00     0.173 A 
ATOM     42  F   UNL A   1      40.492  33.586  37.293  1.00  0.00    -0.203 F 
ATOM     43  C   UNL A   1      41.535  35.641  37.777  1.00  0.00     0.198 A 
ATOM     44  C   UNL A   1      42.801  36.776  36.084  1.00  0.00     0.198 A 
ATOM     45  F   UNL A   1      42.972  35.856  33.926  1.00  0.00    -0.203 F 
ATOM     46  F   UNL A   1      41.061  35.587  39.029  1.00  0.00    -0.200 F 
ATOM     47  C   UNL A   1      42.325  36.712  37.383  1.00  0.00     0.200 A 
ATOM     48  F   UNL A   1      43.579  37.801  35.705  1.00  0.00    -0.200 F 
ATOM     49  F   UNL A   1      42.627  37.681  38.258  1.00  0.00    -0.200 F 
ENDBRANCH  25  39
BRANCH  26  50
ATOM     50  C   UNL A   1      40.474  27.452  28.748  1.00  0.00     0.064 A 
ATOM     51  C   UNL A   1      41.171  27.578  27.539  1.00  0.00     0.173 A 
ATOM     52  C   UNL A   1      39.628  26.341  28.900  1.00  0.00     0.173 A 
ATOM     53  F   UNL A   1      41.976  28.632  27.338  1.00  0.00    -0.203 F 
ATOM     54  C   UNL A   1      41.001  26.652  26.512  1.00  0.00     0.198 A 
ATOM     55  C   UNL A   1      39.491  25.395  27.888  1.00  0.00     0.198 A 
ATOM     56  F   UNL A   1      38.941  26.168  30.039  1.00  0.00    -0.203 F 
ATOM     57  F   UNL A   1      41.631  26.832  25.343  1.00  0.00    -0.200 F 
ATOM     58  C   UNL A   1      40.167  25.559  26.690  1.00  0.00     0.200 A 
ATOM     59  F   UNL A   1      38.698  24.331  28.071  1.00  0.00    -0.200 F 
ATOM     60  F   UNL A   1      40.004  24.670  25.700  1.00  0.00    -0.200 F 
ENDBRANCH  26  50
BRANCH  38  61
ATOM     61  C   UNL A   1      45.394  28.861  33.472  1.00  0.00     0.064 A 
ATOM     62  C   UNL A   1      46.583  29.286  32.862  1.00  0.00     0.173 A 
ATOM     63  C   UNL A   1      45.473  27.832  34.423  1.00  0.00     0.173 A 
ATOM     64  F   UNL A   1      46.556  30.252  31.931  1.00  0.00    -0.203 F 
ATOM     65  C   UNL A   1      47.802  28.693  33.179  1.00  0.00     0.198 A 
ATOM     66  C   UNL A   1      46.697  27.264  34.762  1.00  0.00     0.198 A 
ATOM     67  F   UNL A   1      44.365  27.391  35.037  1.00  0.00    -0.203 F 
ATOM     68  F   UNL A   1      48.918  29.084  32.550  1.00  0.00    -0.200 F 
ATOM     69  C   UNL A   1      47.859  27.690  34.135  1.00  0.00     0.200 A 
ATOM     70  F   UNL A   1      46.754  26.305  35.697  1.00  0.00    -0.200 F 
ATOM     71  F   UNL A   1      49.034  27.129  34.449  1.00  0.00    -0.200 F 
ENDBRANCH  38  61
ENDBRANCH  12  13
ENDBRANCH   5   7
ENDBRANCH   2   3
ENDBRANCH   1   2
BRANCH   1  72
ATOM     72  C   UNL A   1      34.362  30.875  27.689  1.00  0.00     0.023 C 
BRANCH  72  73
ATOM     73  C   UNL A   1      34.121  29.434  27.246  1.00  0.00     0.116 C 
BRANCH  73  74
ATOM     74  N   UNL A   1      32.970  28.841  27.902  1.00  0.00    -0.352 N 
ATOM     75  C   UNL A   1      31.860  28.231  27.383  1.00  0.00     0.253 C 
ATOM     76  H   UNL A   1      32.990  28.885  28.885  1.00  0.00     0.163 HD
ATOM     77  O   UNL A   1      30.917  27.997  28.137  1.00  0.00    -0.269 OA
BRANCH  75  78
ATOM     78  C   UNL A   1      31.755  27.814  25.965  1.00  0.00     0.065 A 
ATOM     79  C   UNL A   1      31.845  26.422  25.723  1.00  0.00     0.042 A 
ATOM     80  C   UNL A   1      31.743  28.720  24.888  1.00  0.00     0.054 A 
ATOM     81  C   UNL A   1      31.985  25.913  24.430  1.00  0.00     0.038 A 
ATOM     82  C   UNL A   1      31.987  28.210  23.618  1.00  0.00     0.029 A 
ATOM     83  C   UNL A   1      32.064  26.841  23.390  1.00  0.00     0.028 A 
BRANCH  80  84
ATOM     84  N   UNL A   1      31.507  30.097  25.083  1.00  0.00    -0.325 N 
ATOM     85  C   UNL A   1      30.481  30.904  24.647  1.00  0.00     0.227 C 
ATOM     86  H   UNL A   1      32.191  30.558  25.619  1.00  0.00     0.169 HD
ATOM     87  O   UNL A   1      30.458  32.066  25.062  1.00  0.00    -0.274 OA
BRANCH  85  88
ATOM     88  C   UNL A   1      29.398  30.379  23.711  1.00  0.00     0.079 C 
ATOM     89  C   UNL A   1      28.093  31.178  23.682  1.00  0.00     0.013 C 
ATOM     90  C   UNL A   1      29.743  30.384  22.219  1.00  0.00     0.013 C 
ATOM     91  C   UNL A   1      27.326  30.480  22.569  1.00  0.00     0.001 C 
ATOM     92  C   UNL A   1      28.394  30.116  21.536  1.00  0.00     0.001 C 
ENDBRANCH  85  88
ENDBRANCH  80  84
BRANCH  81  93
ATOM     93  N   UNL A   1      32.143  24.574  24.168  1.00  0.00    -0.368 N 
ATOM     94  C   UNL A   1      32.701  24.027  22.918  1.00  0.00     0.138 C 
ATOM     95  C   UNL A   1      31.862  23.584  25.219  1.00  0.00     0.138 C 
ATOM     96  C   UNL A   1      33.922  23.092  23.200  1.00  0.00     0.138 C 
ATOM     97  C   UNL A   1      33.137  22.790  25.544  1.00  0.00     0.138 C 
ATOM     98  N   UNL A   1      33.671  22.166  24.326  1.00  0.00    -0.368 N 
BRANCH  98  99
ATOM     99  C   UNL A   1      33.510  20.812  24.108  1.00  0.00     0.037 A 
ATOM    100  C   UNL A   1      34.383  19.894  24.710  1.00  0.00     0.029 A 
ATOM    101  C   UNL A   1      32.454  20.300  23.338  1.00  0.00     0.029 A 
ATOM    102  C   UNL A   1      34.193  18.515  24.568  1.00  0.00     0.041 A 
ATOM    103  C   UNL A   1      32.270  18.925  23.174  1.00  0.00     0.041 A 
ATOM    104  C   UNL A   1      33.138  18.045  23.800  1.00  0.00     0.123 A 
ATOM    105  F   UNL A   1      32.952  16.725  23.664  1.00  0.00    -0.207 F 
ENDBRANCH  98  99
ENDBRANCH  81  93
ENDBRANCH  75  78
ENDBRANCH  73  74
ENDBRANCH  72  73
ENDBRANCH   1  72
TORSDOF 15
ENDMDL
