MODEL 1
REMARK VINA RESULT:     -12.7      0.000      0.000
REMARK SMILES C[NH+]1CCC(NC(=O)N[C@@H]2C=C[C@H](C(=O)NCCCCNC(=O)c3ccc(-c4c5nc(c(-c6c(F)c(F)c(F)c(F)c6F)c6ccc([nH]6)c(-c6c(F)c(F)c(F)c(F)c6F)c6nc(c(-c7c(F)c(F)c(F)c(F)c7F)c7ccc4[nH]7)C=C6)C=C5)cc3)C2)CC1
REMARK SMILES IDX 18 1 17 2 16 3 14 4 15 5 13 7 10 8 11 9 87 10 12 11 9 12
REMARK SMILES IDX 6 13 7 14 8 16 5 18 1 19 2 20 3 21 89 22 4 24 88 25 19 26
REMARK SMILES IDX 20 27 21 28 22 29 23 31 24 32 25 33 86 34 26 35 85 36 27 37
REMARK SMILES IDX 28 38 29 39 79 40 30 41 84 42 78 43 80 44 31 45 83 46 77 47
REMARK SMILES IDX 76 48 32 50 64 51 44 52 63 53 45 54 48 55 62 56 81 57 46 58
REMARK SMILES IDX 47 59 61 61 82 62 49 63 33 64 34 65 42 66 35 67 36 68 40 69
REMARK SMILES IDX 43 70 37 71 38 72 41 73 39 74 65 75 66 76 74 77 67 78 68 79
REMARK SMILES IDX 72 80 75 81 69 82 70 83 73 84 71 85 50 86 51 87 59 88 52 89
REMARK SMILES IDX 53 90 57 91 60 92 54 93 55 94 58 95 56 96
REMARK H PARENT 16 6 6 15 9 17 2 23 21 30 80 49 48 60
REMARK Flexibility Score: inf
ROOT
ATOM      1  C   UNL A   1      37.403  20.697  24.275  1.00  0.00     0.023 C 
ENDROOT
BRANCH   1   2
ATOM      2  C   UNL A   1      37.130  21.921  25.148  1.00  0.00     0.116 C 
BRANCH   2   3
ATOM      3  N   UNL A   1      36.306  21.577  26.289  1.00  0.00    -0.356 N 
ATOM      4  C   UNL A   1      34.966  21.775  26.461  1.00  0.00     0.227 C 
ATOM      5  O   UNL A   1      34.464  21.475  27.543  1.00  0.00    -0.274 OA
ATOM      6  H   UNL A   1      36.775  21.146  27.039  1.00  0.00     0.163 HD
BRANCH   4   7
ATOM      7  C   UNL A   1      34.156  22.294  25.281  1.00  0.00     0.103 C 
ATOM      8  C   UNL A   1      31.717  22.628  25.218  1.00  0.00     0.107 C 
ATOM      9  C   UNL A   1      32.122  21.303  24.658  1.00  0.00    -0.006 C 
ATOM     10  C   UNL A   1      33.029  23.239  25.719  1.00  0.00     0.047 C 
ATOM     11  C   UNL A   1      33.444  21.129  24.664  1.00  0.00    -0.016 C 
BRANCH   8  12
ATOM     12  N   UNL A   1      30.731  22.412  26.247  1.00  0.00    -0.332 N 
ATOM     13  N   UNL A   1      29.719  24.531  26.588  1.00  0.00    -0.335 N 
ATOM     14  C   UNL A   1      29.861  23.223  26.876  1.00  0.00     0.315 C 
ATOM     15  H   UNL A   1      29.044  24.991  27.137  1.00  0.00     0.165 HD
ATOM     16  O   UNL A   1      29.149  22.743  27.759  1.00  0.00    -0.249 OA
ATOM     17  H   UNL A   1      30.685  21.478  26.553  1.00  0.00     0.165 HD
BRANCH  13  18
ATOM     18  C   UNL A   1      30.375  25.387  25.620  1.00  0.00     0.095 C 
ATOM     19  C   UNL A   1      32.103  28.228  23.057  1.00  0.00     0.332 C 
ATOM     20  N   UNL A   1      31.208  27.685  24.084  1.00  0.00    -0.337 N 
ATOM     21  C   UNL A   1      32.002  27.219  25.230  1.00  0.00     0.264 C 
ATOM     22  C   UNL A   1      30.347  26.641  23.503  1.00  0.00     0.264 C 
ATOM     23  H   UNL A   1      30.581  28.411  24.431  1.00  0.00     0.347 HD
ATOM     24  C   UNL A   1      31.150  26.519  26.286  1.00  0.00     0.086 C 
ATOM     25  C   UNL A   1      29.455  25.968  24.556  1.00  0.00     0.086 C 
ENDBRANCH  13  18
ENDBRANCH   8  12
ENDBRANCH   4   7
ENDBRANCH   2   3
ENDBRANCH   1   2
BRANCH   1  26
ATOM     26  C   UNL A   1      38.140  19.565  25.000  1.00  0.00     0.023 C 
BRANCH  26  27
ATOM     27  C   UNL A   1      39.330  20.008  25.843  1.00  0.00     0.116 C 
BRANCH  27  28
ATOM     28  N   UNL A   1      40.392  19.018  25.882  1.00  0.00    -0.352 N 
ATOM     29  C   UNL A   1      41.743  19.201  26.038  1.00  0.00     0.251 C 
ATOM     30  H   UNL A   1      40.100  18.082  25.783  1.00  0.00     0.163 HD
ATOM     31  O   UNL A   1      42.509  18.255  25.904  1.00  0.00    -0.269 OA
BRANCH  29  32
ATOM     32  C   UNL A   1      42.275  20.549  26.335  1.00  0.00     0.039 A 
ATOM     33  C   UNL A   1      42.648  21.368  25.267  1.00  0.00     0.014 A 
ATOM     34  C   UNL A   1      42.410  21.004  27.650  1.00  0.00     0.014 A 
ATOM     35  C   UNL A   1      43.110  22.659  25.516  1.00  0.00     0.010 A 
ATOM     36  C   UNL A   1      42.793  22.321  27.892  1.00  0.00     0.010 A 
ATOM     37  C   UNL A   1      43.157  23.159  26.829  1.00  0.00    -0.014 A 
BRANCH  37  38
ATOM     38  C   UNL A   1      43.589  24.556  27.090  1.00  0.00     0.031 A 
ATOM     39  C   UNL A   1      42.603  25.579  27.585  1.00  0.00     0.074 A 
ATOM     40  C   UNL A   1      44.864  24.912  26.846  1.00  0.00     0.049 A 
ATOM     41  N   UNL A   1      42.797  26.841  27.876  1.00  0.00    -0.248 NA
ATOM     42  C   UNL A   1      41.211  25.134  27.752  1.00  0.00     0.031 C 
ATOM     43  C   UNL A   1      45.897  24.028  26.303  1.00  0.00     0.029 A 
ATOM     44  N   UNL A   1      45.510  26.110  27.019  1.00  0.00    -0.354 N 
ATOM     45  C   UNL A   1      41.555  27.340  28.247  1.00  0.00     0.074 A 
ATOM     46  C   UNL A   1      40.603  26.262  28.086  1.00  0.00     0.031 C 
ATOM     47  C   UNL A   1      47.053  24.704  26.216  1.00  0.00     0.029 A 
ATOM     48  C   UNL A   1      46.835  26.077  26.664  1.00  0.00     0.049 A 
ATOM     49  H   UNL A   1      45.065  26.917  27.366  1.00  0.00     0.167 HD
ATOM     50  C   UNL A   1      41.241  28.575  28.706  1.00  0.00     0.037 A 
ATOM     51  C   UNL A   1      47.771  27.044  26.693  1.00  0.00     0.037 A 
ATOM     52  C   UNL A   1      42.196  29.640  28.878  1.00  0.00     0.049 A 
ATOM     53  C   UNL A   1      47.401  28.405  27.216  1.00  0.00     0.074 A 
ATOM     54  C   UNL A   1      41.993  30.906  29.398  1.00  0.00     0.029 A 
ATOM     55  N   UNL A   1      43.536  29.564  28.525  1.00  0.00    -0.354 N 
ATOM     56  N   UNL A   1      46.242  28.839  27.651  1.00  0.00    -0.248 NA
ATOM     57  C   UNL A   1      48.473  29.408  27.267  1.00  0.00     0.031 C 
ATOM     58  C   UNL A   1      43.195  31.616  29.303  1.00  0.00     0.029 A 
ATOM     59  C   UNL A   1      44.164  30.772  28.788  1.00  0.00     0.049 A 
ATOM     60  H   UNL A   1      43.976  28.770  28.143  1.00  0.00     0.167 HD
ATOM     61  C   UNL A   1      46.451  30.152  28.051  1.00  0.00     0.074 A 
ATOM     62  C   UNL A   1      47.853  30.436  27.828  1.00  0.00     0.031 C 
ATOM     63  C   UNL A   1      45.561  31.042  28.558  1.00  0.00     0.037 A 
BRANCH  50  64
ATOM     64  C   UNL A   1      39.802  28.844  29.047  1.00  0.00     0.064 A 
ATOM     65  C   UNL A   1      39.301  28.656  30.345  1.00  0.00     0.173 A 
ATOM     66  C   UNL A   1      38.917  29.327  28.071  1.00  0.00     0.173 A 
ATOM     67  F   UNL A   1      40.100  28.187  31.316  1.00  0.00    -0.203 F 
ATOM     68  C   UNL A   1      37.964  28.904  30.643  1.00  0.00     0.198 A 
ATOM     69  C   UNL A   1      37.589  29.608  28.381  1.00  0.00     0.198 A 
ATOM     70  F   UNL A   1      39.342  29.532  26.815  1.00  0.00    -0.203 F 
ATOM     71  F   UNL A   1      37.496  28.659  31.875  1.00  0.00    -0.200 F 
ATOM     72  C   UNL A   1      37.111  29.386  29.663  1.00  0.00     0.200 A 
ATOM     73  F   UNL A   1      36.769  30.089  27.435  1.00  0.00    -0.200 F 
ATOM     74  F   UNL A   1      35.825  29.631  29.952  1.00  0.00    -0.200 F 
ENDBRANCH  50  64
BRANCH  51  75
ATOM     75  C   UNL A   1      49.156  26.750  26.238  1.00  0.00     0.064 A 
ATOM     76  C   UNL A   1      49.535  26.935  24.901  1.00  0.00     0.173 A 
ATOM     77  C   UNL A   1      50.130  26.278  27.132  1.00  0.00     0.173 A 
ATOM     78  F   UNL A   1      48.636  27.367  24.004  1.00  0.00    -0.203 F 
ATOM     79  C   UNL A   1      50.826  26.636  24.470  1.00  0.00     0.198 A 
ATOM     80  C   UNL A   1      51.429  26.011  26.706  1.00  0.00     0.198 A 
ATOM     81  F   UNL A   1      49.822  26.092  28.423  1.00  0.00    -0.203 F 
ATOM     82  F   UNL A   1      51.146  26.775  23.176  1.00  0.00    -0.200 F 
ATOM     83  C   UNL A   1      51.774  26.182  25.374  1.00  0.00     0.200 A 
ATOM     84  F   UNL A   1      52.347  25.590  27.586  1.00  0.00    -0.200 F 
ATOM     85  F   UNL A   1      53.017  25.901  24.960  1.00  0.00    -0.200 F 
ENDBRANCH  51  75
BRANCH  63  86
ATOM     86  C   UNL A   1      46.090  32.397  28.940  1.00  0.00     0.064 A 
ATOM     87  C   UNL A   1      46.074  33.478  28.045  1.00  0.00     0.173 A 
ATOM     88  C   UNL A   1      46.605  32.619  30.227  1.00  0.00     0.173 A 
ATOM     89  F   UNL A   1      45.604  33.317  26.799  1.00  0.00    -0.203 F 
ATOM     90  C   UNL A   1      46.592  34.718  28.411  1.00  0.00     0.198 A 
ATOM     91  C   UNL A   1      47.087  33.871  30.601  1.00  0.00     0.198 A 
ATOM     92  F   UNL A   1      46.636  31.624  31.125  1.00  0.00    -0.203 F 
ATOM     93  F   UNL A   1      46.627  35.717  27.518  1.00  0.00    -0.200 F 
ATOM     94  C   UNL A   1      47.092  34.915  29.689  1.00  0.00     0.200 A 
ATOM     95  F   UNL A   1      47.554  34.062  31.842  1.00  0.00    -0.200 F 
ATOM     96  F   UNL A   1      47.589  36.110  30.040  1.00  0.00    -0.200 F 
ENDBRANCH  63  86
ENDBRANCH  37  38
ENDBRANCH  29  32
ENDBRANCH  27  28
ENDBRANCH  26  27
ENDBRANCH   1  26
TORSDOF 13
ENDMDL
MODEL 2
REMARK VINA RESULT:     -12.7      0.787      7.355
REMARK SMILES C[NH+]1CCC(NC(=O)N[C@@H]2C=C[C@H](C(=O)NCCCCNC(=O)c3ccc(-c4c5nc(c(-c6c(F)c(F)c(F)c(F)c6F)c6ccc([nH]6)c(-c6c(F)c(F)c(F)c(F)c6F)c6nc(c(-c7c(F)c(F)c(F)c(F)c7F)c7ccc4[nH]7)C=C6)C=C5)cc3)C2)CC1
REMARK SMILES IDX 18 1 17 2 16 3 14 4 15 5 13 7 10 8 11 9 87 10 12 11 9 12
REMARK SMILES IDX 6 13 7 14 8 16 5 18 1 19 2 20 3 21 89 22 4 24 88 25 19 26
REMARK SMILES IDX 20 27 21 28 22 29 23 31 24 32 25 33 86 34 26 35 85 36 27 37
REMARK SMILES IDX 28 38 29 39 79 40 30 41 84 42 78 43 80 44 31 45 83 46 77 47
REMARK SMILES IDX 76 48 32 50 64 51 44 52 63 53 45 54 48 55 62 56 81 57 46 58
REMARK SMILES IDX 47 59 61 61 82 62 49 63 33 64 34 65 42 66 35 67 36 68 40 69
REMARK SMILES IDX 43 70 37 71 38 72 41 73 39 74 65 75 66 76 74 77 67 78 68 79
REMARK SMILES IDX 72 80 75 81 69 82 70 83 73 84 71 85 50 86 51 87 59 88 52 89
REMARK SMILES IDX 53 90 57 91 60 92 54 93 55 94 58 95 56 96
REMARK H PARENT 16 6 6 15 9 17 2 23 21 30 80 49 48 60
REMARK Flexibility Score: inf
ROOT
ATOM      1  C   UNL A   1      37.638  20.902  24.626  1.00  0.00     0.023 C 
ENDROOT
BRANCH   1   2
ATOM      2  C   UNL A   1      36.391  21.115  25.482  1.00  0.00     0.116 C 
BRANCH   2   3
ATOM      3  N   UNL A   1      35.368  20.137  25.168  1.00  0.00    -0.356 N 
ATOM      4  C   UNL A   1      34.115  20.348  24.670  1.00  0.00     0.227 C 
ATOM      5  O   UNL A   1      33.365  19.380  24.541  1.00  0.00    -0.274 OA
ATOM      6  H   UNL A   1      35.609  19.199  25.339  1.00  0.00     0.163 HD
BRANCH   4   7
ATOM      7  C   UNL A   1      33.737  21.758  24.238  1.00  0.00     0.103 C 
ATOM      8  C   UNL A   1      31.882  23.110  25.130  1.00  0.00     0.107 C 
ATOM      9  C   UNL A   1      31.500  22.376  23.887  1.00  0.00    -0.006 C 
ATOM     10  C   UNL A   1      33.308  22.635  25.423  1.00  0.00     0.047 C 
ATOM     11  C   UNL A   1      32.509  21.664  23.383  1.00  0.00    -0.016 C 
BRANCH   8  12
ATOM     12  N   UNL A   1      30.928  22.797  26.164  1.00  0.00    -0.332 N 
ATOM     13  N   UNL A   1      29.739  24.815  26.540  1.00  0.00    -0.335 N 
ATOM     14  C   UNL A   1      29.996  23.521  26.809  1.00  0.00     0.315 C 
ATOM     15  H   UNL A   1      29.030  25.208  27.099  1.00  0.00     0.165 HD
ATOM     16  O   UNL A   1      29.336  22.970  27.692  1.00  0.00    -0.249 OA
ATOM     17  H   UNL A   1      30.966  21.858  26.458  1.00  0.00     0.165 HD
BRANCH  13  18
ATOM     18  C   UNL A   1      30.309  25.737  25.578  1.00  0.00     0.095 C 
ATOM     19  C   UNL A   1      31.761  28.749  23.039  1.00  0.00     0.332 C 
ATOM     20  N   UNL A   1      30.926  28.118  24.067  1.00  0.00    -0.337 N 
ATOM     21  C   UNL A   1      31.769  27.706  25.199  1.00  0.00     0.264 C 
ATOM     22  C   UNL A   1      30.151  27.012  23.479  1.00  0.00     0.264 C 
ATOM     23  H   UNL A   1      30.243  28.783  24.430  1.00  0.00     0.347 HD
ATOM     24  C   UNL A   1      30.991  26.922  26.253  1.00  0.00     0.086 C 
ATOM     25  C   UNL A   1      29.331  26.251  24.531  1.00  0.00     0.086 C 
ENDBRANCH  13  18
ENDBRANCH   8  12
ENDBRANCH   4   7
ENDBRANCH   2   3
ENDBRANCH   1   2
BRANCH   1  26
ATOM     26  C   UNL A   1      38.423  19.631  24.971  1.00  0.00     0.023 C 
BRANCH  26  27
ATOM     27  C   UNL A   1      39.438  19.786  26.096  1.00  0.00     0.116 C 
BRANCH  27  28
ATOM     28  N   UNL A   1      40.564  18.878  25.969  1.00  0.00    -0.352 N 
ATOM     29  C   UNL A   1      41.909  19.151  26.013  1.00  0.00     0.251 C 
ATOM     30  H   UNL A   1      40.329  17.932  25.830  1.00  0.00     0.163 HD
ATOM     31  O   UNL A   1      42.721  18.276  25.743  1.00  0.00    -0.269 OA
BRANCH  29  32
ATOM     32  C   UNL A   1      42.373  20.513  26.356  1.00  0.00     0.039 A 
ATOM     33  C   UNL A   1      42.679  21.393  25.315  1.00  0.00     0.014 A 
ATOM     34  C   UNL A   1      42.511  20.922  27.685  1.00  0.00     0.014 A 
ATOM     35  C   UNL A   1      43.076  22.697  25.608  1.00  0.00     0.010 A 
ATOM     36  C   UNL A   1      42.827  22.247  27.973  1.00  0.00     0.010 A 
ATOM     37  C   UNL A   1      43.124  23.145  26.939  1.00  0.00    -0.014 A 
BRANCH  37  38
ATOM     38  C   UNL A   1      43.484  24.552  27.250  1.00  0.00     0.031 A 
ATOM     39  C   UNL A   1      44.882  25.053  27.008  1.00  0.00     0.074 A 
ATOM     40  C   UNL A   1      42.558  25.370  27.785  1.00  0.00     0.049 A 
ATOM     41  N   UNL A   1      45.379  26.248  27.211  1.00  0.00    -0.248 NA
ATOM     42  C   UNL A   1      45.857  24.079  26.496  1.00  0.00     0.031 C 
ATOM     43  C   UNL A   1      41.189  24.984  28.128  1.00  0.00     0.029 A 
ATOM     44  N   UNL A   1      42.628  26.694  28.139  1.00  0.00    -0.354 N 
ATOM     45  C   UNL A   1      46.720  26.165  26.862  1.00  0.00     0.074 A 
ATOM     46  C   UNL A   1      46.975  24.788  26.495  1.00  0.00     0.031 C 
ATOM     47  C   UNL A   1      40.538  26.053  28.613  1.00  0.00     0.029 A 
ATOM     48  C   UNL A   1      41.454  27.190  28.649  1.00  0.00     0.049 A 
ATOM     49  H   UNL A   1      43.443  27.237  28.037  1.00  0.00     0.167 HD
ATOM     50  C   UNL A   1      47.649  27.150  26.826  1.00  0.00     0.037 A 
ATOM     51  C   UNL A   1      41.148  28.422  29.097  1.00  0.00     0.037 A 
ATOM     52  C   UNL A   1      47.385  28.522  27.178  1.00  0.00     0.049 A 
ATOM     53  C   UNL A   1      42.193  29.503  29.037  1.00  0.00     0.074 A 
ATOM     54  C   UNL A   1      48.238  29.610  27.113  1.00  0.00     0.029 A 
ATOM     55  N   UNL A   1      46.177  28.993  27.672  1.00  0.00    -0.354 N 
ATOM     56  N   UNL A   1      43.434  29.433  28.619  1.00  0.00    -0.248 NA
ATOM     57  C   UNL A   1      41.790  30.838  29.497  1.00  0.00     0.031 C 
ATOM     58  C   UNL A   1      47.566  30.725  27.624  1.00  0.00     0.029 A 
ATOM     59  C   UNL A   1      46.272  30.349  27.944  1.00  0.00     0.049 A 
ATOM     60  H   UNL A   1      45.371  28.444  27.811  1.00  0.00     0.167 HD
ATOM     61  C   UNL A   1      43.951  30.716  28.740  1.00  0.00     0.074 A 
ATOM     62  C   UNL A   1      42.881  31.549  29.249  1.00  0.00     0.031 C 
ATOM     63  C   UNL A   1      45.199  31.165  28.454  1.00  0.00     0.037 A 
BRANCH  50  64
ATOM     64  C   UNL A   1      49.040  26.779  26.396  1.00  0.00     0.064 A 
ATOM     65  C   UNL A   1      49.982  26.260  27.299  1.00  0.00     0.173 A 
ATOM     66  C   UNL A   1      49.430  26.913  25.054  1.00  0.00     0.173 A 
ATOM     67  F   UNL A   1      49.666  26.120  28.596  1.00  0.00    -0.203 F 
ATOM     68  C   UNL A   1      51.269  25.928  26.885  1.00  0.00     0.198 A 
ATOM     69  C   UNL A   1      50.707  26.546  24.637  1.00  0.00     0.198 A 
ATOM     70  F   UNL A   1      48.571  27.397  24.145  1.00  0.00    -0.203 F 
ATOM     71  F   UNL A   1      52.167  25.492  27.779  1.00  0.00    -0.200 F 
ATOM     72  C   UNL A   1      51.628  26.064  25.553  1.00  0.00     0.200 A 
ATOM     73  F   UNL A   1      51.048  26.664  23.345  1.00  0.00    -0.200 F 
ATOM     74  F   UNL A   1      52.866  25.738  25.155  1.00  0.00    -0.200 F 
ENDBRANCH  50  64
BRANCH  51  75
ATOM     75  C   UNL A   1      39.783  28.705  29.615  1.00  0.00     0.064 A 
ATOM     76  C   UNL A   1      39.467  28.513  30.967  1.00  0.00     0.173 A 
ATOM     77  C   UNL A   1      38.767  29.174  28.769  1.00  0.00     0.173 A 
ATOM     78  F   UNL A   1      40.398  28.049  31.814  1.00  0.00    -0.203 F 
ATOM     79  C   UNL A   1      38.182  28.755  31.448  1.00  0.00     0.198 A 
ATOM     80  C   UNL A   1      37.491  29.447  29.257  1.00  0.00     0.198 A 
ATOM     81  F   UNL A   1      39.020  29.382  27.469  1.00  0.00    -0.203 F 
ATOM     82  F   UNL A   1      37.895  28.515  32.735  1.00  0.00    -0.200 F 
ATOM     83  C   UNL A   1      37.197  29.229  30.594  1.00  0.00     0.200 A 
ATOM     84  F   UNL A   1      36.548  29.922  28.433  1.00  0.00    -0.200 F 
ATOM     85  F   UNL A   1      35.963  29.468  31.059  1.00  0.00    -0.200 F 
ENDBRANCH  51  75
BRANCH  63  86
ATOM     86  C   UNL A   1      45.462  32.632  28.652  1.00  0.00     0.064 A 
ATOM     87  C   UNL A   1      45.203  33.575  27.645  1.00  0.00     0.173 A 
ATOM     88  C   UNL A   1      45.966  33.103  29.875  1.00  0.00     0.173 A 
ATOM     89  F   UNL A   1      44.734  33.177  26.453  1.00  0.00    -0.203 F 
ATOM     90  C   UNL A   1      45.478  34.926  27.840  1.00  0.00     0.198 A 
ATOM     91  C   UNL A   1      46.203  34.459  30.080  1.00  0.00     0.198 A 
ATOM     92  F   UNL A   1      46.222  32.247  30.875  1.00  0.00    -0.203 F 
ATOM     93  F   UNL A   1      45.286  35.798  26.841  1.00  0.00    -0.200 F 
ATOM     94  C   UNL A   1      45.972  35.367  29.058  1.00  0.00     0.200 A 
ATOM     95  F   UNL A   1      46.664  34.885  31.264  1.00  0.00    -0.200 F 
ATOM     96  F   UNL A   1      46.234  36.669  29.245  1.00  0.00    -0.200 F 
ENDBRANCH  63  86
ENDBRANCH  37  38
ENDBRANCH  29  32
ENDBRANCH  27  28
ENDBRANCH  26  27
ENDBRANCH   1  26
TORSDOF 13
ENDMDL
MODEL 3
REMARK VINA RESULT:     -12.7      0.891      7.352
REMARK SMILES C[NH+]1CCC(NC(=O)N[C@@H]2C=C[C@H](C(=O)NCCCCNC(=O)c3ccc(-c4c5nc(c(-c6c(F)c(F)c(F)c(F)c6F)c6ccc([nH]6)c(-c6c(F)c(F)c(F)c(F)c6F)c6nc(c(-c7c(F)c(F)c(F)c(F)c7F)c7ccc4[nH]7)C=C6)C=C5)cc3)C2)CC1
REMARK SMILES IDX 18 1 17 2 16 3 14 4 15 5 13 7 10 8 11 9 87 10 12 11 9 12
REMARK SMILES IDX 6 13 7 14 8 16 5 18 1 19 2 20 3 21 89 22 4 24 88 25 19 26
REMARK SMILES IDX 20 27 21 28 22 29 23 31 24 32 25 33 86 34 26 35 85 36 27 37
REMARK SMILES IDX 28 38 29 39 79 40 30 41 84 42 78 43 80 44 31 45 83 46 77 47
REMARK SMILES IDX 76 48 32 50 64 51 44 52 63 53 45 54 48 55 62 56 81 57 46 58
REMARK SMILES IDX 47 59 61 61 82 62 49 63 33 64 34 65 42 66 35 67 36 68 40 69
REMARK SMILES IDX 43 70 37 71 38 72 41 73 39 74 65 75 66 76 74 77 67 78 68 79
REMARK SMILES IDX 72 80 75 81 69 82 70 83 73 84 71 85 50 86 51 87 59 88 52 89
REMARK SMILES IDX 53 90 57 91 60 92 54 93 55 94 58 95 56 96
REMARK H PARENT 16 6 6 15 9 17 2 23 21 30 80 49 48 60
REMARK Flexibility Score: inf
ROOT
ATOM      1  C   UNL A   1      37.843  21.047  24.751  1.00  0.00     0.023 C 
ENDROOT
BRANCH   1   2
ATOM      2  C   UNL A   1      36.585  21.290  25.582  1.00  0.00     0.116 C 
BRANCH   2   3
ATOM      3  N   UNL A   1      35.594  20.259  25.346  1.00  0.00    -0.356 N 
ATOM      4  C   UNL A   1      34.326  20.393  24.858  1.00  0.00     0.227 C 
ATOM      5  O   UNL A   1      33.611  19.393  24.801  1.00  0.00    -0.274 OA
ATOM      6  H   UNL A   1      35.872  19.342  25.569  1.00  0.00     0.163 HD
BRANCH   4   7
ATOM      7  C   UNL A   1      33.889  21.760  24.349  1.00  0.00     0.103 C 
ATOM      8  C   UNL A   1      31.949  23.058  25.131  1.00  0.00     0.107 C 
ATOM      9  C   UNL A   1      31.634  22.246  23.917  1.00  0.00    -0.006 C 
ATOM     10  C   UNL A   1      33.389  22.670  25.479  1.00  0.00     0.047 C 
ATOM     11  C   UNL A   1      32.690  21.563  23.472  1.00  0.00    -0.016 C 
BRANCH   8  12
ATOM     12  N   UNL A   1      30.986  22.747  26.157  1.00  0.00    -0.332 N 
ATOM     13  N   UNL A   1      29.815  24.774  26.542  1.00  0.00    -0.335 N 
ATOM     14  C   UNL A   1      30.058  23.475  26.803  1.00  0.00     0.315 C 
ATOM     15  H   UNL A   1      29.108  25.170  27.101  1.00  0.00     0.165 HD
ATOM     16  O   UNL A   1      29.387  22.924  27.678  1.00  0.00    -0.249 OA
ATOM     17  H   UNL A   1      31.012  21.805  26.444  1.00  0.00     0.165 HD
BRANCH  13  18
ATOM     18  C   UNL A   1      30.400  25.698  25.591  1.00  0.00     0.095 C 
ATOM     19  C   UNL A   1      31.895  28.713  23.081  1.00  0.00     0.332 C 
ATOM     20  N   UNL A   1      31.046  28.082  24.098  1.00  0.00    -0.337 N 
ATOM     21  C   UNL A   1      31.876  27.659  25.236  1.00  0.00     0.264 C 
ATOM     22  C   UNL A   1      30.270  26.985  23.497  1.00  0.00     0.264 C 
ATOM     23  H   UNL A   1      30.364  28.749  24.459  1.00  0.00     0.347 HD
ATOM     24  C   UNL A   1      31.084  26.874  26.279  1.00  0.00     0.086 C 
ATOM     25  C   UNL A   1      29.436  26.224  24.538  1.00  0.00     0.086 C 
ENDBRANCH  13  18
ENDBRANCH   8  12
ENDBRANCH   4   7
ENDBRANCH   2   3
ENDBRANCH   1   2
BRANCH   1  26
ATOM     26  C   UNL A   1      38.543  19.717  25.052  1.00  0.00     0.023 C 
BRANCH  26  27
ATOM     27  C   UNL A   1      39.562  19.769  26.184  1.00  0.00     0.116 C 
BRANCH  27  28
ATOM     28  N   UNL A   1      40.701  18.896  25.957  1.00  0.00    -0.352 N 
ATOM     29  C   UNL A   1      42.041  19.195  25.980  1.00  0.00     0.251 C 
ATOM     30  H   UNL A   1      40.480  17.957  25.757  1.00  0.00     0.163 HD
ATOM     31  O   UNL A   1      42.861  18.359  25.623  1.00  0.00    -0.269 OA
BRANCH  29  32
ATOM     32  C   UNL A   1      42.489  20.538  26.406  1.00  0.00     0.039 A 
ATOM     33  C   UNL A   1      42.931  21.433  25.429  1.00  0.00     0.014 A 
ATOM     34  C   UNL A   1      42.480  20.915  27.752  1.00  0.00     0.014 A 
ATOM     35  C   UNL A   1      43.317  22.721  25.796  1.00  0.00     0.010 A 
ATOM     36  C   UNL A   1      42.787  22.227  28.106  1.00  0.00     0.010 A 
ATOM     37  C   UNL A   1      43.219  23.140  27.134  1.00  0.00    -0.014 A 
BRANCH  37  38
ATOM     38  C   UNL A   1      43.570  24.532  27.518  1.00  0.00     0.031 A 
ATOM     39  C   UNL A   1      45.003  24.986  27.517  1.00  0.00     0.074 A 
ATOM     40  C   UNL A   1      42.595  25.378  27.902  1.00  0.00     0.049 A 
ATOM     41  N   UNL A   1      45.499  26.161  27.814  1.00  0.00    -0.248 NA
ATOM     42  C   UNL A   1      46.018  23.982  27.162  1.00  0.00     0.031 C 
ATOM     43  C   UNL A   1      41.175  25.037  28.008  1.00  0.00     0.029 A 
ATOM     44  N   UNL A   1      42.648  26.696  28.279  1.00  0.00    -0.354 N 
ATOM     45  C   UNL A   1      46.877  26.034  27.691  1.00  0.00     0.074 A 
ATOM     46  C   UNL A   1      47.143  24.652  27.355  1.00  0.00     0.031 C 
ATOM     47  C   UNL A   1      40.489  26.124  28.392  1.00  0.00     0.029 A 
ATOM     48  C   UNL A   1      41.423  27.228  28.593  1.00  0.00     0.049 A 
ATOM     49  H   UNL A   1      43.487  27.211  28.320  1.00  0.00     0.167 HD
ATOM     50  C   UNL A   1      47.830  26.987  27.822  1.00  0.00     0.037 A 
ATOM     51  C   UNL A   1      41.088  28.468  28.999  1.00  0.00     0.037 A 
ATOM     52  C   UNL A   1      47.557  28.365  28.142  1.00  0.00     0.049 A 
ATOM     53  C   UNL A   1      42.163  29.512  29.127  1.00  0.00     0.074 A 
ATOM     54  C   UNL A   1      48.444  29.423  28.232  1.00  0.00     0.029 A 
ATOM     55  N   UNL A   1      46.299  28.873  28.435  1.00  0.00    -0.354 N 
ATOM     56  N   UNL A   1      43.453  29.402  28.919  1.00  0.00    -0.248 NA
ATOM     57  C   UNL A   1      41.733  30.857  29.530  1.00  0.00     0.031 C 
ATOM     58  C   UNL A   1      47.733  30.557  28.639  1.00  0.00     0.029 A 
ATOM     59  C   UNL A   1      46.392  30.224  28.735  1.00  0.00     0.049 A 
ATOM     60  H   UNL A   1      45.464  28.352  28.431  1.00  0.00     0.167 HD
ATOM     61  C   UNL A   1      43.985  30.666  29.140  1.00  0.00     0.074 A 
ATOM     62  C   UNL A   1      42.873  31.531  29.475  1.00  0.00     0.031 C 
ATOM     63  C   UNL A   1      45.277  31.074  29.070  1.00  0.00     0.037 A 
BRANCH  50  64
ATOM     64  C   UNL A   1      49.261  26.571  27.624  1.00  0.00     0.064 A 
ATOM     65  C   UNL A   1      49.813  26.399  26.344  1.00  0.00     0.173 A 
ATOM     66  C   UNL A   1      50.102  26.369  28.729  1.00  0.00     0.173 A 
ATOM     67  F   UNL A   1      49.051  26.569  25.252  1.00  0.00    -0.203 F 
ATOM     68  C   UNL A   1      51.138  26.006  26.179  1.00  0.00     0.198 A 
ATOM     69  C   UNL A   1      51.437  26.011  28.559  1.00  0.00     0.198 A 
ATOM     70  F   UNL A   1      49.632  26.524  29.975  1.00  0.00    -0.203 F 
ATOM     71  F   UNL A   1      51.623  25.791  24.948  1.00  0.00    -0.200 F 
ATOM     72  C   UNL A   1      51.951  25.819  27.286  1.00  0.00     0.200 A 
ATOM     73  F   UNL A   1      52.227  25.845  29.630  1.00  0.00    -0.200 F 
ATOM     74  F   UNL A   1      53.229  25.447  27.125  1.00  0.00    -0.200 F 
ENDBRANCH  50  64
BRANCH  51  75
ATOM     75  C   UNL A   1      39.666  28.794  29.287  1.00  0.00     0.064 A 
ATOM     76  C   UNL A   1      38.811  29.261  28.280  1.00  0.00     0.173 A 
ATOM     77  C   UNL A   1      39.133  28.644  30.577  1.00  0.00     0.173 A 
ATOM     78  F   UNL A   1      39.277  29.439  27.035  1.00  0.00    -0.203 F 
ATOM     79  C   UNL A   1      37.484  29.589  28.555  1.00  0.00     0.198 A 
ATOM     80  C   UNL A   1      37.798  28.941  30.843  1.00  0.00     0.198 A 
ATOM     81  F   UNL A   1      39.906  28.192  31.574  1.00  0.00    -0.203 F 
ATOM     82  F   UNL A   1      36.704  30.081  27.584  1.00  0.00    -0.200 F 
ATOM     83  C   UNL A   1      36.978  29.422  29.835  1.00  0.00     0.200 A 
ATOM     84  F   UNL A   1      37.308  28.761  32.077  1.00  0.00    -0.200 F 
ATOM     85  F   UNL A   1      35.700  29.732  30.098  1.00  0.00    -0.200 F 
ENDBRANCH  51  75
BRANCH  63  86
ATOM     86  C   UNL A   1      45.551  32.529  29.327  1.00  0.00     0.064 A 
ATOM     87  C   UNL A   1      45.497  33.486  28.302  1.00  0.00     0.173 A 
ATOM     88  C   UNL A   1      45.858  32.974  30.623  1.00  0.00     0.173 A 
ATOM     89  F   UNL A   1      45.222  33.113  27.043  1.00  0.00    -0.203 F 
ATOM     90  C   UNL A   1      45.780  34.826  28.557  1.00  0.00     0.198 A 
ATOM     91  C   UNL A   1      46.103  34.320  30.881  1.00  0.00     0.198 A 
ATOM     92  F   UNL A   1      45.914  32.104  31.642  1.00  0.00    -0.203 F 
ATOM     93  F   UNL A   1      45.788  35.710  27.550  1.00  0.00    -0.200 F 
ATOM     94  C   UNL A   1      46.077  35.242  29.846  1.00  0.00     0.200 A 
ATOM     95  F   UNL A   1      46.372  34.722  32.130  1.00  0.00    -0.200 F 
ATOM     96  F   UNL A   1      46.347  36.532  30.090  1.00  0.00    -0.200 F 
ENDBRANCH  63  86
ENDBRANCH  37  38
ENDBRANCH  29  32
ENDBRANCH  27  28
ENDBRANCH  26  27
ENDBRANCH   1  26
TORSDOF 13
ENDMDL
