MODEL 1
REMARK VINA RESULT:     -13.8      0.000      0.000
REMARK SMILES C[C@@H]1CC[C@@H](C(=O)NCCCCNC(=O)c2ccc(-c3c4nc(c(-c5c(F)c(F)c(F)c(F)c5F)c5ccc([nH]5)c(-c5c(F)c(F)c(F)c(F)c5F)c5nc(c(-c6c(F)c(F)c(F)c(F)c6F)c6ccc3[nH]6)C=C5)C=C4)cc2)[C@H]2C(=O)N(c3ccccc3)C(=O)[C@@H]21
REMARK SMILES IDX 11 1 10 2 9 3 8 4 6 5 7 6 5 8 1 9 2 10 3 11 91 12 4 13 79 14
REMARK SMILES IDX 89 15 80 16 82 17 90 18 81 19 83 20 84 21 88 22 85 23 87 24
REMARK SMILES IDX 86 25 12 26 13 27 14 28 15 30 16 31 17 32 78 33 18 34 77 35
REMARK SMILES IDX 19 36 20 37 21 38 71 39 22 40 76 41 70 42 72 43 23 44 75 45
REMARK SMILES IDX 69 46 68 47 24 49 56 50 36 51 55 52 37 53 40 54 54 55 73 56
REMARK SMILES IDX 38 57 39 58 53 60 74 61 41 62 25 63 26 64 34 65 27 66 28 67
REMARK SMILES IDX 32 68 35 69 29 70 30 71 33 72 31 73 57 74 58 75 66 76 59 77
REMARK SMILES IDX 60 78 64 79 67 80 61 81 62 82 65 83 63 84 42 85 43 86 51 87
REMARK SMILES IDX 44 88 45 89 49 90 52 91 46 92 47 93 50 94 48 95
REMARK H PARENT 8 7 13 29 72 48 40 59
REMARK Flexibility Score: inf
ROOT
ATOM      1  C   UNL A   1      31.778  29.516  26.723  1.00  0.00     0.023 C 
ENDROOT
BRANCH   1   2
ATOM      2  C   UNL A   1      32.230  28.297  27.521  1.00  0.00     0.023 C 
BRANCH   2   3
ATOM      3  C   UNL A   1      32.256  26.986  26.736  1.00  0.00     0.116 C 
BRANCH   3   4
ATOM      4  N   UNL A   1      30.998  26.286  26.846  1.00  0.00    -0.356 N 
ATOM      5  C   UNL A   1      30.237  25.551  26.012  1.00  0.00     0.223 C 
ATOM      6  O   UNL A   1      29.152  25.211  26.501  1.00  0.00    -0.275 OA
ATOM      7  H   UNL A   1      30.601  26.364  27.744  1.00  0.00     0.163 HD
BRANCH   5   8
ATOM      8  C   UNL A   1      30.567  25.132  24.567  1.00  0.00     0.092 C 
ATOM      9  C   UNL A   1      33.278  26.234  21.868  1.00  0.00     0.008 C 
ATOM     10  C   UNL A   1      33.112  26.358  23.384  1.00  0.00    -0.001 C 
ATOM     11  C   UNL A   1      33.135  24.958  24.042  1.00  0.00     0.005 C 
ATOM     12  C   UNL A   1      31.867  27.126  23.821  1.00  0.00     0.095 C 
ATOM     13  C   UNL A   1      31.775  24.247  24.214  1.00  0.00     0.014 C 
ATOM     14  C   UNL A   1      30.603  26.322  23.615  1.00  0.00     0.104 C 
ATOM     15  C   UNL A   1      31.525  28.433  23.151  1.00  0.00     0.237 C 
ATOM     16  C   UNL A   1      29.528  27.379  23.618  1.00  0.00     0.238 C 
ATOM     17  N   UNL A   1      30.146  28.566  23.242  1.00  0.00    -0.250 N 
ATOM     18  O   UNL A   1      32.360  29.222  22.751  1.00  0.00    -0.274 OA
ATOM     19  O   UNL A   1      28.334  27.131  23.694  1.00  0.00    -0.274 OA
BRANCH  17  20
ATOM     20  C   UNL A   1      29.436  29.748  22.908  1.00  0.00     0.052 A 
ATOM     21  C   UNL A   1      29.263  30.778  23.842  1.00  0.00     0.027 A 
ATOM     22  C   UNL A   1      28.888  29.914  21.627  1.00  0.00     0.027 A 
ATOM     23  C   UNL A   1      28.579  31.949  23.501  1.00  0.00     0.002 A 
ATOM     24  C   UNL A   1      28.175  31.070  21.297  1.00  0.00     0.002 A 
ATOM     25  C   UNL A   1      28.028  32.091  22.231  1.00  0.00     0.000 A 
ENDBRANCH  17  20
ENDBRANCH   5   8
ENDBRANCH   3   4
ENDBRANCH   2   3
ENDBRANCH   1   2
BRANCH   1  26
ATOM     26  C   UNL A   1      32.905  30.456  26.322  1.00  0.00     0.116 C 
BRANCH  26  27
ATOM     27  N   UNL A   1      32.733  31.824  26.794  1.00  0.00    -0.352 N 
ATOM     28  C   UNL A   1      33.566  32.543  27.617  1.00  0.00     0.251 C 
ATOM     29  H   UNL A   1      31.922  32.290  26.485  1.00  0.00     0.163 HD
ATOM     30  O   UNL A   1      33.265  33.666  28.001  1.00  0.00    -0.269 OA
BRANCH  28  31
ATOM     31  C   UNL A   1      34.812  31.902  28.074  1.00  0.00     0.039 A 
ATOM     32  C   UNL A   1      35.962  32.683  28.209  1.00  0.00     0.014 A 
ATOM     33  C   UNL A   1      34.804  30.563  28.472  1.00  0.00     0.014 A 
ATOM     34  C   UNL A   1      37.089  32.136  28.820  1.00  0.00     0.010 A 
ATOM     35  C   UNL A   1      35.894  30.050  29.159  1.00  0.00     0.010 A 
ATOM     36  C   UNL A   1      37.047  30.831  29.339  1.00  0.00    -0.014 A 
BRANCH  36  37
ATOM     37  C   UNL A   1      38.200  30.257  30.071  1.00  0.00     0.031 A 
ATOM     38  C   UNL A   1      38.460  30.672  31.492  1.00  0.00     0.074 A 
ATOM     39  C   UNL A   1      39.051  29.428  29.436  1.00  0.00     0.049 A 
ATOM     40  N   UNL A   1      39.454  30.351  32.280  1.00  0.00    -0.248 NA
ATOM     41  C   UNL A   1      37.492  31.602  32.094  1.00  0.00     0.031 C 
ATOM     42  C   UNL A   1      38.936  29.003  28.039  1.00  0.00     0.029 A 
ATOM     43  N   UNL A   1      40.187  28.802  29.881  1.00  0.00    -0.354 N 
ATOM     44  C   UNL A   1      39.237  31.052  33.458  1.00  0.00     0.074 A 
ATOM     45  C   UNL A   1      38.057  31.864  33.262  1.00  0.00     0.031 C 
ATOM     46  C   UNL A   1      39.943  28.163  27.751  1.00  0.00     0.029 A 
ATOM     47  C   UNL A   1      40.793  28.019  28.928  1.00  0.00     0.049 A 
ATOM     48  H   UNL A   1      40.536  28.903  30.796  1.00  0.00     0.167 HD
ATOM     49  C   UNL A   1      39.943  30.997  34.613  1.00  0.00     0.037 A 
ATOM     50  C   UNL A   1      41.910  27.271  29.001  1.00  0.00     0.037 A 
ATOM     51  C   UNL A   1      41.095  30.160  34.812  1.00  0.00     0.049 A 
ATOM     52  C   UNL A   1      42.670  27.219  30.300  1.00  0.00     0.074 A 
ATOM     53  C   UNL A   1      41.843  29.982  35.961  1.00  0.00     0.029 A 
ATOM     54  N   UNL A   1      41.663  29.357  33.833  1.00  0.00    -0.354 N 
ATOM     55  N   UNL A   1      42.415  27.828  31.432  1.00  0.00    -0.248 NA
ATOM     56  C   UNL A   1      43.869  26.369  30.331  1.00  0.00     0.031 C 
ATOM     57  C   UNL A   1      42.890  29.101  35.667  1.00  0.00     0.029 A 
ATOM     58  C   UNL A   1      42.765  28.694  34.348  1.00  0.00     0.049 A 
ATOM     59  H   UNL A   1      41.332  29.271  32.910  1.00  0.00     0.167 HD
ATOM     60  C   UNL A   1      43.401  27.415  32.318  1.00  0.00     0.074 A 
ATOM     61  C   UNL A   1      44.250  26.491  31.595  1.00  0.00     0.031 C 
ATOM     62  C   UNL A   1      43.588  27.769  33.614  1.00  0.00     0.037 A 
BRANCH  49  63
ATOM     63  C   UNL A   1      39.475  31.860  35.749  1.00  0.00     0.064 A 
ATOM     64  C   UNL A   1      39.996  33.147  35.956  1.00  0.00     0.173 A 
ATOM     65  C   UNL A   1      38.481  31.406  36.628  1.00  0.00     0.173 A 
ATOM     66  F   UNL A   1      40.959  33.623  35.152  1.00  0.00    -0.203 F 
ATOM     67  C   UNL A   1      39.562  33.934  37.019  1.00  0.00     0.198 A 
ATOM     68  C   UNL A   1      38.026  32.208  37.671  1.00  0.00     0.198 A 
ATOM     69  F   UNL A   1      37.948  30.185  36.474  1.00  0.00    -0.203 F 
ATOM     70  F   UNL A   1      40.115  35.136  37.229  1.00  0.00    -0.200 F 
ATOM     71  C   UNL A   1      38.574  33.466  37.871  1.00  0.00     0.200 A 
ATOM     72  F   UNL A   1      37.063  31.760  38.488  1.00  0.00    -0.200 F 
ATOM     73  F   UNL A   1      38.154  34.227  38.892  1.00  0.00    -0.200 F 
ENDBRANCH  49  63
BRANCH  50  74
ATOM     74  C   UNL A   1      42.357  26.482  27.824  1.00  0.00     0.064 A 
ATOM     75  C   UNL A   1      41.816  25.214  27.562  1.00  0.00     0.173 A 
ATOM     76  C   UNL A   1      43.332  26.968  26.942  1.00  0.00     0.173 A 
ATOM     77  F   UNL A   1      40.894  24.697  28.389  1.00  0.00    -0.203 F 
ATOM     78  C   UNL A   1      42.249  24.456  26.478  1.00  0.00     0.198 A 
ATOM     79  C   UNL A   1      43.745  26.220  25.841  1.00  0.00     0.198 A 
ATOM     80  F   UNL A   1      43.876  28.177  27.143  1.00  0.00    -0.203 F 
ATOM     81  F   UNL A   1      41.748  23.228  26.278  1.00  0.00    -0.200 F 
ATOM     82  C   UNL A   1      43.210  24.961  25.614  1.00  0.00     0.200 A 
ATOM     83  F   UNL A   1      44.663  26.717  25.001  1.00  0.00    -0.200 F 
ATOM     84  F   UNL A   1      43.624  24.232  24.570  1.00  0.00    -0.200 F 
ENDBRANCH  50  74
BRANCH  62  85
ATOM     85  C   UNL A   1      44.732  27.127  34.343  1.00  0.00     0.064 A 
ATOM     86  C   UNL A   1      45.999  27.724  34.395  1.00  0.00     0.173 A 
ATOM     87  C   UNL A   1      44.541  25.921  35.035  1.00  0.00     0.173 A 
ATOM     88  F   UNL A   1      46.234  28.869  33.736  1.00  0.00    -0.203 F 
ATOM     89  C   UNL A   1      47.042  27.125  35.094  1.00  0.00     0.198 A 
ATOM     90  C   UNL A   1      45.579  25.341  35.759  1.00  0.00     0.198 A 
ATOM     91  F   UNL A   1      43.346  25.315  35.022  1.00  0.00    -0.203 F 
ATOM     92  F   UNL A   1      48.258  27.689  35.093  1.00  0.00    -0.200 F 
ATOM     93  C   UNL A   1      46.830  25.939  35.782  1.00  0.00     0.200 A 
ATOM     94  F   UNL A   1      45.368  24.203  36.434  1.00  0.00    -0.200 F 
ATOM     95  F   UNL A   1      47.833  25.369  36.463  1.00  0.00    -0.200 F 
ENDBRANCH  62  85
ENDBRANCH  36  37
ENDBRANCH  28  31
ENDBRANCH  26  27
ENDBRANCH   1  26
TORSDOF 12
ENDMDL
MODEL 2
REMARK VINA RESULT:     -13.7      4.099      8.677
REMARK SMILES C[C@@H]1CC[C@@H](C(=O)NCCCCNC(=O)c2ccc(-c3c4nc(c(-c5c(F)c(F)c(F)c(F)c5F)c5ccc([nH]5)c(-c5c(F)c(F)c(F)c(F)c5F)c5nc(c(-c6c(F)c(F)c(F)c(F)c6F)c6ccc3[nH]6)C=C5)C=C4)cc2)[C@H]2C(=O)N(c3ccccc3)C(=O)[C@@H]21
REMARK SMILES IDX 11 1 10 2 9 3 8 4 6 5 7 6 5 8 1 9 2 10 3 11 91 12 4 13 79 14
REMARK SMILES IDX 89 15 80 16 82 17 90 18 81 19 83 20 84 21 88 22 85 23 87 24
REMARK SMILES IDX 86 25 12 26 13 27 14 28 15 30 16 31 17 32 78 33 18 34 77 35
REMARK SMILES IDX 19 36 20 37 21 38 71 39 22 40 76 41 70 42 72 43 23 44 75 45
REMARK SMILES IDX 69 46 68 47 24 49 56 50 36 51 55 52 37 53 40 54 54 55 73 56
REMARK SMILES IDX 38 57 39 58 53 60 74 61 41 62 25 63 26 64 34 65 27 66 28 67
REMARK SMILES IDX 32 68 35 69 29 70 30 71 33 72 31 73 57 74 58 75 66 76 59 77
REMARK SMILES IDX 60 78 64 79 67 80 61 81 62 82 65 83 63 84 42 85 43 86 51 87
REMARK SMILES IDX 44 88 45 89 49 90 52 91 46 92 47 93 50 94 48 95
REMARK H PARENT 8 7 13 29 72 48 40 59
REMARK Flexibility Score: inf
ROOT
ATOM      1  C   UNL A   1      36.055  23.715  25.683  1.00  0.00     0.023 C 
ENDROOT
BRANCH   1   2
ATOM      2  C   UNL A   1      35.331  22.458  26.153  1.00  0.00     0.023 C 
BRANCH   2   3
ATOM      3  C   UNL A   1      33.932  22.262  25.567  1.00  0.00     0.116 C 
BRANCH   3   4
ATOM      4  N   UNL A   1      32.912  22.672  26.503  1.00  0.00    -0.356 N 
ATOM      5  C   UNL A   1      31.760  23.367  26.417  1.00  0.00     0.223 C 
ATOM      6  O   UNL A   1      31.229  23.581  27.514  1.00  0.00    -0.275 OA
ATOM      7  H   UNL A   1      33.102  22.374  27.422  1.00  0.00     0.163 HD
BRANCH   5   8
ATOM      8  C   UNL A   1      31.088  23.913  25.145  1.00  0.00     0.092 C 
ATOM      9  C   UNL A   1      32.387  25.578  21.770  1.00  0.00     0.008 C 
ATOM     10  C   UNL A   1      32.994  24.731  22.890  1.00  0.00    -0.001 C 
ATOM     11  C   UNL A   1      32.344  23.328  22.912  1.00  0.00     0.005 C 
ATOM     12  C   UNL A   1      32.917  25.370  24.275  1.00  0.00     0.095 C 
ATOM     13  C   UNL A   1      31.098  23.150  23.808  1.00  0.00     0.014 C 
ATOM     14  C   UNL A   1      31.513  25.344  24.834  1.00  0.00     0.104 C 
ATOM     15  C   UNL A   1      33.302  26.817  24.450  1.00  0.00     0.237 C 
ATOM     16  C   UNL A   1      31.556  26.411  25.898  1.00  0.00     0.238 C 
ATOM     17  N   UNL A   1      32.576  27.283  25.537  1.00  0.00    -0.250 N 
ATOM     18  O   UNL A   1      34.181  27.361  23.808  1.00  0.00    -0.274 OA
ATOM     19  O   UNL A   1      30.682  26.565  26.739  1.00  0.00    -0.274 OA
BRANCH  17  20
ATOM     20  C   UNL A   1      32.789  28.541  26.157  1.00  0.00     0.052 A 
ATOM     21  C   UNL A   1      33.915  28.772  26.959  1.00  0.00     0.027 A 
ATOM     22  C   UNL A   1      31.872  29.588  25.981  1.00  0.00     0.027 A 
ATOM     23  C   UNL A   1      34.129  30.020  27.552  1.00  0.00     0.002 A 
ATOM     24  C   UNL A   1      32.069  30.825  26.602  1.00  0.00     0.002 A 
ATOM     25  C   UNL A   1      33.202  31.044  27.380  1.00  0.00     0.000 A 
ENDBRANCH  17  20
ENDBRANCH   5   8
ENDBRANCH   3   4
ENDBRANCH   2   3
ENDBRANCH   1   2
BRANCH   1  26
ATOM     26  C   UNL A   1      37.286  23.448  24.830  1.00  0.00     0.116 C 
BRANCH  26  27
ATOM     27  N   UNL A   1      38.221  22.497  25.418  1.00  0.00    -0.352 N 
ATOM     28  C   UNL A   1      39.228  22.751  26.318  1.00  0.00     0.251 C 
ATOM     29  H   UNL A   1      38.118  21.559  25.138  1.00  0.00     0.163 HD
ATOM     30  O   UNL A   1      39.995  21.867  26.679  1.00  0.00    -0.269 OA
BRANCH  28  31
ATOM     31  C   UNL A   1      39.397  24.135  26.798  1.00  0.00     0.039 A 
ATOM     32  C   UNL A   1      38.975  24.457  28.089  1.00  0.00     0.014 A 
ATOM     33  C   UNL A   1      40.072  25.069  26.010  1.00  0.00     0.014 A 
ATOM     34  C   UNL A   1      39.302  25.703  28.621  1.00  0.00     0.010 A 
ATOM     35  C   UNL A   1      40.474  26.272  26.573  1.00  0.00     0.010 A 
ATOM     36  C   UNL A   1      40.092  26.600  27.883  1.00  0.00    -0.014 A 
BRANCH  36  37
ATOM     37  C   UNL A   1      40.528  27.894  28.459  1.00  0.00     0.031 A 
ATOM     38  C   UNL A   1      41.970  28.092  28.833  1.00  0.00     0.074 A 
ATOM     39  C   UNL A   1      39.619  28.853  28.716  1.00  0.00     0.049 A 
ATOM     40  N   UNL A   1      42.541  29.113  29.420  1.00  0.00    -0.248 NA
ATOM     41  C   UNL A   1      42.887  26.979  28.540  1.00  0.00     0.031 C 
ATOM     42  C   UNL A   1      38.181  28.750  28.454  1.00  0.00     0.029 A 
ATOM     43  N   UNL A   1      39.767  30.102  29.263  1.00  0.00    -0.354 N 
ATOM     44  C   UNL A   1      43.872  28.756  29.580  1.00  0.00     0.074 A 
ATOM     45  C   UNL A   1      44.014  27.403  29.090  1.00  0.00     0.031 C 
ATOM     46  C   UNL A   1      37.585  29.899  28.813  1.00  0.00     0.029 A 
ATOM     47  C   UNL A   1      38.590  30.804  29.362  1.00  0.00     0.049 A 
ATOM     48  H   UNL A   1      40.635  30.462  29.557  1.00  0.00     0.167 HD
ATOM     49  C   UNL A   1      44.893  29.503  30.064  1.00  0.00     0.037 A 
ATOM     50  C   UNL A   1      38.353  32.038  29.845  1.00  0.00     0.037 A 
ATOM     51  C   UNL A   1      44.752  30.860  30.517  1.00  0.00     0.049 A 
ATOM     52  C   UNL A   1      39.507  32.851  30.367  1.00  0.00     0.074 A 
ATOM     53  C   UNL A   1      45.732  31.726  30.966  1.00  0.00     0.029 A 
ATOM     54  N   UNL A   1      43.548  31.548  30.575  1.00  0.00    -0.354 N 
ATOM     55  N   UNL A   1      40.776  32.532  30.446  1.00  0.00    -0.248 NA
ATOM     56  C   UNL A   1      39.196  34.201  30.860  1.00  0.00     0.031 C 
ATOM     57  C   UNL A   1      45.116  32.927  31.334  1.00  0.00     0.029 A 
ATOM     58  C   UNL A   1      43.759  32.825  31.070  1.00  0.00     0.049 A 
ATOM     59  H   UNL A   1      42.675  31.184  30.305  1.00  0.00     0.167 HD
ATOM     60  C   UNL A   1      41.419  33.646  30.968  1.00  0.00     0.074 A 
ATOM     61  C   UNL A   1      40.400  34.656  31.173  1.00  0.00     0.031 C 
ATOM     62  C   UNL A   1      42.733  33.818  31.254  1.00  0.00     0.037 A 
BRANCH  49  63
ATOM     63  C   UNL A   1      46.251  28.865  30.113  1.00  0.00     0.064 A 
ATOM     64  C   UNL A   1      46.697  28.175  31.251  1.00  0.00     0.173 A 
ATOM     65  C   UNL A   1      47.109  28.925  29.005  1.00  0.00     0.173 A 
ATOM     66  F   UNL A   1      45.921  28.101  32.344  1.00  0.00    -0.203 F 
ATOM     67  C   UNL A   1      47.963  27.597  31.290  1.00  0.00     0.198 A 
ATOM     68  C   UNL A   1      48.362  28.318  29.035  1.00  0.00     0.198 A 
ATOM     69  F   UNL A   1      46.731  29.570  27.891  1.00  0.00    -0.203 F 
ATOM     70  F   UNL A   1      48.388  26.993  32.408  1.00  0.00    -0.200 F 
ATOM     71  C   UNL A   1      48.791  27.664  30.180  1.00  0.00     0.200 A 
ATOM     72  F   UNL A   1      49.157  28.374  27.959  1.00  0.00    -0.200 F 
ATOM     73  F   UNL A   1      50.008  27.104  30.216  1.00  0.00    -0.200 F 
ENDBRANCH  49  63
BRANCH  50  74
ATOM     74  C   UNL A   1      36.976  32.595  29.822  1.00  0.00     0.064 A 
ATOM     75  C   UNL A   1      36.503  33.296  28.703  1.00  0.00     0.173 A 
ATOM     76  C   UNL A   1      36.107  32.447  30.912  1.00  0.00     0.173 A 
ATOM     77  F   UNL A   1      37.304  33.481  27.643  1.00  0.00    -0.203 F 
ATOM     78  C   UNL A   1      35.223  33.845  28.684  1.00  0.00     0.198 A 
ATOM     79  C   UNL A   1      34.817  32.973  30.882  1.00  0.00     0.198 A 
ATOM     80  F   UNL A   1      36.507  31.779  32.004  1.00  0.00    -0.203 F 
ATOM     81  F   UNL A   1      34.814  34.550  27.620  1.00  0.00    -0.200 F 
ATOM     82  C   UNL A   1      34.378  33.679  29.772  1.00  0.00     0.200 A 
ATOM     83  F   UNL A   1      33.999  32.799  31.929  1.00  0.00    -0.200 F 
ATOM     84  F   UNL A   1      33.147  34.207  29.752  1.00  0.00    -0.200 F 
ENDBRANCH  50  74
BRANCH  62  85
ATOM     85  C   UNL A   1      43.151  35.159  31.783  1.00  0.00     0.064 A 
ATOM     86  C   UNL A   1      43.107  35.455  33.153  1.00  0.00     0.173 A 
ATOM     87  C   UNL A   1      43.643  36.142  30.911  1.00  0.00     0.173 A 
ATOM     88  F   UNL A   1      42.630  34.553  34.024  1.00  0.00    -0.203 F 
ATOM     89  C   UNL A   1      43.519  36.696  33.628  1.00  0.00     0.198 A 
ATOM     90  C   UNL A   1      44.082  37.371  31.393  1.00  0.00     0.198 A 
ATOM     91  F   UNL A   1      43.711  35.904  29.593  1.00  0.00    -0.203 F 
ATOM     92  F   UNL A   1      43.426  36.975  34.936  1.00  0.00    -0.200 F 
ATOM     93  C   UNL A   1      44.014  37.650  32.750  1.00  0.00     0.200 A 
ATOM     94  F   UNL A   1      44.573  38.284  30.546  1.00  0.00    -0.200 F 
ATOM     95  F   UNL A   1      44.419  38.841  33.211  1.00  0.00    -0.200 F 
ENDBRANCH  62  85
ENDBRANCH  36  37
ENDBRANCH  28  31
ENDBRANCH  26  27
ENDBRANCH   1  26
TORSDOF 12
ENDMDL
MODEL 3
REMARK VINA RESULT:     -13.6      3.289      5.457
REMARK SMILES C[C@@H]1CC[C@@H](C(=O)NCCCCNC(=O)c2ccc(-c3c4nc(c(-c5c(F)c(F)c(F)c(F)c5F)c5ccc([nH]5)c(-c5c(F)c(F)c(F)c(F)c5F)c5nc(c(-c6c(F)c(F)c(F)c(F)c6F)c6ccc3[nH]6)C=C5)C=C4)cc2)[C@H]2C(=O)N(c3ccccc3)C(=O)[C@@H]21
REMARK SMILES IDX 11 1 10 2 9 3 8 4 6 5 7 6 5 8 1 9 2 10 3 11 91 12 4 13 79 14
REMARK SMILES IDX 89 15 80 16 82 17 90 18 81 19 83 20 84 21 88 22 85 23 87 24
REMARK SMILES IDX 86 25 12 26 13 27 14 28 15 30 16 31 17 32 78 33 18 34 77 35
REMARK SMILES IDX 19 36 20 37 21 38 71 39 22 40 76 41 70 42 72 43 23 44 75 45
REMARK SMILES IDX 69 46 68 47 24 49 56 50 36 51 55 52 37 53 40 54 54 55 73 56
REMARK SMILES IDX 38 57 39 58 53 60 74 61 41 62 25 63 26 64 34 65 27 66 28 67
REMARK SMILES IDX 32 68 35 69 29 70 30 71 33 72 31 73 57 74 58 75 66 76 59 77
REMARK SMILES IDX 60 78 64 79 67 80 61 81 62 82 65 83 63 84 42 85 43 86 51 87
REMARK SMILES IDX 44 88 45 89 49 90 52 91 46 92 47 93 50 94 48 95
REMARK H PARENT 8 7 13 29 72 48 40 59
REMARK Flexibility Score: inf
ROOT
ATOM      1  C   UNL A   1      33.819  28.245  25.820  1.00  0.00     0.023 C 
ENDROOT
BRANCH   1   2
ATOM      2  C   UNL A   1      32.762  28.878  24.922  1.00  0.00     0.023 C 
BRANCH   2   3
ATOM      3  C   UNL A   1      31.980  27.892  24.053  1.00  0.00     0.116 C 
BRANCH   3   4
ATOM      4  N   UNL A   1      32.806  27.358  22.996  1.00  0.00    -0.356 N 
ATOM      5  C   UNL A   1      32.965  26.147  22.427  1.00  0.00     0.223 C 
ATOM      6  O   UNL A   1      33.881  26.108  21.595  1.00  0.00    -0.275 OA
ATOM      7  H   UNL A   1      33.392  28.041  22.595  1.00  0.00     0.163 HD
BRANCH   5   8
ATOM      8  C   UNL A   1      32.167  24.863  22.717  1.00  0.00     0.092 C 
ATOM      9  C   UNL A   1      30.873  23.040  26.011  1.00  0.00     0.008 C 
ATOM     10  C   UNL A   1      31.358  24.443  25.642  1.00  0.00    -0.001 C 
ATOM     11  C   UNL A   1      30.385  25.097  24.633  1.00  0.00     0.005 C 
ATOM     12  C   UNL A   1      32.787  24.495  25.106  1.00  0.00     0.095 C 
ATOM     13  C   UNL A   1      30.686  24.882  23.134  1.00  0.00     0.014 C 
ATOM     14  C   UNL A   1      32.886  23.946  23.700  1.00  0.00     0.104 C 
ATOM     15  C   UNL A   1      33.878  23.738  25.819  1.00  0.00     0.237 C 
ATOM     16  C   UNL A   1      34.353  23.627  23.567  1.00  0.00     0.238 C 
ATOM     17  N   UNL A   1      34.830  23.429  24.858  1.00  0.00    -0.250 N 
ATOM     18  O   UNL A   1      33.911  23.584  27.026  1.00  0.00    -0.274 OA
ATOM     19  O   UNL A   1      34.895  23.361  22.504  1.00  0.00    -0.274 OA
BRANCH  17  20
ATOM     20  C   UNL A   1      36.110  22.890  25.147  1.00  0.00     0.052 A 
ATOM     21  C   UNL A   1      37.103  23.669  25.755  1.00  0.00     0.027 A 
ATOM     22  C   UNL A   1      36.412  21.558  24.829  1.00  0.00     0.027 A 
ATOM     23  C   UNL A   1      38.356  23.128  26.056  1.00  0.00     0.002 A 
ATOM     24  C   UNL A   1      37.677  21.026  25.098  1.00  0.00     0.002 A 
ATOM     25  C   UNL A   1      38.646  21.809  25.720  1.00  0.00     0.000 A 
ENDBRANCH  17  20
ENDBRANCH   5   8
ENDBRANCH   3   4
ENDBRANCH   2   3
ENDBRANCH   1   2
BRANCH   1  26
ATOM     26  C   UNL A   1      33.625  28.515  27.304  1.00  0.00     0.116 C 
BRANCH  26  27
ATOM     27  N   UNL A   1      33.592  29.930  27.651  1.00  0.00    -0.352 N 
ATOM     28  C   UNL A   1      34.611  30.698  28.162  1.00  0.00     0.251 C 
ATOM     29  H   UNL A   1      32.736  30.393  27.500  1.00  0.00     0.163 HD
ATOM     30  O   UNL A   1      34.427  31.866  28.481  1.00  0.00    -0.269 OA
BRANCH  28  31
ATOM     31  C   UNL A   1      35.924  30.060  28.369  1.00  0.00     0.039 A 
ATOM     32  C   UNL A   1      36.882  30.146  27.357  1.00  0.00     0.014 A 
ATOM     33  C   UNL A   1      36.232  29.482  29.602  1.00  0.00     0.014 A 
ATOM     34  C   UNL A   1      38.183  29.718  27.615  1.00  0.00     0.010 A 
ATOM     35  C   UNL A   1      37.547  29.141  29.884  1.00  0.00     0.010 A 
ATOM     36  C   UNL A   1      38.534  29.254  28.894  1.00  0.00    -0.014 A 
BRANCH  36  37
ATOM     37  C   UNL A   1      39.930  28.877  29.219  1.00  0.00     0.031 A 
ATOM     38  C   UNL A   1      40.786  29.817  30.019  1.00  0.00     0.074 A 
ATOM     39  C   UNL A   1      40.444  27.732  28.732  1.00  0.00     0.049 A 
ATOM     40  N   UNL A   1      42.050  29.714  30.342  1.00  0.00    -0.248 NA
ATOM     41  C   UNL A   1      40.146  31.057  30.486  1.00  0.00     0.031 C 
ATOM     42  C   UNL A   1      39.727  26.770  27.892  1.00  0.00     0.029 A 
ATOM     43  N   UNL A   1      41.695  27.186  28.866  1.00  0.00    -0.354 N 
ATOM     44  C   UNL A   1      42.356  30.879  31.032  1.00  0.00     0.074 A 
ATOM     45  C   UNL A   1      41.168  31.704  31.026  1.00  0.00     0.031 C 
ATOM     46  C   UNL A   1      40.541  25.739  27.610  1.00  0.00     0.029 A 
ATOM     47  C   UNL A   1      41.845  25.984  28.218  1.00  0.00     0.049 A 
ATOM     48  H   UNL A   1      42.419  27.616  29.377  1.00  0.00     0.167 HD
ATOM     49  C   UNL A   1      43.515  31.216  31.644  1.00  0.00     0.037 A 
ATOM     50  C   UNL A   1      42.916  25.173  28.127  1.00  0.00     0.037 A 
ATOM     51  C   UNL A   1      44.681  30.376  31.677  1.00  0.00     0.049 A 
ATOM     52  C   UNL A   1      44.190  25.567  28.827  1.00  0.00     0.074 A 
ATOM     53  C   UNL A   1      45.885  30.594  32.322  1.00  0.00     0.029 A 
ATOM     54  N   UNL A   1      44.786  29.150  31.035  1.00  0.00    -0.354 N 
ATOM     55  N   UNL A   1      44.446  26.636  29.539  1.00  0.00    -0.248 NA
ATOM     56  C   UNL A   1      45.321  24.635  28.714  1.00  0.00     0.031 C 
ATOM     57  C   UNL A   1      46.734  29.519  32.038  1.00  0.00     0.029 A 
ATOM     58  C   UNL A   1      46.042  28.608  31.254  1.00  0.00     0.049 A 
ATOM     59  H   UNL A   1      44.074  28.728  30.502  1.00  0.00     0.167 HD
ATOM     60  C   UNL A   1      45.754  26.495  29.984  1.00  0.00     0.074 A 
ATOM     61  C   UNL A   1      46.232  25.227  29.472  1.00  0.00     0.031 C 
ATOM     62  C   UNL A   1      46.493  27.338  30.746  1.00  0.00     0.037 A 
BRANCH  49  63
ATOM     63  C   UNL A   1      43.568  32.547  32.337  1.00  0.00     0.064 A 
ATOM     64  C   UNL A   1      43.982  33.708  31.666  1.00  0.00     0.173 A 
ATOM     65  C   UNL A   1      43.181  32.669  33.679  1.00  0.00     0.173 A 
ATOM     66  F   UNL A   1      44.376  33.644  30.385  1.00  0.00    -0.203 F 
ATOM     67  C   UNL A   1      44.037  34.935  32.322  1.00  0.00     0.198 A 
ATOM     68  C   UNL A   1      43.207  33.903  34.324  1.00  0.00     0.198 A 
ATOM     69  F   UNL A   1      42.775  31.591  34.367  1.00  0.00    -0.203 F 
ATOM     70  F   UNL A   1      44.489  36.018  31.675  1.00  0.00    -0.200 F 
ATOM     71  C   UNL A   1      43.644  35.032  33.647  1.00  0.00     0.200 A 
ATOM     72  F   UNL A   1      42.816  33.999  35.602  1.00  0.00    -0.200 F 
ATOM     73  F   UNL A   1      43.693  36.215  34.277  1.00  0.00    -0.200 F 
ENDBRANCH  49  63
BRANCH  50  74
ATOM     74  C   UNL A   1      42.821  23.894  27.378  1.00  0.00     0.064 A 
ATOM     75  C   UNL A   1      42.369  22.724  28.009  1.00  0.00     0.173 A 
ATOM     76  C   UNL A   1      43.181  23.807  26.027  1.00  0.00     0.173 A 
ATOM     77  F   UNL A   1      42.032  22.753  29.307  1.00  0.00    -0.203 F 
ATOM     78  C   UNL A   1      42.304  21.515  27.322  1.00  0.00     0.198 A 
ATOM     79  C   UNL A   1      43.089  22.602  25.332  1.00  0.00     0.198 A 
ATOM     80  F   UNL A   1      43.612  24.896  25.375  1.00  0.00    -0.203 F 
ATOM     81  F   UNL A   1      41.913  20.404  27.962  1.00  0.00    -0.200 F 
ATOM     82  C   UNL A   1      42.659  21.454  25.982  1.00  0.00     0.200 A 
ATOM     83  F   UNL A   1      43.420  22.550  24.035  1.00  0.00    -0.200 F 
ATOM     84  F   UNL A   1      42.593  20.291  25.322  1.00  0.00    -0.200 F 
ENDBRANCH  50  74
BRANCH  62  85
ATOM     85  C   UNL A   1      47.882  26.901  31.104  1.00  0.00     0.064 A 
ATOM     86  C   UNL A   1      48.127  26.039  32.183  1.00  0.00     0.173 A 
ATOM     87  C   UNL A   1      48.977  27.316  30.329  1.00  0.00     0.173 A 
ATOM     88  F   UNL A   1      47.115  25.628  32.962  1.00  0.00    -0.203 F 
ATOM     89  C   UNL A   1      49.421  25.627  32.487  1.00  0.00     0.198 A 
ATOM     90  C   UNL A   1      50.265  26.877  30.619  1.00  0.00     0.198 A 
ATOM     91  F   UNL A   1      48.793  28.134  29.284  1.00  0.00    -0.203 F 
ATOM     92  F   UNL A   1      49.638  24.839  33.550  1.00  0.00    -0.200 F 
ATOM     93  C   UNL A   1      50.487  26.039  31.701  1.00  0.00     0.200 A 
ATOM     94  F   UNL A   1      51.291  27.264  29.850  1.00  0.00    -0.200 F 
ATOM     95  F   UNL A   1      51.731  25.633  31.991  1.00  0.00    -0.200 F 
ENDBRANCH  62  85
ENDBRANCH  36  37
ENDBRANCH  28  31
ENDBRANCH  26  27
ENDBRANCH   1  26
TORSDOF 12
ENDMDL
