MODEL 1
REMARK VINA RESULT:     -11.1      0.000      0.000
REMARK SMILES COc1cccc([C@H]2CC(c3ccc(S(C)(=O)=O)cc3)=NN2c2ccc(C(=O)NCCCCNC(=O)c3ccc(-c4c5nc(c(-c6c(F)c(F)c(F)c(F)c6F)c6ccc([nH]6)c(-c6c(F)c(F)c(F)c(F)c6F)c6nc(c(-c7c(F)c(F)c(F)c(F)c7F)c7ccc4[nH]7)C=C6)C=C5)cc3)cc2)c1
REMARK SMILES IDX 31 1 30 2 29 3 27 4 28 5 26 7 23 8 24 9 101 10 25 11 100 12
REMARK SMILES IDX 22 13 8 14 9 15 10 16 21 17 7 18 3 19 4 20 102 21 5 22 6 23
REMARK SMILES IDX 2 24 1 25 11 26 12 27 20 28 13 29 19 30 14 31 15 32 16 33
REMARK SMILES IDX 17 34 18 35 32 36 33 37 34 38 35 39 36 41 37 42 38 43 99 44
REMARK SMILES IDX 39 45 98 46 40 47 41 48 42 49 92 50 43 51 97 52 91 53 93 54
REMARK SMILES IDX 44 55 96 56 90 57 89 58 45 60 77 61 57 62 76 63 58 64 61 65
REMARK SMILES IDX 75 66 94 67 59 68 60 69 74 71 95 72 62 73 46 74 47 75 55 76
REMARK SMILES IDX 48 77 49 78 53 79 56 80 50 81 51 82 54 83 52 84 78 85 79 86
REMARK SMILES IDX 87 87 80 88 81 89 85 90 88 91 82 92 83 93 86 94 84 95 63 96
REMARK SMILES IDX 64 97 72 98 65 99 66 100 70 101 73 102 67 103 68 104 71 105
REMARK SMILES IDX 69 106
REMARK H PARENT 29 6 34 40 93 59 61 70
REMARK Flexibility Score: inf
ROOT
ATOM      1  C   UNL A   1      33.441  34.666  29.234  1.00  0.00     0.023 C 
ENDROOT
BRANCH   1   2
ATOM      2  C   UNL A   1      33.255  36.146  29.577  1.00  0.00     0.116 C 
BRANCH   2   3
ATOM      3  N   UNL A   1      32.215  36.311  30.570  1.00  0.00    -0.352 N 
ATOM      4  C   UNL A   1      32.168  36.026  31.911  1.00  0.00     0.251 C 
ATOM      5  O   UNL A   1      31.122  36.300  32.501  1.00  0.00    -0.269 OA
ATOM      6  H   UNL A   1      31.382  36.701  30.215  1.00  0.00     0.163 HD
BRANCH   4   7
ATOM      7  C   UNL A   1      33.313  35.459  32.682  1.00  0.00     0.039 A 
ATOM      8  C   UNL A   1      35.381  34.199  34.161  1.00  0.00     0.060 A 
ATOM      9  C   UNL A   1      34.346  33.451  33.593  1.00  0.00     0.029 A 
ATOM     10  C   UNL A   1      35.394  35.576  33.938  1.00  0.00     0.029 A 
ATOM     11  C   UNL A   1      33.314  34.072  32.882  1.00  0.00     0.016 A 
ATOM     12  C   UNL A   1      34.394  36.193  33.176  1.00  0.00     0.016 A 
BRANCH   8  13
ATOM     13  N   UNL A   1      36.370  33.573  34.897  1.00  0.00    -0.257 N 
ATOM     14  C   UNL A   1      37.351  32.638  34.347  1.00  0.00     0.144 C 
ATOM     15  C   UNL A   1      38.007  32.059  35.605  1.00  0.00     0.091 C 
ATOM     16  C   UNL A   1      37.246  32.804  36.664  1.00  0.00     0.071 C 
ATOM     17  N   UNL A   1      36.341  33.632  36.251  1.00  0.00    -0.176 NA
BRANCH  14  18
ATOM     18  C   UNL A   1      38.339  33.355  33.439  1.00  0.00    -0.019 A 
ATOM     19  C   UNL A   1      38.962  34.233  31.249  1.00  0.00     0.119 A 
ATOM     20  C   UNL A   1      40.203  34.609  31.760  1.00  0.00     0.046 A 
ATOM     21  C   UNL A   1      38.043  33.591  32.082  1.00  0.00     0.052 A 
ATOM     22  C   UNL A   1      40.513  34.383  33.101  1.00  0.00     0.004 A 
ATOM     23  C   UNL A   1      39.585  33.763  33.938  1.00  0.00     0.006 A 
BRANCH  19  24
ATOM     24  O   UNL A   1      38.769  34.497  29.921  1.00  0.00    -0.497 OA
ATOM     25  C   UNL A   1      38.400  33.381  29.121  1.00  0.00     0.278 C 
ENDBRANCH  19  24
ENDBRANCH  14  18
BRANCH  16  26
ATOM     26  C   UNL A   1      37.491  32.550  38.083  1.00  0.00    -0.002 A 
ATOM     27  C   UNL A   1      36.807  31.499  38.703  1.00  0.00     0.011 A 
ATOM     28  C   UNL A   1      38.376  33.360  38.796  1.00  0.00     0.011 A 
ATOM     29  C   UNL A   1      37.025  31.241  40.055  1.00  0.00     0.021 A 
ATOM     30  C   UNL A   1      38.576  33.119  40.155  1.00  0.00     0.021 A 
ATOM     31  C   UNL A   1      37.898  32.064  40.777  1.00  0.00     0.067 A 
BRANCH  31  32
ATOM     32  S   UNL A   1      38.163  31.733  42.504  1.00  0.00     0.175 S 
ATOM     33  C   UNL A   1      38.948  33.203  43.111  1.00  0.00     0.163 C 
ATOM     34  O   UNL A   1      36.852  31.625  43.113  1.00  0.00    -0.224 OA
ATOM     35  O   UNL A   1      39.125  30.650  42.600  1.00  0.00    -0.224 OA
ENDBRANCH  31  32
ENDBRANCH  16  26
ENDBRANCH   8  13
ENDBRANCH   4   7
ENDBRANCH   2   3
ENDBRANCH   1   2
BRANCH   1  36
ATOM     36  C   UNL A   1      34.818  34.103  29.600  1.00  0.00     0.023 C 
BRANCH  36  37
ATOM     37  C   UNL A   1      34.875  32.586  29.740  1.00  0.00     0.116 C 
BRANCH  37  38
ATOM     38  N   UNL A   1      34.278  31.884  28.615  1.00  0.00    -0.352 N 
ATOM     39  C   UNL A   1      34.754  30.793  27.933  1.00  0.00     0.251 C 
ATOM     40  H   UNL A   1      33.415  32.240  28.300  1.00  0.00     0.163 HD
ATOM     41  O   UNL A   1      34.171  30.382  26.936  1.00  0.00    -0.269 OA
BRANCH  39  42
ATOM     42  C   UNL A   1      36.000  30.140  28.384  1.00  0.00     0.039 A 
ATOM     43  C   UNL A   1      37.145  30.271  27.595  1.00  0.00     0.014 A 
ATOM     44  C   UNL A   1      36.045  29.419  29.580  1.00  0.00     0.014 A 
ATOM     45  C   UNL A   1      38.352  29.728  28.034  1.00  0.00     0.010 A 
ATOM     46  C   UNL A   1      37.262  28.934  30.049  1.00  0.00     0.010 A 
ATOM     47  C   UNL A   1      38.425  29.083  29.279  1.00  0.00    -0.014 A 
BRANCH  47  48
ATOM     48  C   UNL A   1      39.716  28.561  29.790  1.00  0.00     0.031 A 
ATOM     49  C   UNL A   1      40.440  29.281  30.890  1.00  0.00     0.074 A 
ATOM     50  C   UNL A   1      40.260  27.469  29.220  1.00  0.00     0.049 A 
ATOM     51  N   UNL A   1      41.593  29.003  31.443  1.00  0.00    -0.248 NA
ATOM     52  C   UNL A   1      39.795  30.492  31.423  1.00  0.00     0.031 C 
ATOM     53  C   UNL A   1      39.678  26.718  28.107  1.00  0.00     0.029 A 
ATOM     54  N   UNL A   1      41.428  26.805  29.495  1.00  0.00    -0.354 N 
ATOM     55  C   UNL A   1      41.817  30.006  32.375  1.00  0.00     0.074 A 
ATOM     56  C   UNL A   1      40.707  30.930  32.279  1.00  0.00     0.031 C 
ATOM     57  C   UNL A   1      40.482  25.684  27.808  1.00  0.00     0.029 A 
ATOM     58  C   UNL A   1      41.644  25.715  28.690  1.00  0.00     0.049 A 
ATOM     59  H   UNL A   1      42.053  27.084  30.204  1.00  0.00     0.167 HD
ATOM     60  C   UNL A   1      42.844  30.133  33.248  1.00  0.00     0.037 A 
ATOM     61  C   UNL A   1      42.666  24.839  28.667  1.00  0.00     0.037 A 
ATOM     62  C   UNL A   1      43.932  29.197  33.361  1.00  0.00     0.049 A 
ATOM     63  C   UNL A   1      43.786  24.992  29.660  1.00  0.00     0.074 A 
ATOM     64  C   UNL A   1      44.984  29.199  34.259  1.00  0.00     0.029 A 
ATOM     65  N   UNL A   1      44.105  28.089  32.544  1.00  0.00    -0.354 N 
ATOM     66  N   UNL A   1      43.949  25.902  30.589  1.00  0.00    -0.248 NA
ATOM     67  C   UNL A   1      44.860  23.991  29.606  1.00  0.00     0.031 C 
ATOM     68  C   UNL A   1      45.815  28.112  33.961  1.00  0.00     0.029 A 
ATOM     69  C   UNL A   1      45.257  27.410  32.905  1.00  0.00     0.049 A 
ATOM     70  H   UNL A   1      43.498  27.824  31.815  1.00  0.00     0.167 HD
ATOM     71  C   UNL A   1      45.127  25.572  31.244  1.00  0.00     0.074 A 
ATOM     72  C   UNL A   1      45.629  24.367  30.616  1.00  0.00     0.031 C 
ATOM     73  C   UNL A   1      45.740  26.210  32.271  1.00  0.00     0.037 A 
BRANCH  60  74
ATOM     74  C   UNL A   1      42.834  31.324  34.159  1.00  0.00     0.064 A 
ATOM     75  C   UNL A   1      42.129  31.313  35.373  1.00  0.00     0.173 A 
ATOM     76  C   UNL A   1      43.560  32.479  33.833  1.00  0.00     0.173 A 
ATOM     77  F   UNL A   1      41.410  30.238  35.726  1.00  0.00    -0.203 F 
ATOM     78  C   UNL A   1      42.128  32.425  36.212  1.00  0.00     0.198 A 
ATOM     79  C   UNL A   1      43.578  33.579  34.686  1.00  0.00     0.198 A 
ATOM     80  F   UNL A   1      44.254  32.540  32.686  1.00  0.00    -0.203 F 
ATOM     81  F   UNL A   1      41.408  32.409  37.341  1.00  0.00    -0.200 F 
ATOM     82  C   UNL A   1      42.858  33.555  35.870  1.00  0.00     0.200 A 
ATOM     83  F   UNL A   1      44.292  34.666  34.361  1.00  0.00    -0.200 F 
ATOM     84  F   UNL A   1      42.859  34.622  36.680  1.00  0.00    -0.200 F 
ENDBRANCH  60  74
BRANCH  61  85
ATOM     85  C   UNL A   1      42.659  23.718  27.695  1.00  0.00     0.064 A 
ATOM     86  C   UNL A   1      42.186  22.451  28.063  1.00  0.00     0.173 A 
ATOM     87  C   UNL A   1      43.125  23.884  26.382  1.00  0.00     0.173 A 
ATOM     88  F   UNL A   1      41.748  22.239  29.313  1.00  0.00    -0.203 F 
ATOM     89  C   UNL A   1      42.195  21.388  27.163  1.00  0.00     0.198 A 
ATOM     90  C   UNL A   1      43.110  22.828  25.474  1.00  0.00     0.198 A 
ATOM     91  F   UNL A   1      43.584  25.079  25.979  1.00  0.00    -0.203 F 
ATOM     92  F   UNL A   1      41.774  20.177  27.554  1.00  0.00    -0.200 F 
ATOM     93  C   UNL A   1      42.653  21.579  25.867  1.00  0.00     0.200 A 
ATOM     94  F   UNL A   1      43.541  23.018  24.221  1.00  0.00    -0.200 F 
ATOM     95  F   UNL A   1      42.658  20.557  25.001  1.00  0.00    -0.200 F 
ENDBRANCH  61  85
BRANCH  73  96
ATOM     96  C   UNL A   1      47.006  25.602  32.795  1.00  0.00     0.064 A 
ATOM     97  C   UNL A   1      48.259  25.948  32.267  1.00  0.00     0.173 A 
ATOM     98  C   UNL A   1      46.969  24.689  33.860  1.00  0.00     0.173 A 
ATOM     99  F   UNL A   1      48.343  26.804  31.238  1.00  0.00    -0.203 F 
ATOM    100  C   UNL A   1      49.427  25.381  32.769  1.00  0.00     0.198 A 
ATOM    101  C   UNL A   1      48.141  24.145  34.377  1.00  0.00     0.198 A 
ATOM    102  F   UNL A   1      45.797  24.331  34.403  1.00  0.00    -0.203 F 
ATOM    103  F   UNL A   1      50.609  25.690  32.218  1.00  0.00    -0.200 F 
ATOM    104  C   UNL A   1      49.368  24.486  33.827  1.00  0.00     0.200 A 
ATOM    105  F   UNL A   1      48.084  23.289  35.406  1.00  0.00    -0.200 F 
ATOM    106  F   UNL A   1      50.494  23.945  34.311  1.00  0.00    -0.200 F 
ENDBRANCH  73  96
ENDBRANCH  47  48
ENDBRANCH  39  42
ENDBRANCH  37  38
ENDBRANCH  36  37
ENDBRANCH   1  36
TORSDOF 16
ENDMDL
MODEL 2
REMARK VINA RESULT:     -11.1      5.256     12.127
REMARK SMILES COc1cccc([C@H]2CC(c3ccc(S(C)(=O)=O)cc3)=NN2c2ccc(C(=O)NCCCCNC(=O)c3ccc(-c4c5nc(c(-c6c(F)c(F)c(F)c(F)c6F)c6ccc([nH]6)c(-c6c(F)c(F)c(F)c(F)c6F)c6nc(c(-c7c(F)c(F)c(F)c(F)c7F)c7ccc4[nH]7)C=C6)C=C5)cc3)cc2)c1
REMARK SMILES IDX 31 1 30 2 29 3 27 4 28 5 26 7 23 8 24 9 101 10 25 11 100 12
REMARK SMILES IDX 22 13 8 14 9 15 10 16 21 17 7 18 3 19 4 20 102 21 5 22 6 23
REMARK SMILES IDX 2 24 1 25 11 26 12 27 20 28 13 29 19 30 14 31 15 32 16 33
REMARK SMILES IDX 17 34 18 35 32 36 33 37 34 38 35 39 36 41 37 42 38 43 99 44
REMARK SMILES IDX 39 45 98 46 40 47 41 48 42 49 92 50 43 51 97 52 91 53 93 54
REMARK SMILES IDX 44 55 96 56 90 57 89 58 45 60 77 61 57 62 76 63 58 64 61 65
REMARK SMILES IDX 75 66 94 67 59 68 60 69 74 71 95 72 62 73 46 74 47 75 55 76
REMARK SMILES IDX 48 77 49 78 53 79 56 80 50 81 51 82 54 83 52 84 78 85 79 86
REMARK SMILES IDX 87 87 80 88 81 89 85 90 88 91 82 92 83 93 86 94 84 95 63 96
REMARK SMILES IDX 64 97 72 98 65 99 66 100 70 101 73 102 67 103 68 104 71 105
REMARK SMILES IDX 69 106
REMARK H PARENT 29 6 34 40 93 59 61 70
REMARK Flexibility Score: inf
ROOT
ATOM      1  C   UNL A   1      32.442  30.048  27.007  1.00  0.00     0.023 C 
ENDROOT
BRANCH   1   2
ATOM      2  C   UNL A   1      31.610  29.070  26.173  1.00  0.00     0.116 C 
BRANCH   2   3
ATOM      3  N   UNL A   1      31.910  29.220  24.765  1.00  0.00    -0.352 N 
ATOM      4  C   UNL A   1      32.621  28.442  23.886  1.00  0.00     0.251 C 
ATOM      5  O   UNL A   1      32.688  28.838  22.722  1.00  0.00    -0.269 OA
ATOM      6  H   UNL A   1      31.533  30.036  24.361  1.00  0.00     0.163 HD
BRANCH   4   7
ATOM      7  C   UNL A   1      33.261  27.145  24.254  1.00  0.00     0.039 A 
ATOM      8  C   UNL A   1      34.476  24.628  24.747  1.00  0.00     0.060 A 
ATOM      9  C   UNL A   1      34.396  25.146  23.452  1.00  0.00     0.029 A 
ATOM     10  C   UNL A   1      33.984  25.407  25.796  1.00  0.00     0.029 A 
ATOM     11  C   UNL A   1      33.779  26.376  23.203  1.00  0.00     0.016 A 
ATOM     12  C   UNL A   1      33.419  26.665  25.557  1.00  0.00     0.016 A 
BRANCH   8  13
ATOM     13  N   UNL A   1      35.051  23.391  24.969  1.00  0.00    -0.257 N 
ATOM     14  C   UNL A   1      34.321  22.203  25.411  1.00  0.00     0.144 C 
ATOM     15  C   UNL A   1      35.449  21.221  25.749  1.00  0.00     0.091 C 
ATOM     16  C   UNL A   1      36.643  22.072  25.422  1.00  0.00     0.071 C 
ATOM     17  N   UNL A   1      36.401  23.270  24.998  1.00  0.00    -0.176 NA
BRANCH  14  18
ATOM     18  C   UNL A   1      33.398  21.691  24.316  1.00  0.00    -0.019 A 
ATOM     19  C   UNL A   1      32.401  19.847  23.067  1.00  0.00     0.119 A 
ATOM     20  C   UNL A   1      31.750  20.764  22.243  1.00  0.00     0.046 A 
ATOM     21  C   UNL A   1      33.235  20.310  24.085  1.00  0.00     0.052 A 
ATOM     22  C   UNL A   1      31.899  22.134  22.457  1.00  0.00     0.004 A 
ATOM     23  C   UNL A   1      32.715  22.596  23.490  1.00  0.00     0.006 A 
BRANCH  19  24
ATOM     24  O   UNL A   1      32.188  18.531  22.762  1.00  0.00    -0.497 OA
ATOM     25  C   UNL A   1      32.907  17.594  23.554  1.00  0.00     0.278 C 
ENDBRANCH  19  24
ENDBRANCH  14  18
BRANCH  16  26
ATOM     26  C   UNL A   1      38.001  21.571  25.633  1.00  0.00    -0.002 A 
ATOM     27  C   UNL A   1      38.279  20.237  25.315  1.00  0.00     0.011 A 
ATOM     28  C   UNL A   1      38.982  22.412  26.159  1.00  0.00     0.011 A 
ATOM     29  C   UNL A   1      39.566  19.740  25.510  1.00  0.00     0.021 A 
ATOM     30  C   UNL A   1      40.265  21.908  26.378  1.00  0.00     0.021 A 
ATOM     31  C   UNL A   1      40.548  20.576  26.055  1.00  0.00     0.067 A 
BRANCH  31  32
ATOM     32  S   UNL A   1      42.185  19.930  26.308  1.00  0.00     0.175 S 
ATOM     33  C   UNL A   1      43.211  21.374  26.400  1.00  0.00     0.163 C 
ATOM     34  O   UNL A   1      42.181  19.283  27.606  1.00  0.00    -0.224 OA
ATOM     35  O   UNL A   1      42.559  19.202  25.110  1.00  0.00    -0.224 OA
ENDBRANCH  31  32
ENDBRANCH  16  26
ENDBRANCH   8  13
ENDBRANCH   4   7
ENDBRANCH   2   3
ENDBRANCH   1   2
BRANCH   1  36
ATOM     36  C   UNL A   1      31.992  31.508  26.898  1.00  0.00     0.023 C 
BRANCH  36  37
ATOM     37  C   UNL A   1      33.113  32.535  27.009  1.00  0.00     0.116 C 
BRANCH  37  38
ATOM     38  N   UNL A   1      32.655  33.838  27.466  1.00  0.00    -0.352 N 
ATOM     39  C   UNL A   1      33.100  34.580  28.530  1.00  0.00     0.251 C 
ATOM     40  H   UNL A   1      31.926  34.241  26.941  1.00  0.00     0.163 HD
ATOM     41  O   UNL A   1      32.532  35.621  28.841  1.00  0.00    -0.269 OA
BRANCH  39  42
ATOM     42  C   UNL A   1      34.244  34.093  29.329  1.00  0.00     0.039 A 
ATOM     43  C   UNL A   1      33.987  33.270  30.428  1.00  0.00     0.014 A 
ATOM     44  C   UNL A   1      35.556  34.431  28.990  1.00  0.00     0.014 A 
ATOM     45  C   UNL A   1      35.053  32.737  31.154  1.00  0.00     0.010 A 
ATOM     46  C   UNL A   1      36.619  33.848  29.674  1.00  0.00     0.010 A 
ATOM     47  C   UNL A   1      36.376  32.997  30.762  1.00  0.00    -0.014 A 
BRANCH  47  48
ATOM     48  C   UNL A   1      37.517  32.382  31.482  1.00  0.00     0.031 A 
ATOM     49  C   UNL A   1      38.273  31.241  30.866  1.00  0.00     0.074 A 
ATOM     50  C   UNL A   1      37.831  32.817  32.717  1.00  0.00     0.049 A 
ATOM     51  N   UNL A   1      39.272  30.551  31.353  1.00  0.00    -0.248 NA
ATOM     52  C   UNL A   1      37.833  30.800  29.533  1.00  0.00     0.031 C 
ATOM     53  C   UNL A   1      37.132  33.878  33.443  1.00  0.00     0.029 A 
ATOM     54  N   UNL A   1      38.816  32.414  33.583  1.00  0.00    -0.354 N 
ATOM     55  C   UNL A   1      39.569  29.590  30.398  1.00  0.00     0.074 A 
ATOM     56  C   UNL A   1      38.613  29.750  29.323  1.00  0.00     0.031 C 
ATOM     57  C   UNL A   1      37.724  34.057  34.635  1.00  0.00     0.029 A 
ATOM     58  C   UNL A   1      38.824  33.107  34.768  1.00  0.00     0.049 A 
ATOM     59  H   UNL A   1      39.456  31.694  33.375  1.00  0.00     0.167 HD
ATOM     60  C   UNL A   1      40.564  28.671  30.405  1.00  0.00     0.037 A 
ATOM     61  C   UNL A   1      39.631  32.990  35.839  1.00  0.00     0.037 A 
ATOM     62  C   UNL A   1      41.530  28.533  31.463  1.00  0.00     0.049 A 
ATOM     63  C   UNL A   1      40.740  31.973  35.814  1.00  0.00     0.074 A 
ATOM     64  C   UNL A   1      42.617  27.679  31.534  1.00  0.00     0.029 A 
ATOM     65  N   UNL A   1      41.524  29.271  32.637  1.00  0.00    -0.354 N 
ATOM     66  N   UNL A   1      41.060  31.120  34.871  1.00  0.00    -0.248 NA
ATOM     67  C   UNL A   1      41.605  31.909  36.999  1.00  0.00     0.031 C 
ATOM     68  C   UNL A   1      43.247  27.875  32.768  1.00  0.00     0.029 A 
ATOM     69  C   UNL A   1      42.577  28.880  33.448  1.00  0.00     0.049 A 
ATOM     70  H   UNL A   1      40.867  29.969  32.862  1.00  0.00     0.167 HD
ATOM     71  C   UNL A   1      42.173  30.436  35.337  1.00  0.00     0.074 A 
ATOM     72  C   UNL A   1      42.485  30.985  36.641  1.00  0.00     0.031 C 
ATOM     73  C   UNL A   1      42.873  29.441  34.741  1.00  0.00     0.037 A 
BRANCH  60  74
ATOM     74  C   UNL A   1      40.662  27.748  29.226  1.00  0.00     0.064 A 
ATOM     75  C   UNL A   1      41.622  27.942  28.222  1.00  0.00     0.173 A 
ATOM     76  C   UNL A   1      39.807  26.641  29.113  1.00  0.00     0.173 A 
ATOM     77  F   UNL A   1      42.454  28.992  28.277  1.00  0.00    -0.203 F 
ATOM     78  C   UNL A   1      41.704  27.078  27.132  1.00  0.00     0.198 A 
ATOM     79  C   UNL A   1      39.910  25.764  28.037  1.00  0.00     0.198 A 
ATOM     80  F   UNL A   1      38.874  26.409  30.049  1.00  0.00    -0.203 F 
ATOM     81  F   UNL A   1      42.597  27.311  26.161  1.00  0.00    -0.200 F 
ATOM     82  C   UNL A   1      40.852  25.986  27.044  1.00  0.00     0.200 A 
ATOM     83  F   UNL A   1      39.094  24.704  27.958  1.00  0.00    -0.200 F 
ATOM     84  F   UNL A   1      40.936  25.154  25.998  1.00  0.00    -0.200 F 
ENDBRANCH  60  74
BRANCH  61  85
ATOM     85  C   UNL A   1      39.444  33.883  37.009  1.00  0.00     0.064 A 
ATOM     86  C   UNL A   1      40.015  35.162  37.034  1.00  0.00     0.173 A 
ATOM     87  C   UNL A   1      38.694  33.480  38.124  1.00  0.00     0.173 A 
ATOM     88  F   UNL A   1      40.757  35.583  35.999  1.00  0.00    -0.203 F 
ATOM     89  C   UNL A   1      39.861  35.999  38.138  1.00  0.00     0.198 A 
ATOM     90  C   UNL A   1      38.519  34.327  39.217  1.00  0.00     0.198 A 
ATOM     91  F   UNL A   1      38.122  32.267  38.146  1.00  0.00    -0.203 F 
ATOM     92  F   UNL A   1      40.453  37.201  38.153  1.00  0.00    -0.200 F 
ATOM     93  C   UNL A   1      39.109  35.582  39.226  1.00  0.00     0.200 A 
ATOM     94  F   UNL A   1      37.781  33.927  40.260  1.00  0.00    -0.200 F 
ATOM     95  F   UNL A   1      38.958  36.388  40.286  1.00  0.00    -0.200 F 
ENDBRANCH  61  85
BRANCH  73  96
ATOM     96  C   UNL A   1      44.059  28.900  35.483  1.00  0.00     0.064 A 
ATOM     97  C   UNL A   1      45.337  29.458  35.328  1.00  0.00     0.173 A 
ATOM     98  C   UNL A   1      43.909  27.834  36.383  1.00  0.00     0.173 A 
ATOM     99  F   UNL A   1      45.533  30.467  34.467  1.00  0.00    -0.203 F 
ATOM    100  C   UNL A   1      46.428  28.950  36.030  1.00  0.00     0.198 A 
ATOM    101  C   UNL A   1      44.997  27.348  37.103  1.00  0.00     0.198 A 
ATOM    102  F   UNL A   1      42.707  27.272  36.571  1.00  0.00    -0.203 F 
ATOM    103  F   UNL A   1      47.648  29.467  35.831  1.00  0.00    -0.200 F 
ATOM    104  C   UNL A   1      46.255  27.901  36.921  1.00  0.00     0.200 A 
ATOM    105  F   UNL A   1      44.828  26.342  37.972  1.00  0.00    -0.200 F 
ATOM    106  F   UNL A   1      47.306  27.416  37.598  1.00  0.00    -0.200 F 
ENDBRANCH  73  96
ENDBRANCH  47  48
ENDBRANCH  39  42
ENDBRANCH  37  38
ENDBRANCH  36  37
ENDBRANCH   1  36
TORSDOF 16
ENDMDL
MODEL 3
REMARK VINA RESULT:     -10.8      5.258      9.965
REMARK SMILES COc1cccc([C@H]2CC(c3ccc(S(C)(=O)=O)cc3)=NN2c2ccc(C(=O)NCCCCNC(=O)c3ccc(-c4c5nc(c(-c6c(F)c(F)c(F)c(F)c6F)c6ccc([nH]6)c(-c6c(F)c(F)c(F)c(F)c6F)c6nc(c(-c7c(F)c(F)c(F)c(F)c7F)c7ccc4[nH]7)C=C6)C=C5)cc3)cc2)c1
REMARK SMILES IDX 31 1 30 2 29 3 27 4 28 5 26 7 23 8 24 9 101 10 25 11 100 12
REMARK SMILES IDX 22 13 8 14 9 15 10 16 21 17 7 18 3 19 4 20 102 21 5 22 6 23
REMARK SMILES IDX 2 24 1 25 11 26 12 27 20 28 13 29 19 30 14 31 15 32 16 33
REMARK SMILES IDX 17 34 18 35 32 36 33 37 34 38 35 39 36 41 37 42 38 43 99 44
REMARK SMILES IDX 39 45 98 46 40 47 41 48 42 49 92 50 43 51 97 52 91 53 93 54
REMARK SMILES IDX 44 55 96 56 90 57 89 58 45 60 77 61 57 62 76 63 58 64 61 65
REMARK SMILES IDX 75 66 94 67 59 68 60 69 74 71 95 72 62 73 46 74 47 75 55 76
REMARK SMILES IDX 48 77 49 78 53 79 56 80 50 81 51 82 54 83 52 84 78 85 79 86
REMARK SMILES IDX 87 87 80 88 81 89 85 90 88 91 82 92 83 93 86 94 84 95 63 96
REMARK SMILES IDX 64 97 72 98 65 99 66 100 70 101 73 102 67 103 68 104 71 105
REMARK SMILES IDX 69 106
REMARK H PARENT 29 6 34 40 93 59 61 70
REMARK Flexibility Score: inf
ROOT
ATOM      1  C   UNL A   1      32.187  29.709  27.047  1.00  0.00     0.023 C 
ENDROOT
BRANCH   1   2
ATOM      2  C   UNL A   1      31.715  28.763  25.941  1.00  0.00     0.116 C 
BRANCH   2   3
ATOM      3  N   UNL A   1      32.267  29.160  24.663  1.00  0.00    -0.352 N 
ATOM      4  C   UNL A   1      33.082  28.511  23.769  1.00  0.00     0.251 C 
ATOM      5  O   UNL A   1      33.374  29.121  22.740  1.00  0.00    -0.269 OA
ATOM      6  H   UNL A   1      32.010  30.069  24.382  1.00  0.00     0.163 HD
BRANCH   4   7
ATOM      7  C   UNL A   1      33.579  27.117  23.958  1.00  0.00     0.039 A 
ATOM      8  C   UNL A   1      34.570  24.517  24.516  1.00  0.00     0.060 A 
ATOM      9  C   UNL A   1      34.285  25.414  25.549  1.00  0.00     0.029 A 
ATOM     10  C   UNL A   1      34.306  24.919  23.206  1.00  0.00     0.029 A 
ATOM     11  C   UNL A   1      33.818  26.704  25.275  1.00  0.00     0.016 A 
ATOM     12  C   UNL A   1      33.782  26.188  22.933  1.00  0.00     0.016 A 
BRANCH   8  13
ATOM     13  N   UNL A   1      35.073  23.262  24.803  1.00  0.00    -0.257 N 
ATOM     14  C   UNL A   1      34.272  22.134  25.278  1.00  0.00     0.144 C 
ATOM     15  C   UNL A   1      35.338  21.110  25.681  1.00  0.00     0.091 C 
ATOM     16  C   UNL A   1      36.583  21.881  25.346  1.00  0.00     0.071 C 
ATOM     17  N   UNL A   1      36.414  23.071  24.866  1.00  0.00    -0.176 NA
BRANCH  14  18
ATOM     18  C   UNL A   1      33.344  21.625  24.185  1.00  0.00    -0.019 A 
ATOM     19  C   UNL A   1      32.386  19.788  22.897  1.00  0.00     0.119 A 
ATOM     20  C   UNL A   1      31.687  20.707  22.116  1.00  0.00     0.046 A 
ATOM     21  C   UNL A   1      33.224  20.247  23.913  1.00  0.00     0.052 A 
ATOM     22  C   UNL A   1      31.794  22.074  22.370  1.00  0.00     0.004 A 
ATOM     23  C   UNL A   1      32.615  22.531  23.402  1.00  0.00     0.006 A 
BRANCH  19  24
ATOM     24  O   UNL A   1      32.211  18.475  22.554  1.00  0.00    -0.497 OA
ATOM     25  C   UNL A   1      32.974  17.539  23.305  1.00  0.00     0.278 C 
ENDBRANCH  19  24
ENDBRANCH  14  18
BRANCH  16  26
ATOM     26  C   UNL A   1      37.907  21.319  25.607  1.00  0.00    -0.002 A 
ATOM     27  C   UNL A   1      38.891  22.150  26.154  1.00  0.00     0.011 A 
ATOM     28  C   UNL A   1      38.176  19.986  25.292  1.00  0.00     0.011 A 
ATOM     29  C   UNL A   1      40.160  21.634  26.409  1.00  0.00     0.021 A 
ATOM     30  C   UNL A   1      39.454  19.476  25.523  1.00  0.00     0.021 A 
ATOM     31  C   UNL A   1      40.438  20.303  26.078  1.00  0.00     0.067 A 
BRANCH  31  32
ATOM     32  S   UNL A   1      42.063  19.656  26.398  1.00  0.00     0.175 S 
ATOM     33  C   UNL A   1      43.142  21.033  26.106  1.00  0.00     0.163 C 
ATOM     34  O   UNL A   1      42.109  19.325  27.808  1.00  0.00    -0.224 OA
ATOM     35  O   UNL A   1      42.344  18.656  25.384  1.00  0.00    -0.224 OA
ENDBRANCH  31  32
ENDBRANCH  16  26
ENDBRANCH   8  13
ENDBRANCH   4   7
ENDBRANCH   2   3
ENDBRANCH   1   2
BRANCH   1  36
ATOM     36  C   UNL A   1      31.843  31.182  26.804  1.00  0.00     0.023 C 
BRANCH  36  37
ATOM     37  C   UNL A   1      33.020  32.144  26.923  1.00  0.00     0.116 C 
BRANCH  37  38
ATOM     38  N   UNL A   1      32.633  33.471  27.376  1.00  0.00    -0.352 N 
ATOM     39  C   UNL A   1      33.178  34.227  28.382  1.00  0.00     0.251 C 
ATOM     40  H   UNL A   1      31.877  33.882  26.896  1.00  0.00     0.163 HD
ATOM     41  O   UNL A   1      32.664  35.292  28.705  1.00  0.00    -0.269 OA
BRANCH  39  42
ATOM     42  C   UNL A   1      34.366  33.728  29.105  1.00  0.00     0.039 A 
ATOM     43  C   UNL A   1      34.183  32.778  30.112  1.00  0.00     0.014 A 
ATOM     44  C   UNL A   1      35.648  34.181  28.786  1.00  0.00     0.014 A 
ATOM     45  C   UNL A   1      35.293  32.235  30.759  1.00  0.00     0.010 A 
ATOM     46  C   UNL A   1      36.758  33.593  29.385  1.00  0.00     0.010 A 
ATOM     47  C   UNL A   1      36.590  32.617  30.378  1.00  0.00    -0.014 A 
BRANCH  47  48
ATOM     48  C   UNL A   1      37.780  31.999  31.010  1.00  0.00     0.031 A 
ATOM     49  C   UNL A   1      38.204  32.412  32.389  1.00  0.00     0.074 A 
ATOM     50  C   UNL A   1      38.512  31.108  30.314  1.00  0.00     0.049 A 
ATOM     51  N   UNL A   1      39.233  32.016  33.094  1.00  0.00    -0.248 NA
ATOM     52  C   UNL A   1      37.373  33.426  33.059  1.00  0.00     0.031 C 
ATOM     53  C   UNL A   1      38.234  30.672  28.945  1.00  0.00     0.029 A 
ATOM     54  N   UNL A   1      39.643  30.415  30.661  1.00  0.00    -0.354 N 
ATOM     55  C   UNL A   1      39.182  32.737  34.277  1.00  0.00     0.074 A 
ATOM     56  C   UNL A   1      38.051  33.635  34.179  1.00  0.00     0.031 C 
ATOM     57  C   UNL A   1      39.157  29.769  28.576  1.00  0.00     0.029 A 
ATOM     58  C   UNL A   1      40.104  29.583  29.671  1.00  0.00     0.049 A 
ATOM     59  H   UNL A   1      40.084  30.505  31.537  1.00  0.00     0.167 HD
ATOM     60  C   UNL A   1      39.992  32.644  35.359  1.00  0.00     0.037 A 
ATOM     61  C   UNL A   1      41.171  28.762  29.650  1.00  0.00     0.037 A 
ATOM     62  C   UNL A   1      41.098  31.731  35.465  1.00  0.00     0.049 A 
ATOM     63  C   UNL A   1      42.044  28.664  30.871  1.00  0.00     0.074 A 
ATOM     64  C   UNL A   1      41.937  31.511  36.543  1.00  0.00     0.029 A 
ATOM     65  N   UNL A   1      41.521  30.884  34.450  1.00  0.00    -0.354 N 
ATOM     66  N   UNL A   1      41.941  29.296  32.016  1.00  0.00    -0.248 NA
ATOM     67  C   UNL A   1      43.177  27.732  30.801  1.00  0.00     0.031 C 
ATOM     68  C   UNL A   1      42.891  30.557  36.168  1.00  0.00     0.029 A 
ATOM     69  C   UNL A   1      42.620  30.153  34.870  1.00  0.00     0.049 A 
ATOM     70  H   UNL A   1      41.101  30.813  33.562  1.00  0.00     0.167 HD
ATOM     71  C   UNL A   1      42.977  28.822  32.807  1.00  0.00     0.074 A 
ATOM     72  C   UNL A   1      43.689  27.837  32.019  1.00  0.00     0.031 C 
ATOM     73  C   UNL A   1      43.313  29.174  34.073  1.00  0.00     0.037 A 
BRANCH  60  74
ATOM     74  C   UNL A   1      39.702  33.549  36.519  1.00  0.00     0.064 A 
ATOM     75  C   UNL A   1      38.860  33.149  37.569  1.00  0.00     0.173 A 
ATOM     76  C   UNL A   1      40.296  34.818  36.601  1.00  0.00     0.173 A 
ATOM     77  F   UNL A   1      38.258  31.951  37.532  1.00  0.00    -0.203 F 
ATOM     78  C   UNL A   1      38.599  33.998  38.642  1.00  0.00     0.198 A 
ATOM     79  C   UNL A   1      40.054  35.653  37.689  1.00  0.00     0.198 A 
ATOM     80  F   UNL A   1      41.112  35.247  35.627  1.00  0.00    -0.203 F 
ATOM     81  F   UNL A   1      37.753  33.614  39.607  1.00  0.00    -0.200 F 
ATOM     82  C   UNL A   1      39.202  35.246  38.704  1.00  0.00     0.200 A 
ATOM     83  F   UNL A   1      40.646  36.854  37.754  1.00  0.00    -0.200 F 
ATOM     84  F   UNL A   1      38.953  36.059  39.739  1.00  0.00    -0.200 F 
ENDBRANCH  60  74
BRANCH  61  85
ATOM     85  C   UNL A   1      41.451  27.941  28.446  1.00  0.00     0.064 A 
ATOM     86  C   UNL A   1      40.766  26.739  28.222  1.00  0.00     0.173 A 
ATOM     87  C   UNL A   1      42.406  28.335  27.498  1.00  0.00     0.173 A 
ATOM     88  F   UNL A   1      39.858  26.312  29.112  1.00  0.00    -0.203 F 
ATOM     89  C   UNL A   1      41.038  25.952  27.105  1.00  0.00     0.198 A 
ATOM     90  C   UNL A   1      42.659  27.561  26.367  1.00  0.00     0.198 A 
ATOM     91  F   UNL A   1      43.085  29.481  27.664  1.00  0.00    -0.203 F 
ATOM     92  F   UNL A   1      40.397  24.787  26.937  1.00  0.00    -0.200 F 
ATOM     93  C   UNL A   1      41.981  26.367  26.176  1.00  0.00     0.200 A 
ATOM     94  F   UNL A   1      43.561  27.970  25.466  1.00  0.00    -0.200 F 
ATOM     95  F   UNL A   1      42.240  25.611  25.100  1.00  0.00    -0.200 F 
ENDBRANCH  61  85
BRANCH  73  96
ATOM     96  C   UNL A   1      44.484  28.470  34.690  1.00  0.00     0.064 A 
ATOM     97  C   UNL A   1      45.781  28.999  34.614  1.00  0.00     0.173 A 
ATOM     98  C   UNL A   1      44.301  27.269  35.394  1.00  0.00     0.173 A 
ATOM     99  F   UNL A   1      46.007  30.135  33.938  1.00  0.00    -0.203 F 
ATOM    100  C   UNL A   1      46.858  28.337  35.199  1.00  0.00     0.198 A 
ATOM    101  C   UNL A   1      45.376  26.626  36.000  1.00  0.00     0.198 A 
ATOM    102  F   UNL A   1      43.080  26.727  35.500  1.00  0.00    -0.203 F 
ATOM    103  F   UNL A   1      48.094  28.837  35.074  1.00  0.00    -0.200 F 
ATOM    104  C   UNL A   1      46.653  27.156  35.896  1.00  0.00     0.200 A 
ATOM    105  F   UNL A   1      45.177  25.490  36.683  1.00  0.00    -0.200 F 
ATOM    106  F   UNL A   1      47.691  26.523  36.462  1.00  0.00    -0.200 F 
ENDBRANCH  73  96
ENDBRANCH  47  48
ENDBRANCH  39  42
ENDBRANCH  37  38
ENDBRANCH  36  37
ENDBRANCH   1  36
TORSDOF 16
ENDMDL
