MODEL 1
REMARK VINA RESULT:     -14.0      0.000      0.000
REMARK SMILES O=C(NCCCCNC(=O)c1cc(S(=O)(=O)ON2C(=O)c3cccc4cccc(c34)C2=O)ccc1Br)c1ccc(-c2c3nc(c(-c4c(F)c(F)c(F)c(F)c4F)c4ccc([nH]4)c(-c4c(F)c(F)c(F)c(F)c4F)c4nc(c(-c5c(F)c(F)c(F)c(F)c5F)c5ccc2[nH]5)C=C4)C=C3)cc1
REMARK SMILES IDX 6 1 5 2 4 3 3 4 1 5 2 6 37 8 38 9 99 10 39 11 98 12 40 13
REMARK SMILES IDX 41 14 42 15 92 16 43 17 97 18 91 19 93 20 44 21 96 22 90 23
REMARK SMILES IDX 89 24 45 26 77 27 57 28 76 29 58 30 61 31 75 32 94 33 59 34
REMARK SMILES IDX 60 35 74 37 95 38 62 39 46 40 47 41 55 42 48 43 49 44 53 45
REMARK SMILES IDX 56 46 50 47 51 48 54 49 52 50 78 51 79 52 87 53 80 54 81 55
REMARK SMILES IDX 85 56 88 57 82 58 83 59 86 60 84 61 63 62 64 63 72 64 65 65
REMARK SMILES IDX 66 66 70 67 73 68 67 69 68 70 71 71 69 72 7 73 8 74 9 75
REMARK SMILES IDX 10 77 11 78 12 79 35 80 13 81 34 82 36 83 33 84 14 85 15 86
REMARK SMILES IDX 16 87 17 88 18 89 19 90 31 91 20 92 21 93 29 94 32 95 22 96
REMARK SMILES IDX 30 97 28 98 23 99 25 100 27 101 24 102 26 103
REMARK H PARENT 3 7 93 25 61 36 8 76
REMARK Flexibility Score: inf
ROOT
ATOM      1  C   UNL A   1      36.757  20.282  25.020  1.00  0.00     0.023 C 
ENDROOT
BRANCH   1   2
ATOM      2  C   UNL A   1      38.196  19.836  24.769  1.00  0.00     0.023 C 
BRANCH   2   3
ATOM      3  C   UNL A   1      39.165  20.072  25.922  1.00  0.00     0.116 C 
BRANCH   3   4
ATOM      4  N   UNL A   1      40.260  19.114  25.954  1.00  0.00    -0.352 N 
ATOM      5  O   UNL A   1      42.404  18.406  25.985  1.00  0.00    -0.269 OA
ATOM      6  C   UNL A   1      41.609  19.332  26.116  1.00  0.00     0.251 C 
ATOM      7  H   UNL A   1      39.997  18.172  25.846  1.00  0.00     0.163 HD
BRANCH   6   8
ATOM      8  C   UNL A   1      42.106  20.691  26.418  1.00  0.00     0.039 A 
ATOM      9  C   UNL A   1      42.383  21.073  27.731  1.00  0.00     0.014 A 
ATOM     10  C   UNL A   1      42.297  21.596  25.369  1.00  0.00     0.014 A 
ATOM     11  C   UNL A   1      42.690  22.399  28.014  1.00  0.00     0.010 A 
ATOM     12  C   UNL A   1      42.700  22.906  25.647  1.00  0.00     0.010 A 
ATOM     13  C   UNL A   1      42.865  23.328  26.975  1.00  0.00    -0.014 A 
BRANCH  13  14
ATOM     14  C   UNL A   1      43.284  24.715  27.305  1.00  0.00     0.031 A 
ATOM     15  C   UNL A   1      44.680  25.197  27.030  1.00  0.00     0.074 A 
ATOM     16  C   UNL A   1      42.371  25.551  27.836  1.00  0.00     0.049 A 
ATOM     17  N   UNL A   1      45.201  26.380  27.246  1.00  0.00    -0.248 NA
ATOM     18  C   UNL A   1      45.619  24.229  26.445  1.00  0.00     0.031 C 
ATOM     19  C   UNL A   1      40.988  25.191  28.157  1.00  0.00     0.029 A 
ATOM     20  N   UNL A   1      42.458  26.874  28.185  1.00  0.00    -0.354 N 
ATOM     21  C   UNL A   1      46.526  26.295  26.840  1.00  0.00     0.074 A 
ATOM     22  C   UNL A   1      46.740  24.936  26.389  1.00  0.00     0.031 C 
ATOM     23  C   UNL A   1      40.345  26.275  28.612  1.00  0.00     0.029 A 
ATOM     24  C   UNL A   1      41.284  27.388  28.678  1.00  0.00     0.049 A 
ATOM     25  H   UNL A   1      43.282  27.404  28.089  1.00  0.00     0.167 HD
ATOM     26  C   UNL A   1      47.471  27.266  26.837  1.00  0.00     0.037 A 
ATOM     27  C   UNL A   1      40.999  28.614  29.152  1.00  0.00     0.037 A 
ATOM     28  C   UNL A   1      47.246  28.621  27.274  1.00  0.00     0.049 A 
ATOM     29  C   UNL A   1      42.075  29.660  29.164  1.00  0.00     0.074 A 
ATOM     30  C   UNL A   1      48.130  29.687  27.274  1.00  0.00     0.029 A 
ATOM     31  N   UNL A   1      46.052  29.096  27.798  1.00  0.00    -0.354 N 
ATOM     32  N   UNL A   1      43.312  29.576  28.743  1.00  0.00    -0.248 NA
ATOM     33  C   UNL A   1      41.714  30.971  29.718  1.00  0.00     0.031 C 
ATOM     34  C   UNL A   1      47.488  30.791  27.844  1.00  0.00     0.029 A 
ATOM     35  C   UNL A   1      46.185  30.431  28.148  1.00  0.00     0.049 A 
ATOM     36  H   UNL A   1      45.231  28.564  27.904  1.00  0.00     0.167 HD
ATOM     37  C   UNL A   1      43.875  30.824  28.964  1.00  0.00     0.074 A 
ATOM     38  C   UNL A   1      42.834  31.654  29.537  1.00  0.00     0.031 C 
ATOM     39  C   UNL A   1      45.140  31.244  28.719  1.00  0.00     0.037 A 
BRANCH  26  40
ATOM     40  C   UNL A   1      48.850  26.901  26.362  1.00  0.00     0.064 A 
ATOM     41  C   UNL A   1      49.810  26.357  27.228  1.00  0.00     0.173 A 
ATOM     42  C   UNL A   1      49.198  27.047  25.011  1.00  0.00     0.173 A 
ATOM     43  F   UNL A   1      49.533  26.203  28.532  1.00  0.00    -0.203 F 
ATOM     44  C   UNL A   1      51.072  25.993  26.762  1.00  0.00     0.198 A 
ATOM     45  C   UNL A   1      50.450  26.656  24.542  1.00  0.00     0.198 A 
ATOM     46  F   UNL A   1      48.315  27.555  24.136  1.00  0.00    -0.203 F 
ATOM     47  F   UNL A   1      51.987  25.511  27.617  1.00  0.00    -0.200 F 
ATOM     48  C   UNL A   1      51.388  26.136  25.420  1.00  0.00     0.200 A 
ATOM     49  F   UNL A   1      50.748  26.782  23.242  1.00  0.00    -0.200 F 
ATOM     50  F   UNL A   1      52.600  25.776  24.973  1.00  0.00    -0.200 F 
ENDBRANCH  26  40
BRANCH  27  51
ATOM     51  C   UNL A   1      39.633  28.905  29.661  1.00  0.00     0.064 A 
ATOM     52  C   UNL A   1      38.652  29.452  28.823  1.00  0.00     0.173 A 
ATOM     53  C   UNL A   1      39.279  28.627  30.990  1.00  0.00     0.173 A 
ATOM     54  F   UNL A   1      38.949  29.750  27.550  1.00  0.00    -0.203 F 
ATOM     55  C   UNL A   1      37.371  29.722  29.300  1.00  0.00     0.198 A 
ATOM     56  C   UNL A   1      37.989  28.869  31.456  1.00  0.00     0.198 A 
ATOM     57  F   UNL A   1      40.181  28.098  31.829  1.00  0.00    -0.203 F 
ATOM     58  F   UNL A   1      36.462  30.283  28.491  1.00  0.00    -0.200 F 
ATOM     59  C   UNL A   1      37.039  29.424  30.613  1.00  0.00     0.200 A 
ATOM     60  F   UNL A   1      37.668  28.561  32.720  1.00  0.00    -0.200 F 
ATOM     61  F   UNL A   1      35.804  29.675  31.068  1.00  0.00    -0.200 F 
ENDBRANCH  27  51
BRANCH  39  62
ATOM     62  C   UNL A   1      45.459  32.674  29.043  1.00  0.00     0.064 A 
ATOM     63  C   UNL A   1      45.243  33.705  28.117  1.00  0.00     0.173 A 
ATOM     64  C   UNL A   1      45.964  33.020  30.306  1.00  0.00     0.173 A 
ATOM     65  F   UNL A   1      44.779  33.423  26.890  1.00  0.00    -0.203 F 
ATOM     66  C   UNL A   1      45.548  35.026  28.432  1.00  0.00     0.198 A 
ATOM     67  C   UNL A   1      46.239  34.346  30.629  1.00  0.00     0.198 A 
ATOM     68  F   UNL A   1      46.183  32.073  31.229  1.00  0.00    -0.203 F 
ATOM     69  F   UNL A   1      45.385  35.987  27.513  1.00  0.00    -0.200 F 
ATOM     70  C   UNL A   1      46.039  35.346  29.690  1.00  0.00     0.200 A 
ATOM     71  F   UNL A   1      46.701  34.655  31.848  1.00  0.00    -0.200 F 
ATOM     72  F   UNL A   1      46.329  36.619  29.993  1.00  0.00    -0.200 F 
ENDBRANCH  39  62
ENDBRANCH  13  14
ENDBRANCH   6   8
ENDBRANCH   3   4
ENDBRANCH   2   3
ENDBRANCH   1   2
BRANCH   1  73
ATOM     73  C   UNL A   1      36.585  21.748  25.402  1.00  0.00     0.116 C 
BRANCH  73  74
ATOM     74  N   UNL A   1      35.654  21.946  26.500  1.00  0.00    -0.352 N 
ATOM     75  C   UNL A   1      34.294  22.125  26.447  1.00  0.00     0.252 C 
ATOM     76  H   UNL A   1      36.051  21.953  27.401  1.00  0.00     0.163 HD
ATOM     77  O   UNL A   1      33.643  22.301  27.471  1.00  0.00    -0.269 OA
BRANCH  75  78
ATOM     78  C   UNL A   1      33.620  22.186  25.139  1.00  0.00     0.055 A 
ATOM     79  C   UNL A   1      33.565  23.442  24.524  1.00  0.00     0.038 A 
ATOM     80  C   UNL A   1      33.050  21.069  24.516  1.00  0.00     0.030 A 
ATOM     81  C   UNL A   1      32.988  23.559  23.257  1.00  0.00     0.097 A 
ATOM     82  C   UNL A   1      32.515  21.194  23.228  1.00  0.00     0.018 A 
ATOM     83  Br  UNL A   1      32.911  19.375  25.359  1.00  0.00    -0.050 Br
ATOM     84  C   UNL A   1      32.491  22.437  22.590  1.00  0.00     0.024 A 
BRANCH  81  85
ATOM     85  S   UNL A   1      32.902  25.174  22.520  1.00  0.00     0.318 S 
ATOM     86  O   UNL A   1      34.245  25.486  22.067  1.00  0.00    -0.192 OA
ATOM     87  O   UNL A   1      31.798  25.136  21.585  1.00  0.00    -0.192 OA
BRANCH  85  88
ATOM     88  O   UNL A   1      32.516  26.176  23.757  1.00  0.00    -0.134 OA
BRANCH  88  89
ATOM     89  N   UNL A   1      31.324  26.888  23.504  1.00  0.00    -0.127 N 
ATOM     90  C   UNL A   1      31.491  28.128  22.918  1.00  0.00     0.286 C 
ATOM     91  C   UNL A   1      30.202  26.386  24.130  1.00  0.00     0.286 C 
ATOM     92  O   UNL A   1      32.576  28.641  22.661  1.00  0.00    -0.266 OA
ATOM     93  C   UNL A   1      30.229  28.856  22.644  1.00  0.00     0.051 A 
ATOM     94  C   UNL A   1      28.950  27.118  23.831  1.00  0.00     0.051 A 
ATOM     95  O   UNL A   1      30.198  25.434  24.904  1.00  0.00    -0.266 OA
ATOM     96  C   UNL A   1      30.264  30.060  21.931  1.00  0.00     0.014 A 
ATOM     97  C   UNL A   1      29.011  28.315  23.096  1.00  0.00     0.007 A 
ATOM     98  C   UNL A   1      27.728  26.603  24.279  1.00  0.00     0.014 A 
ATOM     99  C   UNL A   1      29.078  30.732  21.654  1.00  0.00     0.001 A 
ATOM    100  C   UNL A   1      27.810  29.004  22.812  1.00  0.00    -0.017 A 
ATOM    101  C   UNL A   1      26.549  27.280  23.987  1.00  0.00     0.001 A 
ATOM    102  C   UNL A   1      27.860  30.206  22.088  1.00  0.00     0.009 A 
ATOM    103  C   UNL A   1      26.589  28.471  23.260  1.00  0.00     0.009 A 
ENDBRANCH  88  89
ENDBRANCH  85  88
ENDBRANCH  81  85
ENDBRANCH  75  78
ENDBRANCH  73  74
ENDBRANCH   1  73
TORSDOF 14
ENDMDL
MODEL 2
REMARK VINA RESULT:     -13.8      4.950     10.977
REMARK SMILES O=C(NCCCCNC(=O)c1cc(S(=O)(=O)ON2C(=O)c3cccc4cccc(c34)C2=O)ccc1Br)c1ccc(-c2c3nc(c(-c4c(F)c(F)c(F)c(F)c4F)c4ccc([nH]4)c(-c4c(F)c(F)c(F)c(F)c4F)c4nc(c(-c5c(F)c(F)c(F)c(F)c5F)c5ccc2[nH]5)C=C4)C=C3)cc1
REMARK SMILES IDX 6 1 5 2 4 3 3 4 1 5 2 6 37 8 38 9 99 10 39 11 98 12 40 13
REMARK SMILES IDX 41 14 42 15 92 16 43 17 97 18 91 19 93 20 44 21 96 22 90 23
REMARK SMILES IDX 89 24 45 26 77 27 57 28 76 29 58 30 61 31 75 32 94 33 59 34
REMARK SMILES IDX 60 35 74 37 95 38 62 39 46 40 47 41 55 42 48 43 49 44 53 45
REMARK SMILES IDX 56 46 50 47 51 48 54 49 52 50 78 51 79 52 87 53 80 54 81 55
REMARK SMILES IDX 85 56 88 57 82 58 83 59 86 60 84 61 63 62 64 63 72 64 65 65
REMARK SMILES IDX 66 66 70 67 73 68 67 69 68 70 71 71 69 72 7 73 8 74 9 75
REMARK SMILES IDX 10 77 11 78 12 79 35 80 13 81 34 82 36 83 33 84 14 85 15 86
REMARK SMILES IDX 16 87 17 88 18 89 19 90 31 91 20 92 21 93 29 94 32 95 22 96
REMARK SMILES IDX 30 97 28 98 23 99 25 100 27 101 24 102 26 103
REMARK H PARENT 3 7 93 25 61 36 8 76
REMARK Flexibility Score: inf
ROOT
ATOM      1  C   UNL A   1      30.656  31.905  25.500  1.00  0.00     0.023 C 
ENDROOT
BRANCH   1   2
ATOM      2  C   UNL A   1      31.326  31.925  26.873  1.00  0.00     0.023 C 
BRANCH   2   3
ATOM      3  C   UNL A   1      32.592  32.767  26.971  1.00  0.00     0.116 C 
BRANCH   3   4
ATOM      4  N   UNL A   1      32.346  34.114  27.467  1.00  0.00    -0.352 N 
ATOM      5  O   UNL A   1      32.533  35.885  28.853  1.00  0.00    -0.269 OA
ATOM      6  C   UNL A   1      32.965  34.796  28.488  1.00  0.00     0.251 C 
ATOM      7  H   UNL A   1      31.633  34.608  27.003  1.00  0.00     0.163 HD
BRANCH   6   8
ATOM      8  C   UNL A   1      34.136  34.204  29.169  1.00  0.00     0.039 A 
ATOM      9  C   UNL A   1      35.433  34.516  28.757  1.00  0.00     0.014 A 
ATOM     10  C   UNL A   1      33.932  33.323  30.235  1.00  0.00     0.014 A 
ATOM     11  C   UNL A   1      36.512  33.827  29.297  1.00  0.00     0.010 A 
ATOM     12  C   UNL A   1      35.028  32.701  30.842  1.00  0.00     0.010 A 
ATOM     13  C   UNL A   1      36.324  32.922  30.355  1.00  0.00    -0.014 A 
BRANCH  13  14
ATOM     14  C   UNL A   1      37.509  32.271  30.971  1.00  0.00     0.031 A 
ATOM     15  C   UNL A   1      37.975  32.640  32.351  1.00  0.00     0.074 A 
ATOM     16  C   UNL A   1      38.150  31.312  30.274  1.00  0.00     0.049 A 
ATOM     17  N   UNL A   1      38.982  32.157  33.037  1.00  0.00    -0.248 NA
ATOM     18  C   UNL A   1      37.223  33.690  33.052  1.00  0.00     0.031 C 
ATOM     19  C   UNL A   1      37.795  30.878  28.921  1.00  0.00     0.029 A 
ATOM     20  N   UNL A   1      39.219  30.520  30.606  1.00  0.00    -0.354 N 
ATOM     21  C   UNL A   1      38.994  32.852  34.240  1.00  0.00     0.074 A 
ATOM     22  C   UNL A   1      37.910  33.811  34.180  1.00  0.00     0.031 C 
ATOM     23  C   UNL A   1      38.599  29.870  28.556  1.00  0.00     0.029 A 
ATOM     24  C   UNL A   1      39.567  29.631  29.619  1.00  0.00     0.049 A 
ATOM     25  H   UNL A   1      39.689  30.582  31.469  1.00  0.00     0.167 HD
ATOM     26  C   UNL A   1      39.828  32.696  35.296  1.00  0.00     0.037 A 
ATOM     27  C   UNL A   1      40.570  28.736  29.565  1.00  0.00     0.037 A 
ATOM     28  C   UNL A   1      40.896  31.729  35.352  1.00  0.00     0.049 A 
ATOM     29  C   UNL A   1      41.496  28.607  30.739  1.00  0.00     0.074 A 
ATOM     30  C   UNL A   1      41.771  31.469  36.393  1.00  0.00     0.029 A 
ATOM     31  N   UNL A   1      41.239  30.867  34.320  1.00  0.00    -0.354 N 
ATOM     32  N   UNL A   1      41.473  29.244  31.883  1.00  0.00    -0.248 NA
ATOM     33  C   UNL A   1      42.588  27.633  30.613  1.00  0.00     0.031 C 
ATOM     34  C   UNL A   1      42.675  30.487  35.974  1.00  0.00     0.029 A 
ATOM     35  C   UNL A   1      42.329  30.094  34.691  1.00  0.00     0.049 A 
ATOM     36  H   UNL A   1      40.777  30.812  33.453  1.00  0.00     0.167 HD
ATOM     37  C   UNL A   1      42.534  28.740  32.621  1.00  0.00     0.074 A 
ATOM     38  C   UNL A   1      43.167  27.727  31.802  1.00  0.00     0.031 C 
ATOM     39  C   UNL A   1      42.949  29.089  33.864  1.00  0.00     0.037 A 
BRANCH  26  40
ATOM     40  C   UNL A   1      39.638  33.603  36.479  1.00  0.00     0.064 A 
ATOM     41  C   UNL A   1      40.224  34.877  36.536  1.00  0.00     0.173 A 
ATOM     42  C   UNL A   1      38.815  33.214  37.547  1.00  0.00     0.173 A 
ATOM     43  F   UNL A   1      41.026  35.296  35.545  1.00  0.00    -0.203 F 
ATOM     44  C   UNL A   1      40.008  35.718  37.627  1.00  0.00     0.198 A 
ATOM     45  C   UNL A   1      38.579  34.067  38.622  1.00  0.00     0.198 A 
ATOM     46  F   UNL A   1      38.224  32.010  37.541  1.00  0.00    -0.203 F 
ATOM     47  F   UNL A   1      40.610  36.914  37.677  1.00  0.00    -0.200 F 
ATOM     48  C   UNL A   1      39.181  35.316  38.664  1.00  0.00     0.200 A 
ATOM     49  F   UNL A   1      37.769  33.683  39.618  1.00  0.00    -0.200 F 
ATOM     50  F   UNL A   1      38.968  36.130  39.708  1.00  0.00    -0.200 F 
ENDBRANCH  26  40
BRANCH  27  51
ATOM     51  C   UNL A   1      40.746  27.902  28.348  1.00  0.00     0.064 A 
ATOM     52  C   UNL A   1      41.522  28.350  27.271  1.00  0.00     0.173 A 
ATOM     53  C   UNL A   1      40.154  26.634  28.245  1.00  0.00     0.173 A 
ATOM     54  F   UNL A   1      42.092  29.563  27.316  1.00  0.00    -0.203 F 
ATOM     55  C   UNL A   1      41.687  27.567  26.131  1.00  0.00     0.198 A 
ATOM     56  C   UNL A   1      40.347  25.839  27.118  1.00  0.00     0.198 A 
ATOM     57  F   UNL A   1      39.407  26.158  29.252  1.00  0.00    -0.203 F 
ATOM     58  F   UNL A   1      42.400  28.035  25.097  1.00  0.00    -0.200 F 
ATOM     59  C   UNL A   1      41.107  26.310  26.059  1.00  0.00     0.200 A 
ATOM     60  F   UNL A   1      39.799  24.617  27.062  1.00  0.00    -0.200 F 
ATOM     61  F   UNL A   1      41.275  25.553  24.966  1.00  0.00    -0.200 F 
ENDBRANCH  27  51
BRANCH  39  62
ATOM     62  C   UNL A   1      44.127  28.346  34.422  1.00  0.00     0.064 A 
ATOM     63  C   UNL A   1      45.436  28.829  34.280  1.00  0.00     0.173 A 
ATOM     64  C   UNL A   1      43.941  27.148  35.130  1.00  0.00     0.173 A 
ATOM     65  F   UNL A   1      45.668  29.960  33.596  1.00  0.00    -0.203 F 
ATOM     66  C   UNL A   1      46.519  28.125  34.800  1.00  0.00     0.198 A 
ATOM     67  C   UNL A   1      45.023  26.463  35.675  1.00  0.00     0.198 A 
ATOM     68  F   UNL A   1      42.709  26.647  35.298  1.00  0.00    -0.203 F 
ATOM     69  F   UNL A   1      47.765  28.577  34.605  1.00  0.00    -0.200 F 
ATOM     70  C   UNL A   1      46.311  26.947  35.502  1.00  0.00     0.200 A 
ATOM     71  F   UNL A   1      44.819  25.333  36.364  1.00  0.00    -0.200 F 
ATOM     72  F   UNL A   1      47.354  26.273  36.006  1.00  0.00    -0.200 F 
ENDBRANCH  39  62
ENDBRANCH  13  14
ENDBRANCH   6   8
ENDBRANCH   3   4
ENDBRANCH   2   3
ENDBRANCH   1   2
BRANCH   1  73
ATOM     73  C   UNL A   1      30.622  30.545  24.810  1.00  0.00     0.116 C 
BRANCH  73  74
ATOM     74  N   UNL A   1      30.287  30.630  23.398  1.00  0.00    -0.352 N 
ATOM     75  C   UNL A   1      29.916  29.621  22.544  1.00  0.00     0.252 C 
ATOM     76  H   UNL A   1      30.332  31.530  23.002  1.00  0.00     0.163 HD
ATOM     77  O   UNL A   1      29.683  29.852  21.363  1.00  0.00    -0.269 OA
BRANCH  75  78
ATOM     78  C   UNL A   1      29.877  28.233  23.034  1.00  0.00     0.055 A 
ATOM     79  C   UNL A   1      31.090  27.534  23.027  1.00  0.00     0.038 A 
ATOM     80  C   UNL A   1      28.707  27.611  23.488  1.00  0.00     0.030 A 
ATOM     81  C   UNL A   1      31.132  26.231  23.530  1.00  0.00     0.097 A 
ATOM     82  C   UNL A   1      28.774  26.322  24.030  1.00  0.00     0.018 A 
ATOM     83  Br  UNL A   1      26.993  28.415  23.357  1.00  0.00    -0.050 Br
ATOM     84  C   UNL A   1      29.988  25.631  24.061  1.00  0.00     0.024 A 
BRANCH  81  85
ATOM     85  S   UNL A   1      32.680  25.360  23.472  1.00  0.00     0.318 S 
ATOM     86  O   UNL A   1      32.518  24.310  22.482  1.00  0.00    -0.192 OA
ATOM     87  O   UNL A   1      33.708  26.367  23.317  1.00  0.00    -0.192 OA
BRANCH  85  88
ATOM     88  O   UNL A   1      32.827  24.673  24.951  1.00  0.00    -0.134 OA
BRANCH  88  89
ATOM     89  N   UNL A   1      33.471  23.419  24.887  1.00  0.00    -0.127 N 
ATOM     90  C   UNL A   1      32.629  22.323  24.895  1.00  0.00     0.286 C 
ATOM     91  C   UNL A   1      34.832  23.451  25.116  1.00  0.00     0.286 C 
ATOM     92  O   UNL A   1      31.408  22.378  24.999  1.00  0.00    -0.266 OA
ATOM     93  C   UNL A   1      33.321  21.014  24.810  1.00  0.00     0.051 A 
ATOM     94  C   UNL A   1      35.504  22.136  25.011  1.00  0.00     0.051 A 
ATOM     95  O   UNL A   1      35.468  24.455  25.415  1.00  0.00    -0.266 OA
ATOM     96  C   UNL A   1      32.569  19.841  24.674  1.00  0.00     0.014 A 
ATOM     97  C   UNL A   1      34.727  20.975  24.856  1.00  0.00     0.007 A 
ATOM     98  C   UNL A   1      36.901  22.072  25.062  1.00  0.00     0.014 A 
ATOM     99  C   UNL A   1      33.219  18.614  24.573  1.00  0.00     0.001 A 
ATOM    100  C   UNL A   1      35.379  19.725  24.752  1.00  0.00    -0.017 A 
ATOM    101  C   UNL A   1      37.538  20.841  24.950  1.00  0.00     0.001 A 
ATOM    102  C   UNL A   1      34.613  18.557  24.608  1.00  0.00     0.009 A 
ATOM    103  C   UNL A   1      36.783  19.676  24.796  1.00  0.00     0.009 A 
ENDBRANCH  88  89
ENDBRANCH  85  88
ENDBRANCH  81  85
ENDBRANCH  75  78
ENDBRANCH  73  74
ENDBRANCH   1  73
TORSDOF 14
ENDMDL
MODEL 3
REMARK VINA RESULT:     -13.7      1.314      2.176
REMARK SMILES O=C(NCCCCNC(=O)c1cc(S(=O)(=O)ON2C(=O)c3cccc4cccc(c34)C2=O)ccc1Br)c1ccc(-c2c3nc(c(-c4c(F)c(F)c(F)c(F)c4F)c4ccc([nH]4)c(-c4c(F)c(F)c(F)c(F)c4F)c4nc(c(-c5c(F)c(F)c(F)c(F)c5F)c5ccc2[nH]5)C=C4)C=C3)cc1
REMARK SMILES IDX 6 1 5 2 4 3 3 4 1 5 2 6 37 8 38 9 99 10 39 11 98 12 40 13
REMARK SMILES IDX 41 14 42 15 92 16 43 17 97 18 91 19 93 20 44 21 96 22 90 23
REMARK SMILES IDX 89 24 45 26 77 27 57 28 76 29 58 30 61 31 75 32 94 33 59 34
REMARK SMILES IDX 60 35 74 37 95 38 62 39 46 40 47 41 55 42 48 43 49 44 53 45
REMARK SMILES IDX 56 46 50 47 51 48 54 49 52 50 78 51 79 52 87 53 80 54 81 55
REMARK SMILES IDX 85 56 88 57 82 58 83 59 86 60 84 61 63 62 64 63 72 64 65 65
REMARK SMILES IDX 66 66 70 67 73 68 67 69 68 70 71 71 69 72 7 73 8 74 9 75
REMARK SMILES IDX 10 77 11 78 12 79 35 80 13 81 34 82 36 83 33 84 14 85 15 86
REMARK SMILES IDX 16 87 17 88 18 89 19 90 31 91 20 92 21 93 29 94 32 95 22 96
REMARK SMILES IDX 30 97 28 98 23 99 25 100 27 101 24 102 26 103
REMARK H PARENT 3 7 93 25 61 36 8 76
REMARK Flexibility Score: inf
ROOT
ATOM      1  C   UNL A   1      37.072  21.139  24.295  1.00  0.00     0.023 C 
ENDROOT
BRANCH   1   2
ATOM      2  C   UNL A   1      37.742  20.030  25.103  1.00  0.00     0.023 C 
BRANCH   2   3
ATOM      3  C   UNL A   1      38.953  20.458  25.922  1.00  0.00     0.116 C 
BRANCH   3   4
ATOM      4  N   UNL A   1      40.017  19.464  25.934  1.00  0.00    -0.352 N 
ATOM      5  O   UNL A   1      42.136  18.687  25.949  1.00  0.00    -0.269 OA
ATOM      6  C   UNL A   1      41.372  19.635  26.101  1.00  0.00     0.251 C 
ATOM      7  H   UNL A   1      39.724  18.534  25.805  1.00  0.00     0.163 HD
BRANCH   6   8
ATOM      8  C   UNL A   1      41.913  20.970  26.432  1.00  0.00     0.039 A 
ATOM      9  C   UNL A   1      42.153  21.333  27.759  1.00  0.00     0.014 A 
ATOM     10  C   UNL A   1      42.182  21.873  25.399  1.00  0.00     0.014 A 
ATOM     11  C   UNL A   1      42.503  22.642  28.063  1.00  0.00     0.010 A 
ATOM     12  C   UNL A   1      42.627  23.163  25.703  1.00  0.00     0.010 A 
ATOM     13  C   UNL A   1      42.758  23.569  27.039  1.00  0.00    -0.014 A 
BRANCH  13  14
ATOM     14  C   UNL A   1      43.220  24.936  27.396  1.00  0.00     0.031 A 
ATOM     15  C   UNL A   1      44.629  25.381  27.123  1.00  0.00     0.074 A 
ATOM     16  C   UNL A   1      42.337  25.788  27.950  1.00  0.00     0.049 A 
ATOM     17  N   UNL A   1      45.187  26.543  27.361  1.00  0.00    -0.248 NA
ATOM     18  C   UNL A   1      45.535  24.398  26.512  1.00  0.00     0.031 C 
ATOM     19  C   UNL A   1      40.945  25.463  28.271  1.00  0.00     0.029 A 
ATOM     20  N   UNL A   1      42.465  27.100  28.326  1.00  0.00    -0.354 N 
ATOM     21  C   UNL A   1      46.507  26.427  26.945  1.00  0.00     0.074 A 
ATOM     22  C   UNL A   1      46.676  25.071  26.464  1.00  0.00     0.031 C 
ATOM     23  C   UNL A   1      40.337  26.556  28.754  1.00  0.00     0.029 A 
ATOM     24  C   UNL A   1      41.310  27.638  28.837  1.00  0.00     0.049 A 
ATOM     25  H   UNL A   1      43.305  27.607  28.237  1.00  0.00     0.167 HD
ATOM     26  C   UNL A   1      47.481  27.368  26.957  1.00  0.00     0.037 A 
ATOM     27  C   UNL A   1      41.065  28.862  29.339  1.00  0.00     0.037 A 
ATOM     28  C   UNL A   1      47.299  28.720  27.425  1.00  0.00     0.049 A 
ATOM     29  C   UNL A   1      42.172  29.874  29.367  1.00  0.00     0.074 A 
ATOM     30  C   UNL A   1      48.215  29.758  27.442  1.00  0.00     0.029 A 
ATOM     31  N   UNL A   1      46.123  29.220  27.966  1.00  0.00    -0.354 N 
ATOM     32  N   UNL A   1      43.404  29.762  28.936  1.00  0.00    -0.248 NA
ATOM     33  C   UNL A   1      41.854  31.184  29.950  1.00  0.00     0.031 C 
ATOM     34  C   UNL A   1      47.610  30.869  28.039  1.00  0.00     0.029 A 
ATOM     35  C   UNL A   1      46.298  30.542  28.343  1.00  0.00     0.049 A 
ATOM     36  H   UNL A   1      45.287  28.710  28.065  1.00  0.00     0.167 HD
ATOM     37  C   UNL A   1      44.006  30.988  29.181  1.00  0.00     0.074 A 
ATOM     38  C   UNL A   1      42.994  31.837  29.777  1.00  0.00     0.031 C 
ATOM     39  C   UNL A   1      45.282  31.375  28.937  1.00  0.00     0.037 A 
BRANCH  26  40
ATOM     40  C   UNL A   1      48.845  26.972  26.467  1.00  0.00     0.064 A 
ATOM     41  C   UNL A   1      49.805  26.412  27.324  1.00  0.00     0.173 A 
ATOM     42  C   UNL A   1      49.178  27.104  25.110  1.00  0.00     0.173 A 
ATOM     43  F   UNL A   1      49.542  26.271  28.632  1.00  0.00    -0.203 F 
ATOM     44  C   UNL A   1      51.053  26.019  26.843  1.00  0.00     0.198 A 
ATOM     45  C   UNL A   1      50.416  26.684  24.628  1.00  0.00     0.198 A 
ATOM     46  F   UNL A   1      48.295  27.625  24.245  1.00  0.00    -0.203 F 
ATOM     47  F   UNL A   1      51.968  25.524  27.689  1.00  0.00    -0.200 F 
ATOM     48  C   UNL A   1      51.354  26.149  25.496  1.00  0.00     0.200 A 
ATOM     49  F   UNL A   1      50.700  26.797  23.323  1.00  0.00    -0.200 F 
ATOM     50  F   UNL A   1      52.552  25.761  25.036  1.00  0.00    -0.200 F 
ENDBRANCH  26  40
BRANCH  27  51
ATOM     51  C   UNL A   1      39.711  29.184  29.862  1.00  0.00     0.064 A 
ATOM     52  C   UNL A   1      38.707  29.671  29.015  1.00  0.00     0.173 A 
ATOM     53  C   UNL A   1      39.392  28.995  31.215  1.00  0.00     0.173 A 
ATOM     54  F   UNL A   1      38.970  29.885  27.718  1.00  0.00    -0.203 F 
ATOM     55  C   UNL A   1      37.438  29.970  29.505  1.00  0.00     0.198 A 
ATOM     56  C   UNL A   1      38.113  29.264  31.697  1.00  0.00     0.198 A 
ATOM     57  F   UNL A   1      40.317  28.524  32.064  1.00  0.00    -0.203 F 
ATOM     58  F   UNL A   1      36.507  30.474  28.684  1.00  0.00    -0.200 F 
ATOM     59  C   UNL A   1      37.140  29.759  30.843  1.00  0.00     0.200 A 
ATOM     60  F   UNL A   1      37.826  29.040  32.986  1.00  0.00    -0.200 F 
ATOM     61  F   UNL A   1      35.916  30.038  31.312  1.00  0.00    -0.200 F 
ENDBRANCH  27  51
BRANCH  39  62
ATOM     62  C   UNL A   1      45.646  32.787  29.290  1.00  0.00     0.064 A 
ATOM     63  C   UNL A   1      46.256  33.107  30.512  1.00  0.00     0.173 A 
ATOM     64  C   UNL A   1      45.403  33.830  28.383  1.00  0.00     0.173 A 
ATOM     65  F   UNL A   1      46.492  32.146  31.419  1.00  0.00    -0.203 F 
ATOM     66  C   UNL A   1      46.582  34.422  30.826  1.00  0.00     0.198 A 
ATOM     67  C   UNL A   1      45.760  35.141  28.688  1.00  0.00     0.198 A 
ATOM     68  F   UNL A   1      44.827  33.577  27.199  1.00  0.00    -0.203 F 
ATOM     69  F   UNL A   1      47.115  34.712  32.021  1.00  0.00    -0.200 F 
ATOM     70  C   UNL A   1      46.341  35.437  29.911  1.00  0.00     0.200 A 
ATOM     71  F   UNL A   1      45.537  36.118  27.799  1.00  0.00    -0.200 F 
ATOM     72  F   UNL A   1      46.660  36.703  30.214  1.00  0.00    -0.200 F 
ENDBRANCH  39  62
ENDBRANCH  13  14
ENDBRANCH   6   8
ENDBRANCH   3   4
ENDBRANCH   2   3
ENDBRANCH   1   2
BRANCH   1  73
ATOM     73  C   UNL A   1      36.481  22.280  25.116  1.00  0.00     0.116 C 
BRANCH  73  74
ATOM     74  N   UNL A   1      35.803  21.826  26.319  1.00  0.00    -0.352 N 
ATOM     75  C   UNL A   1      34.486  21.471  26.476  1.00  0.00     0.252 C 
ATOM     76  H   UNL A   1      36.361  21.765  27.127  1.00  0.00     0.163 HD
ATOM     77  O   UNL A   1      34.055  21.125  27.570  1.00  0.00    -0.269 OA
BRANCH  75  78
ATOM     78  C   UNL A   1      33.561  21.586  25.335  1.00  0.00     0.055 A 
ATOM     79  C   UNL A   1      32.853  22.788  25.223  1.00  0.00     0.038 A 
ATOM     80  C   UNL A   1      33.373  20.566  24.394  1.00  0.00     0.030 A 
ATOM     81  C   UNL A   1      32.001  22.982  24.134  1.00  0.00     0.097 A 
ATOM     82  C   UNL A   1      32.550  20.792  23.284  1.00  0.00     0.018 A 
ATOM     83  Br  UNL A   1      34.144  18.841  24.572  1.00  0.00    -0.050 Br
ATOM     84  C   UNL A   1      31.869  22.004  23.145  1.00  0.00     0.024 A 
BRANCH  81  85
ATOM     85  S   UNL A   1      31.090  24.505  24.043  1.00  0.00     0.318 S 
ATOM     86  O   UNL A   1      30.044  24.294  23.059  1.00  0.00    -0.192 OA
ATOM     87  O   UNL A   1      30.759  24.862  25.406  1.00  0.00    -0.192 OA
BRANCH  85  88
ATOM     88  O   UNL A   1      32.159  25.596  23.452  1.00  0.00    -0.134 OA
BRANCH  88  89
ATOM     89  N   UNL A   1      32.023  26.855  24.075  1.00  0.00    -0.127 N 
ATOM     90  C   UNL A   1      31.124  27.716  23.474  1.00  0.00     0.286 C 
ATOM     91  C   UNL A   1      32.999  27.154  25.003  1.00  0.00     0.286 C 
ATOM     92  O   UNL A   1      30.501  27.472  22.446  1.00  0.00    -0.266 OA
ATOM     93  C   UNL A   1      30.981  29.028  24.150  1.00  0.00     0.051 A 
ATOM     94  C   UNL A   1      32.829  28.461  25.676  1.00  0.00     0.051 A 
ATOM     95  O   UNL A   1      33.964  26.442  25.259  1.00  0.00    -0.266 OA
ATOM     96  C   UNL A   1      30.002  29.929  23.714  1.00  0.00     0.014 A 
ATOM     97  C   UNL A   1      31.826  29.341  25.231  1.00  0.00     0.007 A 
ATOM     98  C   UNL A   1      33.663  28.797  26.749  1.00  0.00     0.014 A 
ATOM     99  C   UNL A   1      29.853  31.151  24.362  1.00  0.00     0.001 A 
ATOM    100  C   UNL A   1      31.669  30.584  25.884  1.00  0.00    -0.017 A 
ATOM    101  C   UNL A   1      33.497  30.018  27.394  1.00  0.00     0.001 A 
ATOM    102  C   UNL A   1      30.677  31.475  25.441  1.00  0.00     0.009 A 
ATOM    103  C   UNL A   1      32.507  30.905  26.965  1.00  0.00     0.009 A 
ENDBRANCH  88  89
ENDBRANCH  85  88
ENDBRANCH  81  85
ENDBRANCH  75  78
ENDBRANCH  73  74
ENDBRANCH   1  73
TORSDOF 14
ENDMDL
