MODEL 1
REMARK VINA RESULT:     -13.9      0.000      0.000
REMARK SMILES Cc1cc(NC(=O)COc2cc(C)c(Cl)c(C)c2)cc(C(=O)NCCCCNC(=O)c2ccc(-c3c4nc(c(-c5c(F)c(F)c(F)c(F)c5F)c5ccc([nH]5)c(-c5c(F)c(F)c(F)c(F)c5F)c5nc(c(-c6c(F)c(F)c(F)c(F)c6F)c6ccc3[nH]6)C=C5)C=C4)cc2)c1O
REMARK SMILES IDX 24 1 23 2 21 3 22 4 20 6 1 7 2 8 3 9 94 10 4 11 19 12 95 13
REMARK SMILES IDX 5 15 6 16 7 18 8 19 9 20 10 21 11 22 18 23 12 24 16 25 13 26
REMARK SMILES IDX 14 27 17 28 15 29 25 30 26 31 27 32 28 33 29 34 30 36 31 37
REMARK SMILES IDX 32 38 93 39 33 40 92 41 34 42 35 43 36 44 86 45 37 46 91 47
REMARK SMILES IDX 85 48 87 49 38 50 90 51 84 52 83 53 39 55 71 56 51 57 70 58
REMARK SMILES IDX 52 59 55 60 69 61 88 62 53 63 54 64 68 66 89 67 56 68 40 69
REMARK SMILES IDX 41 70 49 71 42 72 43 73 47 74 50 75 44 76 45 77 48 78 46 79
REMARK SMILES IDX 72 80 73 81 81 82 74 83 75 84 79 85 82 86 76 87 77 88 80 89
REMARK SMILES IDX 78 90 57 91 58 92 66 93 59 94 60 95 64 96 67 97 61 98 62 99
REMARK SMILES IDX 65 100 63 101
REMARK H PARENT 23 5 95 14 5 17 28 35 87 54 55 65
REMARK Flexibility Score: inf
ROOT
ATOM      1  C   UNL A   1      34.180  22.181  27.731  1.00  0.00     0.116 C 
ENDROOT
BRANCH   1   2
ATOM      2  N   UNL A   1      32.878  22.806  27.628  1.00  0.00    -0.352 N 
ATOM      3  C   UNL A   1      31.947  23.035  26.643  1.00  0.00     0.255 C 
ATOM      4  O   UNL A   1      30.930  23.578  27.081  1.00  0.00    -0.269 OA
ATOM      5  H   UNL A   1      32.582  23.162  28.494  1.00  0.00     0.163 HD
BRANCH   3   6
ATOM      6  C   UNL A   1      32.068  22.672  25.177  1.00  0.00     0.083 A 
ATOM      7  C   UNL A   1      32.293  19.463  23.039  1.00  0.00     0.048 C 
ATOM      8  C   UNL A   1      32.272  20.906  23.463  1.00  0.00    -0.006 A 
ATOM      9  C   UNL A   1      32.458  21.892  22.490  1.00  0.00     0.033 A 
ATOM     10  C   UNL A   1      32.062  21.305  24.796  1.00  0.00     0.131 A 
ATOM     11  C   UNL A   1      32.405  23.250  22.813  1.00  0.00     0.042 A 
ATOM     12  C   UNL A   1      32.231  23.621  24.151  1.00  0.00     0.043 A 
BRANCH  10  13
ATOM     13  O   UNL A   1      31.827  20.341  25.741  1.00  0.00    -0.507 OA
ATOM     14  H   UNL A   1      32.008  20.515  26.643  1.00  0.00     0.293 HD
ENDBRANCH  10  13
BRANCH  11  15
ATOM     15  N   UNL A   1      32.581  24.134  21.734  1.00  0.00    -0.323 N 
ATOM     16  C   UNL A   1      32.945  25.441  21.618  1.00  0.00     0.262 C 
ATOM     17  H   UNL A   1      32.399  23.711  20.862  1.00  0.00     0.170 HD
ATOM     18  O   UNL A   1      33.099  25.885  20.473  1.00  0.00    -0.271 OA
BRANCH  16  19
ATOM     19  C   UNL A   1      33.134  26.363  22.815  1.00  0.00     0.329 C 
BRANCH  19  20
ATOM     20  O   UNL A   1      32.788  27.726  22.627  1.00  0.00    -0.484 OA
BRANCH  20  21
ATOM     21  C   UNL A   1      31.469  28.054  22.738  1.00  0.00     0.120 A 
ATOM     22  C   UNL A   1      30.895  29.213  22.229  1.00  0.00     0.051 A 
ATOM     23  C   UNL A   1      30.662  27.097  23.355  1.00  0.00     0.051 A 
ATOM     24  C   UNL A   1      29.513  29.435  22.348  1.00  0.00    -0.029 A 
ATOM     25  C   UNL A   1      29.284  27.297  23.511  1.00  0.00    -0.029 A 
ATOM     26  C   UNL A   1      28.929  30.690  21.758  1.00  0.00     0.046 C 
ATOM     27  C   UNL A   1      28.713  28.474  23.000  1.00  0.00     0.047 A 
ATOM     28  C   UNL A   1      28.471  26.244  24.213  1.00  0.00     0.046 C 
ATOM     29  Cl  UNL A   1      27.006  28.741  23.162  1.00  0.00    -0.084 Cl
ENDBRANCH  20  21
ENDBRANCH  19  20
ENDBRANCH  16  19
ENDBRANCH  11  15
ENDBRANCH   3   6
ENDBRANCH   1   2
BRANCH   1  30
ATOM     30  C   UNL A   1      35.162  22.732  26.702  1.00  0.00     0.023 C 
BRANCH  30  31
ATOM     31  C   UNL A   1      35.778  21.688  25.766  1.00  0.00     0.023 C 
BRANCH  31  32
ATOM     32  C   UNL A   1      37.158  22.051  25.223  1.00  0.00     0.116 C 
BRANCH  32  33
ATOM     33  N   UNL A   1      38.181  21.035  25.436  1.00  0.00    -0.352 N 
ATOM     34  C   UNL A   1      39.377  21.170  26.110  1.00  0.00     0.251 C 
ATOM     35  H   UNL A   1      37.997  20.147  25.054  1.00  0.00     0.163 HD
ATOM     36  O   UNL A   1      40.174  20.246  26.177  1.00  0.00    -0.269 OA
BRANCH  34  37
ATOM     37  C   UNL A   1      39.705  22.488  26.693  1.00  0.00     0.039 A 
ATOM     38  C   UNL A   1      40.734  22.569  27.632  1.00  0.00     0.014 A 
ATOM     39  C   UNL A   1      39.083  23.643  26.216  1.00  0.00     0.014 A 
ATOM     40  C   UNL A   1      41.217  23.821  28.013  1.00  0.00     0.010 A 
ATOM     41  C   UNL A   1      39.618  24.885  26.534  1.00  0.00     0.010 A 
ATOM     42  C   UNL A   1      40.702  24.986  27.419  1.00  0.00    -0.014 A 
BRANCH  42  43
ATOM     43  C   UNL A   1      41.304  26.319  27.673  1.00  0.00     0.031 A 
ATOM     44  C   UNL A   1      42.701  26.612  27.208  1.00  0.00     0.074 A 
ATOM     45  C   UNL A   1      40.634  27.221  28.418  1.00  0.00     0.049 A 
ATOM     46  N   UNL A   1      43.449  27.659  27.444  1.00  0.00    -0.248 NA
ATOM     47  C   UNL A   1      43.358  25.571  26.403  1.00  0.00     0.031 C 
ATOM     48  C   UNL A   1      39.299  27.028  28.988  1.00  0.00     0.029 A 
ATOM     49  N   UNL A   1      40.995  28.477  28.839  1.00  0.00    -0.354 N 
ATOM     50  C   UNL A   1      44.672  27.388  26.848  1.00  0.00     0.074 A 
ATOM     51  C   UNL A   1      44.582  26.061  26.278  1.00  0.00     0.031 C 
ATOM     52  C   UNL A   1      38.944  28.133  29.663  1.00  0.00     0.029 A 
ATOM     53  C   UNL A   1      40.038  29.098  29.602  1.00  0.00     0.049 A 
ATOM     54  H   UNL A   1      41.858  28.893  28.614  1.00  0.00     0.167 HD
ATOM     55  C   UNL A   1      45.767  28.182  26.767  1.00  0.00     0.037 A 
ATOM     56  C   UNL A   1      40.043  30.310  30.190  1.00  0.00     0.037 A 
ATOM     57  C   UNL A   1      45.835  29.520  27.289  1.00  0.00     0.049 A 
ATOM     58  C   UNL A   1      41.248  31.195  30.035  1.00  0.00     0.074 A 
ATOM     59  C   UNL A   1      46.870  30.434  27.191  1.00  0.00     0.029 A 
ATOM     60  N   UNL A   1      44.818  30.140  28.000  1.00  0.00    -0.354 N 
ATOM     61  N   UNL A   1      42.377  30.953  29.415  1.00  0.00    -0.248 NA
ATOM     62  C   UNL A   1      41.179  32.526  30.658  1.00  0.00     0.031 C 
ATOM     63  C   UNL A   1      46.488  31.600  27.863  1.00  0.00     0.029 A 
ATOM     64  C   UNL A   1      45.203  31.424  28.351  1.00  0.00     0.049 A 
ATOM     65  H   UNL A   1      43.951  29.729  28.223  1.00  0.00     0.167 HD
ATOM     66  C   UNL A   1      43.139  32.105  29.545  1.00  0.00     0.074 A 
ATOM     67  C   UNL A   1      42.342  33.052  30.300  1.00  0.00     0.031 C 
ATOM     68  C   UNL A   1      44.387  32.356  29.082  1.00  0.00     0.037 A 
BRANCH  55  69
ATOM     69  C   UNL A   1      46.973  27.623  26.074  1.00  0.00     0.064 A 
ATOM     70  C   UNL A   1      47.991  26.971  26.785  1.00  0.00     0.173 A 
ATOM     71  C   UNL A   1      47.103  27.724  24.680  1.00  0.00     0.173 A 
ATOM     72  F   UNL A   1      47.918  26.863  28.120  1.00  0.00    -0.203 F 
ATOM     73  C   UNL A   1      49.112  26.469  26.131  1.00  0.00     0.198 A 
ATOM     74  C   UNL A   1      48.214  27.195  24.027  1.00  0.00     0.198 A 
ATOM     75  F   UNL A   1      46.155  28.335  23.953  1.00  0.00    -0.203 F 
ATOM     76  F   UNL A   1      50.098  25.897  26.837  1.00  0.00    -0.200 F 
ATOM     77  C   UNL A   1      49.220  26.577  24.752  1.00  0.00     0.200 A 
ATOM     78  F   UNL A   1      48.313  27.291  22.694  1.00  0.00    -0.200 F 
ATOM     79  F   UNL A   1      50.299  26.091  24.125  1.00  0.00    -0.200 F 
ENDBRANCH  55  69
BRANCH  56  80
ATOM     80  C   UNL A   1      38.849  30.774  30.941  1.00  0.00     0.064 A 
ATOM     81  C   UNL A   1      38.770  30.602  32.330  1.00  0.00     0.173 A 
ATOM     82  C   UNL A   1      37.773  31.398  30.297  1.00  0.00     0.173 A 
ATOM     83  F   UNL A   1      39.768  29.993  32.987  1.00  0.00    -0.203 F 
ATOM     84  C   UNL A   1      37.650  31.020  33.045  1.00  0.00     0.198 A 
ATOM     85  C   UNL A   1      36.662  31.837  31.015  1.00  0.00     0.198 A 
ATOM     86  F   UNL A   1      37.805  31.591  28.970  1.00  0.00    -0.203 F 
ATOM     87  F   UNL A   1      37.583  30.810  34.366  1.00  0.00    -0.200 F 
ATOM     88  C   UNL A   1      36.599  31.642  32.387  1.00  0.00     0.200 A 
ATOM     89  F   UNL A   1      35.653  32.447  30.379  1.00  0.00    -0.200 F 
ATOM     90  F   UNL A   1      35.523  32.048  33.074  1.00  0.00    -0.200 F 
ENDBRANCH  56  80
BRANCH  68  91
ATOM     91  C   UNL A   1      44.953  33.720  29.338  1.00  0.00     0.064 A 
ATOM     92  C   UNL A   1      45.739  33.988  30.467  1.00  0.00     0.173 A 
ATOM     93  C   UNL A   1      44.750  34.754  28.412  1.00  0.00     0.173 A 
ATOM     94  F   UNL A   1      45.947  33.033  31.386  1.00  0.00    -0.203 F 
ATOM     95  C   UNL A   1      46.291  35.250  30.667  1.00  0.00     0.198 A 
ATOM     96  C   UNL A   1      45.322  36.008  28.605  1.00  0.00     0.198 A 
ATOM     97  F   UNL A   1      44.008  34.543  27.314  1.00  0.00    -0.203 F 
ATOM     98  F   UNL A   1      47.013  35.496  31.770  1.00  0.00    -0.200 F 
ATOM     99  C   UNL A   1      46.089  36.256  29.733  1.00  0.00     0.200 A 
ATOM    100  F   UNL A   1      45.134  36.975  27.697  1.00  0.00    -0.200 F 
ATOM    101  F   UNL A   1      46.629  37.467  29.925  1.00  0.00    -0.200 F 
ENDBRANCH  68  91
ENDBRANCH  42  43
ENDBRANCH  34  37
ENDBRANCH  32  33
ENDBRANCH  31  32
ENDBRANCH  30  31
ENDBRANCH   1  30
TORSDOF 16
ENDMDL
MODEL 2
REMARK VINA RESULT:     -13.9      4.638     10.231
REMARK SMILES Cc1cc(NC(=O)COc2cc(C)c(Cl)c(C)c2)cc(C(=O)NCCCCNC(=O)c2ccc(-c3c4nc(c(-c5c(F)c(F)c(F)c(F)c5F)c5ccc([nH]5)c(-c5c(F)c(F)c(F)c(F)c5F)c5nc(c(-c6c(F)c(F)c(F)c(F)c6F)c6ccc3[nH]6)C=C5)C=C4)cc2)c1O
REMARK SMILES IDX 24 1 23 2 21 3 22 4 20 6 1 7 2 8 3 9 94 10 4 11 19 12 95 13
REMARK SMILES IDX 5 15 6 16 7 18 8 19 9 20 10 21 11 22 18 23 12 24 16 25 13 26
REMARK SMILES IDX 14 27 17 28 15 29 25 30 26 31 27 32 28 33 29 34 30 36 31 37
REMARK SMILES IDX 32 38 93 39 33 40 92 41 34 42 35 43 36 44 86 45 37 46 91 47
REMARK SMILES IDX 85 48 87 49 38 50 90 51 84 52 83 53 39 55 71 56 51 57 70 58
REMARK SMILES IDX 52 59 55 60 69 61 88 62 53 63 54 64 68 66 89 67 56 68 40 69
REMARK SMILES IDX 41 70 49 71 42 72 43 73 47 74 50 75 44 76 45 77 48 78 46 79
REMARK SMILES IDX 72 80 73 81 81 82 74 83 75 84 79 85 82 86 76 87 77 88 80 89
REMARK SMILES IDX 78 90 57 91 58 92 66 93 59 94 60 95 64 96 67 97 61 98 62 99
REMARK SMILES IDX 65 100 63 101
REMARK H PARENT 23 5 95 14 5 17 28 35 87 54 55 65
REMARK Flexibility Score: inf
ROOT
ATOM      1  C   UNL A   1      33.258  30.187  26.535  1.00  0.00     0.116 C 
ENDROOT
BRANCH   1   2
ATOM      2  N   UNL A   1      33.562  29.703  25.205  1.00  0.00    -0.352 N 
ATOM      3  C   UNL A   1      33.157  28.671  24.393  1.00  0.00     0.255 C 
ATOM      4  O   UNL A   1      33.688  28.717  23.280  1.00  0.00    -0.269 OA
ATOM      5  H   UNL A   1      34.240  30.263  24.765  1.00  0.00     0.163 HD
BRANCH   3   6
ATOM      6  C   UNL A   1      32.164  27.579  24.739  1.00  0.00     0.083 A 
ATOM      7  C   UNL A   1      28.511  26.667  23.876  1.00  0.00     0.048 C 
ATOM      8  C   UNL A   1      29.885  26.661  24.488  1.00  0.00    -0.006 A 
ATOM      9  C   UNL A   1      30.187  25.689  25.445  1.00  0.00     0.033 A 
ATOM     10  C   UNL A   1      30.882  27.589  24.131  1.00  0.00     0.131 A 
ATOM     11  C   UNL A   1      31.458  25.604  26.018  1.00  0.00     0.042 A 
ATOM     12  C   UNL A   1      32.421  26.560  25.673  1.00  0.00     0.043 A 
BRANCH  10  13
ATOM     13  O   UNL A   1      30.602  28.509  23.155  1.00  0.00    -0.507 OA
ATOM     14  H   UNL A   1      31.203  29.208  22.984  1.00  0.00     0.293 HD
ENDBRANCH  10  13
BRANCH  11  15
ATOM     15  N   UNL A   1      31.634  24.562  26.945  1.00  0.00    -0.323 N 
ATOM     16  C   UNL A   1      32.047  23.267  26.861  1.00  0.00     0.262 C 
ATOM     17  H   UNL A   1      31.406  24.829  27.866  1.00  0.00     0.170 HD
ATOM     18  O   UNL A   1      32.181  22.647  27.924  1.00  0.00    -0.271 OA
BRANCH  16  19
ATOM     19  C   UNL A   1      32.313  22.560  25.539  1.00  0.00     0.329 C 
BRANCH  19  20
ATOM     20  O   UNL A   1      33.291  23.144  24.693  1.00  0.00    -0.484 OA
BRANCH  20  21
ATOM     21  C   UNL A   1      34.596  22.845  24.953  1.00  0.00     0.120 A 
ATOM     22  C   UNL A   1      35.527  23.740  25.465  1.00  0.00     0.051 A 
ATOM     23  C   UNL A   1      34.962  21.516  24.738  1.00  0.00     0.051 A 
ATOM     24  C   UNL A   1      36.837  23.320  25.750  1.00  0.00    -0.029 A 
ATOM     25  C   UNL A   1      36.266  21.069  24.989  1.00  0.00    -0.029 A 
ATOM     26  C   UNL A   1      37.806  24.315  26.331  1.00  0.00     0.046 C 
ATOM     27  C   UNL A   1      37.203  21.982  25.501  1.00  0.00     0.047 A 
ATOM     28  C   UNL A   1      36.610  19.632  24.707  1.00  0.00     0.046 C 
ATOM     29  Cl  UNL A   1      38.820  21.453  25.838  1.00  0.00    -0.084 Cl
ENDBRANCH  20  21
ENDBRANCH  19  20
ENDBRANCH  16  19
ENDBRANCH  11  15
ENDBRANCH   3   6
ENDBRANCH   1   2
BRANCH   1  30
ATOM     30  C   UNL A   1      31.773  30.487  26.709  1.00  0.00     0.023 C 
BRANCH  30  31
ATOM     31  C   UNL A   1      31.424  31.969  26.876  1.00  0.00     0.023 C 
BRANCH  31  32
ATOM     32  C   UNL A   1      32.610  32.922  26.766  1.00  0.00     0.116 C 
BRANCH  32  33
ATOM     33  N   UNL A   1      32.528  34.096  27.626  1.00  0.00    -0.352 N 
ATOM     34  C   UNL A   1      33.395  34.468  28.632  1.00  0.00     0.251 C 
ATOM     35  H   UNL A   1      31.762  34.695  27.470  1.00  0.00     0.163 HD
ATOM     36  O   UNL A   1      33.185  35.460  29.315  1.00  0.00    -0.269 OA
BRANCH  34  37
ATOM     37  C   UNL A   1      34.554  33.595  28.912  1.00  0.00     0.039 A 
ATOM     38  C   UNL A   1      35.835  34.148  28.873  1.00  0.00     0.014 A 
ATOM     39  C   UNL A   1      34.359  32.279  29.333  1.00  0.00     0.014 A 
ATOM     40  C   UNL A   1      36.914  33.412  29.364  1.00  0.00     0.010 A 
ATOM     41  C   UNL A   1      35.419  31.579  29.895  1.00  0.00     0.010 A 
ATOM     42  C   UNL A   1      36.702  32.145  29.935  1.00  0.00    -0.014 A 
BRANCH  42  43
ATOM     43  C   UNL A   1      37.795  31.407  30.616  1.00  0.00     0.031 A 
ATOM     44  C   UNL A   1      38.131  31.717  32.046  1.00  0.00     0.074 A 
ATOM     45  C   UNL A   1      38.553  30.541  29.915  1.00  0.00     0.049 A 
ATOM     46  N   UNL A   1      39.126  31.283  32.776  1.00  0.00    -0.248 NA
ATOM     47  C   UNL A   1      37.253  32.675  32.736  1.00  0.00     0.031 C 
ATOM     48  C   UNL A   1      38.372  30.208  28.500  1.00  0.00     0.029 A 
ATOM     49  N   UNL A   1      39.642  29.796  30.294  1.00  0.00    -0.354 N 
ATOM     50  C   UNL A   1      39.014  31.939  33.993  1.00  0.00     0.074 A 
ATOM     51  C   UNL A   1      37.881  32.833  33.891  1.00  0.00     0.031 C 
ATOM     52  C   UNL A   1      39.301  29.308  28.138  1.00  0.00     0.029 A 
ATOM     53  C   UNL A   1      40.162  29.027  29.282  1.00  0.00     0.049 A 
ATOM     54  H   UNL A   1      40.014  29.811  31.205  1.00  0.00     0.167 HD
ATOM     55  C   UNL A   1      39.775  31.794  35.104  1.00  0.00     0.037 A 
ATOM     56  C   UNL A   1      41.218  28.191  29.278  1.00  0.00     0.037 A 
ATOM     57  C   UNL A   1      40.867  30.866  35.220  1.00  0.00     0.049 A 
ATOM     58  C   UNL A   1      42.011  28.004  30.541  1.00  0.00     0.074 A 
ATOM     59  C   UNL A   1      41.652  30.589  36.326  1.00  0.00     0.029 A 
ATOM     60  N   UNL A   1      41.322  30.054  34.192  1.00  0.00    -0.354 N 
ATOM     61  N   UNL A   1      41.857  28.583  31.707  1.00  0.00    -0.248 NA
ATOM     62  C   UNL A   1      43.123  27.043  30.491  1.00  0.00     0.031 C 
ATOM     63  C   UNL A   1      42.597  29.625  35.961  1.00  0.00     0.029 A 
ATOM     64  C   UNL A   1      42.381  29.278  34.637  1.00  0.00     0.049 A 
ATOM     65  H   UNL A   1      40.950  30.033  33.281  1.00  0.00     0.167 HD
ATOM     66  C   UNL A   1      42.827  28.039  32.535  1.00  0.00     0.074 A 
ATOM     67  C   UNL A   1      43.565  27.077  31.740  1.00  0.00     0.031 C 
ATOM     68  C   UNL A   1      43.086  28.312  33.837  1.00  0.00     0.037 A 
BRANCH  55  69
ATOM     69  C   UNL A   1      39.438  32.652  36.286  1.00  0.00     0.064 A 
ATOM     70  C   UNL A   1      38.471  32.261  37.224  1.00  0.00     0.173 A 
ATOM     71  C   UNL A   1      40.103  33.870  36.495  1.00  0.00     0.173 A 
ATOM     72  F   UNL A   1      37.798  31.112  37.060  1.00  0.00    -0.203 F 
ATOM     73  C   UNL A   1      38.158  33.074  38.310  1.00  0.00     0.198 A 
ATOM     74  C   UNL A   1      39.807  34.666  37.597  1.00  0.00     0.198 A 
ATOM     75  F   UNL A   1      41.040  34.287  35.629  1.00  0.00    -0.203 F 
ATOM     76  F   UNL A   1      37.193  32.705  39.164  1.00  0.00    -0.200 F 
ATOM     77  C   UNL A   1      38.830  34.273  38.499  1.00  0.00     0.200 A 
ATOM     78  F   UNL A   1      40.463  35.820  37.784  1.00  0.00    -0.200 F 
ATOM     79  F   UNL A   1      38.528  35.052  39.546  1.00  0.00    -0.200 F 
ENDBRANCH  55  69
BRANCH  56  80
ATOM     80  C   UNL A   1      41.558  27.433  28.047  1.00  0.00     0.064 A 
ATOM     81  C   UNL A   1      41.060  26.137  27.849  1.00  0.00     0.173 A 
ATOM     82  C   UNL A   1      42.374  27.980  27.049  1.00  0.00     0.173 A 
ATOM     83  F   UNL A   1      40.291  25.565  28.786  1.00  0.00    -0.203 F 
ATOM     84  C   UNL A   1      41.383  25.410  26.706  1.00  0.00     0.198 A 
ATOM     85  C   UNL A   1      42.679  27.260  25.895  1.00  0.00     0.198 A 
ATOM     86  F   UNL A   1      42.869  29.219  27.190  1.00  0.00    -0.203 F 
ATOM     87  F   UNL A   1      40.926  24.159  26.558  1.00  0.00    -0.200 F 
ATOM     88  C   UNL A   1      42.188  25.974  25.727  1.00  0.00     0.200 A 
ATOM     89  F   UNL A   1      43.447  27.812  24.947  1.00  0.00    -0.200 F 
ATOM     90  F   UNL A   1      42.496  25.276  24.626  1.00  0.00    -0.200 F 
ENDBRANCH  56  80
BRANCH  68  91
ATOM     91  C   UNL A   1      44.181  27.531  34.498  1.00  0.00     0.064 A 
ATOM     92  C   UNL A   1      45.492  28.020  34.564  1.00  0.00     0.173 A 
ATOM     93  C   UNL A   1      43.899  26.307  35.120  1.00  0.00     0.173 A 
ATOM     94  F   UNL A   1      45.811  29.180  33.970  1.00  0.00    -0.203 F 
ATOM     95  C   UNL A   1      46.489  27.301  35.219  1.00  0.00     0.198 A 
ATOM     96  C   UNL A   1      44.892  25.601  35.793  1.00  0.00     0.198 A 
ATOM     97  F   UNL A   1      42.656  25.801  35.087  1.00  0.00    -0.203 F 
ATOM     98  F   UNL A   1      47.745  27.770  35.242  1.00  0.00    -0.200 F 
ATOM     99  C   UNL A   1      46.187  26.098  35.839  1.00  0.00     0.200 A 
ATOM    100  F   UNL A   1      44.597  24.444  36.399  1.00  0.00    -0.200 F 
ATOM    101  F   UNL A   1      47.145  25.412  36.475  1.00  0.00    -0.200 F 
ENDBRANCH  68  91
ENDBRANCH  42  43
ENDBRANCH  34  37
ENDBRANCH  32  33
ENDBRANCH  31  32
ENDBRANCH  30  31
ENDBRANCH   1  30
TORSDOF 16
ENDMDL
MODEL 3
REMARK VINA RESULT:     -13.7      4.657     10.365
REMARK SMILES Cc1cc(NC(=O)COc2cc(C)c(Cl)c(C)c2)cc(C(=O)NCCCCNC(=O)c2ccc(-c3c4nc(c(-c5c(F)c(F)c(F)c(F)c5F)c5ccc([nH]5)c(-c5c(F)c(F)c(F)c(F)c5F)c5nc(c(-c6c(F)c(F)c(F)c(F)c6F)c6ccc3[nH]6)C=C5)C=C4)cc2)c1O
REMARK SMILES IDX 24 1 23 2 21 3 22 4 20 6 1 7 2 8 3 9 94 10 4 11 19 12 95 13
REMARK SMILES IDX 5 15 6 16 7 18 8 19 9 20 10 21 11 22 18 23 12 24 16 25 13 26
REMARK SMILES IDX 14 27 17 28 15 29 25 30 26 31 27 32 28 33 29 34 30 36 31 37
REMARK SMILES IDX 32 38 93 39 33 40 92 41 34 42 35 43 36 44 86 45 37 46 91 47
REMARK SMILES IDX 85 48 87 49 38 50 90 51 84 52 83 53 39 55 71 56 51 57 70 58
REMARK SMILES IDX 52 59 55 60 69 61 88 62 53 63 54 64 68 66 89 67 56 68 40 69
REMARK SMILES IDX 41 70 49 71 42 72 43 73 47 74 50 75 44 76 45 77 48 78 46 79
REMARK SMILES IDX 72 80 73 81 81 82 74 83 75 84 79 85 82 86 76 87 77 88 80 89
REMARK SMILES IDX 78 90 57 91 58 92 66 93 59 94 60 95 64 96 67 97 61 98 62 99
REMARK SMILES IDX 65 100 63 101
REMARK H PARENT 23 5 95 14 5 17 28 35 87 54 55 65
REMARK Flexibility Score: inf
ROOT
ATOM      1  C   UNL A   1      33.053  30.249  26.895  1.00  0.00     0.116 C 
ENDROOT
BRANCH   1   2
ATOM      2  N   UNL A   1      33.682  29.611  25.758  1.00  0.00    -0.352 N 
ATOM      3  C   UNL A   1      33.337  28.678  24.810  1.00  0.00     0.255 C 
ATOM      4  O   UNL A   1      34.235  28.500  23.982  1.00  0.00    -0.269 OA
ATOM      5  H   UNL A   1      34.603  29.931  25.631  1.00  0.00     0.163 HD
BRANCH   3   6
ATOM      6  C   UNL A   1      32.023  27.929  24.708  1.00  0.00     0.083 A 
ATOM      7  C   UNL A   1      28.706  28.239  22.752  1.00  0.00     0.048 C 
ATOM      8  C   UNL A   1      29.769  27.775  23.711  1.00  0.00    -0.006 A 
ATOM      9  C   UNL A   1      29.481  26.706  24.563  1.00  0.00     0.033 A 
ATOM     10  C   UNL A   1      31.044  28.368  23.780  1.00  0.00     0.131 A 
ATOM     11  C   UNL A   1      30.440  26.201  25.444  1.00  0.00     0.042 A 
ATOM     12  C   UNL A   1      31.688  26.831  25.519  1.00  0.00     0.043 A 
BRANCH  10  13
ATOM     13  O   UNL A   1      31.343  29.383  22.908  1.00  0.00    -0.507 OA
ATOM     14  H   UNL A   1      31.766  30.158  23.220  1.00  0.00     0.293 HD
ENDBRANCH  10  13
BRANCH  11  15
ATOM     15  N   UNL A   1      30.027  25.106  26.223  1.00  0.00    -0.323 N 
ATOM     16  C   UNL A   1      30.507  23.850  26.437  1.00  0.00     0.262 C 
ATOM     17  H   UNL A   1      29.202  25.289  26.729  1.00  0.00     0.170 HD
ATOM     18  O   UNL A   1      29.928  23.161  27.288  1.00  0.00    -0.271 OA
BRANCH  16  19
ATOM     19  C   UNL A   1      31.680  23.262  25.664  1.00  0.00     0.329 C 
BRANCH  19  20
ATOM     20  O   UNL A   1      31.648  21.863  25.429  1.00  0.00    -0.484 OA
BRANCH  20  21
ATOM     21  C   UNL A   1      32.847  21.227  25.297  1.00  0.00     0.120 A 
ATOM     22  C   UNL A   1      33.003  19.909  24.884  1.00  0.00     0.051 A 
ATOM     23  C   UNL A   1      33.974  22.014  25.537  1.00  0.00     0.051 A 
ATOM     24  C   UNL A   1      34.287  19.360  24.727  1.00  0.00    -0.029 A 
ATOM     25  C   UNL A   1      35.268  21.492  25.412  1.00  0.00    -0.029 A 
ATOM     26  C   UNL A   1      34.411  17.938  24.251  1.00  0.00     0.046 C 
ATOM     27  C   UNL A   1      35.417  20.156  25.001  1.00  0.00     0.047 A 
ATOM     28  C   UNL A   1      36.444  22.379  25.715  1.00  0.00     0.046 C 
ATOM     29  Cl  UNL A   1      37.008  19.487  24.819  1.00  0.00    -0.084 Cl
ENDBRANCH  20  21
ENDBRANCH  19  20
ENDBRANCH  16  19
ENDBRANCH  11  15
ENDBRANCH   3   6
ENDBRANCH   1   2
BRANCH   1  30
ATOM     30  C   UNL A   1      31.693  30.840  26.539  1.00  0.00     0.023 C 
BRANCH  30  31
ATOM     31  C   UNL A   1      31.430  32.245  27.088  1.00  0.00     0.023 C 
BRANCH  31  32
ATOM     32  C   UNL A   1      32.569  33.238  26.876  1.00  0.00     0.116 C 
BRANCH  32  33
ATOM     33  N   UNL A   1      32.535  34.399  27.757  1.00  0.00    -0.352 N 
ATOM     34  C   UNL A   1      33.406  34.708  28.779  1.00  0.00     0.251 C 
ATOM     35  H   UNL A   1      31.802  35.039  27.603  1.00  0.00     0.163 HD
ATOM     36  O   UNL A   1      33.238  35.697  29.479  1.00  0.00    -0.269 OA
BRANCH  34  37
ATOM     37  C   UNL A   1      34.516  33.773  29.057  1.00  0.00     0.039 A 
ATOM     38  C   UNL A   1      35.828  34.208  28.853  1.00  0.00     0.014 A 
ATOM     39  C   UNL A   1      34.261  32.527  29.633  1.00  0.00     0.014 A 
ATOM     40  C   UNL A   1      36.888  33.437  29.331  1.00  0.00     0.010 A 
ATOM     41  C   UNL A   1      35.311  31.801  30.178  1.00  0.00     0.010 A 
ATOM     42  C   UNL A   1      36.633  32.257  30.051  1.00  0.00    -0.014 A 
BRANCH  42  43
ATOM     43  C   UNL A   1      37.723  31.502  30.717  1.00  0.00     0.031 A 
ATOM     44  C   UNL A   1      38.087  31.809  32.141  1.00  0.00     0.074 A 
ATOM     45  C   UNL A   1      38.456  30.622  30.005  1.00  0.00     0.049 A 
ATOM     46  N   UNL A   1      39.086  31.358  32.855  1.00  0.00    -0.248 NA
ATOM     47  C   UNL A   1      37.236  32.782  32.842  1.00  0.00     0.031 C 
ATOM     48  C   UNL A   1      38.247  30.290  28.594  1.00  0.00     0.029 A 
ATOM     49  N   UNL A   1      39.537  29.859  30.368  1.00  0.00    -0.354 N 
ATOM     50  C   UNL A   1      39.004  32.018  34.073  1.00  0.00     0.074 A 
ATOM     51  C   UNL A   1      37.885  32.932  33.986  1.00  0.00     0.031 C 
ATOM     52  C   UNL A   1      39.155  29.374  28.219  1.00  0.00     0.029 A 
ATOM     53  C   UNL A   1      40.029  29.080  29.350  1.00  0.00     0.049 A 
ATOM     54  H   UNL A   1      39.924  29.870  31.273  1.00  0.00     0.167 HD
ATOM     55  C   UNL A   1      39.780  31.863  35.172  1.00  0.00     0.037 A 
ATOM     56  C   UNL A   1      41.070  28.227  29.331  1.00  0.00     0.037 A 
ATOM     57  C   UNL A   1      40.858  30.917  35.273  1.00  0.00     0.049 A 
ATOM     58  C   UNL A   1      41.880  28.029  30.582  1.00  0.00     0.074 A 
ATOM     59  C   UNL A   1      41.655  30.628  36.367  1.00  0.00     0.029 A 
ATOM     60  N   UNL A   1      41.283  30.095  34.239  1.00  0.00    -0.354 N 
ATOM     61  N   UNL A   1      41.754  28.612  31.749  1.00  0.00    -0.248 NA
ATOM     62  C   UNL A   1      42.974  27.049  30.516  1.00  0.00     0.031 C 
ATOM     63  C   UNL A   1      42.579  29.647  35.988  1.00  0.00     0.029 A 
ATOM     64  C   UNL A   1      42.335  29.303  34.669  1.00  0.00     0.049 A 
ATOM     65  H   UNL A   1      40.896  30.079  33.334  1.00  0.00     0.167 HD
ATOM     66  C   UNL A   1      42.728  28.052  32.562  1.00  0.00     0.074 A 
ATOM     67  C   UNL A   1      43.436  27.077  31.758  1.00  0.00     0.031 C 
ATOM     68  C   UNL A   1      43.011  28.323  33.859  1.00  0.00     0.037 A 
BRANCH  55  69
ATOM     69  C   UNL A   1      39.476  32.728  36.358  1.00  0.00     0.064 A 
ATOM     70  C   UNL A   1      40.114  33.964  36.546  1.00  0.00     0.173 A 
ATOM     71  C   UNL A   1      38.524  32.327  37.307  1.00  0.00     0.173 A 
ATOM     72  F   UNL A   1      41.042  34.383  35.673  1.00  0.00    -0.203 F 
ATOM     73  C   UNL A   1      39.832  34.752  37.658  1.00  0.00     0.198 A 
ATOM     74  C   UNL A   1      38.226  33.131  38.404  1.00  0.00     0.198 A 
ATOM     75  F   UNL A   1      37.883  31.156  37.171  1.00  0.00    -0.203 F 
ATOM     76  F   UNL A   1      40.492  35.904  37.845  1.00  0.00    -0.200 F 
ATOM     77  C   UNL A   1      38.885  34.338  38.583  1.00  0.00     0.200 A 
ATOM     78  F   UNL A   1      37.304  32.735  39.292  1.00  0.00    -0.200 F 
ATOM     79  F   UNL A   1      38.615  35.098  39.652  1.00  0.00    -0.200 F 
ENDBRANCH  55  69
BRANCH  56  80
ATOM     80  C   UNL A   1      41.378  27.461  28.096  1.00  0.00     0.064 A 
ATOM     81  C   UNL A   1      42.243  27.989  27.127  1.00  0.00     0.173 A 
ATOM     82  C   UNL A   1      40.824  26.196  27.860  1.00  0.00     0.173 A 
ATOM     83  F   UNL A   1      42.781  29.204  27.302  1.00  0.00    -0.203 F 
ATOM     84  C   UNL A   1      42.529  27.287  25.959  1.00  0.00     0.198 A 
ATOM     85  C   UNL A   1      41.128  25.484  26.700  1.00  0.00     0.198 A 
ATOM     86  F   UNL A   1      39.996  25.646  28.760  1.00  0.00    -0.203 F 
ATOM     87  F   UNL A   1      43.329  27.830  25.032  1.00  0.00    -0.200 F 
ATOM     88  C   UNL A   1      41.975  26.033  25.748  1.00  0.00     0.200 A 
ATOM     89  F   UNL A   1      40.601  24.268  26.505  1.00  0.00    -0.200 F 
ATOM     90  F   UNL A   1      42.252  25.356  24.626  1.00  0.00    -0.200 F 
ENDBRANCH  56  80
BRANCH  68  91
ATOM     91  C   UNL A   1      44.103  27.525  34.505  1.00  0.00     0.064 A 
ATOM     92  C   UNL A   1      43.852  26.275  35.085  1.00  0.00     0.173 A 
ATOM     93  C   UNL A   1      45.424  27.995  34.492  1.00  0.00     0.173 A 
ATOM     94  F   UNL A   1      42.601  25.792  35.134  1.00  0.00    -0.203 F 
ATOM     95  C   UNL A   1      44.885  25.528  35.644  1.00  0.00     0.198 A 
ATOM     96  C   UNL A   1      46.458  27.236  35.031  1.00  0.00     0.198 A 
ATOM     97  F   UNL A   1      45.714  29.185  33.943  1.00  0.00    -0.203 F 
ATOM     98  F   UNL A   1      44.619  24.349  36.224  1.00  0.00    -0.200 F 
ATOM     99  C   UNL A   1      46.187  26.005  35.610  1.00  0.00     0.200 A 
ATOM    100  F   UNL A   1      47.716  27.694  34.989  1.00  0.00    -0.200 F 
ATOM    101  F   UNL A   1      47.181  25.280  36.140  1.00  0.00    -0.200 F 
ENDBRANCH  68  91
ENDBRANCH  42  43
ENDBRANCH  34  37
ENDBRANCH  32  33
ENDBRANCH  31  32
ENDBRANCH  30  31
ENDBRANCH   1  30
TORSDOF 16
ENDMDL
