MODEL 1
REMARK VINA RESULT:     -13.2      0.000      0.000
REMARK SMILES O=C(NCCCCNC(=O)[C@H]1C=C[C@H](NS(=O)(=O)c2ccc3c(c2)CCO3)C1)c1ccc(-c2c3nc(c(-c4c(F)c(F)c(F)c(F)c4F)c4ccc([nH]4)c(-c4c(F)c(F)c(F)c(F)c4F)c4nc(c(-c5c(F)c(F)c(F)c(F)c5F)c5ccc2[nH]5)C=C4)C=C3)cc1
REMARK SMILES IDX 6 1 5 2 4 3 3 4 1 5 2 6 29 8 30 9 91 10 31 11 90 12 32 13
REMARK SMILES IDX 33 14 34 15 84 16 35 17 89 18 83 19 85 20 36 21 88 22 82 23
REMARK SMILES IDX 81 24 37 26 69 27 49 28 68 29 50 30 53 31 67 32 86 33 51 34
REMARK SMILES IDX 52 35 66 37 87 38 54 39 38 40 39 41 47 42 40 43 41 44 45 45
REMARK SMILES IDX 48 46 42 47 43 48 46 49 44 50 70 51 71 52 79 53 72 54 73 55
REMARK SMILES IDX 77 56 80 57 74 58 75 59 78 60 76 61 55 62 56 63 64 64 57 65
REMARK SMILES IDX 58 66 62 67 65 68 59 69 60 70 63 71 61 72 7 73 8 74 9 75
REMARK SMILES IDX 10 77 11 78 12 79 28 80 13 81 14 82 15 83 16 85 17 86 18 87
REMARK SMILES IDX 19 88 20 89 24 90 21 91 23 92 22 93 25 94 27 95 26 96
REMARK H PARENT 3 7 85 25 53 36 8 76 15 84
REMARK Flexibility Score: inf
ROOT
ATOM      1  C   UNL A   1      32.257  30.498  26.855  1.00  0.00     0.023 C 
ENDROOT
BRANCH   1   2
ATOM      2  C   UNL A   1      32.001  31.997  26.775  1.00  0.00     0.023 C 
BRANCH   2   3
ATOM      3  C   UNL A   1      32.953  32.826  27.610  1.00  0.00     0.116 C 
BRANCH   3   4
ATOM      4  N   UNL A   1      32.506  34.197  27.820  1.00  0.00    -0.352 N 
ATOM      5  O   UNL A   1      32.522  36.219  28.855  1.00  0.00    -0.269 OA
ATOM      6  C   UNL A   1      33.030  35.117  28.700  1.00  0.00     0.251 C 
ATOM      7  H   UNL A   1      31.746  34.498  27.273  1.00  0.00     0.163 HD
BRANCH   6   8
ATOM      8  C   UNL A   1      34.200  34.705  29.498  1.00  0.00     0.039 A 
ATOM      9  C   UNL A   1      35.472  34.764  28.924  1.00  0.00     0.014 A 
ATOM     10  C   UNL A   1      34.001  34.118  30.747  1.00  0.00     0.014 A 
ATOM     11  C   UNL A   1      36.511  34.065  29.517  1.00  0.00     0.010 A 
ATOM     12  C   UNL A   1      35.079  33.508  31.394  1.00  0.00     0.010 A 
ATOM     13  C   UNL A   1      36.329  33.434  30.760  1.00  0.00    -0.014 A 
BRANCH  13  14
ATOM     14  C   UNL A   1      37.479  32.732  31.379  1.00  0.00     0.031 A 
ATOM     15  C   UNL A   1      37.924  33.045  32.781  1.00  0.00     0.074 A 
ATOM     16  C   UNL A   1      38.087  31.762  30.671  1.00  0.00     0.049 A 
ATOM     17  N   UNL A   1      38.895  32.503  33.476  1.00  0.00    -0.248 NA
ATOM     18  C   UNL A   1      37.198  34.105  33.496  1.00  0.00     0.031 C 
ATOM     19  C   UNL A   1      37.739  31.379  29.301  1.00  0.00     0.029 A 
ATOM     20  N   UNL A   1      39.095  30.899  31.010  1.00  0.00    -0.354 N 
ATOM     21  C   UNL A   1      38.920  33.181  34.688  1.00  0.00     0.074 A 
ATOM     22  C   UNL A   1      37.876  34.181  34.634  1.00  0.00     0.031 C 
ATOM     23  C   UNL A   1      38.472  30.317  28.940  1.00  0.00     0.029 A 
ATOM     24  C   UNL A   1      39.389  29.991  30.024  1.00  0.00     0.049 A 
ATOM     25  H   UNL A   1      39.564  30.929  31.876  1.00  0.00     0.167 HD
ATOM     26  C   UNL A   1      39.743  32.980  35.746  1.00  0.00     0.037 A 
ATOM     27  C   UNL A   1      40.308  29.009  29.990  1.00  0.00     0.037 A 
ATOM     28  C   UNL A   1      40.755  31.955  35.805  1.00  0.00     0.049 A 
ATOM     29  C   UNL A   1      41.194  28.804  31.182  1.00  0.00     0.074 A 
ATOM     30  C   UNL A   1      41.613  31.646  36.846  1.00  0.00     0.029 A 
ATOM     31  N   UNL A   1      41.040  31.068  34.775  1.00  0.00    -0.354 N 
ATOM     32  N   UNL A   1      41.197  29.442  32.327  1.00  0.00    -0.248 NA
ATOM     33  C   UNL A   1      42.205  27.746  31.075  1.00  0.00     0.031 C 
ATOM     34  C   UNL A   1      42.443  30.597  36.433  1.00  0.00     0.029 A 
ATOM     35  C   UNL A   1      42.072  30.222  35.152  1.00  0.00     0.049 A 
ATOM     36  H   UNL A   1      40.578  31.043  33.907  1.00  0.00     0.167 HD
ATOM     37  C   UNL A   1      42.200  28.855  33.083  1.00  0.00     0.074 A 
ATOM     38  C   UNL A   1      42.766  27.795  32.274  1.00  0.00     0.031 C 
ATOM     39  C   UNL A   1      42.619  29.171  34.333  1.00  0.00     0.037 A 
BRANCH  26  40
ATOM     40  C   UNL A   1      39.606  33.902  36.925  1.00  0.00     0.064 A 
ATOM     41  C   UNL A   1      40.198  35.173  36.947  1.00  0.00     0.173 A 
ATOM     42  C   UNL A   1      38.825  33.524  38.028  1.00  0.00     0.173 A 
ATOM     43  F   UNL A   1      40.964  35.578  35.923  1.00  0.00    -0.203 F 
ATOM     44  C   UNL A   1      40.031  36.023  38.039  1.00  0.00     0.198 A 
ATOM     45  C   UNL A   1      38.638  34.386  39.107  1.00  0.00     0.198 A 
ATOM     46  F   UNL A   1      38.231  32.322  38.056  1.00  0.00    -0.203 F 
ATOM     47  F   UNL A   1      40.639  37.217  38.055  1.00  0.00    -0.200 F 
ATOM     48  C   UNL A   1      39.246  35.632  39.114  1.00  0.00     0.200 A 
ATOM     49  F   UNL A   1      37.870  34.011  40.139  1.00  0.00    -0.200 F 
ATOM     50  F   UNL A   1      39.080  36.454  40.159  1.00  0.00    -0.200 F 
ENDBRANCH  26  40
BRANCH  27  51
ATOM     51  C   UNL A   1      40.419  28.151  28.784  1.00  0.00     0.064 A 
ATOM     52  C   UNL A   1      39.736  26.930  28.707  1.00  0.00     0.173 A 
ATOM     53  C   UNL A   1      41.182  28.547  27.676  1.00  0.00     0.173 A 
ATOM     54  F   UNL A   1      39.006  26.503  29.748  1.00  0.00    -0.203 F 
ATOM     55  C   UNL A   1      39.824  26.130  27.569  1.00  0.00     0.198 A 
ATOM     56  C   UNL A   1      41.243  27.761  26.528  1.00  0.00     0.198 A 
ATOM     57  F   UNL A   1      41.845  29.712  27.699  1.00  0.00    -0.203 F 
ATOM     58  F   UNL A   1      39.189  24.950  27.533  1.00  0.00    -0.200 F 
ATOM     59  C   UNL A   1      40.569  26.550  26.478  1.00  0.00     0.200 A 
ATOM     60  F   UNL A   1      41.948  28.181  25.470  1.00  0.00    -0.200 F 
ATOM     61  F   UNL A   1      40.642  25.787  25.379  1.00  0.00    -0.200 F 
ENDBRANCH  27  51
BRANCH  39  62
ATOM     62  C   UNL A   1      43.719  28.330  34.909  1.00  0.00     0.064 A 
ATOM     63  C   UNL A   1      45.067  28.697  34.779  1.00  0.00     0.173 A 
ATOM     64  C   UNL A   1      43.419  27.149  35.603  1.00  0.00     0.173 A 
ATOM     65  F   UNL A   1      45.403  29.808  34.108  1.00  0.00    -0.203 F 
ATOM     66  C   UNL A   1      46.078  27.893  35.299  1.00  0.00     0.198 A 
ATOM     67  C   UNL A   1      44.432  26.362  36.145  1.00  0.00     0.198 A 
ATOM     68  F   UNL A   1      42.145  26.759  35.756  1.00  0.00    -0.203 F 
ATOM     69  F   UNL A   1      47.361  28.233  35.117  1.00  0.00    -0.200 F 
ATOM     70  C   UNL A   1      45.759  26.730  35.984  1.00  0.00     0.200 A 
ATOM     71  F   UNL A   1      44.122  25.244  36.816  1.00  0.00    -0.200 F 
ATOM     72  F   UNL A   1      46.734  25.957  36.482  1.00  0.00    -0.200 F 
ENDBRANCH  39  62
ENDBRANCH  13  14
ENDBRANCH   6   8
ENDBRANCH   3   4
ENDBRANCH   2   3
ENDBRANCH   1   2
BRANCH   1  73
ATOM     73  C   UNL A   1      31.648  29.697  25.701  1.00  0.00     0.116 C 
BRANCH  73  74
ATOM     74  N   UNL A   1      32.567  29.654  24.585  1.00  0.00    -0.356 N 
ATOM     75  C   UNL A   1      33.348  28.636  24.128  1.00  0.00     0.226 C 
ATOM     76  H   UNL A   1      32.640  30.493  24.076  1.00  0.00     0.163 HD
ATOM     77  O   UNL A   1      34.184  28.937  23.270  1.00  0.00    -0.274 OA
BRANCH  75  78
ATOM     78  C   UNL A   1      33.097  27.169  24.524  1.00  0.00     0.103 C 
ATOM     79  C   UNL A   1      33.682  26.210  23.520  1.00  0.00    -0.016 C 
ATOM     80  C   UNL A   1      33.702  26.611  25.814  1.00  0.00     0.042 C 
ATOM     81  C   UNL A   1      34.191  25.116  24.103  1.00  0.00    -0.011 C 
ATOM     82  C   UNL A   1      34.026  25.137  25.590  1.00  0.00     0.093 C 
BRANCH  82  83
ATOM     83  N   UNL A   1      32.983  24.167  25.902  1.00  0.00    -0.204 NA
ATOM     84  H   UNL A   1      32.587  23.888  25.004  1.00  0.00     0.142 HD
BRANCH  83  85
ATOM     85  S   UNL A   1      33.254  22.744  26.741  1.00  0.00     0.241 S 
ATOM     86  O   UNL A   1      34.655  22.739  27.073  1.00  0.00    -0.207 OA
ATOM     87  O   UNL A   1      32.225  22.605  27.755  1.00  0.00    -0.207 OA
BRANCH  85  88
ATOM     88  C   UNL A   1      33.017  21.474  25.517  1.00  0.00     0.083 A 
ATOM     89  C   UNL A   1      32.518  21.811  24.243  1.00  0.00     0.025 A 
ATOM     90  C   UNL A   1      33.302  20.144  25.850  1.00  0.00     0.029 A 
ATOM     91  C   UNL A   1      32.236  20.814  23.310  1.00  0.00     0.048 A 
ATOM     92  C   UNL A   1      33.073  19.176  24.884  1.00  0.00    -0.001 A 
ATOM     93  C   UNL A   1      32.529  19.512  23.653  1.00  0.00     0.122 A 
ATOM     94  C   UNL A   1      33.270  17.709  24.938  1.00  0.00     0.081 C 
ATOM     95  O   UNL A   1      32.306  18.438  22.833  1.00  0.00    -0.493 OA
ATOM     96  C   UNL A   1      33.059  17.375  23.459  1.00  0.00     0.234 C 
ENDBRANCH  85  88
ENDBRANCH  83  85
ENDBRANCH  82  83
ENDBRANCH  75  78
ENDBRANCH  73  74
ENDBRANCH   1  73
TORSDOF 14
ENDMDL
MODEL 2
REMARK VINA RESULT:     -13.2      0.391      7.245
REMARK SMILES O=C(NCCCCNC(=O)[C@H]1C=C[C@H](NS(=O)(=O)c2ccc3c(c2)CCO3)C1)c1ccc(-c2c3nc(c(-c4c(F)c(F)c(F)c(F)c4F)c4ccc([nH]4)c(-c4c(F)c(F)c(F)c(F)c4F)c4nc(c(-c5c(F)c(F)c(F)c(F)c5F)c5ccc2[nH]5)C=C4)C=C3)cc1
REMARK SMILES IDX 6 1 5 2 4 3 3 4 1 5 2 6 29 8 30 9 91 10 31 11 90 12 32 13
REMARK SMILES IDX 33 14 34 15 84 16 35 17 89 18 83 19 85 20 36 21 88 22 82 23
REMARK SMILES IDX 81 24 37 26 69 27 49 28 68 29 50 30 53 31 67 32 86 33 51 34
REMARK SMILES IDX 52 35 66 37 87 38 54 39 38 40 39 41 47 42 40 43 41 44 45 45
REMARK SMILES IDX 48 46 42 47 43 48 46 49 44 50 70 51 71 52 79 53 72 54 73 55
REMARK SMILES IDX 77 56 80 57 74 58 75 59 78 60 76 61 55 62 56 63 64 64 57 65
REMARK SMILES IDX 58 66 62 67 65 68 59 69 60 70 63 71 61 72 7 73 8 74 9 75
REMARK SMILES IDX 10 77 11 78 12 79 28 80 13 81 14 82 15 83 16 85 17 86 18 87
REMARK SMILES IDX 19 88 20 89 24 90 21 91 23 92 22 93 25 94 27 95 26 96
REMARK H PARENT 3 7 85 25 53 36 8 76 15 84
REMARK Flexibility Score: inf
ROOT
ATOM      1  C   UNL A   1      32.461  30.527  26.818  1.00  0.00     0.023 C 
ENDROOT
BRANCH   1   2
ATOM      2  C   UNL A   1      31.958  31.928  27.139  1.00  0.00     0.023 C 
BRANCH   2   3
ATOM      3  C   UNL A   1      33.062  32.928  27.408  1.00  0.00     0.116 C 
BRANCH   3   4
ATOM      4  N   UNL A   1      32.578  34.274  27.689  1.00  0.00    -0.352 N 
ATOM      5  O   UNL A   1      32.492  36.215  28.867  1.00  0.00    -0.269 OA
ATOM      6  C   UNL A   1      33.030  35.133  28.664  1.00  0.00     0.251 C 
ATOM      7  H   UNL A   1      31.848  34.604  27.117  1.00  0.00     0.163 HD
BRANCH   6   8
ATOM      8  C   UNL A   1      34.155  34.680  29.502  1.00  0.00     0.039 A 
ATOM      9  C   UNL A   1      35.447  34.693  28.974  1.00  0.00     0.014 A 
ATOM     10  C   UNL A   1      33.891  34.100  30.743  1.00  0.00     0.014 A 
ATOM     11  C   UNL A   1      36.439  33.958  29.602  1.00  0.00     0.010 A 
ATOM     12  C   UNL A   1      34.922  33.453  31.427  1.00  0.00     0.010 A 
ATOM     13  C   UNL A   1      36.190  33.333  30.837  1.00  0.00    -0.014 A 
BRANCH  13  14
ATOM     14  C   UNL A   1      37.292  32.590  31.496  1.00  0.00     0.031 A 
ATOM     15  C   UNL A   1      38.032  31.493  30.782  1.00  0.00     0.074 A 
ATOM     16  C   UNL A   1      37.654  32.961  32.738  1.00  0.00     0.049 A 
ATOM     17  N   UNL A   1      39.035  30.765  31.209  1.00  0.00    -0.248 NA
ATOM     18  C   UNL A   1      37.589  31.159  29.420  1.00  0.00     0.031 C 
ATOM     19  C   UNL A   1      37.002  34.010  33.525  1.00  0.00     0.029 A 
ATOM     20  N   UNL A   1      38.673  32.527  33.544  1.00  0.00    -0.354 N 
ATOM     21  C   UNL A   1      39.315  29.865  30.188  1.00  0.00     0.074 A 
ATOM     22  C   UNL A   1      38.372  30.130  29.123  1.00  0.00     0.031 C 
ATOM     23  C   UNL A   1      37.675  34.186  34.669  1.00  0.00     0.029 A 
ATOM     24  C   UNL A   1      38.761  33.215  34.729  1.00  0.00     0.049 A 
ATOM     25  H   UNL A   1      39.282  31.793  33.299  1.00  0.00     0.167 HD
ATOM     26  C   UNL A   1      40.275  28.909  30.150  1.00  0.00     0.037 A 
ATOM     27  C   UNL A   1      39.613  33.072  35.759  1.00  0.00     0.037 A 
ATOM     28  C   UNL A   1      41.235  28.680  31.200  1.00  0.00     0.049 A 
ATOM     29  C   UNL A   1      40.673  32.014  35.679  1.00  0.00     0.074 A 
ATOM     30  C   UNL A   1      42.271  27.763  31.240  1.00  0.00     0.029 A 
ATOM     31  N   UNL A   1      41.277  29.382  32.397  1.00  0.00    -0.354 N 
ATOM     32  N   UNL A   1      40.936  31.181  34.703  1.00  0.00    -0.248 NA
ATOM     33  C   UNL A   1      41.550  31.875  36.847  1.00  0.00     0.031 C 
ATOM     34  C   UNL A   1      42.916  27.883  32.476  1.00  0.00     0.029 A 
ATOM     35  C   UNL A   1      42.311  28.907  33.189  1.00  0.00     0.049 A 
ATOM     36  H   UNL A   1      40.664  30.110  32.648  1.00  0.00     0.167 HD
ATOM     37  C   UNL A   1      42.017  30.426  35.130  1.00  0.00     0.074 A 
ATOM     38  C   UNL A   1      42.375  30.918  36.445  1.00  0.00     0.031 C 
ATOM     39  C   UNL A   1      42.653  29.412  34.493  1.00  0.00     0.037 A 
BRANCH  26  40
ATOM     40  C   UNL A   1      40.326  28.016  28.943  1.00  0.00     0.064 A 
ATOM     41  C   UNL A   1      41.100  28.332  27.817  1.00  0.00     0.173 A 
ATOM     42  C   UNL A   1      39.628  26.798  28.936  1.00  0.00     0.173 A 
ATOM     43  F   UNL A   1      41.779  29.488  27.768  1.00  0.00    -0.203 F 
ATOM     44  C   UNL A   1      41.157  27.473  26.721  1.00  0.00     0.198 A 
ATOM     45  C   UNL A   1      39.707  25.929  27.850  1.00  0.00     0.198 A 
ATOM     46  F   UNL A   1      38.877  26.444  29.990  1.00  0.00    -0.203 F 
ATOM     47  F   UNL A   1      41.872  27.814  25.641  1.00  0.00    -0.200 F 
ATOM     48  C   UNL A   1      40.466  26.270  26.741  1.00  0.00     0.200 A 
ATOM     49  F   UNL A   1      39.048  24.763  27.876  1.00  0.00    -0.200 F 
ATOM     50  F   UNL A   1      40.528  25.441  25.690  1.00  0.00    -0.200 F 
ENDBRANCH  26  40
BRANCH  27  51
ATOM     51  C   UNL A   1      39.494  33.963  36.939  1.00  0.00     0.064 A 
ATOM     52  C   UNL A   1      38.764  33.567  38.067  1.00  0.00     0.173 A 
ATOM     53  C   UNL A   1      40.130  35.213  36.975  1.00  0.00     0.173 A 
ATOM     54  F   UNL A   1      38.127  32.387  38.073  1.00  0.00    -0.203 F 
ATOM     55  C   UNL A   1      38.666  34.394  39.184  1.00  0.00     0.198 A 
ATOM     56  C   UNL A   1      40.056  36.025  38.104  1.00  0.00     0.198 A 
ATOM     57  F   UNL A   1      40.848  35.632  35.923  1.00  0.00    -0.203 F 
ATOM     58  F   UNL A   1      37.933  34.007  40.238  1.00  0.00    -0.200 F 
ATOM     59  C   UNL A   1      39.318  35.618  39.205  1.00  0.00     0.200 A 
ATOM     60  F   UNL A   1      40.705  37.196  38.126  1.00  0.00    -0.200 F 
ATOM     61  F   UNL A   1      39.234  36.407  40.285  1.00  0.00    -0.200 F 
ENDBRANCH  27  51
BRANCH  39  62
ATOM     62  C   UNL A   1      43.823  28.798  35.203  1.00  0.00     0.064 A 
ATOM     63  C   UNL A   1      43.662  27.718  36.084  1.00  0.00     0.173 A 
ATOM     64  C   UNL A   1      45.119  29.291  34.992  1.00  0.00     0.173 A 
ATOM     65  F   UNL A   1      42.439  27.224  36.330  1.00  0.00    -0.203 F 
ATOM     66  C   UNL A   1      44.754  27.174  36.752  1.00  0.00     0.198 A 
ATOM     67  C   UNL A   1      46.212  28.727  35.642  1.00  0.00     0.198 A 
ATOM     68  F   UNL A   1      45.323  30.320  34.157  1.00  0.00    -0.203 F 
ATOM     69  F   UNL A   1      44.572  26.179  37.631  1.00  0.00    -0.200 F 
ATOM     70  C   UNL A   1      46.028  27.676  36.528  1.00  0.00     0.200 A 
ATOM     71  F   UNL A   1      47.443  29.206  35.417  1.00  0.00    -0.200 F 
ATOM     72  F   UNL A   1      47.079  27.152  37.175  1.00  0.00    -0.200 F 
ENDBRANCH  39  62
ENDBRANCH  13  14
ENDBRANCH   6   8
ENDBRANCH   3   4
ENDBRANCH   2   3
ENDBRANCH   1   2
BRANCH   1  73
ATOM     73  C   UNL A   1      31.749  29.863  25.637  1.00  0.00     0.116 C 
BRANCH  73  74
ATOM     74  N   UNL A   1      32.646  29.762  24.507  1.00  0.00    -0.356 N 
ATOM     75  C   UNL A   1      33.394  28.711  24.068  1.00  0.00     0.226 C 
ATOM     76  H   UNL A   1      32.731  30.584  23.971  1.00  0.00     0.163 HD
ATOM     77  O   UNL A   1      34.222  28.966  23.187  1.00  0.00    -0.274 OA
BRANCH  75  78
ATOM     78  C   UNL A   1      33.115  27.264  24.515  1.00  0.00     0.103 C 
ATOM     79  C   UNL A   1      33.685  26.261  23.547  1.00  0.00    -0.016 C 
ATOM     80  C   UNL A   1      33.704  26.740  25.825  1.00  0.00     0.042 C 
ATOM     81  C   UNL A   1      34.172  25.178  24.169  1.00  0.00    -0.011 C 
ATOM     82  C   UNL A   1      34.002  25.254  25.654  1.00  0.00     0.093 C 
BRANCH  82  83
ATOM     83  N   UNL A   1      32.940  24.314  25.995  1.00  0.00    -0.204 NA
ATOM     84  H   UNL A   1      32.510  24.049  25.109  1.00  0.00     0.142 HD
BRANCH  83  85
ATOM     85  S   UNL A   1      33.193  22.882  26.824  1.00  0.00     0.241 S 
ATOM     86  O   UNL A   1      34.587  22.871  27.181  1.00  0.00    -0.207 OA
ATOM     87  O   UNL A   1      32.145  22.735  27.818  1.00  0.00    -0.207 OA
BRANCH  85  88
ATOM     88  C   UNL A   1      32.975  21.625  25.583  1.00  0.00     0.083 A 
ATOM     89  C   UNL A   1      32.504  21.978  24.303  1.00  0.00     0.025 A 
ATOM     90  C   UNL A   1      33.248  20.291  25.909  1.00  0.00     0.029 A 
ATOM     91  C   UNL A   1      32.237  20.991  23.354  1.00  0.00     0.048 A 
ATOM     92  C   UNL A   1      33.034  19.334  24.929  1.00  0.00    -0.001 A 
ATOM     93  C   UNL A   1      32.516  19.684  23.691  1.00  0.00     0.122 A 
ATOM     94  C   UNL A   1      33.224  17.866  24.972  1.00  0.00     0.081 C 
ATOM     95  O   UNL A   1      32.306  18.619  22.855  1.00  0.00    -0.493 OA
ATOM     96  C   UNL A   1      33.041  17.547  23.486  1.00  0.00     0.234 C 
ENDBRANCH  85  88
ENDBRANCH  83  85
ENDBRANCH  82  83
ENDBRANCH  75  78
ENDBRANCH  73  74
ENDBRANCH   1  73
TORSDOF 14
ENDMDL
MODEL 3
REMARK VINA RESULT:     -13.0      1.312      7.402
REMARK SMILES O=C(NCCCCNC(=O)[C@H]1C=C[C@H](NS(=O)(=O)c2ccc3c(c2)CCO3)C1)c1ccc(-c2c3nc(c(-c4c(F)c(F)c(F)c(F)c4F)c4ccc([nH]4)c(-c4c(F)c(F)c(F)c(F)c4F)c4nc(c(-c5c(F)c(F)c(F)c(F)c5F)c5ccc2[nH]5)C=C4)C=C3)cc1
REMARK SMILES IDX 6 1 5 2 4 3 3 4 1 5 2 6 29 8 30 9 91 10 31 11 90 12 32 13
REMARK SMILES IDX 33 14 34 15 84 16 35 17 89 18 83 19 85 20 36 21 88 22 82 23
REMARK SMILES IDX 81 24 37 26 69 27 49 28 68 29 50 30 53 31 67 32 86 33 51 34
REMARK SMILES IDX 52 35 66 37 87 38 54 39 38 40 39 41 47 42 40 43 41 44 45 45
REMARK SMILES IDX 48 46 42 47 43 48 46 49 44 50 70 51 71 52 79 53 72 54 73 55
REMARK SMILES IDX 77 56 80 57 74 58 75 59 78 60 76 61 55 62 56 63 64 64 57 65
REMARK SMILES IDX 58 66 62 67 65 68 59 69 60 70 63 71 61 72 7 73 8 74 9 75
REMARK SMILES IDX 10 77 11 78 12 79 28 80 13 81 14 82 15 83 16 85 17 86 18 87
REMARK SMILES IDX 19 88 20 89 24 90 21 91 23 92 22 93 25 94 27 95 26 96
REMARK H PARENT 3 7 85 25 53 36 8 76 15 84
REMARK Flexibility Score: inf
ROOT
ATOM      1  C   UNL A   1      32.150  30.465  26.876  1.00  0.00     0.023 C 
ENDROOT
BRANCH   1   2
ATOM      2  C   UNL A   1      31.821  31.952  26.863  1.00  0.00     0.023 C 
BRANCH   2   3
ATOM      3  C   UNL A   1      32.901  32.823  27.471  1.00  0.00     0.116 C 
BRANCH   3   4
ATOM      4  N   UNL A   1      32.487  34.203  27.687  1.00  0.00    -0.352 N 
ATOM      5  O   UNL A   1      32.528  36.210  28.751  1.00  0.00    -0.269 OA
ATOM      6  C   UNL A   1      33.009  35.095  28.596  1.00  0.00     0.251 C 
ATOM      7  H   UNL A   1      31.753  34.534  27.120  1.00  0.00     0.163 HD
BRANCH   6   8
ATOM      8  C   UNL A   1      34.141  34.639  29.423  1.00  0.00     0.039 A 
ATOM      9  C   UNL A   1      35.420  34.594  28.865  1.00  0.00     0.014 A 
ATOM     10  C   UNL A   1      33.890  34.112  30.691  1.00  0.00     0.014 A 
ATOM     11  C   UNL A   1      36.405  33.853  29.496  1.00  0.00     0.010 A 
ATOM     12  C   UNL A   1      34.919  33.459  31.373  1.00  0.00     0.010 A 
ATOM     13  C   UNL A   1      36.168  33.281  30.759  1.00  0.00    -0.014 A 
BRANCH  13  14
ATOM     14  C   UNL A   1      37.264  32.529  31.419  1.00  0.00     0.031 A 
ATOM     15  C   UNL A   1      38.010  31.440  30.698  1.00  0.00     0.074 A 
ATOM     16  C   UNL A   1      37.614  32.884  32.669  1.00  0.00     0.049 A 
ATOM     17  N   UNL A   1      39.009  30.706  31.125  1.00  0.00    -0.248 NA
ATOM     18  C   UNL A   1      37.579  31.123  29.328  1.00  0.00     0.031 C 
ATOM     19  C   UNL A   1      36.955  33.924  33.462  1.00  0.00     0.029 A 
ATOM     20  N   UNL A   1      38.626  32.440  33.478  1.00  0.00    -0.354 N 
ATOM     21  C   UNL A   1      39.298  29.820  30.096  1.00  0.00     0.074 A 
ATOM     22  C   UNL A   1      38.364  30.097  29.026  1.00  0.00     0.031 C 
ATOM     23  C   UNL A   1      37.619  34.086  34.614  1.00  0.00     0.029 A 
ATOM     24  C   UNL A   1      38.703  33.114  34.672  1.00  0.00     0.049 A 
ATOM     25  H   UNL A   1      39.237  31.709  33.229  1.00  0.00     0.167 HD
ATOM     26  C   UNL A   1      40.258  28.863  30.054  1.00  0.00     0.037 A 
ATOM     27  C   UNL A   1      39.546  32.958  35.708  1.00  0.00     0.037 A 
ATOM     28  C   UNL A   1      41.208  28.621  31.111  1.00  0.00     0.049 A 
ATOM     29  C   UNL A   1      40.606  31.900  35.625  1.00  0.00     0.074 A 
ATOM     30  C   UNL A   1      42.243  27.703  31.149  1.00  0.00     0.029 A 
ATOM     31  N   UNL A   1      41.240  29.309  32.317  1.00  0.00    -0.354 N 
ATOM     32  N   UNL A   1      40.878  31.079  34.641  1.00  0.00    -0.248 NA
ATOM     33  C   UNL A   1      41.473  31.746  36.799  1.00  0.00     0.031 C 
ATOM     34  C   UNL A   1      42.877  27.808  32.392  1.00  0.00     0.029 A 
ATOM     35  C   UNL A   1      42.266  28.823  33.112  1.00  0.00     0.049 A 
ATOM     36  H   UNL A   1      40.624  30.034  32.571  1.00  0.00     0.167 HD
ATOM     37  C   UNL A   1      41.955  30.319  35.069  1.00  0.00     0.074 A 
ATOM     38  C   UNL A   1      42.300  30.794  36.393  1.00  0.00     0.031 C 
ATOM     39  C   UNL A   1      42.597  29.312  34.426  1.00  0.00     0.037 A 
BRANCH  26  40
ATOM     40  C   UNL A   1      40.320  27.985  28.837  1.00  0.00     0.064 A 
ATOM     41  C   UNL A   1      41.083  28.328  27.711  1.00  0.00     0.173 A 
ATOM     42  C   UNL A   1      39.644  26.755  28.820  1.00  0.00     0.173 A 
ATOM     43  F   UNL A   1      41.739  29.498  27.672  1.00  0.00    -0.203 F 
ATOM     44  C   UNL A   1      41.150  27.483  26.606  1.00  0.00     0.198 A 
ATOM     45  C   UNL A   1      39.734  25.900  27.723  1.00  0.00     0.198 A 
ATOM     46  F   UNL A   1      38.905  26.375  29.873  1.00  0.00    -0.203 F 
ATOM     47  F   UNL A   1      41.853  27.850  25.526  1.00  0.00    -0.200 F 
ATOM     48  C   UNL A   1      40.481  26.267  26.615  1.00  0.00     0.200 A 
ATOM     49  F   UNL A   1      39.097  24.721  27.740  1.00  0.00    -0.200 F 
ATOM     50  F   UNL A   1      40.554  25.452  25.554  1.00  0.00    -0.200 F 
ENDBRANCH  26  40
BRANCH  27  51
ATOM     51  C   UNL A   1      39.416  33.834  36.898  1.00  0.00     0.064 A 
ATOM     52  C   UNL A   1      39.994  35.111  36.916  1.00  0.00     0.173 A 
ATOM     53  C   UNL A   1      38.688  33.427  38.026  1.00  0.00     0.173 A 
ATOM     54  F   UNL A   1      40.710  35.537  35.866  1.00  0.00    -0.203 F 
ATOM     55  C   UNL A   1      39.857  35.943  38.025  1.00  0.00     0.198 A 
ATOM     56  C   UNL A   1      38.528  34.272  39.121  1.00  0.00     0.198 A 
ATOM     57  F   UNL A   1      38.110  32.218  38.051  1.00  0.00    -0.203 F 
ATOM     58  F   UNL A   1      40.448  37.147  38.032  1.00  0.00    -0.200 F 
ATOM     59  C   UNL A   1      39.118  35.528  39.122  1.00  0.00     0.200 A 
ATOM     60  F   UNL A   1      37.795  33.874  40.169  1.00  0.00    -0.200 F 
ATOM     61  F   UNL A   1      38.976  36.334  40.182  1.00  0.00    -0.200 F 
ENDBRANCH  27  51
BRANCH  39  62
ATOM     62  C   UNL A   1      43.759  28.689  35.138  1.00  0.00     0.064 A 
ATOM     63  C   UNL A   1      45.069  29.157  34.955  1.00  0.00     0.173 A 
ATOM     64  C   UNL A   1      43.558  27.616  36.019  1.00  0.00     0.173 A 
ATOM     65  F   UNL A   1      45.312  30.169  34.108  1.00  0.00    -0.203 F 
ATOM     66  C   UNL A   1      46.140  28.552  35.605  1.00  0.00     0.198 A 
ATOM     67  C   UNL A   1      44.629  27.031  36.689  1.00  0.00     0.198 A 
ATOM     68  F   UNL A   1      42.324  27.135  36.229  1.00  0.00    -0.203 F 
ATOM     69  F   UNL A   1      47.390  28.979  35.375  1.00  0.00    -0.200 F 
ATOM     70  C   UNL A   1      45.919  27.493  36.474  1.00  0.00     0.200 A 
ATOM     71  F   UNL A   1      44.413  26.015  37.535  1.00  0.00    -0.200 F 
ATOM     72  F   UNL A   1      46.952  26.910  37.098  1.00  0.00    -0.200 F 
ENDBRANCH  39  62
ENDBRANCH  13  14
ENDBRANCH   6   8
ENDBRANCH   3   4
ENDBRANCH   2   3
ENDBRANCH   1   2
BRANCH   1  73
ATOM     73  C   UNL A   1      32.501  29.891  25.501  1.00  0.00     0.116 C 
BRANCH  73  74
ATOM     74  N   UNL A   1      31.351  29.956  24.626  1.00  0.00    -0.356 N 
ATOM     75  C   UNL A   1      30.805  29.003  23.819  1.00  0.00     0.226 C 
ATOM     76  H   UNL A   1      30.890  30.825  24.611  1.00  0.00     0.163 HD
ATOM     77  O   UNL A   1      29.936  29.393  23.032  1.00  0.00    -0.274 OA
BRANCH  75  78
ATOM     78  C   UNL A   1      31.123  27.506  23.988  1.00  0.00     0.103 C 
ATOM     79  C   UNL A   1      29.886  26.703  24.297  1.00  0.00    -0.016 C 
ATOM     80  C   UNL A   1      31.677  26.704  22.809  1.00  0.00     0.042 C 
ATOM     81  C   UNL A   1      29.903  25.500  23.708  1.00  0.00    -0.011 C 
ATOM     82  C   UNL A   1      31.153  25.275  22.916  1.00  0.00     0.093 C 
BRANCH  82  83
ATOM     83  N   UNL A   1      31.955  24.323  23.676  1.00  0.00    -0.204 NA
ATOM     84  H   UNL A   1      31.454  23.436  23.625  1.00  0.00     0.142 HD
BRANCH  83  85
ATOM     85  S   UNL A   1      33.553  23.963  23.329  1.00  0.00     0.241 S 
ATOM     86  O   UNL A   1      33.653  23.942  21.893  1.00  0.00    -0.207 OA
ATOM     87  O   UNL A   1      34.403  24.809  24.146  1.00  0.00    -0.207 OA
BRANCH  85  88
ATOM     88  C   UNL A   1      33.739  22.279  23.876  1.00  0.00     0.083 A 
ATOM     89  C   UNL A   1      34.857  21.912  24.650  1.00  0.00     0.025 A 
ATOM     90  C   UNL A   1      32.781  21.330  23.497  1.00  0.00     0.029 A 
ATOM     91  C   UNL A   1      35.064  20.578  25.001  1.00  0.00     0.048 A 
ATOM     92  C   UNL A   1      32.976  20.021  23.911  1.00  0.00    -0.001 A 
ATOM     93  C   UNL A   1      34.108  19.660  24.626  1.00  0.00     0.122 A 
ATOM     94  C   UNL A   1      32.153  18.813  23.670  1.00  0.00     0.081 C 
ATOM     95  O   UNL A   1      34.183  18.321  24.906  1.00  0.00    -0.493 OA
ATOM     96  C   UNL A   1      32.848  17.844  24.631  1.00  0.00     0.234 C 
ENDBRANCH  85  88
ENDBRANCH  83  85
ENDBRANCH  82  83
ENDBRANCH  75  78
ENDBRANCH  73  74
ENDBRANCH   1  73
TORSDOF 14
ENDMDL
