MODEL 1
REMARK VINA RESULT:     -13.3      0.000      0.000
REMARK SMILES Cc1cc(C(=O)N2[C@@H](C(=O)NCCCCNC(=O)c3ccc(-c4c5nc(c(-c6c(F)c(F)c(F)c(F)c6F)c6ccc([nH]6)c(-c6c(F)c(F)c(F)c(F)c6F)c6nc(c(-c7c(F)c(F)c(F)c(F)c7F)c7ccc4[nH]7)C=C6)C=C5)cc3)C[C@H]3CCCC[C@H]32)c(C)s1
REMARK SMILES IDX 13 1 12 2 11 3 9 4 10 5 8 7 7 8 88 9 82 10 83 11 87 12 84 13
REMARK SMILES IDX 86 14 85 15 5 16 6 17 4 18 1 19 2 20 3 21 91 22 89 23 90 24
REMARK SMILES IDX 14 25 15 26 16 27 17 28 18 30 19 31 20 32 81 33 21 34 80 35
REMARK SMILES IDX 22 36 23 37 24 38 74 39 25 40 79 41 73 42 75 43 26 44 78 45
REMARK SMILES IDX 72 46 71 47 27 49 59 50 39 51 58 52 40 53 43 54 57 55 76 56
REMARK SMILES IDX 41 57 42 58 56 60 77 61 44 62 28 63 29 64 37 65 30 66 31 67
REMARK SMILES IDX 35 68 38 69 32 70 33 71 36 72 34 73 60 74 61 75 69 76 62 77
REMARK SMILES IDX 63 78 67 79 70 80 64 81 65 82 68 83 66 84 45 85 46 86 54 87
REMARK SMILES IDX 47 88 48 89 52 90 55 91 49 92 50 93 53 94 51 95
REMARK H PARENT 11 6 16 29 75 48 43 59
REMARK Flexibility Score: inf
ROOT
ATOM      1  C   UNL A   1      31.909  30.634  26.220  1.00  0.00     0.023 C 
ENDROOT
BRANCH   1   2
ATOM      2  C   UNL A   1      32.355  29.551  27.201  1.00  0.00     0.116 C 
BRANCH   2   3
ATOM      3  N   UNL A   1      31.469  28.406  27.214  1.00  0.00    -0.354 N 
ATOM      4  C   UNL A   1      31.499  27.207  26.573  1.00  0.00     0.242 C 
ATOM      5  O   UNL A   1      30.629  26.396  26.920  1.00  0.00    -0.273 OA
ATOM      6  H   UNL A   1      30.689  28.517  27.806  1.00  0.00     0.163 HD
BRANCH   4   7
ATOM      7  C   UNL A   1      32.432  26.838  25.387  1.00  0.00     0.175 C 
ATOM      8  N   UNL A   1      32.076  25.774  24.439  1.00  0.00    -0.323 N 
ATOM      9  C   UNL A   1      32.986  24.636  24.551  1.00  0.00     0.089 C 
ATOM     10  C   UNL A   1      33.790  26.378  25.970  1.00  0.00     0.041 C 
ATOM     11  C   UNL A   1      34.286  25.317  24.980  1.00  0.00     0.014 C 
ATOM     12  C   UNL A   1      32.504  23.600  25.572  1.00  0.00     0.025 C 
ATOM     13  C   UNL A   1      35.347  24.364  25.520  1.00  0.00     0.006 C 
ATOM     14  C   UNL A   1      33.591  22.612  25.968  1.00  0.00     0.002 C 
ATOM     15  C   UNL A   1      34.810  23.344  26.520  1.00  0.00     0.000 C 
BRANCH   8  16
ATOM     16  C   UNL A   1      31.168  25.834  23.389  1.00  0.00     0.255 C 
ATOM     17  O   UNL A   1      30.884  24.831  22.736  1.00  0.00    -0.269 OA
BRANCH  16  18
ATOM     18  C   UNL A   1      30.584  27.135  23.053  1.00  0.00     0.053 A 
ATOM     19  C   UNL A   1      27.656  29.556  23.148  1.00  0.00     0.056 C 
ATOM     20  C   UNL A   1      28.942  28.821  22.989  1.00  0.00     0.003 A 
ATOM     21  C   UNL A   1      29.212  27.504  23.284  1.00  0.00     0.029 A 
ATOM     22  S   UNL A   1      30.333  29.627  22.426  1.00  0.00    -0.145 S 
ATOM     23  C   UNL A   1      31.315  28.233  22.623  1.00  0.00     0.014 A 
ATOM     24  C   UNL A   1      32.781  28.352  22.359  1.00  0.00     0.057 C 
ENDBRANCH  16  18
ENDBRANCH   8  16
ENDBRANCH   4   7
ENDBRANCH   2   3
ENDBRANCH   1   2
BRANCH   1  25
ATOM     25  C   UNL A   1      31.542  31.973  26.844  1.00  0.00     0.023 C 
BRANCH  25  26
ATOM     26  C   UNL A   1      32.719  32.822  27.298  1.00  0.00     0.116 C 
BRANCH  26  27
ATOM     27  N   UNL A   1      32.373  34.203  27.611  1.00  0.00    -0.352 N 
ATOM     28  C   UNL A   1      32.962  35.047  28.523  1.00  0.00     0.251 C 
ATOM     29  H   UNL A   1      31.619  34.580  27.103  1.00  0.00     0.163 HD
ATOM     30  O   UNL A   1      32.518  36.170  28.727  1.00  0.00    -0.269 OA
BRANCH  28  31
ATOM     31  C   UNL A   1      34.117  34.552  29.296  1.00  0.00     0.039 A 
ATOM     32  C   UNL A   1      33.888  33.920  30.521  1.00  0.00     0.014 A 
ATOM     33  C   UNL A   1      35.402  34.618  28.754  1.00  0.00     0.014 A 
ATOM     34  C   UNL A   1      34.943  33.266  31.158  1.00  0.00     0.010 A 
ATOM     35  C   UNL A   1      36.426  33.889  29.344  1.00  0.00     0.010 A 
ATOM     36  C   UNL A   1      36.206  33.202  30.547  1.00  0.00    -0.014 A 
BRANCH  36  37
ATOM     37  C   UNL A   1      37.317  32.422  31.145  1.00  0.00     0.031 A 
ATOM     38  C   UNL A   1      37.808  32.763  32.522  1.00  0.00     0.074 A 
ATOM     39  C   UNL A   1      37.939  31.476  30.416  1.00  0.00     0.049 A 
ATOM     40  N   UNL A   1      38.833  32.285  33.179  1.00  0.00    -0.248 NA
ATOM     41  C   UNL A   1      37.071  33.815  33.242  1.00  0.00     0.031 C 
ATOM     42  C   UNL A   1      37.598  31.098  29.043  1.00  0.00     0.029 A 
ATOM     43  N   UNL A   1      39.004  30.666  30.726  1.00  0.00    -0.354 N 
ATOM     44  C   UNL A   1      38.878  32.995  34.371  1.00  0.00     0.074 A 
ATOM     45  C   UNL A   1      37.815  33.974  34.325  1.00  0.00     0.031 C 
ATOM     46  C   UNL A   1      38.417  30.113  28.641  1.00  0.00     0.029 A 
ATOM     47  C   UNL A   1      39.363  29.814  29.711  1.00  0.00     0.049 A 
ATOM     48  H   UNL A   1      39.466  30.692  31.595  1.00  0.00     0.167 HD
ATOM     49  C   UNL A   1      39.714  32.826  35.422  1.00  0.00     0.037 A 
ATOM     50  C   UNL A   1      40.347  28.896  29.652  1.00  0.00     0.037 A 
ATOM     51  C   UNL A   1      40.737  31.818  35.484  1.00  0.00     0.049 A 
ATOM     52  C   UNL A   1      41.238  28.702  30.848  1.00  0.00     0.074 A 
ATOM     53  C   UNL A   1      41.588  31.515  36.532  1.00  0.00     0.029 A 
ATOM     54  N   UNL A   1      41.039  30.941  34.453  1.00  0.00    -0.354 N 
ATOM     55  N   UNL A   1      41.230  29.334  31.996  1.00  0.00    -0.248 NA
ATOM     56  C   UNL A   1      42.272  27.663  30.742  1.00  0.00     0.031 C 
ATOM     57  C   UNL A   1      42.428  30.473  36.124  1.00  0.00     0.029 A 
ATOM     58  C   UNL A   1      42.073  30.101  34.837  1.00  0.00     0.049 A 
ATOM     59  H   UNL A   1      40.587  30.917  33.580  1.00  0.00     0.167 HD
ATOM     60  C   UNL A   1      42.235  28.754  32.759  1.00  0.00     0.074 A 
ATOM     61  C   UNL A   1      42.825  27.710  31.946  1.00  0.00     0.031 C 
ATOM     62  C   UNL A   1      42.635  29.060  34.016  1.00  0.00     0.037 A 
BRANCH  49  63
ATOM     63  C   UNL A   1      39.541  33.745  36.595  1.00  0.00     0.064 A 
ATOM     64  C   UNL A   1      40.147  35.011  36.631  1.00  0.00     0.173 A 
ATOM     65  C   UNL A   1      38.747  33.366  37.687  1.00  0.00     0.173 A 
ATOM     66  F   UNL A   1      40.930  35.414  35.618  1.00  0.00    -0.203 F 
ATOM     67  C   UNL A   1      39.991  35.849  37.731  1.00  0.00     0.198 A 
ATOM     68  C   UNL A   1      38.568  34.219  38.772  1.00  0.00     0.198 A 
ATOM     69  F   UNL A   1      38.143  32.169  37.701  1.00  0.00    -0.203 F 
ATOM     70  F   UNL A   1      40.624  37.029  37.767  1.00  0.00    -0.200 F 
ATOM     71  C   UNL A   1      39.197  35.455  38.798  1.00  0.00     0.200 A 
ATOM     72  F   UNL A   1      37.793  33.842  39.799  1.00  0.00    -0.200 F 
ATOM     73  F   UNL A   1      39.045  36.264  39.855  1.00  0.00    -0.200 F 
ENDBRANCH  49  63
BRANCH  50  74
ATOM     74  C   UNL A   1      40.515  28.062  28.435  1.00  0.00     0.064 A 
ATOM     75  C   UNL A   1      39.900  26.805  28.338  1.00  0.00     0.173 A 
ATOM     76  C   UNL A   1      41.288  28.495  27.349  1.00  0.00     0.173 A 
ATOM     77  F   UNL A   1      39.167  26.340  29.361  1.00  0.00    -0.203 F 
ATOM     78  C   UNL A   1      40.069  26.005  27.210  1.00  0.00     0.198 A 
ATOM     79  C   UNL A   1      41.436  27.705  26.210  1.00  0.00     0.198 A 
ATOM     80  F   UNL A   1      41.891  29.692  27.390  1.00  0.00    -0.203 F 
ATOM     81  F   UNL A   1      39.505  24.790  27.163  1.00  0.00    -0.200 F 
ATOM     82  C   UNL A   1      40.833  26.457  26.145  1.00  0.00     0.200 A 
ATOM     83  F   UNL A   1      42.165  28.150  25.178  1.00  0.00    -0.200 F 
ATOM     84  F   UNL A   1      40.994  25.689  25.060  1.00  0.00    -0.200 F 
ENDBRANCH  50  74
BRANCH  62  85
ATOM     85  C   UNL A   1      43.736  28.232  34.606  1.00  0.00     0.064 A 
ATOM     86  C   UNL A   1      45.078  28.633  34.528  1.00  0.00     0.173 A 
ATOM     87  C   UNL A   1      43.440  27.048  35.300  1.00  0.00     0.173 A 
ATOM     88  F   UNL A   1      45.410  29.749  33.862  1.00  0.00    -0.203 F 
ATOM     89  C   UNL A   1      46.086  27.867  35.105  1.00  0.00     0.198 A 
ATOM     90  C   UNL A   1      44.448  26.298  35.897  1.00  0.00     0.198 A 
ATOM     91  F   UNL A   1      42.171  26.627  35.406  1.00  0.00    -0.203 F 
ATOM     92  F   UNL A   1      47.366  28.246  34.984  1.00  0.00    -0.200 F 
ATOM     93  C   UNL A   1      45.770  26.705  35.795  1.00  0.00     0.200 A 
ATOM     94  F   UNL A   1      44.141  25.184  36.573  1.00  0.00    -0.200 F 
ATOM     95  F   UNL A   1      46.742  25.974  36.356  1.00  0.00    -0.200 F 
ENDBRANCH  62  85
ENDBRANCH  36  37
ENDBRANCH  28  31
ENDBRANCH  26  27
ENDBRANCH  25  26
ENDBRANCH   1  25
TORSDOF 13
ENDMDL
MODEL 2
REMARK VINA RESULT:     -13.3      1.768      2.668
REMARK SMILES Cc1cc(C(=O)N2[C@@H](C(=O)NCCCCNC(=O)c3ccc(-c4c5nc(c(-c6c(F)c(F)c(F)c(F)c6F)c6ccc([nH]6)c(-c6c(F)c(F)c(F)c(F)c6F)c6nc(c(-c7c(F)c(F)c(F)c(F)c7F)c7ccc4[nH]7)C=C6)C=C5)cc3)C[C@H]3CCCC[C@H]32)c(C)s1
REMARK SMILES IDX 13 1 12 2 11 3 9 4 10 5 8 7 7 8 88 9 82 10 83 11 87 12 84 13
REMARK SMILES IDX 86 14 85 15 5 16 6 17 4 18 1 19 2 20 3 21 91 22 89 23 90 24
REMARK SMILES IDX 14 25 15 26 16 27 17 28 18 30 19 31 20 32 81 33 21 34 80 35
REMARK SMILES IDX 22 36 23 37 24 38 74 39 25 40 79 41 73 42 75 43 26 44 78 45
REMARK SMILES IDX 72 46 71 47 27 49 59 50 39 51 58 52 40 53 43 54 57 55 76 56
REMARK SMILES IDX 41 57 42 58 56 60 77 61 44 62 28 63 29 64 37 65 30 66 31 67
REMARK SMILES IDX 35 68 38 69 32 70 33 71 36 72 34 73 60 74 61 75 69 76 62 77
REMARK SMILES IDX 63 78 67 79 70 80 64 81 65 82 68 83 66 84 45 85 46 86 54 87
REMARK SMILES IDX 47 88 48 89 52 90 55 91 49 92 50 93 53 94 51 95
REMARK H PARENT 11 6 16 29 75 48 43 59
REMARK Flexibility Score: inf
ROOT
ATOM      1  C   UNL A   1      31.791  28.272  27.571  1.00  0.00     0.023 C 
ENDROOT
BRANCH   1   2
ATOM      2  C   UNL A   1      32.490  27.182  26.760  1.00  0.00     0.116 C 
BRANCH   2   3
ATOM      3  N   UNL A   1      31.816  25.903  26.839  1.00  0.00    -0.354 N 
ATOM      4  C   UNL A   1      32.184  24.642  26.487  1.00  0.00     0.242 C 
ATOM      5  O   UNL A   1      31.395  23.746  26.818  1.00  0.00    -0.273 OA
ATOM      6  H   UNL A   1      30.912  25.956  27.227  1.00  0.00     0.163 HD
BRANCH   4   7
ATOM      7  C   UNL A   1      33.414  24.267  25.616  1.00  0.00     0.175 C 
ATOM      8  N   UNL A   1      33.290  24.058  24.168  1.00  0.00    -0.323 N 
ATOM      9  C   UNL A   1      33.534  22.662  23.810  1.00  0.00     0.089 C 
ATOM     10  C   UNL A   1      33.980  22.925  26.139  1.00  0.00     0.041 C 
ATOM     11  C   UNL A   1      34.532  22.234  24.886  1.00  0.00     0.014 C 
ATOM     12  C   UNL A   1      32.254  21.820  23.831  1.00  0.00     0.025 C 
ATOM     13  C   UNL A   1      34.724  20.725  25.002  1.00  0.00     0.006 C 
ATOM     14  C   UNL A   1      32.532  20.324  23.824  1.00  0.00     0.002 C 
ATOM     15  C   UNL A   1      33.419  19.935  25.002  1.00  0.00     0.000 C 
BRANCH   8  16
ATOM     16  C   UNL A   1      33.184  25.020  23.172  1.00  0.00     0.255 C 
ATOM     17  O   UNL A   1      34.018  25.096  22.270  1.00  0.00    -0.269 OA
BRANCH  16  18
ATOM     18  C   UNL A   1      32.071  25.970  23.244  1.00  0.00     0.053 A 
ATOM     19  C   UNL A   1      28.395  26.697  23.877  1.00  0.00     0.056 C 
ATOM     20  C   UNL A   1      29.859  26.692  23.601  1.00  0.00     0.003 A 
ATOM     21  C   UNL A   1      30.694  25.608  23.455  1.00  0.00     0.029 A 
ATOM     22  S   UNL A   1      30.720  28.157  23.478  1.00  0.00    -0.145 S 
ATOM     23  C   UNL A   1      32.221  27.349  23.282  1.00  0.00     0.014 A 
ATOM     24  C   UNL A   1      33.467  28.170  23.213  1.00  0.00     0.057 C 
ENDBRANCH  16  18
ENDBRANCH   8  16
ENDBRANCH   4   7
ENDBRANCH   2   3
ENDBRANCH   1   2
BRANCH   1  25
ATOM     25  C   UNL A   1      31.499  29.562  26.819  1.00  0.00     0.023 C 
BRANCH  25  26
ATOM     26  C   UNL A   1      32.719  30.398  26.464  1.00  0.00     0.116 C 
BRANCH  26  27
ATOM     27  N   UNL A   1      32.628  31.792  26.879  1.00  0.00    -0.352 N 
ATOM     28  C   UNL A   1      33.526  32.525  27.619  1.00  0.00     0.251 C 
ATOM     29  H   UNL A   1      31.817  32.272  26.592  1.00  0.00     0.163 HD
ATOM     30  O   UNL A   1      33.283  33.679  27.951  1.00  0.00    -0.269 OA
BRANCH  28  31
ATOM     31  C   UNL A   1      34.775  31.874  28.055  1.00  0.00     0.039 A 
ATOM     32  C   UNL A   1      35.931  32.648  28.185  1.00  0.00     0.014 A 
ATOM     33  C   UNL A   1      34.768  30.530  28.436  1.00  0.00     0.014 A 
ATOM     34  C   UNL A   1      37.058  32.094  28.792  1.00  0.00     0.010 A 
ATOM     35  C   UNL A   1      35.859  30.013  29.121  1.00  0.00     0.010 A 
ATOM     36  C   UNL A   1      37.012  30.790  29.310  1.00  0.00    -0.014 A 
BRANCH  36  37
ATOM     37  C   UNL A   1      38.155  30.212  30.058  1.00  0.00     0.031 A 
ATOM     38  C   UNL A   1      38.412  30.643  31.474  1.00  0.00     0.074 A 
ATOM     39  C   UNL A   1      39.008  29.375  29.436  1.00  0.00     0.049 A 
ATOM     40  N   UNL A   1      39.414  30.347  32.261  1.00  0.00    -0.248 NA
ATOM     41  C   UNL A   1      37.431  31.564  32.069  1.00  0.00     0.031 C 
ATOM     42  C   UNL A   1      38.902  28.932  28.044  1.00  0.00     0.029 A 
ATOM     43  N   UNL A   1      40.144  28.756  29.894  1.00  0.00    -0.354 N 
ATOM     44  C   UNL A   1      39.196  31.067  33.429  1.00  0.00     0.074 A 
ATOM     45  C   UNL A   1      38.001  31.856  33.228  1.00  0.00     0.031 C 
ATOM     46  C   UNL A   1      39.914  28.093  27.771  1.00  0.00     0.029 A 
ATOM     47  C   UNL A   1      40.759  27.965  28.954  1.00  0.00     0.049 A 
ATOM     48  H   UNL A   1      40.487  28.867  30.811  1.00  0.00     0.167 HD
ATOM     49  C   UNL A   1      39.915  31.049  34.575  1.00  0.00     0.037 A 
ATOM     50  C   UNL A   1      41.880  27.224  29.040  1.00  0.00     0.037 A 
ATOM     51  C   UNL A   1      41.073  30.226  34.788  1.00  0.00     0.049 A 
ATOM     52  C   UNL A   1      42.639  27.192  30.338  1.00  0.00     0.074 A 
ATOM     53  C   UNL A   1      41.829  30.079  35.937  1.00  0.00     0.029 A 
ATOM     54  N   UNL A   1      41.639  29.401  33.827  1.00  0.00    -0.354 N 
ATOM     55  N   UNL A   1      42.388  27.825  31.458  1.00  0.00    -0.248 NA
ATOM     56  C   UNL A   1      43.834  26.338  30.386  1.00  0.00     0.031 C 
ATOM     57  C   UNL A   1      42.871  29.187  35.663  1.00  0.00     0.029 A 
ATOM     58  C   UNL A   1      42.741  28.749  34.355  1.00  0.00     0.049 A 
ATOM     59  H   UNL A   1      41.306  29.294  32.907  1.00  0.00     0.167 HD
ATOM     60  C   UNL A   1      43.374  27.428  32.351  1.00  0.00     0.074 A 
ATOM     61  C   UNL A   1      44.221  26.488  31.645  1.00  0.00     0.031 C 
ATOM     62  C   UNL A   1      43.562  27.807  33.638  1.00  0.00     0.037 A 
BRANCH  49  63
ATOM     63  C   UNL A   1      39.452  31.938  35.692  1.00  0.00     0.064 A 
ATOM     64  C   UNL A   1      39.968  33.233  35.861  1.00  0.00     0.173 A 
ATOM     65  C   UNL A   1      38.470  31.500  36.592  1.00  0.00     0.173 A 
ATOM     66  F   UNL A   1      40.921  33.693  35.036  1.00  0.00    -0.203 F 
ATOM     67  C   UNL A   1      39.541  34.043  36.909  1.00  0.00     0.198 A 
ATOM     68  C   UNL A   1      38.023  32.324  37.621  1.00  0.00     0.198 A 
ATOM     69  F   UNL A   1      37.941  30.273  36.473  1.00  0.00    -0.203 F 
ATOM     70  F   UNL A   1      40.088  35.254  37.083  1.00  0.00    -0.200 F 
ATOM     71  C   UNL A   1      38.565  33.590  37.784  1.00  0.00     0.200 A 
ATOM     72  F   UNL A   1      37.073  31.890  38.461  1.00  0.00    -0.200 F 
ATOM     73  F   UNL A   1      38.153  34.372  38.792  1.00  0.00    -0.200 F 
ENDBRANCH  49  63
BRANCH  50  74
ATOM     74  C   UNL A   1      42.329  26.417  27.876  1.00  0.00     0.064 A 
ATOM     75  C   UNL A   1      43.279  26.926  26.978  1.00  0.00     0.173 A 
ATOM     76  C   UNL A   1      41.824  25.132  27.634  1.00  0.00     0.173 A 
ATOM     77  F   UNL A   1      43.775  28.159  27.157  1.00  0.00    -0.203 F 
ATOM     78  C   UNL A   1      43.691  26.187  25.871  1.00  0.00     0.198 A 
ATOM     79  C   UNL A   1      42.256  24.384  26.541  1.00  0.00     0.198 A 
ATOM     80  F   UNL A   1      40.919  24.600  28.467  1.00  0.00    -0.203 F 
ATOM     81  F   UNL A   1      44.568  26.714  25.005  1.00  0.00    -0.200 F 
ATOM     82  C   UNL A   1      43.183  24.915  25.656  1.00  0.00     0.200 A 
ATOM     83  F   UNL A   1      41.772  23.150  26.342  1.00  0.00    -0.200 F 
ATOM     84  F   UNL A   1      43.581  24.204  24.593  1.00  0.00    -0.200 F 
ENDBRANCH  50  74
BRANCH  62  85
ATOM     85  C   UNL A   1      44.704  27.180  34.378  1.00  0.00     0.064 A 
ATOM     86  C   UNL A   1      45.967  27.788  34.431  1.00  0.00     0.173 A 
ATOM     87  C   UNL A   1      44.519  25.980  35.083  1.00  0.00     0.173 A 
ATOM     88  F   UNL A   1      46.195  28.927  33.760  1.00  0.00    -0.203 F 
ATOM     89  C   UNL A   1      47.010  27.206  35.145  1.00  0.00     0.198 A 
ATOM     90  C   UNL A   1      45.556  25.415  35.818  1.00  0.00     0.198 A 
ATOM     91  F   UNL A   1      43.327  25.365  35.067  1.00  0.00    -0.203 F 
ATOM     92  F   UNL A   1      48.219  27.782  35.150  1.00  0.00    -0.200 F 
ATOM     93  C   UNL A   1      46.801  26.025  35.844  1.00  0.00     0.200 A 
ATOM     94  F   UNL A   1      45.351  24.282  36.501  1.00  0.00    -0.200 F 
ATOM     95  F   UNL A   1      47.805  25.472  36.538  1.00  0.00    -0.200 F 
ENDBRANCH  62  85
ENDBRANCH  36  37
ENDBRANCH  28  31
ENDBRANCH  26  27
ENDBRANCH  25  26
ENDBRANCH   1  25
TORSDOF 13
ENDMDL
MODEL 3
REMARK VINA RESULT:     -13.3      5.204      9.581
REMARK SMILES Cc1cc(C(=O)N2[C@@H](C(=O)NCCCCNC(=O)c3ccc(-c4c5nc(c(-c6c(F)c(F)c(F)c(F)c6F)c6ccc([nH]6)c(-c6c(F)c(F)c(F)c(F)c6F)c6nc(c(-c7c(F)c(F)c(F)c(F)c7F)c7ccc4[nH]7)C=C6)C=C5)cc3)C[C@H]3CCCC[C@H]32)c(C)s1
REMARK SMILES IDX 13 1 12 2 11 3 9 4 10 5 8 7 7 8 88 9 82 10 83 11 87 12 84 13
REMARK SMILES IDX 86 14 85 15 5 16 6 17 4 18 1 19 2 20 3 21 91 22 89 23 90 24
REMARK SMILES IDX 14 25 15 26 16 27 17 28 18 30 19 31 20 32 81 33 21 34 80 35
REMARK SMILES IDX 22 36 23 37 24 38 74 39 25 40 79 41 73 42 75 43 26 44 78 45
REMARK SMILES IDX 72 46 71 47 27 49 59 50 39 51 58 52 40 53 43 54 57 55 76 56
REMARK SMILES IDX 41 57 42 58 56 60 77 61 44 62 28 63 29 64 37 65 30 66 31 67
REMARK SMILES IDX 35 68 38 69 32 70 33 71 36 72 34 73 60 74 61 75 69 76 62 77
REMARK SMILES IDX 63 78 67 79 70 80 64 81 65 82 68 83 66 84 45 85 46 86 54 87
REMARK SMILES IDX 47 88 48 89 52 90 55 91 49 92 50 93 53 94 51 95
REMARK H PARENT 11 6 16 29 75 48 43 59
REMARK Flexibility Score: inf
ROOT
ATOM      1  C   UNL A   1      37.280  22.096  24.278  1.00  0.00     0.023 C 
ENDROOT
BRANCH   1   2
ATOM      2  C   UNL A   1      36.309  23.071  24.942  1.00  0.00     0.116 C 
BRANCH   2   3
ATOM      3  N   UNL A   1      35.371  23.655  24.005  1.00  0.00    -0.354 N 
ATOM      4  C   UNL A   1      34.404  24.601  24.136  1.00  0.00     0.242 C 
ATOM      5  O   UNL A   1      33.863  24.959  23.080  1.00  0.00    -0.273 OA
ATOM      6  H   UNL A   1      35.450  23.296  23.092  1.00  0.00     0.163 HD
BRANCH   4   7
ATOM      7  C   UNL A   1      33.854  25.155  25.479  1.00  0.00     0.175 C 
ATOM      8  N   UNL A   1      32.469  24.905  25.900  1.00  0.00    -0.323 N 
ATOM      9  C   UNL A   1      31.688  26.140  25.916  1.00  0.00     0.089 C 
ATOM     10  C   UNL A   1      33.958  26.699  25.439  1.00  0.00     0.041 C 
ATOM     11  C   UNL A   1      32.754  27.180  26.260  1.00  0.00     0.014 C 
ATOM     12  C   UNL A   1      31.009  26.420  24.571  1.00  0.00     0.025 C 
ATOM     13  C   UNL A   1      32.328  28.623  26.012  1.00  0.00     0.006 C 
ATOM     14  C   UNL A   1      30.505  27.851  24.452  1.00  0.00     0.002 C 
ATOM     15  C   UNL A   1      31.644  28.843  24.666  1.00  0.00     0.000 C 
BRANCH   8  16
ATOM     16  C   UNL A   1      31.938  23.742  26.442  1.00  0.00     0.255 C 
ATOM     17  O   UNL A   1      31.205  23.778  27.429  1.00  0.00    -0.269 OA
BRANCH  16  18
ATOM     18  C   UNL A   1      32.307  22.463  25.830  1.00  0.00     0.053 A 
ATOM     19  C   UNL A   1      32.233  20.085  22.866  1.00  0.00     0.056 C 
ATOM     20  C   UNL A   1      32.431  20.824  24.145  1.00  0.00     0.003 A 
ATOM     21  C   UNL A   1      31.847  22.004  24.546  1.00  0.00     0.029 A 
ATOM     22  S   UNL A   1      33.532  20.250  25.311  1.00  0.00    -0.145 S 
ATOM     23  C   UNL A   1      33.273  21.604  26.334  1.00  0.00     0.014 A 
ATOM     24  C   UNL A   1      34.097  21.726  27.574  1.00  0.00     0.057 C 
ENDBRANCH  16  18
ENDBRANCH   8  16
ENDBRANCH   4   7
ENDBRANCH   2   3
ENDBRANCH   1   2
BRANCH   1  25
ATOM     25  C   UNL A   1      37.639  20.868  25.100  1.00  0.00     0.023 C 
BRANCH  25  26
ATOM     26  C   UNL A   1      38.949  20.960  25.867  1.00  0.00     0.116 C 
BRANCH  26  27
ATOM     27  N   UNL A   1      39.776  19.762  25.783  1.00  0.00    -0.352 N 
ATOM     28  C   UNL A   1      41.123  19.633  26.031  1.00  0.00     0.251 C 
ATOM     29  H   UNL A   1      39.309  18.939  25.513  1.00  0.00     0.163 HD
ATOM     30  O   UNL A   1      41.701  18.568  25.852  1.00  0.00    -0.269 OA
BRANCH  28  31
ATOM     31  C   UNL A   1      41.875  20.824  26.468  1.00  0.00     0.039 A 
ATOM     32  C   UNL A   1      42.337  21.722  25.504  1.00  0.00     0.014 A 
ATOM     33  C   UNL A   1      42.020  21.099  27.830  1.00  0.00     0.014 A 
ATOM     34  C   UNL A   1      42.863  22.949  25.910  1.00  0.00     0.010 A 
ATOM     35  C   UNL A   1      42.457  22.355  28.226  1.00  0.00     0.010 A 
ATOM     36  C   UNL A   1      42.877  23.294  27.271  1.00  0.00    -0.014 A 
BRANCH  36  37
ATOM     37  C   UNL A   1      43.326  24.632  27.727  1.00  0.00     0.031 A 
ATOM     38  C   UNL A   1      42.308  25.678  28.080  1.00  0.00     0.074 A 
ATOM     39  C   UNL A   1      44.640  24.932  27.735  1.00  0.00     0.049 A 
ATOM     40  N   UNL A   1      42.485  26.936  28.390  1.00  0.00    -0.248 NA
ATOM     41  C   UNL A   1      40.897  25.262  28.039  1.00  0.00     0.031 C 
ATOM     42  C   UNL A   1      45.722  24.023  27.351  1.00  0.00     0.029 A 
ATOM     43  N   UNL A   1      45.288  26.096  28.065  1.00  0.00    -0.354 N 
ATOM     44  C   UNL A   1      41.211  27.464  28.551  1.00  0.00     0.074 A 
ATOM     45  C   UNL A   1      40.270  26.409  28.250  1.00  0.00     0.031 C 
ATOM     46  C   UNL A   1      46.898  24.654  27.495  1.00  0.00     0.029 A 
ATOM     47  C   UNL A   1      46.654  26.020  27.946  1.00  0.00     0.049 A 
ATOM     48  H   UNL A   1      44.818  26.909  28.362  1.00  0.00     0.167 HD
ATOM     49  C   UNL A   1      40.859  28.711  28.942  1.00  0.00     0.037 A 
ATOM     50  C   UNL A   1      47.600  26.951  28.174  1.00  0.00     0.037 A 
ATOM     51  C   UNL A   1      41.798  29.743  29.289  1.00  0.00     0.049 A 
ATOM     52  C   UNL A   1      47.184  28.317  28.644  1.00  0.00     0.074 A 
ATOM     53  C   UNL A   1      41.545  31.016  29.767  1.00  0.00     0.029 A 
ATOM     54  N   UNL A   1      43.176  29.613  29.200  1.00  0.00    -0.354 N 
ATOM     55  N   UNL A   1      45.979  28.787  28.857  1.00  0.00    -0.248 NA
ATOM     56  C   UNL A   1      48.260  29.282  28.912  1.00  0.00     0.031 C 
ATOM     57  C   UNL A   1      42.770  31.668  29.940  1.00  0.00     0.029 A 
ATOM     58  C   UNL A   1      43.787  30.788  29.607  1.00  0.00     0.049 A 
ATOM     59  H   UNL A   1      43.649  28.806  28.896  1.00  0.00     0.167 HD
ATOM     60  C   UNL A   1      46.150  30.089  29.308  1.00  0.00     0.074 A 
ATOM     61  C   UNL A   1      47.577  30.331  29.350  1.00  0.00     0.031 C 
ATOM     62  C   UNL A   1      45.211  31.002  29.654  1.00  0.00     0.037 A 
BRANCH  49  63
ATOM     63  C   UNL A   1      39.393  29.017  29.030  1.00  0.00     0.064 A 
ATOM     64  C   UNL A   1      38.698  28.937  30.248  1.00  0.00     0.173 A 
ATOM     65  C   UNL A   1      38.677  29.412  27.891  1.00  0.00     0.173 A 
ATOM     66  F   UNL A   1      39.334  28.548  31.364  1.00  0.00    -0.203 F 
ATOM     67  C   UNL A   1      37.335  29.210  30.314  1.00  0.00     0.198 A 
ATOM     68  C   UNL A   1      37.320  29.713  27.967  1.00  0.00     0.198 A 
ATOM     69  F   UNL A   1      39.294  29.508  26.704  1.00  0.00    -0.203 F 
ATOM     70  F   UNL A   1      36.682  29.073  31.477  1.00  0.00    -0.200 F 
ATOM     71  C   UNL A   1      36.648  29.603  29.175  1.00  0.00     0.200 A 
ATOM     72  F   UNL A   1      36.659  30.103  26.868  1.00  0.00    -0.200 F 
ATOM     73  F   UNL A   1      35.336  29.868  29.241  1.00  0.00    -0.200 F 
ENDBRANCH  49  63
BRANCH  50  74
ATOM     74  C   UNL A   1      49.036  26.610  28.002  1.00  0.00     0.064 A 
ATOM     75  C   UNL A   1      49.606  26.542  26.722  1.00  0.00     0.173 A 
ATOM     76  C   UNL A   1      49.864  26.344  29.100  1.00  0.00     0.173 A 
ATOM     77  F   UNL A   1      48.847  26.769  25.640  1.00  0.00    -0.203 F 
ATOM     78  C   UNL A   1      50.946  26.202  26.548  1.00  0.00     0.198 A 
ATOM     79  C   UNL A   1      51.211  26.029  28.926  1.00  0.00     0.198 A 
ATOM     80  F   UNL A   1      49.368  26.402  30.344  1.00  0.00    -0.203 F 
ATOM     81  F   UNL A   1      51.454  26.103  25.312  1.00  0.00    -0.200 F 
ATOM     82  C   UNL A   1      51.748  25.950  27.650  1.00  0.00     0.200 A 
ATOM     83  F   UNL A   1      51.986  25.797  29.994  1.00  0.00    -0.200 F 
ATOM     84  F   UNL A   1      53.036  25.625  27.482  1.00  0.00    -0.200 F 
ENDBRANCH  50  74
BRANCH  62  85
ATOM     85  C   UNL A   1      45.695  32.332  30.144  1.00  0.00     0.064 A 
ATOM     86  C   UNL A   1      45.881  33.413  29.269  1.00  0.00     0.173 A 
ATOM     87  C   UNL A   1      45.930  32.543  31.511  1.00  0.00     0.173 A 
ATOM     88  F   UNL A   1      45.685  33.255  27.951  1.00  0.00    -0.203 F 
ATOM     89  C   UNL A   1      46.306  34.650  29.743  1.00  0.00     0.198 A 
ATOM     90  C   UNL A   1      46.328  33.788  31.986  1.00  0.00     0.198 A 
ATOM     91  F   UNL A   1      45.759  31.541  32.387  1.00  0.00    -0.203 F 
ATOM     92  F   UNL A   1      46.516  35.658  28.886  1.00  0.00    -0.200 F 
ATOM     93  C   UNL A   1      46.521  34.839  31.101  1.00  0.00     0.200 A 
ATOM     94  F   UNL A   1      46.525  33.972  33.298  1.00  0.00    -0.200 F 
ATOM     95  F   UNL A   1      46.921  36.034  31.557  1.00  0.00    -0.200 F 
ENDBRANCH  62  85
ENDBRANCH  36  37
ENDBRANCH  28  31
ENDBRANCH  26  27
ENDBRANCH  25  26
ENDBRANCH   1  25
TORSDOF 13
ENDMDL
