MODEL 1
REMARK VINA RESULT:     -11.0      0.000      0.000
REMARK SMILES C=CC[NH2+]CC(=O)N1CCOC[C@@H]1C(=O)NCCCCNC(=O)c1ccc(-c2c3nc(c(-c4c(F)c(F)c(F)c(F)c4F)c4ccc([nH]4)c(-c4c(F)c(F)c(F)c(F)c4F)c4nc(c(-c5c(F)c(F)c(F)c(F)c5F)c5ccc2[nH]5)C=C4)C=C3)cc1
REMARK SMILES IDX 17 1 16 2 14 3 15 4 13 6 8 7 9 8 10 9 12 10 11 11 6 12 7 13
REMARK SMILES IDX 5 14 4 15 3 18 2 19 1 20 18 21 19 22 20 23 21 24 22 25 23 27
REMARK SMILES IDX 24 28 25 29 86 30 26 31 85 32 27 33 28 34 29 35 79 36 30 37
REMARK SMILES IDX 84 38 78 39 80 40 31 41 83 42 77 43 76 44 32 46 64 47 44 48
REMARK SMILES IDX 63 49 45 50 48 51 62 52 81 53 46 54 47 55 61 57 82 58 49 59
REMARK SMILES IDX 33 60 34 61 42 62 35 63 36 64 40 65 43 66 37 67 38 68 41 69
REMARK SMILES IDX 39 70 65 71 66 72 74 73 67 74 68 75 72 76 75 77 69 78 70 79
REMARK SMILES IDX 73 80 71 81 50 82 51 83 59 84 52 85 53 86 57 87 60 88 54 89
REMARK SMILES IDX 55 90 58 91 56 92
REMARK H PARENT 16 5 4 16 4 17 21 26 80 45 48 56
REMARK Flexibility Score: inf
ROOT
ATOM      1  C   UNL A   1      32.965  29.782  25.868  1.00  0.00     0.116 C 
ENDROOT
BRANCH   1   2
ATOM      2  N   UNL A   1      33.120  28.353  26.075  1.00  0.00    -0.354 N 
ATOM      3  C   UNL A   1      33.099  27.306  25.192  1.00  0.00     0.245 C 
ATOM      4  O   UNL A   1      33.103  26.171  25.681  1.00  0.00    -0.273 OA
ATOM      5  H   UNL A   1      33.265  28.092  27.013  1.00  0.00     0.163 HD
BRANCH   3   6
ATOM      6  C   UNL A   1      32.829  27.518  23.687  1.00  0.00     0.200 C 
ATOM      7  N   UNL A   1      31.545  26.923  23.259  1.00  0.00    -0.321 N 
ATOM      8  C   UNL A   1      31.500  26.397  21.894  1.00  0.00     0.149 C 
ATOM      9  C   UNL A   1      32.802  25.808  21.370  1.00  0.00     0.181 C 
ATOM     10  C   UNL A   1      34.064  26.914  22.985  1.00  0.00     0.195 C 
ATOM     11  O   UNL A   1      33.873  26.724  21.580  1.00  0.00    -0.377 OA
BRANCH   7  12
ATOM     12  C   UNL A   1      30.385  27.422  23.869  1.00  0.00     0.278 C 
ATOM     13  O   UNL A   1      29.544  26.676  24.372  1.00  0.00    -0.268 OA
BRANCH  12  14
ATOM     14  C   UNL A   1      30.107  28.936  23.742  1.00  0.00     0.362 C 
BRANCH  14  15
ATOM     15  N   UNL A   1      29.617  29.354  22.414  1.00  0.00    -0.335 N 
ATOM     16  H   UNL A   1      29.996  30.276  22.192  1.00  0.00     0.347 HD
ATOM     17  H   UNL A   1      29.920  28.672  21.719  1.00  0.00     0.347 HD
BRANCH  15  18
ATOM     18  C   UNL A   1      28.170  29.421  22.404  1.00  0.00     0.289 C 
BRANCH  18  19
ATOM     19  C   UNL A   1      27.589  30.791  22.420  1.00  0.00     0.025 C 
ATOM     20  C   UNL A   1      27.645  31.558  23.518  1.00  0.00     0.010 C 
ENDBRANCH  18  19
ENDBRANCH  15  18
ENDBRANCH  14  15
ENDBRANCH  12  14
ENDBRANCH   7  12
ENDBRANCH   3   6
ENDBRANCH   1   2
BRANCH   1  21
ATOM     21  C   UNL A   1      31.822  30.379  26.679  1.00  0.00     0.023 C 
BRANCH  21  22
ATOM     22  C   UNL A   1      31.725  31.897  26.624  1.00  0.00     0.023 C 
BRANCH  22  23
ATOM     23  C   UNL A   1      32.785  32.635  27.431  1.00  0.00     0.116 C 
BRANCH  23  24
ATOM     24  N   UNL A   1      32.451  34.031  27.674  1.00  0.00    -0.352 N 
ATOM     25  C   UNL A   1      33.010  34.907  28.573  1.00  0.00     0.251 C 
ATOM     26  H   UNL A   1      31.725  34.398  27.118  1.00  0.00     0.163 HD
ATOM     27  O   UNL A   1      32.523  36.021  28.744  1.00  0.00    -0.269 OA
BRANCH  25  28
ATOM     28  C   UNL A   1      34.179  34.478  29.363  1.00  0.00     0.039 A 
ATOM     29  C   UNL A   1      33.974  33.888  30.611  1.00  0.00     0.014 A 
ATOM     30  C   UNL A   1      35.470  34.602  28.840  1.00  0.00     0.014 A 
ATOM     31  C   UNL A   1      35.059  33.349  31.303  1.00  0.00     0.010 A 
ATOM     32  C   UNL A   1      36.534  33.988  29.489  1.00  0.00     0.010 A 
ATOM     33  C   UNL A   1      36.340  33.354  30.726  1.00  0.00    -0.014 A 
BRANCH  33  34
ATOM     34  C   UNL A   1      37.490  32.698  31.396  1.00  0.00     0.031 A 
ATOM     35  C   UNL A   1      38.186  31.544  30.734  1.00  0.00     0.074 A 
ATOM     36  C   UNL A   1      37.855  33.092  32.631  1.00  0.00     0.049 A 
ATOM     37  N   UNL A   1      39.155  30.790  31.189  1.00  0.00    -0.248 NA
ATOM     38  C   UNL A   1      37.711  31.164  29.394  1.00  0.00     0.031 C 
ATOM     39  C   UNL A   1      37.219  34.161  33.402  1.00  0.00     0.029 A 
ATOM     40  N   UNL A   1      38.844  32.629  33.463  1.00  0.00    -0.354 N 
ATOM     41  C   UNL A   1      39.387  29.839  30.204  1.00  0.00     0.074 A 
ATOM     42  C   UNL A   1      38.426  30.077  29.150  1.00  0.00     0.031 C 
ATOM     43  C   UNL A   1      37.846  34.287  34.583  1.00  0.00     0.029 A 
ATOM     44  C   UNL A   1      38.903  33.283  34.669  1.00  0.00     0.049 A 
ATOM     45  H   UNL A   1      39.455  31.896  33.218  1.00  0.00     0.167 HD
ATOM     46  C   UNL A   1      40.332  28.871  30.173  1.00  0.00     0.037 A 
ATOM     47  C   UNL A   1      39.712  33.091  35.728  1.00  0.00     0.037 A 
ATOM     48  C   UNL A   1      41.309  28.661  31.209  1.00  0.00     0.049 A 
ATOM     49  C   UNL A   1      40.766  32.018  35.661  1.00  0.00     0.074 A 
ATOM     50  C   UNL A   1      42.356  27.758  31.236  1.00  0.00     0.029 A 
ATOM     51  N   UNL A   1      41.355  29.365  32.404  1.00  0.00    -0.354 N 
ATOM     52  N   UNL A   1      41.025  31.174  34.691  1.00  0.00    -0.248 NA
ATOM     53  C   UNL A   1      41.642  31.876  36.832  1.00  0.00     0.031 C 
ATOM     54  C   UNL A   1      43.006  27.880  32.467  1.00  0.00     0.029 A 
ATOM     55  C   UNL A   1      42.400  28.898  33.186  1.00  0.00     0.049 A 
ATOM     56  H   UNL A   1      40.738  30.088  32.659  1.00  0.00     0.167 HD
ATOM     57  C   UNL A   1      42.108  30.420  35.122  1.00  0.00     0.074 A 
ATOM     58  C   UNL A   1      42.466  30.916  36.434  1.00  0.00     0.031 C 
ATOM     59  C   UNL A   1      42.747  29.407  34.488  1.00  0.00     0.037 A 
BRANCH  46  60
ATOM     60  C   UNL A   1      40.362  27.965  28.977  1.00  0.00     0.064 A 
ATOM     61  C   UNL A   1      41.128  28.268  27.841  1.00  0.00     0.173 A 
ATOM     62  C   UNL A   1      39.652  26.755  28.985  1.00  0.00     0.173 A 
ATOM     63  F   UNL A   1      41.815  29.420  27.778  1.00  0.00    -0.203 F 
ATOM     64  C   UNL A   1      41.162  27.407  26.748  1.00  0.00     0.198 A 
ATOM     65  C   UNL A   1      39.714  25.881  27.903  1.00  0.00     0.198 A 
ATOM     66  F   UNL A   1      38.908  26.414  30.047  1.00  0.00    -0.203 F 
ATOM     67  F   UNL A   1      41.864  27.741  25.656  1.00  0.00    -0.200 F 
ATOM     68  C   UNL A   1      40.462  26.210  26.783  1.00  0.00     0.200 A 
ATOM     69  F   UNL A   1      39.048  24.718  27.943  1.00  0.00    -0.200 F 
ATOM     70  F   UNL A   1      40.505  25.376  25.735  1.00  0.00    -0.200 F 
ENDBRANCH  46  60
BRANCH  47  71
ATOM     71  C   UNL A   1      39.575  33.952  36.931  1.00  0.00     0.064 A 
ATOM     72  C   UNL A   1      38.799  33.542  38.025  1.00  0.00     0.173 A 
ATOM     73  C   UNL A   1      40.217  35.195  37.016  1.00  0.00     0.173 A 
ATOM     74  F   UNL A   1      38.149  32.370  37.983  1.00  0.00    -0.203 F 
ATOM     75  C   UNL A   1      38.657  34.351  39.151  1.00  0.00     0.198 A 
ATOM     76  C   UNL A   1      40.097  35.991  38.154  1.00  0.00     0.198 A 
ATOM     77  F   UNL A   1      40.975  35.630  36.000  1.00  0.00    -0.203 F 
ATOM     78  F   UNL A   1      37.876  33.954  40.164  1.00  0.00    -0.200 F 
ATOM     79  C   UNL A   1      39.311  35.572  39.217  1.00  0.00     0.200 A 
ATOM     80  F   UNL A   1      40.743  37.163  38.222  1.00  0.00    -0.200 F 
ATOM     81  F   UNL A   1      39.180  36.346  40.303  1.00  0.00    -0.200 F 
ENDBRANCH  47  71
BRANCH  59  82
ATOM     82  C   UNL A   1      43.922  28.787  35.186  1.00  0.00     0.064 A 
ATOM     83  C   UNL A   1      45.222  29.289  35.025  1.00  0.00     0.173 A 
ATOM     84  C   UNL A   1      43.738  27.708  36.065  1.00  0.00     0.173 A 
ATOM     85  F   UNL A   1      45.453  30.309  34.187  1.00  0.00    -0.203 F 
ATOM     86  C   UNL A   1      46.297  28.717  35.701  1.00  0.00     0.198 A 
ATOM     87  C   UNL A   1      44.810  27.160  36.762  1.00  0.00     0.198 A 
ATOM     88  F   UNL A   1      42.512  27.197  36.259  1.00  0.00    -0.203 F 
ATOM     89  F   UNL A   1      47.538  29.183  35.498  1.00  0.00    -0.200 F 
ATOM     90  C   UNL A   1      46.089  27.659  36.574  1.00  0.00     0.200 A 
ATOM     91  F   UNL A   1      44.604  26.148  37.616  1.00  0.00    -0.200 F 
ATOM     92  F   UNL A   1      47.124  27.117  37.231  1.00  0.00    -0.200 F 
ENDBRANCH  59  82
ENDBRANCH  33  34
ENDBRANCH  25  28
ENDBRANCH  23  24
ENDBRANCH  22  23
ENDBRANCH  21  22
ENDBRANCH   1  21
TORSDOF 16
ENDMDL
MODEL 2
REMARK VINA RESULT:     -11.0      6.308     11.582
REMARK SMILES C=CC[NH2+]CC(=O)N1CCOC[C@@H]1C(=O)NCCCCNC(=O)c1ccc(-c2c3nc(c(-c4c(F)c(F)c(F)c(F)c4F)c4ccc([nH]4)c(-c4c(F)c(F)c(F)c(F)c4F)c4nc(c(-c5c(F)c(F)c(F)c(F)c5F)c5ccc2[nH]5)C=C4)C=C3)cc1
REMARK SMILES IDX 17 1 16 2 14 3 15 4 13 6 8 7 9 8 10 9 12 10 11 11 6 12 7 13
REMARK SMILES IDX 5 14 4 15 3 18 2 19 1 20 18 21 19 22 20 23 21 24 22 25 23 27
REMARK SMILES IDX 24 28 25 29 86 30 26 31 85 32 27 33 28 34 29 35 79 36 30 37
REMARK SMILES IDX 84 38 78 39 80 40 31 41 83 42 77 43 76 44 32 46 64 47 44 48
REMARK SMILES IDX 63 49 45 50 48 51 62 52 81 53 46 54 47 55 61 57 82 58 49 59
REMARK SMILES IDX 33 60 34 61 42 62 35 63 36 64 40 65 43 66 37 67 38 68 41 69
REMARK SMILES IDX 39 70 65 71 66 72 74 73 67 74 68 75 72 76 75 77 69 78 70 79
REMARK SMILES IDX 73 80 71 81 50 82 51 83 59 84 52 85 53 86 57 87 60 88 54 89
REMARK SMILES IDX 55 90 58 91 56 92
REMARK H PARENT 16 5 4 16 4 17 21 26 80 45 48 56
REMARK Flexibility Score: inf
ROOT
ATOM      1  C   UNL A   1      36.386  21.879  25.507  1.00  0.00     0.116 C 
ENDROOT
BRANCH   1   2
ATOM      2  N   UNL A   1      35.550  21.925  26.693  1.00  0.00    -0.354 N 
ATOM      3  C   UNL A   1      34.345  22.535  26.926  1.00  0.00     0.245 C 
ATOM      4  O   UNL A   1      33.940  22.531  28.093  1.00  0.00    -0.273 OA
ATOM      5  H   UNL A   1      35.912  21.432  27.465  1.00  0.00     0.163 HD
BRANCH   3   6
ATOM      6  C   UNL A   1      33.651  23.397  25.850  1.00  0.00     0.200 C 
ATOM      7  N   UNL A   1      33.140  22.585  24.725  1.00  0.00    -0.321 N 
ATOM      8  C   UNL A   1      33.158  23.221  23.407  1.00  0.00     0.149 C 
ATOM      9  C   UNL A   1      34.301  24.196  23.160  1.00  0.00     0.181 C 
ATOM     10  C   UNL A   1      34.718  24.434  25.439  1.00  0.00     0.195 C 
ATOM     11  O   UNL A   1      34.388  25.129  24.233  1.00  0.00    -0.377 OA
BRANCH   7  12
ATOM     12  C   UNL A   1      32.176  21.615  25.035  1.00  0.00     0.278 C 
ATOM     13  O   UNL A   1      31.180  21.881  25.708  1.00  0.00    -0.268 OA
BRANCH  12  14
ATOM     14  C   UNL A   1      32.488  20.151  24.651  1.00  0.00     0.362 C 
BRANCH  14  15
ATOM     15  N   UNL A   1      32.918  19.304  25.781  1.00  0.00    -0.335 N 
ATOM     16  H   UNL A   1      33.797  19.665  26.154  1.00  0.00     0.347 HD
ATOM     17  H   UNL A   1      32.196  19.322  26.501  1.00  0.00     0.347 HD
BRANCH  15  18
ATOM     18  C   UNL A   1      33.112  17.936  25.346  1.00  0.00     0.289 C 
BRANCH  18  19
ATOM     19  C   UNL A   1      33.949  17.761  24.128  1.00  0.00     0.025 C 
ATOM     20  C   UNL A   1      34.028  16.578  23.501  1.00  0.00     0.010 C 
ENDBRANCH  18  19
ENDBRANCH  15  18
ENDBRANCH  14  15
ENDBRANCH  12  14
ENDBRANCH   7  12
ENDBRANCH   3   6
ENDBRANCH   1   2
BRANCH   1  21
ATOM     21  C   UNL A   1      36.674  20.458  25.039  1.00  0.00     0.023 C 
BRANCH  21  22
ATOM     22  C   UNL A   1      38.118  20.202  24.630  1.00  0.00     0.023 C 
BRANCH  22  23
ATOM     23  C   UNL A   1      39.138  20.365  25.749  1.00  0.00     0.116 C 
BRANCH  23  24
ATOM     24  N   UNL A   1      40.026  19.219  25.886  1.00  0.00    -0.352 N 
ATOM     25  C   UNL A   1      41.379  19.202  26.126  1.00  0.00     0.251 C 
ATOM     26  H   UNL A   1      39.599  18.337  25.794  1.00  0.00     0.163 HD
ATOM     27  O   UNL A   1      42.006  18.147  26.086  1.00  0.00    -0.269 OA
BRANCH  25  28
ATOM     28  C   UNL A   1      42.078  20.473  26.395  1.00  0.00     0.039 A 
ATOM     29  C   UNL A   1      42.510  21.247  25.318  1.00  0.00     0.014 A 
ATOM     30  C   UNL A   1      42.248  20.923  27.707  1.00  0.00     0.014 A 
ATOM     31  C   UNL A   1      43.043  22.515  25.554  1.00  0.00     0.010 A 
ATOM     32  C   UNL A   1      42.697  22.219  27.934  1.00  0.00     0.010 A 
ATOM     33  C   UNL A   1      43.097  23.028  26.860  1.00  0.00    -0.014 A 
BRANCH  33  34
ATOM     34  C   UNL A   1      43.565  24.411  27.127  1.00  0.00     0.031 A 
ATOM     35  C   UNL A   1      42.603  25.444  27.641  1.00  0.00     0.074 A 
ATOM     36  C   UNL A   1      44.834  24.754  26.833  1.00  0.00     0.049 A 
ATOM     37  N   UNL A   1      42.797  26.719  27.860  1.00  0.00    -0.248 NA
ATOM     38  C   UNL A   1      41.230  24.990  27.916  1.00  0.00     0.031 C 
ATOM     39  C   UNL A   1      45.846  23.857  26.274  1.00  0.00     0.029 A 
ATOM     40  N   UNL A   1      45.487  25.956  26.951  1.00  0.00    -0.354 N 
ATOM     41  C   UNL A   1      41.570  27.221  28.275  1.00  0.00     0.074 A 
ATOM     42  C   UNL A   1      40.626  26.126  28.230  1.00  0.00     0.031 C 
ATOM     43  C   UNL A   1      46.997  24.532  26.119  1.00  0.00     0.029 A 
ATOM     44  C   UNL A   1      46.794  25.918  26.531  1.00  0.00     0.049 A 
ATOM     45  H   UNL A   1      45.059  26.769  27.305  1.00  0.00     0.167 HD
ATOM     46  C   UNL A   1      41.266  28.476  28.681  1.00  0.00     0.037 A 
ATOM     47  C   UNL A   1      47.722  26.892  26.474  1.00  0.00     0.037 A 
ATOM     48  C   UNL A   1      42.218  29.553  28.759  1.00  0.00     0.049 A 
ATOM     49  C   UNL A   1      47.362  28.275  26.947  1.00  0.00     0.074 A 
ATOM     50  C   UNL A   1      42.027  30.840  29.230  1.00  0.00     0.029 A 
ATOM     51  N   UNL A   1      43.542  29.468  28.351  1.00  0.00    -0.354 N 
ATOM     52  N   UNL A   1      46.219  28.719  27.410  1.00  0.00    -0.248 NA
ATOM     53  C   UNL A   1      48.424  29.290  26.895  1.00  0.00     0.031 C 
ATOM     54  C   UNL A   1      43.220  31.548  29.061  1.00  0.00     0.029 A 
ATOM     55  C   UNL A   1      44.172  30.688  28.538  1.00  0.00     0.049 A 
ATOM     56  H   UNL A   1      43.969  28.661  27.983  1.00  0.00     0.167 HD
ATOM     57  C   UNL A   1      46.429  30.054  27.729  1.00  0.00     0.074 A 
ATOM     58  C   UNL A   1      47.814  30.343  27.421  1.00  0.00     0.031 C 
ATOM     59  C   UNL A   1      45.553  30.958  28.231  1.00  0.00     0.037 A 
BRANCH  46  60
ATOM     60  C   UNL A   1      39.846  28.755  29.080  1.00  0.00     0.064 A 
ATOM     61  C   UNL A   1      38.893  29.196  28.150  1.00  0.00     0.173 A 
ATOM     62  C   UNL A   1      39.423  28.533  30.399  1.00  0.00     0.173 A 
ATOM     63  F   UNL A   1      39.250  29.436  26.878  1.00  0.00    -0.203 F 
ATOM     64  C   UNL A   1      37.575  29.430  28.530  1.00  0.00     0.198 A 
ATOM     65  C   UNL A   1      38.096  28.737  30.769  1.00  0.00     0.198 A 
ATOM     66  F   UNL A   1      40.292  28.106  31.326  1.00  0.00    -0.203 F 
ATOM     67  F   UNL A   1      36.693  29.896  27.635  1.00  0.00    -0.200 F 
ATOM     68  C   UNL A   1      37.175  29.192  29.838  1.00  0.00     0.200 A 
ATOM     69  F   UNL A   1      37.708  28.494  32.029  1.00  0.00    -0.200 F 
ATOM     70  F   UNL A   1      35.903  29.405  30.200  1.00  0.00    -0.200 F 
ENDBRANCH  46  60
BRANCH  47  71
ATOM     71  C   UNL A   1      49.088  26.586  25.976  1.00  0.00     0.064 A 
ATOM     72  C   UNL A   1      50.046  26.001  26.816  1.00  0.00     0.173 A 
ATOM     73  C   UNL A   1      49.462  26.865  24.654  1.00  0.00     0.173 A 
ATOM     74  F   UNL A   1      49.742  25.734  28.095  1.00  0.00    -0.203 F 
ATOM     75  C   UNL A   1      51.333  25.723  26.358  1.00  0.00     0.198 A 
ATOM     76  C   UNL A   1      50.740  26.560  24.189  1.00  0.00     0.198 A 
ATOM     77  F   UNL A   1      48.581  27.418  23.809  1.00  0.00    -0.203 F 
ATOM     78  F   UNL A   1      52.241  25.203  27.194  1.00  0.00    -0.200 F 
ATOM     79  C   UNL A   1      51.676  25.996  25.043  1.00  0.00     0.200 A 
ATOM     80  F   UNL A   1      51.064  26.812  22.913  1.00  0.00    -0.200 F 
ATOM     81  F   UNL A   1      52.911  25.722  24.600  1.00  0.00    -0.200 F 
ENDBRANCH  47  71
BRANCH  59  82
ATOM     82  C   UNL A   1      46.071  32.339  28.513  1.00  0.00     0.064 A 
ATOM     83  C   UNL A   1      46.060  33.342  27.533  1.00  0.00     0.173 A 
ATOM     84  C   UNL A   1      46.538  32.674  29.792  1.00  0.00     0.173 A 
ATOM     85  F   UNL A   1      45.637  33.070  26.291  1.00  0.00    -0.203 F 
ATOM     86  C   UNL A   1      46.521  34.625  27.820  1.00  0.00     0.198 A 
ATOM     87  C   UNL A   1      46.968  33.964  30.084  1.00  0.00     0.198 A 
ATOM     88  F   UNL A   1      46.561  31.751  30.766  1.00  0.00    -0.203 F 
ATOM     89  F   UNL A   1      46.544  35.557  26.857  1.00  0.00    -0.200 F 
ATOM     90  C   UNL A   1      46.966  34.937  29.096  1.00  0.00     0.200 A 
ATOM     91  F   UNL A   1      47.383  34.267  31.321  1.00  0.00    -0.200 F 
ATOM     92  F   UNL A   1      47.399  36.175  29.372  1.00  0.00    -0.200 F 
ENDBRANCH  59  82
ENDBRANCH  33  34
ENDBRANCH  25  28
ENDBRANCH  23  24
ENDBRANCH  22  23
ENDBRANCH  21  22
ENDBRANCH   1  21
TORSDOF 16
ENDMDL
MODEL 3
REMARK VINA RESULT:     -11.0      1.543      7.663
REMARK SMILES C=CC[NH2+]CC(=O)N1CCOC[C@@H]1C(=O)NCCCCNC(=O)c1ccc(-c2c3nc(c(-c4c(F)c(F)c(F)c(F)c4F)c4ccc([nH]4)c(-c4c(F)c(F)c(F)c(F)c4F)c4nc(c(-c5c(F)c(F)c(F)c(F)c5F)c5ccc2[nH]5)C=C4)C=C3)cc1
REMARK SMILES IDX 17 1 16 2 14 3 15 4 13 6 8 7 9 8 10 9 12 10 11 11 6 12 7 13
REMARK SMILES IDX 5 14 4 15 3 18 2 19 1 20 18 21 19 22 20 23 21 24 22 25 23 27
REMARK SMILES IDX 24 28 25 29 86 30 26 31 85 32 27 33 28 34 29 35 79 36 30 37
REMARK SMILES IDX 84 38 78 39 80 40 31 41 83 42 77 43 76 44 32 46 64 47 44 48
REMARK SMILES IDX 63 49 45 50 48 51 62 52 81 53 46 54 47 55 61 57 82 58 49 59
REMARK SMILES IDX 33 60 34 61 42 62 35 63 36 64 40 65 43 66 37 67 38 68 41 69
REMARK SMILES IDX 39 70 65 71 66 72 74 73 67 74 68 75 72 76 75 77 69 78 70 79
REMARK SMILES IDX 73 80 71 81 50 82 51 83 59 84 52 85 53 86 57 87 60 88 54 89
REMARK SMILES IDX 55 90 58 91 56 92
REMARK H PARENT 16 5 4 16 4 17 21 26 80 45 48 56
REMARK Flexibility Score: inf
ROOT
ATOM      1  C   UNL A   1      32.453  29.778  25.808  1.00  0.00     0.116 C 
ENDROOT
BRANCH   1   2
ATOM      2  N   UNL A   1      33.228  29.704  24.583  1.00  0.00    -0.354 N 
ATOM      3  C   UNL A   1      33.434  28.673  23.705  1.00  0.00     0.245 C 
ATOM      4  O   UNL A   1      34.277  28.860  22.822  1.00  0.00    -0.273 OA
ATOM      5  H   UNL A   1      33.685  30.542  24.340  1.00  0.00     0.163 HD
BRANCH   3   6
ATOM      6  C   UNL A   1      32.841  27.269  23.950  1.00  0.00     0.200 C 
ATOM      7  N   UNL A   1      31.363  27.281  23.975  1.00  0.00    -0.321 N 
ATOM      8  C   UNL A   1      30.723  26.316  24.868  1.00  0.00     0.149 C 
ATOM      9  C   UNL A   1      31.485  25.994  26.146  1.00  0.00     0.181 C 
ATOM     10  C   UNL A   1      33.486  26.803  25.273  1.00  0.00     0.195 C 
ATOM     11  O   UNL A   1      32.836  25.662  25.841  1.00  0.00    -0.377 OA
BRANCH   7  12
ATOM     12  C   UNL A   1      30.717  27.708  22.805  1.00  0.00     0.278 C 
ATOM     13  O   UNL A   1      31.028  27.271  21.696  1.00  0.00    -0.268 OA
BRANCH  12  14
ATOM     14  C   UNL A   1      29.713  28.875  22.930  1.00  0.00     0.362 C 
BRANCH  14  15
ATOM     15  N   UNL A   1      30.047  30.054  22.107  1.00  0.00    -0.335 N 
ATOM     16  H   UNL A   1      30.520  30.746  22.690  1.00  0.00     0.347 HD
ATOM     17  H   UNL A   1      30.656  29.763  21.343  1.00  0.00     0.347 HD
BRANCH  15  18
ATOM     18  C   UNL A   1      28.846  30.642  21.551  1.00  0.00     0.289 C 
BRANCH  18  19
ATOM     19  C   UNL A   1      27.679  30.716  22.472  1.00  0.00     0.025 C 
ATOM     20  C   UNL A   1      27.658  31.575  23.501  1.00  0.00     0.010 C 
ENDBRANCH  18  19
ENDBRANCH  15  18
ENDBRANCH  14  15
ENDBRANCH  12  14
ENDBRANCH   7  12
ENDBRANCH   3   6
ENDBRANCH   1   2
BRANCH   1  21
ATOM     21  C   UNL A   1      31.220  30.664  25.678  1.00  0.00     0.023 C 
BRANCH  21  22
ATOM     22  C   UNL A   1      31.292  31.974  26.451  1.00  0.00     0.023 C 
BRANCH  22  23
ATOM     23  C   UNL A   1      32.601  32.209  27.191  1.00  0.00     0.116 C 
BRANCH  23  24
ATOM     24  N   UNL A   1      32.880  33.618  27.427  1.00  0.00    -0.352 N 
ATOM     25  C   UNL A   1      33.936  34.186  28.099  1.00  0.00     0.251 C 
ATOM     26  H   UNL A   1      32.224  34.251  27.055  1.00  0.00     0.163 HD
ATOM     27  O   UNL A   1      33.957  35.394  28.321  1.00  0.00    -0.269 OA
BRANCH  25  28
ATOM     28  C   UNL A   1      35.027  33.322  28.587  1.00  0.00     0.039 A 
ATOM     29  C   UNL A   1      36.348  33.739  28.416  1.00  0.00     0.014 A 
ATOM     30  C   UNL A   1      34.740  32.134  29.265  1.00  0.00     0.014 A 
ATOM     31  C   UNL A   1      37.381  33.004  28.998  1.00  0.00     0.010 A 
ATOM     32  C   UNL A   1      35.760  31.452  29.916  1.00  0.00     0.010 A 
ATOM     33  C   UNL A   1      37.091  31.880  29.791  1.00  0.00    -0.014 A 
BRANCH  33  34
ATOM     34  C   UNL A   1      38.163  31.141  30.502  1.00  0.00     0.031 A 
ATOM     35  C   UNL A   1      38.459  31.449  31.942  1.00  0.00     0.074 A 
ATOM     36  C   UNL A   1      38.917  30.250  29.830  1.00  0.00     0.049 A 
ATOM     37  N   UNL A   1      39.404  30.972  32.713  1.00  0.00    -0.248 NA
ATOM     38  C   UNL A   1      37.601  32.449  32.595  1.00  0.00     0.031 C 
ATOM     39  C   UNL A   1      38.766  29.909  28.415  1.00  0.00     0.029 A 
ATOM     40  N   UNL A   1      39.974  29.477  30.245  1.00  0.00    -0.354 N 
ATOM     41  C   UNL A   1      39.265  31.628  33.929  1.00  0.00     0.074 A 
ATOM     42  C   UNL A   1      38.181  32.574  33.779  1.00  0.00     0.031 C 
ATOM     43  C   UNL A   1      39.679  28.980  28.085  1.00  0.00     0.029 A 
ATOM     44  C   UNL A   1      40.504  28.689  29.254  1.00  0.00     0.049 A 
ATOM     45  H   UNL A   1      40.319  29.487  31.167  1.00  0.00     0.167 HD
ATOM     46  C   UNL A   1      39.964  31.441  35.072  1.00  0.00     0.037 A 
ATOM     47  C   UNL A   1      41.545  27.835  29.281  1.00  0.00     0.037 A 
ATOM     48  C   UNL A   1      41.019  30.474  35.226  1.00  0.00     0.049 A 
ATOM     49  C   UNL A   1      42.295  27.633  30.570  1.00  0.00     0.074 A 
ATOM     50  C   UNL A   1      41.735  30.154  36.365  1.00  0.00     0.029 A 
ATOM     51  N   UNL A   1      41.509  29.672  34.205  1.00  0.00    -0.354 N 
ATOM     52  N   UNL A   1      42.105  28.205  31.734  1.00  0.00    -0.248 NA
ATOM     53  C   UNL A   1      43.399  26.663  30.549  1.00  0.00     0.031 C 
ATOM     54  C   UNL A   1      42.693  29.195  36.024  1.00  0.00     0.029 A 
ATOM     55  C   UNL A   1      42.536  28.874  34.685  1.00  0.00     0.049 A 
ATOM     56  H   UNL A   1      41.177  29.670  33.278  1.00  0.00     0.167 HD
ATOM     57  C   UNL A   1      43.045  27.647  32.590  1.00  0.00     0.074 A 
ATOM     58  C   UNL A   1      43.794  26.681  31.814  1.00  0.00     0.031 C 
ATOM     59  C   UNL A   1      43.268  27.913  33.900  1.00  0.00     0.037 A 
BRANCH  46  60
ATOM     60  C   UNL A   1      39.609  32.296  36.254  1.00  0.00     0.064 A 
ATOM     61  C   UNL A   1      40.316  33.470  36.553  1.00  0.00     0.173 A 
ATOM     62  C   UNL A   1      38.517  31.962  37.069  1.00  0.00     0.173 A 
ATOM     63  F   UNL A   1      41.377  33.827  35.812  1.00  0.00    -0.203 F 
ATOM     64  C   UNL A   1      39.961  34.264  37.641  1.00  0.00     0.198 A 
ATOM     65  C   UNL A   1      38.145  32.775  38.137  1.00  0.00     0.198 A 
ATOM     66  F   UNL A   1      37.804  30.853  36.824  1.00  0.00    -0.203 F 
ATOM     67  F   UNL A   1      40.681  35.355  37.935  1.00  0.00    -0.200 F 
ATOM     68  C   UNL A   1      38.871  33.920  38.426  1.00  0.00     0.200 A 
ATOM     69  F   UNL A   1      37.083  32.449  38.887  1.00  0.00    -0.200 F 
ATOM     70  F   UNL A   1      38.522  34.692  39.465  1.00  0.00    -0.200 F 
ENDBRANCH  46  60
BRANCH  47  71
ATOM     71  C   UNL A   1      41.919  27.085  28.054  1.00  0.00     0.064 A 
ATOM     72  C   UNL A   1      41.362  25.828  27.779  1.00  0.00     0.173 A 
ATOM     73  C   UNL A   1      42.834  27.609  27.129  1.00  0.00     0.173 A 
ATOM     74  F   UNL A   1      40.497  25.276  28.643  1.00  0.00    -0.203 F 
ATOM     75  C   UNL A   1      41.719  25.115  26.636  1.00  0.00     0.198 A 
ATOM     76  C   UNL A   1      43.169  26.908  25.972  1.00  0.00     0.198 A 
ATOM     77  F   UNL A   1      43.390  28.810  27.341  1.00  0.00    -0.203 F 
ATOM     78  F   UNL A   1      41.203  23.898  26.420  1.00  0.00    -0.200 F 
ATOM     79  C   UNL A   1      42.617  25.659  25.730  1.00  0.00     0.200 A 
ATOM     80  F   UNL A   1      44.025  27.443  25.090  1.00  0.00    -0.200 F 
ATOM     81  F   UNL A   1      42.954  24.976  24.627  1.00  0.00    -0.200 F 
ENDBRANCH  47  71
BRANCH  59  82
ATOM     82  C   UNL A   1      44.343  27.125  34.592  1.00  0.00     0.064 A 
ATOM     83  C   UNL A   1      44.088  25.861  35.144  1.00  0.00     0.173 A 
ATOM     84  C   UNL A   1      45.654  27.621  34.659  1.00  0.00     0.173 A 
ATOM     85  F   UNL A   1      42.850  25.349  35.118  1.00  0.00    -0.203 F 
ATOM     86  C   UNL A   1      45.104  25.133  35.760  1.00  0.00     0.198 A 
ATOM     87  C   UNL A   1      46.672  26.877  35.248  1.00  0.00     0.198 A 
ATOM     88  F   UNL A   1      45.950  28.821  34.139  1.00  0.00    -0.203 F 
ATOM     89  F   UNL A   1      44.829  23.948  36.321  1.00  0.00    -0.200 F 
ATOM     90  C   UNL A   1      46.395  25.637  35.803  1.00  0.00     0.200 A 
ATOM     91  F   UNL A   1      47.922  27.360  35.275  1.00  0.00    -0.200 F 
ATOM     92  F   UNL A   1      47.373  24.930  36.387  1.00  0.00    -0.200 F 
ENDBRANCH  59  82
ENDBRANCH  33  34
ENDBRANCH  25  28
ENDBRANCH  23  24
ENDBRANCH  22  23
ENDBRANCH  21  22
ENDBRANCH   1  21
TORSDOF 16
ENDMDL
