MODEL 1
REMARK VINA RESULT:     -14.3      0.000      0.000
REMARK SMILES CN1C(=O)C[C@@H](C(=O)NCCCCNC(=O)c2ccc(-c3c4nc(c(-c5c(F)c(F)c(F)c(F)c5F)c5ccc([nH]5)c(-c5c(F)c(F)c(F)c(F)c5F)c5nc(c(-c6c(F)c(F)c(F)c(F)c6F)c6ccc3[nH]6)C=C5)C=C4)cc2)C12CCN(C(=O)c1cccc3ccccc13)CC2
REMARK SMILES IDX 12 1 11 2 10 3 9 4 7 5 8 6 6 8 1 9 2 10 3 11 80 12 4 13 5 14
REMARK SMILES IDX 81 15 97 16 82 17 96 18 83 19 84 20 85 21 86 22 87 23 95 24
REMARK SMILES IDX 88 25 90 26 94 27 89 28 91 29 93 30 92 31 13 32 14 33 15 34
REMARK SMILES IDX 16 36 17 37 18 38 79 39 19 40 78 41 20 42 21 43 22 44 72 45
REMARK SMILES IDX 23 46 77 47 71 48 73 49 24 50 76 51 70 52 69 53 25 55 57 56
REMARK SMILES IDX 37 57 56 58 38 59 41 60 55 61 74 62 39 63 40 64 54 66 75 67
REMARK SMILES IDX 42 68 26 69 27 70 35 71 28 72 29 73 33 74 36 75 30 76 31 77
REMARK SMILES IDX 34 78 32 79 58 80 59 81 67 82 60 83 61 84 65 85 68 86 62 87
REMARK SMILES IDX 63 88 66 89 64 90 43 91 44 92 52 93 45 94 46 95 50 96 53 97
REMARK SMILES IDX 47 98 48 99 51 100 49 101
REMARK H PARENT 9 7 14 35 73 54 41 65
REMARK Flexibility Score: inf
ROOT
ATOM      1  C   UNL A   1      39.152  21.478  26.559  1.00  0.00     0.023 C 
ENDROOT
BRANCH   1   2
ATOM      2  C   UNL A   1      39.242  22.945  26.166  1.00  0.00     0.023 C 
BRANCH   2   3
ATOM      3  C   UNL A   1      37.883  23.642  26.012  1.00  0.00     0.116 C 
BRANCH   3   4
ATOM      4  N   UNL A   1      37.211  23.401  24.745  1.00  0.00    -0.356 N 
ATOM      5  C   UNL A   1      36.086  22.716  24.405  1.00  0.00     0.226 C 
ATOM      6  O   UNL A   1      35.747  22.788  23.217  1.00  0.00    -0.275 OA
ATOM      7  H   UNL A   1      37.662  23.820  23.977  1.00  0.00     0.163 HD
BRANCH   5   8
ATOM      8  C   UNL A   1      35.259  21.839  25.355  1.00  0.00     0.113 C 
ATOM      9  C   UNL A   1      32.437  20.012  23.713  1.00  0.00     0.147 C 
ATOM     10  N   UNL A   1      33.600  20.458  24.458  1.00  0.00    -0.339 N 
ATOM     11  C   UNL A   1      34.692  19.621  24.666  1.00  0.00     0.223 C 
ATOM     12  C   UNL A   1      33.734  21.772  25.108  1.00  0.00     0.058 C 
ATOM     13  O   UNL A   1      34.812  18.474  24.277  1.00  0.00    -0.275 OA
ATOM     14  C   UNL A   1      35.754  20.395  25.393  1.00  0.00     0.116 C 
ATOM     15  C   UNL A   1      33.216  22.965  24.282  1.00  0.00     0.051 C 
ATOM     16  C   UNL A   1      32.912  21.719  26.432  1.00  0.00     0.051 C 
ATOM     17  C   UNL A   1      33.232  24.280  25.057  1.00  0.00     0.122 C 
ATOM     18  C   UNL A   1      32.729  23.078  27.114  1.00  0.00     0.122 C 
ATOM     19  N   UNL A   1      32.329  24.117  26.165  1.00  0.00    -0.338 N 
ATOM     20  C   UNL A   1      31.085  24.730  26.270  1.00  0.00     0.254 C 
ATOM     21  O   UNL A   1      30.231  24.338  27.066  1.00  0.00    -0.269 OA
BRANCH  20  22
ATOM     22  C   UNL A   1      30.776  25.996  25.543  1.00  0.00     0.047 A 
ATOM     23  C   UNL A   1      30.141  25.778  24.308  1.00  0.00     0.014 A 
ATOM     24  C   UNL A   1      31.267  27.293  25.883  1.00  0.00    -0.006 A 
ATOM     25  C   UNL A   1      30.059  26.796  23.366  1.00  0.00     0.001 A 
ATOM     26  C   UNL A   1      31.221  28.300  24.882  1.00  0.00    -0.018 A 
ATOM     27  C   UNL A   1      31.790  27.682  27.139  1.00  0.00     0.009 A 
ATOM     28  C   UNL A   1      30.639  28.031  23.635  1.00  0.00     0.009 A 
ATOM     29  C   UNL A   1      31.755  29.577  25.127  1.00  0.00     0.009 A 
ATOM     30  C   UNL A   1      32.202  28.991  27.408  1.00  0.00     0.001 A 
ATOM     31  C   UNL A   1      32.219  29.931  26.390  1.00  0.00     0.001 A 
ENDBRANCH  20  22
ENDBRANCH   5   8
ENDBRANCH   3   4
ENDBRANCH   2   3
ENDBRANCH   1   2
BRANCH   1  32
ATOM     32  C   UNL A   1      39.457  20.541  25.405  1.00  0.00     0.116 C 
BRANCH  32  33
ATOM     33  N   UNL A   1      40.256  19.394  25.823  1.00  0.00    -0.352 N 
ATOM     34  C   UNL A   1      41.574  19.360  26.202  1.00  0.00     0.251 C 
ATOM     35  H   UNL A   1      39.788  18.530  25.834  1.00  0.00     0.163 HD
ATOM     36  O   UNL A   1      42.169  18.297  26.326  1.00  0.00    -0.269 OA
BRANCH  34  37
ATOM     37  C   UNL A   1      42.259  20.639  26.435  1.00  0.00     0.039 A 
ATOM     38  C   UNL A   1      42.656  21.409  25.344  1.00  0.00     0.014 A 
ATOM     39  C   UNL A   1      42.425  21.101  27.743  1.00  0.00     0.014 A 
ATOM     40  C   UNL A   1      43.166  22.685  25.568  1.00  0.00     0.010 A 
ATOM     41  C   UNL A   1      42.818  22.410  27.955  1.00  0.00     0.010 A 
ATOM     42  C   UNL A   1      43.210  23.208  26.872  1.00  0.00    -0.014 A 
BRANCH  42  43
ATOM     43  C   UNL A   1      43.678  24.588  27.130  1.00  0.00     0.031 A 
ATOM     44  C   UNL A   1      42.707  25.622  27.623  1.00  0.00     0.074 A 
ATOM     45  C   UNL A   1      44.949  24.921  26.846  1.00  0.00     0.049 A 
ATOM     46  N   UNL A   1      42.903  26.894  27.857  1.00  0.00    -0.248 NA
ATOM     47  C   UNL A   1      41.322  25.178  27.841  1.00  0.00     0.031 C 
ATOM     48  C   UNL A   1      45.958  24.016  26.291  1.00  0.00     0.029 A 
ATOM     49  N   UNL A   1      45.608  26.116  26.974  1.00  0.00    -0.354 N 
ATOM     50  C   UNL A   1      41.665  27.400  28.229  1.00  0.00     0.074 A 
ATOM     51  C   UNL A   1      40.712  26.320  28.115  1.00  0.00     0.031 C 
ATOM     52  C   UNL A   1      47.115  24.680  26.154  1.00  0.00     0.029 A 
ATOM     53  C   UNL A   1      46.919  26.065  26.571  1.00  0.00     0.049 A 
ATOM     54  H   UNL A   1      45.182  26.933  27.322  1.00  0.00     0.167 HD
ATOM     55  C   UNL A   1      41.358  28.647  28.656  1.00  0.00     0.037 A 
ATOM     56  C   UNL A   1      47.856  27.031  26.538  1.00  0.00     0.037 A 
ATOM     57  C   UNL A   1      42.323  29.708  28.782  1.00  0.00     0.049 A 
ATOM     58  C   UNL A   1      47.499  28.408  27.027  1.00  0.00     0.074 A 
ATOM     59  C   UNL A   1      42.141  30.984  29.281  1.00  0.00     0.029 A 
ATOM     60  N   UNL A   1      43.651  29.615  28.390  1.00  0.00    -0.354 N 
ATOM     61  N   UNL A   1      46.349  28.855  27.471  1.00  0.00    -0.248 NA
ATOM     62  C   UNL A   1      48.572  29.410  27.019  1.00  0.00     0.031 C 
ATOM     63  C   UNL A   1      43.342  31.685  29.128  1.00  0.00     0.029 A 
ATOM     64  C   UNL A   1      44.292  30.826  28.600  1.00  0.00     0.049 A 
ATOM     65  H   UNL A   1      44.076  28.808  28.018  1.00  0.00     0.167 HD
ATOM     66  C   UNL A   1      46.561  30.183  27.815  1.00  0.00     0.074 A 
ATOM     67  C   UNL A   1      47.958  30.462  27.545  1.00  0.00     0.031 C 
ATOM     68  C   UNL A   1      45.682  31.088  28.313  1.00  0.00     0.037 A 
BRANCH  55  69
ATOM     69  C   UNL A   1      39.920  28.924  28.997  1.00  0.00     0.064 A 
ATOM     70  C   UNL A   1      39.418  28.751  30.299  1.00  0.00     0.173 A 
ATOM     71  C   UNL A   1      39.027  29.356  28.006  1.00  0.00     0.173 A 
ATOM     72  F   UNL A   1      40.224  28.327  31.284  1.00  0.00    -0.203 F 
ATOM     73  C   UNL A   1      38.068  28.947  30.579  1.00  0.00     0.198 A 
ATOM     74  C   UNL A   1      37.687  29.592  28.300  1.00  0.00     0.198 A 
ATOM     75  F   UNL A   1      39.451  29.544  26.748  1.00  0.00    -0.203 F 
ATOM     76  F   UNL A   1      37.599  28.698  31.809  1.00  0.00    -0.200 F 
ATOM     77  C   UNL A   1      37.205  29.374  29.581  1.00  0.00     0.200 A 
ATOM     78  F   UNL A   1      36.857  30.018  27.338  1.00  0.00    -0.200 F 
ATOM     79  F   UNL A   1      35.906  29.560  29.852  1.00  0.00    -0.200 F 
ENDBRANCH  55  69
BRANCH  56  80
ATOM     80  C   UNL A   1      49.219  26.708  26.046  1.00  0.00     0.064 A 
ATOM     81  C   UNL A   1      49.603  26.999  24.730  1.00  0.00     0.173 A 
ATOM     82  C   UNL A   1      50.183  26.143  26.896  1.00  0.00     0.173 A 
ATOM     83  F   UNL A   1      48.713  27.526  23.876  1.00  0.00    -0.203 F 
ATOM     84  C   UNL A   1      50.893  26.732  24.280  1.00  0.00     0.198 A 
ATOM     85  C   UNL A   1      51.481  25.903  26.454  1.00  0.00     0.198 A 
ATOM     86  F   UNL A   1      49.869  25.856  28.168  1.00  0.00    -0.203 F 
ATOM     87  F   UNL A   1      51.225  26.993  23.009  1.00  0.00    -0.200 F 
ATOM     88  C   UNL A   1      51.834  26.192  25.145  1.00  0.00     0.200 A 
ATOM     89  F   UNL A   1      52.393  25.402  27.299  1.00  0.00    -0.200 F 
ATOM     90  F   UNL A   1      53.082  25.953  24.717  1.00  0.00    -0.200 F 
ENDBRANCH  56  80
BRANCH  68  91
ATOM     91  C   UNL A   1      46.207  32.462  28.616  1.00  0.00     0.064 A 
ATOM     92  C   UNL A   1      46.162  33.497  27.669  1.00  0.00     0.173 A 
ATOM     93  C   UNL A   1      46.725  32.759  29.887  1.00  0.00     0.173 A 
ATOM     94  F   UNL A   1      45.690  33.262  26.436  1.00  0.00    -0.203 F 
ATOM     95  C   UNL A   1      46.641  34.768  27.974  1.00  0.00     0.198 A 
ATOM     96  C   UNL A   1      47.170  34.039  30.200  1.00  0.00     0.198 A 
ATOM     97  F   UNL A   1      46.784  31.808  30.831  1.00  0.00    -0.203 F 
ATOM     98  F   UNL A   1      46.638  35.725  27.036  1.00  0.00    -0.200 F 
ATOM     99  C   UNL A   1      47.136  35.041  29.241  1.00  0.00     0.200 A 
ATOM    100  F   UNL A   1      47.630  34.305  31.430  1.00  0.00    -0.200 F 
ATOM    101  F   UNL A   1      47.589  36.267  29.536  1.00  0.00    -0.200 F 
ENDBRANCH  68  91
ENDBRANCH  42  43
ENDBRANCH  34  37
ENDBRANCH  32  33
ENDBRANCH   1  32
TORSDOF 12
ENDMDL
MODEL 2
REMARK VINA RESULT:     -14.3      0.118      1.529
REMARK SMILES CN1C(=O)C[C@@H](C(=O)NCCCCNC(=O)c2ccc(-c3c4nc(c(-c5c(F)c(F)c(F)c(F)c5F)c5ccc([nH]5)c(-c5c(F)c(F)c(F)c(F)c5F)c5nc(c(-c6c(F)c(F)c(F)c(F)c6F)c6ccc3[nH]6)C=C5)C=C4)cc2)C12CCN(C(=O)c1cccc3ccccc13)CC2
REMARK SMILES IDX 12 1 11 2 10 3 9 4 7 5 8 6 6 8 1 9 2 10 3 11 80 12 4 13 5 14
REMARK SMILES IDX 81 15 97 16 82 17 96 18 83 19 84 20 85 21 86 22 87 23 95 24
REMARK SMILES IDX 88 25 90 26 94 27 89 28 91 29 93 30 92 31 13 32 14 33 15 34
REMARK SMILES IDX 16 36 17 37 18 38 79 39 19 40 78 41 20 42 21 43 22 44 72 45
REMARK SMILES IDX 23 46 77 47 71 48 73 49 24 50 76 51 70 52 69 53 25 55 57 56
REMARK SMILES IDX 37 57 56 58 38 59 41 60 55 61 74 62 39 63 40 64 54 66 75 67
REMARK SMILES IDX 42 68 26 69 27 70 35 71 28 72 29 73 33 74 36 75 30 76 31 77
REMARK SMILES IDX 34 78 32 79 58 80 59 81 67 82 60 83 61 84 65 85 68 86 62 87
REMARK SMILES IDX 63 88 66 89 64 90 43 91 44 92 52 93 45 94 46 95 50 96 53 97
REMARK SMILES IDX 47 98 48 99 51 100 49 101
REMARK H PARENT 9 7 14 35 73 54 41 65
REMARK Flexibility Score: inf
ROOT
ATOM      1  C   UNL A   1      39.143  21.470  26.542  1.00  0.00     0.023 C 
ENDROOT
BRANCH   1   2
ATOM      2  C   UNL A   1      39.248  22.940  26.164  1.00  0.00     0.023 C 
BRANCH   2   3
ATOM      3  C   UNL A   1      37.897  23.647  25.996  1.00  0.00     0.116 C 
BRANCH   3   4
ATOM      4  N   UNL A   1      37.225  23.395  24.731  1.00  0.00    -0.356 N 
ATOM      5  C   UNL A   1      36.105  22.699  24.396  1.00  0.00     0.226 C 
ATOM      6  O   UNL A   1      35.764  22.762  23.209  1.00  0.00    -0.275 OA
ATOM      7  H   UNL A   1      37.672  23.813  23.960  1.00  0.00     0.163 HD
BRANCH   5   8
ATOM      8  C   UNL A   1      35.286  21.821  25.352  1.00  0.00     0.113 C 
ATOM      9  C   UNL A   1      32.464  19.979  23.727  1.00  0.00     0.147 C 
ATOM     10  N   UNL A   1      33.629  20.431  24.465  1.00  0.00    -0.339 N 
ATOM     11  C   UNL A   1      34.725  19.599  24.670  1.00  0.00     0.223 C 
ATOM     12  C   UNL A   1      33.760  21.747  25.112  1.00  0.00     0.058 C 
ATOM     13  O   UNL A   1      34.848  18.451  24.283  1.00  0.00    -0.275 OA
ATOM     14  C   UNL A   1      35.788  20.379  25.391  1.00  0.00     0.116 C 
ATOM     15  C   UNL A   1      33.233  22.936  24.286  1.00  0.00     0.051 C 
ATOM     16  C   UNL A   1      32.944  21.693  26.440  1.00  0.00     0.051 C 
ATOM     17  C   UNL A   1      33.248  24.253  25.058  1.00  0.00     0.122 C 
ATOM     18  C   UNL A   1      32.759  23.053  27.120  1.00  0.00     0.122 C 
ATOM     19  N   UNL A   1      32.350  24.088  26.170  1.00  0.00    -0.338 N 
ATOM     20  C   UNL A   1      31.105  24.697  26.280  1.00  0.00     0.254 C 
ATOM     21  O   UNL A   1      30.256  24.303  27.080  1.00  0.00    -0.269 OA
BRANCH  20  22
ATOM     22  C   UNL A   1      30.786  25.960  25.551  1.00  0.00     0.047 A 
ATOM     23  C   UNL A   1      30.156  25.736  24.315  1.00  0.00     0.014 A 
ATOM     24  C   UNL A   1      31.267  27.261  25.892  1.00  0.00    -0.006 A 
ATOM     25  C   UNL A   1      30.069  26.753  23.372  1.00  0.00     0.001 A 
ATOM     26  C   UNL A   1      31.215  28.267  24.891  1.00  0.00    -0.018 A 
ATOM     27  C   UNL A   1      31.784  27.654  27.149  1.00  0.00     0.009 A 
ATOM     28  C   UNL A   1      30.638  27.993  23.643  1.00  0.00     0.009 A 
ATOM     29  C   UNL A   1      31.738  29.548  25.137  1.00  0.00     0.009 A 
ATOM     30  C   UNL A   1      32.185  28.967  27.419  1.00  0.00     0.001 A 
ATOM     31  C   UNL A   1      32.197  29.907  26.400  1.00  0.00     0.001 A 
ENDBRANCH  20  22
ENDBRANCH   5   8
ENDBRANCH   3   4
ENDBRANCH   2   3
ENDBRANCH   1   2
BRANCH   1  32
ATOM     32  C   UNL A   1      39.555  20.541  25.416  1.00  0.00     0.116 C 
BRANCH  32  33
ATOM     33  N   UNL A   1      40.341  19.409  25.895  1.00  0.00    -0.352 N 
ATOM     34  C   UNL A   1      41.641  19.390  26.331  1.00  0.00     0.251 C 
ATOM     35  H   UNL A   1      39.876  18.542  25.907  1.00  0.00     0.163 HD
ATOM     36  O   UNL A   1      42.234  18.333  26.505  1.00  0.00    -0.269 OA
BRANCH  34  37
ATOM     37  C   UNL A   1      42.310  20.678  26.562  1.00  0.00     0.039 A 
ATOM     38  C   UNL A   1      42.719  21.441  25.470  1.00  0.00     0.014 A 
ATOM     39  C   UNL A   1      42.450  21.154  27.868  1.00  0.00     0.014 A 
ATOM     40  C   UNL A   1      43.213  22.723  25.689  1.00  0.00     0.010 A 
ATOM     41  C   UNL A   1      42.828  22.469  28.073  1.00  0.00     0.010 A 
ATOM     42  C   UNL A   1      43.230  23.260  26.988  1.00  0.00    -0.014 A 
BRANCH  42  43
ATOM     43  C   UNL A   1      43.681  24.647  27.240  1.00  0.00     0.031 A 
ATOM     44  C   UNL A   1      42.695  25.674  27.716  1.00  0.00     0.074 A 
ATOM     45  C   UNL A   1      44.951  24.991  26.965  1.00  0.00     0.049 A 
ATOM     46  N   UNL A   1      42.875  26.950  27.942  1.00  0.00    -0.248 NA
ATOM     47  C   UNL A   1      41.312  25.217  27.925  1.00  0.00     0.031 C 
ATOM     48  C   UNL A   1      45.974  24.093  26.426  1.00  0.00     0.029 A 
ATOM     49  N   UNL A   1      45.596  26.194  27.089  1.00  0.00    -0.354 N 
ATOM     50  C   UNL A   1      41.629  27.445  28.300  1.00  0.00     0.074 A 
ATOM     51  C   UNL A   1      40.688  26.355  28.185  1.00  0.00     0.031 C 
ATOM     52  C   UNL A   1      47.125  24.768  26.294  1.00  0.00     0.029 A 
ATOM     53  C   UNL A   1      46.912  26.154  26.699  1.00  0.00     0.049 A 
ATOM     54  H   UNL A   1      45.158  27.009  27.427  1.00  0.00     0.167 HD
ATOM     55  C   UNL A   1      41.305  28.692  28.714  1.00  0.00     0.037 A 
ATOM     56  C   UNL A   1      47.838  27.130  26.666  1.00  0.00     0.037 A 
ATOM     57  C   UNL A   1      42.257  29.764  28.841  1.00  0.00     0.049 A 
ATOM     58  C   UNL A   1      47.462  28.506  27.141  1.00  0.00     0.074 A 
ATOM     59  C   UNL A   1      42.057  31.042  29.328  1.00  0.00     0.029 A 
ATOM     60  N   UNL A   1      43.590  29.683  28.461  1.00  0.00    -0.354 N 
ATOM     61  N   UNL A   1      46.304  28.945  27.572  1.00  0.00    -0.248 NA
ATOM     62  C   UNL A   1      48.524  29.520  27.135  1.00  0.00     0.031 C 
ATOM     63  C   UNL A   1      43.252  31.755  29.180  1.00  0.00     0.029 A 
ATOM     64  C   UNL A   1      44.216  30.901  28.667  1.00  0.00     0.049 A 
ATOM     65  H   UNL A   1      44.026  28.877  28.098  1.00  0.00     0.167 HD
ATOM     66  C   UNL A   1      46.498  30.277  27.908  1.00  0.00     0.074 A 
ATOM     67  C   UNL A   1      47.895  30.569  27.648  1.00  0.00     0.031 C 
ATOM     68  C   UNL A   1      45.605  31.176  28.390  1.00  0.00     0.037 A 
BRANCH  55  69
ATOM     69  C   UNL A   1      39.861  28.956  29.040  1.00  0.00     0.064 A 
ATOM     70  C   UNL A   1      39.350  28.794  30.340  1.00  0.00     0.173 A 
ATOM     71  C   UNL A   1      38.971  29.364  28.037  1.00  0.00     0.173 A 
ATOM     72  F   UNL A   1      40.153  28.393  31.337  1.00  0.00    -0.203 F 
ATOM     73  C   UNL A   1      37.997  28.978  30.607  1.00  0.00     0.198 A 
ATOM     74  C   UNL A   1      37.626  29.588  28.317  1.00  0.00     0.198 A 
ATOM     75  F   UNL A   1      39.403  29.541  26.779  1.00  0.00    -0.203 F 
ATOM     76  F   UNL A   1      37.520  28.740  31.837  1.00  0.00    -0.200 F 
ATOM     77  C   UNL A   1      37.136  29.381  29.597  1.00  0.00     0.200 A 
ATOM     78  F   UNL A   1      36.798  29.991  27.343  1.00  0.00    -0.200 F 
ATOM     79  F   UNL A   1      35.832  29.555  29.855  1.00  0.00    -0.200 F 
ENDBRANCH  55  69
BRANCH  56  80
ATOM     80  C   UNL A   1      49.209  26.817  26.189  1.00  0.00     0.064 A 
ATOM     81  C   UNL A   1      50.173  26.284  27.056  1.00  0.00     0.173 A 
ATOM     82  C   UNL A   1      49.571  27.000  24.846  1.00  0.00     0.173 A 
ATOM     83  F   UNL A   1      49.880  26.104  28.353  1.00  0.00    -0.203 F 
ATOM     84  C   UNL A   1      51.447  25.955  26.601  1.00  0.00     0.198 A 
ATOM     85  C   UNL A   1      50.836  26.643  24.386  1.00  0.00     0.198 A 
ATOM     86  F   UNL A   1      48.681  27.497  23.974  1.00  0.00    -0.203 F 
ATOM     87  F   UNL A   1      52.359  25.474  27.457  1.00  0.00    -0.200 F 
ATOM     88  C   UNL A   1      51.775  26.126  25.264  1.00  0.00     0.200 A 
ATOM     89  F   UNL A   1      51.141  26.791  23.089  1.00  0.00    -0.200 F 
ATOM     90  F   UNL A   1      52.995  25.790  24.822  1.00  0.00    -0.200 F 
ENDBRANCH  56  80
BRANCH  68  91
ATOM     91  C   UNL A   1      46.113  32.559  28.687  1.00  0.00     0.064 A 
ATOM     92  C   UNL A   1      46.674  32.889  29.930  1.00  0.00     0.173 A 
ATOM     93  C   UNL A   1      46.077  33.555  27.698  1.00  0.00     0.173 A 
ATOM     94  F   UNL A   1      46.719  31.978  30.913  1.00  0.00    -0.203 F 
ATOM     95  C   UNL A   1      47.151  34.172  30.182  1.00  0.00     0.198 A 
ATOM     96  C   UNL A   1      46.588  34.826  27.941  1.00  0.00     0.198 A 
ATOM     97  F   UNL A   1      45.558  33.289  26.490  1.00  0.00    -0.203 F 
ATOM     98  F   UNL A   1      47.632  34.481  31.393  1.00  0.00    -0.200 F 
ATOM     99  C   UNL A   1      47.117  35.137  29.184  1.00  0.00     0.200 A 
ATOM    100  F   UNL A   1      46.570  35.750  26.970  1.00  0.00    -0.200 F 
ATOM    101  F   UNL A   1      47.585  36.369  29.425  1.00  0.00    -0.200 F 
ENDBRANCH  68  91
ENDBRANCH  42  43
ENDBRANCH  34  37
ENDBRANCH  32  33
ENDBRANCH   1  32
TORSDOF 12
ENDMDL
MODEL 3
REMARK VINA RESULT:     -14.2      0.196      1.878
REMARK SMILES CN1C(=O)C[C@@H](C(=O)NCCCCNC(=O)c2ccc(-c3c4nc(c(-c5c(F)c(F)c(F)c(F)c5F)c5ccc([nH]5)c(-c5c(F)c(F)c(F)c(F)c5F)c5nc(c(-c6c(F)c(F)c(F)c(F)c6F)c6ccc3[nH]6)C=C5)C=C4)cc2)C12CCN(C(=O)c1cccc3ccccc13)CC2
REMARK SMILES IDX 12 1 11 2 10 3 9 4 7 5 8 6 6 8 1 9 2 10 3 11 80 12 4 13 5 14
REMARK SMILES IDX 81 15 97 16 82 17 96 18 83 19 84 20 85 21 86 22 87 23 95 24
REMARK SMILES IDX 88 25 90 26 94 27 89 28 91 29 93 30 92 31 13 32 14 33 15 34
REMARK SMILES IDX 16 36 17 37 18 38 79 39 19 40 78 41 20 42 21 43 22 44 72 45
REMARK SMILES IDX 23 46 77 47 71 48 73 49 24 50 76 51 70 52 69 53 25 55 57 56
REMARK SMILES IDX 37 57 56 58 38 59 41 60 55 61 74 62 39 63 40 64 54 66 75 67
REMARK SMILES IDX 42 68 26 69 27 70 35 71 28 72 29 73 33 74 36 75 30 76 31 77
REMARK SMILES IDX 34 78 32 79 58 80 59 81 67 82 60 83 61 84 65 85 68 86 62 87
REMARK SMILES IDX 63 88 66 89 64 90 43 91 44 92 52 93 45 94 46 95 50 96 53 97
REMARK SMILES IDX 47 98 48 99 51 100 49 101
REMARK H PARENT 9 7 14 35 73 54 41 65
REMARK Flexibility Score: inf
ROOT
ATOM      1  C   UNL A   1      39.193  21.417  26.540  1.00  0.00     0.023 C 
ENDROOT
BRANCH   1   2
ATOM      2  C   UNL A   1      39.280  22.880  26.132  1.00  0.00     0.023 C 
BRANCH   2   3
ATOM      3  C   UNL A   1      37.921  23.582  26.002  1.00  0.00     0.116 C 
BRANCH   3   4
ATOM      4  N   UNL A   1      37.233  23.356  24.742  1.00  0.00    -0.356 N 
ATOM      5  C   UNL A   1      36.098  22.685  24.410  1.00  0.00     0.226 C 
ATOM      6  O   UNL A   1      35.746  22.768  23.226  1.00  0.00    -0.275 OA
ATOM      7  H   UNL A   1      37.679  23.776  23.971  1.00  0.00     0.163 HD
BRANCH   5   8
ATOM      8  C   UNL A   1      35.273  21.809  25.363  1.00  0.00     0.113 C 
ATOM      9  C   UNL A   1      32.450  19.976  23.730  1.00  0.00     0.147 C 
ATOM     10  N   UNL A   1      33.614  20.425  24.471  1.00  0.00    -0.339 N 
ATOM     11  C   UNL A   1      34.706  19.589  24.679  1.00  0.00     0.223 C 
ATOM     12  C   UNL A   1      33.748  21.740  25.119  1.00  0.00     0.058 C 
ATOM     13  O   UNL A   1      34.827  18.441  24.293  1.00  0.00    -0.275 OA
ATOM     14  C   UNL A   1      35.769  20.365  25.403  1.00  0.00     0.116 C 
ATOM     15  C   UNL A   1      33.227  22.931  24.291  1.00  0.00     0.051 C 
ATOM     16  C   UNL A   1      32.928  21.689  26.444  1.00  0.00     0.051 C 
ATOM     17  C   UNL A   1      33.244  24.248  25.063  1.00  0.00     0.122 C 
ATOM     18  C   UNL A   1      32.745  23.050  27.124  1.00  0.00     0.122 C 
ATOM     19  N   UNL A   1      32.342  24.086  26.173  1.00  0.00    -0.338 N 
ATOM     20  C   UNL A   1      31.098  24.699  26.279  1.00  0.00     0.254 C 
ATOM     21  O   UNL A   1      30.245  24.308  27.077  1.00  0.00    -0.269 OA
BRANCH  20  22
ATOM     22  C   UNL A   1      30.786  25.963  25.549  1.00  0.00     0.047 A 
ATOM     23  C   UNL A   1      30.152  25.742  24.315  1.00  0.00     0.014 A 
ATOM     24  C   UNL A   1      31.276  27.261  25.887  1.00  0.00    -0.006 A 
ATOM     25  C   UNL A   1      30.068  26.757  23.371  1.00  0.00     0.001 A 
ATOM     26  C   UNL A   1      31.229  28.266  24.884  1.00  0.00    -0.018 A 
ATOM     27  C   UNL A   1      31.799  27.653  27.142  1.00  0.00     0.009 A 
ATOM     28  C   UNL A   1      30.647  27.994  23.638  1.00  0.00     0.009 A 
ATOM     29  C   UNL A   1      31.760  29.544  25.127  1.00  0.00     0.009 A 
ATOM     30  C   UNL A   1      32.209  28.963  27.409  1.00  0.00     0.001 A 
ATOM     31  C   UNL A   1      32.225  29.902  26.388  1.00  0.00     0.001 A 
ENDBRANCH  20  22
ENDBRANCH   5   8
ENDBRANCH   3   4
ENDBRANCH   2   3
ENDBRANCH   1   2
BRANCH   1  32
ATOM     32  C   UNL A   1      39.569  20.470  25.416  1.00  0.00     0.116 C 
BRANCH  32  33
ATOM     33  N   UNL A   1      40.366  19.343  25.889  1.00  0.00    -0.352 N 
ATOM     34  C   UNL A   1      41.665  19.336  26.329  1.00  0.00     0.251 C 
ATOM     35  H   UNL A   1      39.912  18.471  25.892  1.00  0.00     0.163 HD
ATOM     36  O   UNL A   1      42.271  18.285  26.496  1.00  0.00    -0.269 OA
BRANCH  34  37
ATOM     37  C   UNL A   1      42.318  20.630  26.573  1.00  0.00     0.039 A 
ATOM     38  C   UNL A   1      42.730  21.402  25.489  1.00  0.00     0.014 A 
ATOM     39  C   UNL A   1      42.439  21.102  27.883  1.00  0.00     0.014 A 
ATOM     40  C   UNL A   1      43.207  22.689  25.719  1.00  0.00     0.010 A 
ATOM     41  C   UNL A   1      42.800  22.420  28.098  1.00  0.00     0.010 A 
ATOM     42  C   UNL A   1      43.205  23.219  27.021  1.00  0.00    -0.014 A 
BRANCH  42  43
ATOM     43  C   UNL A   1      43.639  24.610  27.284  1.00  0.00     0.031 A 
ATOM     44  C   UNL A   1      42.642  25.619  27.774  1.00  0.00     0.074 A 
ATOM     45  C   UNL A   1      44.903  24.974  27.007  1.00  0.00     0.049 A 
ATOM     46  N   UNL A   1      42.805  26.895  28.011  1.00  0.00    -0.248 NA
ATOM     47  C   UNL A   1      41.266  25.141  27.985  1.00  0.00     0.031 C 
ATOM     48  C   UNL A   1      45.936  24.095  26.455  1.00  0.00     0.029 A 
ATOM     49  N   UNL A   1      45.533  26.185  27.140  1.00  0.00    -0.354 N 
ATOM     50  C   UNL A   1      41.554  27.370  28.379  1.00  0.00     0.074 A 
ATOM     51  C   UNL A   1      40.628  26.268  28.259  1.00  0.00     0.031 C 
ATOM     52  C   UNL A   1      47.077  24.787  26.325  1.00  0.00     0.029 A 
ATOM     53  C   UNL A   1      46.847  26.165  26.744  1.00  0.00     0.049 A 
ATOM     54  H   UNL A   1      45.085  26.989  27.487  1.00  0.00     0.167 HD
ATOM     55  C   UNL A   1      41.215  28.609  28.807  1.00  0.00     0.037 A 
ATOM     56  C   UNL A   1      47.760  27.154  26.716  1.00  0.00     0.037 A 
ATOM     57  C   UNL A   1      42.153  29.692  28.939  1.00  0.00     0.049 A 
ATOM     58  C   UNL A   1      47.368  28.520  27.206  1.00  0.00     0.074 A 
ATOM     59  C   UNL A   1      41.939  30.962  29.440  1.00  0.00     0.029 A 
ATOM     60  N   UNL A   1      43.485  29.632  28.553  1.00  0.00    -0.354 N 
ATOM     61  N   UNL A   1      46.205  28.939  27.646  1.00  0.00    -0.248 NA
ATOM     62  C   UNL A   1      48.416  29.548  27.206  1.00  0.00     0.031 C 
ATOM     63  C   UNL A   1      43.123  31.693  29.294  1.00  0.00     0.029 A 
ATOM     64  C   UNL A   1      44.096  30.857  28.769  1.00  0.00     0.049 A 
ATOM     65  H   UNL A   1      43.931  28.836  28.181  1.00  0.00     0.167 HD
ATOM     66  C   UNL A   1      46.384  30.271  27.994  1.00  0.00     0.074 A 
ATOM     67  C   UNL A   1      47.775  30.584  27.731  1.00  0.00     0.031 C 
ATOM     68  C   UNL A   1      45.481  31.154  28.489  1.00  0.00     0.037 A 
BRANCH  55  69
ATOM     69  C   UNL A   1      39.770  28.850  29.142  1.00  0.00     0.064 A 
ATOM     70  C   UNL A   1      38.851  29.314  28.184  1.00  0.00     0.173 A 
ATOM     71  C   UNL A   1      39.297  28.627  30.443  1.00  0.00     0.173 A 
ATOM     72  F   UNL A   1      39.250  29.557  26.927  1.00  0.00    -0.203 F 
ATOM     73  C   UNL A   1      37.532  29.595  28.531  1.00  0.00     0.198 A 
ATOM     74  C   UNL A   1      37.967  28.869  30.776  1.00  0.00     0.198 A 
ATOM     75  F   UNL A   1      40.127  28.178  31.397  1.00  0.00    -0.203 F 
ATOM     76  F   UNL A   1      36.697  30.112  27.620  1.00  0.00    -0.200 F 
ATOM     77  C   UNL A   1      37.090  29.367  29.826  1.00  0.00     0.200 A 
ATOM     78  F   UNL A   1      37.538  28.635  32.024  1.00  0.00    -0.200 F 
ATOM     79  F   UNL A   1      35.821  29.641  30.160  1.00  0.00    -0.200 F 
ENDBRANCH  55  69
BRANCH  56  80
ATOM     80  C   UNL A   1      49.133  26.864  26.231  1.00  0.00     0.064 A 
ATOM     81  C   UNL A   1      50.108  26.337  27.089  1.00  0.00     0.173 A 
ATOM     82  C   UNL A   1      49.486  27.065  24.888  1.00  0.00     0.173 A 
ATOM     83  F   UNL A   1      49.823  26.141  28.385  1.00  0.00    -0.203 F 
ATOM     84  C   UNL A   1      51.385  26.029  26.625  1.00  0.00     0.198 A 
ATOM     85  C   UNL A   1      50.754  26.729  24.419  1.00  0.00     0.198 A 
ATOM     86  F   UNL A   1      48.586  27.556  24.024  1.00  0.00    -0.203 F 
ATOM     87  F   UNL A   1      52.307  25.553  27.473  1.00  0.00    -0.200 F 
ATOM     88  C   UNL A   1      51.704  26.217  25.289  1.00  0.00     0.200 A 
ATOM     89  F   UNL A   1      51.051  26.892  23.122  1.00  0.00    -0.200 F 
ATOM     90  F   UNL A   1      52.926  25.901  24.838  1.00  0.00    -0.200 F 
ENDBRANCH  56  80
BRANCH  68  91
ATOM     91  C   UNL A   1      45.971  32.540  28.797  1.00  0.00     0.064 A 
ATOM     92  C   UNL A   1      46.528  32.867  30.042  1.00  0.00     0.173 A 
ATOM     93  C   UNL A   1      45.922  33.544  27.816  1.00  0.00     0.173 A 
ATOM     94  F   UNL A   1      46.586  31.949  31.018  1.00  0.00    -0.203 F 
ATOM     95  C   UNL A   1      46.990  34.154  30.304  1.00  0.00     0.198 A 
ATOM     96  C   UNL A   1      46.417  34.819  28.069  1.00  0.00     0.198 A 
ATOM     97  F   UNL A   1      45.406  33.281  26.606  1.00  0.00    -0.203 F 
ATOM     98  F   UNL A   1      47.467  34.459  31.518  1.00  0.00    -0.200 F 
ATOM     99  C   UNL A   1      46.943  35.127  29.314  1.00  0.00     0.200 A 
ATOM    100  F   UNL A   1      46.386  35.750  27.106  1.00  0.00    -0.200 F 
ATOM    101  F   UNL A   1      47.395  36.362  29.564  1.00  0.00    -0.200 F 
ENDBRANCH  68  91
ENDBRANCH  42  43
ENDBRANCH  34  37
ENDBRANCH  32  33
ENDBRANCH   1  32
TORSDOF 12
ENDMDL
