MODEL 1
REMARK VINA RESULT:     -10.6      0.000      0.000
REMARK SMILES C[C@H](C(=O)NCCCCNC(=O)c1ccc(-c2c3nc(c(-c4c(F)c(F)c(F)c(F)c4F)c4ccc([nH]4)c(-c4c(F)c(F)c(F)c(F)c4F)c4nc(c(-c5c(F)c(F)c(F)c(F)c5F)c5ccc2[nH]5)C=C4)C=C3)cc1)S(=O)(=O)NC1COC1
REMARK SMILES IDX 7 1 6 2 5 3 3 4 4 5 2 7 1 8 76 9 77 10 78 11 79 12 80 14
REMARK SMILES IDX 81 15 83 16 82 17 8 18 9 19 10 20 11 21 12 23 13 24 14 25
REMARK SMILES IDX 75 26 15 27 74 28 16 29 17 30 18 31 68 32 19 33 73 34 67 35
REMARK SMILES IDX 69 36 20 37 72 38 66 39 65 40 21 42 53 43 33 44 52 45 34 46
REMARK SMILES IDX 37 47 51 48 70 49 35 50 36 51 50 53 71 54 38 55 22 56 23 57
REMARK SMILES IDX 31 58 24 59 25 60 29 61 32 62 26 63 27 64 30 65 28 66 54 67
REMARK SMILES IDX 55 68 63 69 56 70 57 71 61 72 64 73 58 74 59 75 62 76 60 77
REMARK SMILES IDX 39 78 40 79 48 80 41 81 42 82 46 83 49 84 43 85 44 86 47 87
REMARK SMILES IDX 45 88
REMARK H PARENT 5 6 79 13 10 22 69 41 37 52
REMARK Flexibility Score: inf
ROOT
ATOM      1  C   UNL A   1      43.233  22.570  28.987  1.00  0.00     0.023 C 
ENDROOT
BRANCH   1   2
ATOM      2  C   UNL A   1      43.938  23.924  28.882  1.00  0.00     0.116 C 
BRANCH   2   3
ATOM      3  N   UNL A   1      45.286  23.805  28.353  1.00  0.00    -0.355 N 
ATOM      4  C   UNL A   1      45.750  23.868  27.074  1.00  0.00     0.239 C 
ATOM      5  O   UNL A   1      46.975  23.777  26.940  1.00  0.00    -0.274 OA
ATOM      6  H   UNL A   1      45.981  23.653  29.033  1.00  0.00     0.163 HD
BRANCH   4   7
ATOM      7  C   UNL A   1      44.841  24.113  25.892  1.00  0.00     0.209 C 
ATOM      8  C   UNL A   1      45.037  25.526  25.340  1.00  0.00     0.037 C 
BRANCH   7   9
ATOM      9  S   UNL A   1      45.095  22.901  24.589  1.00  0.00     0.223 S 
ATOM     10  O   UNL A   1      43.845  22.607  23.923  1.00  0.00    -0.212 OA
ATOM     11  O   UNL A   1      46.224  23.322  23.790  1.00  0.00    -0.212 OA
BRANCH   9  12
ATOM     12  N   UNL A   1      45.599  21.488  25.327  1.00  0.00    -0.207 NA
ATOM     13  H   UNL A   1      45.046  21.428  26.181  1.00  0.00     0.141 HD
BRANCH  12  14
ATOM     14  C   UNL A   1      45.568  20.102  24.749  1.00  0.00     0.121 C 
ATOM     15  C   UNL A   1      46.306  18.955  25.452  1.00  0.00     0.182 C 
ATOM     16  C   UNL A   1      44.322  19.244  25.005  1.00  0.00     0.182 C 
ATOM     17  O   UNL A   1      45.135  18.104  25.376  1.00  0.00    -0.378 OA
ENDBRANCH  12  14
ENDBRANCH   9  12
ENDBRANCH   7   9
ENDBRANCH   4   7
ENDBRANCH   2   3
ENDBRANCH   1   2
BRANCH   1  18
ATOM     18  C   UNL A   1      41.848  22.494  28.345  1.00  0.00     0.023 C 
BRANCH  18  19
ATOM     19  C   UNL A   1      41.838  22.540  26.824  1.00  0.00     0.116 C 
BRANCH  19  20
ATOM     20  N   UNL A   1      40.503  22.392  26.264  1.00  0.00    -0.352 N 
ATOM     21  C   UNL A   1      39.424  23.240  26.332  1.00  0.00     0.251 C 
ATOM     22  H   UNL A   1      40.350  21.559  25.762  1.00  0.00     0.163 HD
ATOM     23  O   UNL A   1      38.327  22.879  25.920  1.00  0.00    -0.269 OA
BRANCH  21  24
ATOM     24  C   UNL A   1      39.580  24.579  26.937  1.00  0.00     0.039 A 
ATOM     25  C   UNL A   1      39.094  24.795  28.228  1.00  0.00     0.014 A 
ATOM     26  C   UNL A   1      40.233  25.604  26.248  1.00  0.00     0.014 A 
ATOM     27  C   UNL A   1      39.349  26.010  28.869  1.00  0.00     0.010 A 
ATOM     28  C   UNL A   1      40.548  26.786  26.911  1.00  0.00     0.010 A 
ATOM     29  C   UNL A   1      40.127  26.992  28.234  1.00  0.00    -0.014 A 
BRANCH  29  30
ATOM     30  C   UNL A   1      40.568  28.213  28.954  1.00  0.00     0.031 A 
ATOM     31  C   UNL A   1      41.939  28.281  29.564  1.00  0.00     0.074 A 
ATOM     32  C   UNL A   1      39.689  29.218  29.146  1.00  0.00     0.049 A 
ATOM     33  N   UNL A   1      42.456  29.206  30.332  1.00  0.00    -0.248 NA
ATOM     34  C   UNL A   1      42.840  27.148  29.298  1.00  0.00     0.031 C 
ATOM     35  C   UNL A   1      38.312  29.243  28.646  1.00  0.00     0.029 A 
ATOM     36  N   UNL A   1      39.813  30.400  29.832  1.00  0.00    -0.354 N 
ATOM     37  C   UNL A   1      43.730  28.761  30.655  1.00  0.00     0.074 A 
ATOM     38  C   UNL A   1      43.900  27.467  30.031  1.00  0.00     0.031 C 
ATOM     39  C   UNL A   1      37.720  30.381  29.041  1.00  0.00     0.029 A 
ATOM     40  C   UNL A   1      38.658  31.146  29.856  1.00  0.00     0.049 A 
ATOM     41  H   UNL A   1      40.649  30.687  30.266  1.00  0.00     0.167 HD
ATOM     42  C   UNL A   1      44.676  29.387  31.395  1.00  0.00     0.037 A 
ATOM     43  C   UNL A   1      38.379  32.303  30.486  1.00  0.00     0.037 A 
ATOM     44  C   UNL A   1      44.515  30.691  31.982  1.00  0.00     0.049 A 
ATOM     45  C   UNL A   1      39.449  32.967  31.310  1.00  0.00     0.074 A 
ATOM     46  C   UNL A   1      45.453  31.451  32.660  1.00  0.00     0.029 A 
ATOM     47  N   UNL A   1      43.339  31.425  31.970  1.00  0.00    -0.354 N 
ATOM     48  N   UNL A   1      40.683  32.580  31.530  1.00  0.00    -0.248 NA
ATOM     49  C   UNL A   1      39.089  34.226  31.977  1.00  0.00     0.031 C 
ATOM     50  C   UNL A   1      44.829  32.620  33.105  1.00  0.00     0.029 A 
ATOM     51  C   UNL A   1      43.517  32.611  32.663  1.00  0.00     0.049 A 
ATOM     52  H   UNL A   1      42.503  31.144  31.533  1.00  0.00     0.167 HD
ATOM     53  C   UNL A   1      41.248  33.553  32.342  1.00  0.00     0.074 A 
ATOM     54  C   UNL A   1      40.232  34.562  32.557  1.00  0.00     0.031 C 
ATOM     55  C   UNL A   1      42.495  33.604  32.869  1.00  0.00     0.037 A 
BRANCH  42  56
ATOM     56  C   UNL A   1      45.981  28.683  31.613  1.00  0.00     0.064 A 
ATOM     57  C   UNL A   1      46.176  27.813  32.696  1.00  0.00     0.173 A 
ATOM     58  C   UNL A   1      47.019  28.810  30.677  1.00  0.00     0.173 A 
ATOM     59  F   UNL A   1      45.218  27.664  33.623  1.00  0.00    -0.203 F 
ATOM     60  C   UNL A   1      47.365  27.103  32.838  1.00  0.00     0.198 A 
ATOM     61  C   UNL A   1      48.196  28.081  30.808  1.00  0.00     0.198 A 
ATOM     62  F   UNL A   1      46.880  29.626  29.621  1.00  0.00    -0.203 F 
ATOM     63  F   UNL A   1      47.539  26.296  33.892  1.00  0.00    -0.200 F 
ATOM     64  C   UNL A   1      48.370  27.229  31.889  1.00  0.00     0.200 A 
ATOM     65  F   UNL A   1      49.160  28.193  29.883  1.00  0.00    -0.200 F 
ATOM     66  F   UNL A   1      49.505  26.528  32.016  1.00  0.00    -0.200 F 
ENDBRANCH  42  56
BRANCH  43  67
ATOM     67  C   UNL A   1      37.021  32.902  30.386  1.00  0.00     0.064 A 
ATOM     68  C   UNL A   1      36.074  32.717  31.404  1.00  0.00     0.173 A 
ATOM     69  C   UNL A   1      36.632  33.640  29.259  1.00  0.00     0.173 A 
ATOM     70  F   UNL A   1      36.392  31.999  32.490  1.00  0.00    -0.203 F 
ATOM     71  C   UNL A   1      34.781  33.222  31.283  1.00  0.00     0.198 A 
ATOM     72  C   UNL A   1      35.347  34.170  29.154  1.00  0.00     0.198 A 
ATOM     73  F   UNL A   1      37.500  33.848  28.258  1.00  0.00    -0.203 F 
ATOM     74  F   UNL A   1      33.878  32.979  32.243  1.00  0.00    -0.200 F 
ATOM     75  C   UNL A   1      34.419  33.951  30.160  1.00  0.00     0.200 A 
ATOM     76  F   UNL A   1      35.006  34.885  28.073  1.00  0.00    -0.200 F 
ATOM     77  F   UNL A   1      33.174  34.431  30.043  1.00  0.00    -0.200 F 
ENDBRANCH  43  67
BRANCH  55  78
ATOM     78  C   UNL A   1      42.834  34.792  33.720  1.00  0.00     0.064 A 
ATOM     79  C   UNL A   1      43.263  35.999  33.150  1.00  0.00     0.173 A 
ATOM     80  C   UNL A   1      42.686  34.737  35.114  1.00  0.00     0.173 A 
ATOM     81  F   UNL A   1      43.437  36.094  31.823  1.00  0.00    -0.203 F 
ATOM     82  C   UNL A   1      43.550  37.103  33.947  1.00  0.00     0.198 A 
ATOM     83  C   UNL A   1      42.944  35.852  35.905  1.00  0.00     0.198 A 
ATOM     84  F   UNL A   1      42.272  33.606  35.706  1.00  0.00    -0.203 F 
ATOM     85  F   UNL A   1      44.000  38.234  33.385  1.00  0.00    -0.200 F 
ATOM     86  C   UNL A   1      43.382  37.032  35.323  1.00  0.00     0.200 A 
ATOM     87  F   UNL A   1      42.768  35.786  37.232  1.00  0.00    -0.200 F 
ATOM     88  F   UNL A   1      43.648  38.100  36.086  1.00  0.00    -0.200 F 
ENDBRANCH  55  78
ENDBRANCH  29  30
ENDBRANCH  21  24
ENDBRANCH  19  20
ENDBRANCH  18  19
ENDBRANCH   1  18
TORSDOF 14
ENDMDL
MODEL 2
REMARK VINA RESULT:     -10.6      4.790     11.245
REMARK SMILES C[C@H](C(=O)NCCCCNC(=O)c1ccc(-c2c3nc(c(-c4c(F)c(F)c(F)c(F)c4F)c4ccc([nH]4)c(-c4c(F)c(F)c(F)c(F)c4F)c4nc(c(-c5c(F)c(F)c(F)c(F)c5F)c5ccc2[nH]5)C=C4)C=C3)cc1)S(=O)(=O)NC1COC1
REMARK SMILES IDX 7 1 6 2 5 3 3 4 4 5 2 7 1 8 76 9 77 10 78 11 79 12 80 14
REMARK SMILES IDX 81 15 83 16 82 17 8 18 9 19 10 20 11 21 12 23 13 24 14 25
REMARK SMILES IDX 75 26 15 27 74 28 16 29 17 30 18 31 68 32 19 33 73 34 67 35
REMARK SMILES IDX 69 36 20 37 72 38 66 39 65 40 21 42 53 43 33 44 52 45 34 46
REMARK SMILES IDX 37 47 51 48 70 49 35 50 36 51 50 53 71 54 38 55 22 56 23 57
REMARK SMILES IDX 31 58 24 59 25 60 29 61 32 62 26 63 27 64 30 65 28 66 54 67
REMARK SMILES IDX 55 68 63 69 56 70 57 71 61 72 64 73 58 74 59 75 62 76 60 77
REMARK SMILES IDX 39 78 40 79 48 80 41 81 42 82 46 83 49 84 43 85 44 86 47 87
REMARK SMILES IDX 45 88
REMARK H PARENT 5 6 79 13 10 22 69 41 37 52
REMARK Flexibility Score: inf
ROOT
ATOM      1  C   UNL A   1      35.447  33.854  29.079  1.00  0.00     0.023 C 
ENDROOT
BRANCH   1   2
ATOM      2  C   UNL A   1      36.893  33.407  29.303  1.00  0.00     0.116 C 
BRANCH   2   3
ATOM      3  N   UNL A   1      37.522  34.106  30.409  1.00  0.00    -0.355 N 
ATOM      4  C   UNL A   1      37.455  33.892  31.752  1.00  0.00     0.239 C 
ATOM      5  O   UNL A   1      38.152  34.636  32.452  1.00  0.00    -0.274 OA
ATOM      6  H   UNL A   1      38.095  34.862  30.143  1.00  0.00     0.163 HD
BRANCH   4   7
ATOM      7  C   UNL A   1      36.644  32.769  32.355  1.00  0.00     0.209 C 
ATOM      8  C   UNL A   1      37.421  32.082  33.479  1.00  0.00     0.037 C 
BRANCH   7   9
ATOM      9  S   UNL A   1      35.055  33.345  32.968  1.00  0.00     0.223 S 
ATOM     10  O   UNL A   1      33.979  32.570  32.388  1.00  0.00    -0.212 OA
ATOM     11  O   UNL A   1      35.134  33.452  34.408  1.00  0.00    -0.212 OA
BRANCH   9  12
ATOM     12  N   UNL A   1      34.866  34.918  32.433  1.00  0.00    -0.207 NA
ATOM     13  H   UNL A   1      34.981  34.865  31.421  1.00  0.00     0.141 HD
BRANCH  12  14
ATOM     14  C   UNL A   1      33.675  35.809  32.640  1.00  0.00     0.121 C 
ATOM     15  C   UNL A   1      33.830  37.150  33.369  1.00  0.00     0.182 C 
ATOM     16  C   UNL A   1      33.217  36.683  31.464  1.00  0.00     0.182 C 
ATOM     17  O   UNL A   1      33.112  37.847  32.320  1.00  0.00    -0.378 OA
ENDBRANCH  12  14
ENDBRANCH   9  12
ENDBRANCH   7   9
ENDBRANCH   4   7
ENDBRANCH   2   3
ENDBRANCH   1   2
BRANCH   1  18
ATOM     18  C   UNL A   1      34.408  32.735  29.027  1.00  0.00     0.023 C 
BRANCH  18  19
ATOM     19  C   UNL A   1      34.072  32.231  27.631  1.00  0.00     0.116 C 
BRANCH  19  20
ATOM     20  N   UNL A   1      33.588  30.859  27.628  1.00  0.00    -0.352 N 
ATOM     21  C   UNL A   1      34.277  29.685  27.812  1.00  0.00     0.251 C 
ATOM     22  H   UNL A   1      32.621  30.755  27.470  1.00  0.00     0.163 HD
ATOM     23  O   UNL A   1      33.723  28.606  27.629  1.00  0.00    -0.269 OA
BRANCH  21  24
ATOM     24  C   UNL A   1      35.703  29.723  28.196  1.00  0.00     0.039 A 
ATOM     25  C   UNL A   1      36.054  29.432  29.516  1.00  0.00     0.014 A 
ATOM     26  C   UNL A   1      36.692  30.010  27.251  1.00  0.00     0.014 A 
ATOM     27  C   UNL A   1      37.402  29.331  29.867  1.00  0.00     0.010 A 
ATOM     28  C   UNL A   1      38.032  29.840  27.583  1.00  0.00     0.010 A 
ATOM     29  C   UNL A   1      38.399  29.479  28.889  1.00  0.00    -0.014 A 
BRANCH  29  30
ATOM     30  C   UNL A   1      39.826  29.198  29.191  1.00  0.00     0.031 A 
ATOM     31  C   UNL A   1      40.685  30.248  29.836  1.00  0.00     0.074 A 
ATOM     32  C   UNL A   1      40.367  28.032  28.785  1.00  0.00     0.049 A 
ATOM     33  N   UNL A   1      41.974  30.235  30.062  1.00  0.00    -0.248 NA
ATOM     34  C   UNL A   1      40.013  31.488  30.259  1.00  0.00     0.031 C 
ATOM     35  C   UNL A   1      39.644  26.957  28.101  1.00  0.00     0.029 A 
ATOM     36  N   UNL A   1      41.655  27.565  28.865  1.00  0.00    -0.354 N 
ATOM     37  C   UNL A   1      42.270  31.464  30.634  1.00  0.00     0.074 A 
ATOM     38  C   UNL A   1      41.035  32.216  30.690  1.00  0.00     0.031 C 
ATOM     39  C   UNL A   1      40.497  25.958  27.826  1.00  0.00     0.029 A 
ATOM     40  C   UNL A   1      41.833  26.337  28.273  1.00  0.00     0.049 A 
ATOM     41  H   UNL A   1      42.383  28.062  29.305  1.00  0.00     0.167 HD
ATOM     42  C   UNL A   1      43.465  31.914  31.085  1.00  0.00     0.037 A 
ATOM     43  C   UNL A   1      42.952  25.611  28.088  1.00  0.00     0.037 A 
ATOM     44  C   UNL A   1      44.683  31.148  31.061  1.00  0.00     0.049 A 
ATOM     45  C   UNL A   1      44.266  26.146  28.590  1.00  0.00     0.074 A 
ATOM     46  C   UNL A   1      45.918  31.479  31.589  1.00  0.00     0.029 A 
ATOM     47  N   UNL A   1      44.821  29.900  30.471  1.00  0.00    -0.354 N 
ATOM     48  N   UNL A   1      44.516  27.271  29.215  1.00  0.00    -0.248 NA
ATOM     49  C   UNL A   1      45.455  25.313  28.360  1.00  0.00     0.031 C 
ATOM     50  C   UNL A   1      46.818  30.458  31.271  1.00  0.00     0.029 A 
ATOM     51  C   UNL A   1      46.132  29.468  30.587  1.00  0.00     0.049 A 
ATOM     52  H   UNL A   1      44.095  29.398  30.035  1.00  0.00     0.167 HD
ATOM     53  C   UNL A   1      45.881  27.273  29.466  1.00  0.00     0.074 A 
ATOM     54  C   UNL A   1      46.403  26.025  28.949  1.00  0.00     0.031 C 
ATOM     55  C   UNL A   1      46.636  28.224  30.066  1.00  0.00     0.037 A 
BRANCH  42  56
ATOM     56  C   UNL A   1      43.528  33.300  31.654  1.00  0.00     0.064 A 
ATOM     57  C   UNL A   1      43.701  34.425  30.834  1.00  0.00     0.173 A 
ATOM     58  C   UNL A   1      43.321  33.511  33.026  1.00  0.00     0.173 A 
ATOM     59  F   UNL A   1      43.911  34.275  29.519  1.00  0.00    -0.203 F 
ATOM     60  C   UNL A   1      43.673  35.710  31.370  1.00  0.00     0.198 A 
ATOM     61  C   UNL A   1      43.269  34.797  33.553  1.00  0.00     0.198 A 
ATOM     62  F   UNL A   1      43.145  32.468  33.851  1.00  0.00    -0.203 F 
ATOM     63  F   UNL A   1      43.864  36.769  30.572  1.00  0.00    -0.200 F 
ATOM     64  C   UNL A   1      43.446  35.896  32.726  1.00  0.00     0.200 A 
ATOM     65  F   UNL A   1      43.036  34.976  34.861  1.00  0.00    -0.200 F 
ATOM     66  F   UNL A   1      43.399  37.135  33.235  1.00  0.00    -0.200 F 
ENDBRANCH  42  56
BRANCH  43  67
ATOM     67  C   UNL A   1      42.891  24.307  27.374  1.00  0.00     0.064 A 
ATOM     68  C   UNL A   1      42.569  23.126  28.057  1.00  0.00     0.173 A 
ATOM     69  C   UNL A   1      43.186  24.210  26.007  1.00  0.00     0.173 A 
ATOM     70  F   UNL A   1      42.302  23.164  29.371  1.00  0.00    -0.203 F 
ATOM     71  C   UNL A   1      42.574  21.894  27.406  1.00  0.00     0.198 A 
ATOM     72  C   UNL A   1      43.161  22.981  25.350  1.00  0.00     0.198 A 
ATOM     73  F   UNL A   1      43.498  25.310  25.306  1.00  0.00    -0.203 F 
ATOM     74  F   UNL A   1      42.322  20.774  28.097  1.00  0.00    -0.200 F 
ATOM     75  C   UNL A   1      42.866  21.823  26.052  1.00  0.00     0.200 A 
ATOM     76  F   UNL A   1      43.431  22.919  24.039  1.00  0.00    -0.200 F 
ATOM     77  F   UNL A   1      42.877  20.637  25.429  1.00  0.00    -0.200 F 
ENDBRANCH  43  67
BRANCH  55  78
ATOM     78  C   UNL A   1      48.104  27.951  30.204  1.00  0.00     0.064 A 
ATOM     79  C   UNL A   1      49.021  28.375  29.231  1.00  0.00     0.173 A 
ATOM     80  C   UNL A   1      48.605  27.300  31.342  1.00  0.00     0.173 A 
ATOM     81  F   UNL A   1      48.587  28.987  28.118  1.00  0.00    -0.203 F 
ATOM     82  C   UNL A   1      50.384  28.140  29.382  1.00  0.00     0.198 A 
ATOM     83  C   UNL A   1      49.971  27.093  31.504  1.00  0.00     0.198 A 
ATOM     84  F   UNL A   1      47.770  26.881  32.304  1.00  0.00    -0.203 F 
ATOM     85  F   UNL A   1      51.237  28.516  28.419  1.00  0.00    -0.200 F 
ATOM     86  C   UNL A   1      50.859  27.507  30.522  1.00  0.00     0.200 A 
ATOM     87  F   UNL A   1      50.430  26.494  32.611  1.00  0.00    -0.200 F 
ATOM     88  F   UNL A   1      52.173  27.292  30.670  1.00  0.00    -0.200 F 
ENDBRANCH  55  78
ENDBRANCH  29  30
ENDBRANCH  21  24
ENDBRANCH  19  20
ENDBRANCH  18  19
ENDBRANCH   1  18
TORSDOF 14
ENDMDL
MODEL 3
REMARK VINA RESULT:     -10.6      5.518     10.363
REMARK SMILES C[C@H](C(=O)NCCCCNC(=O)c1ccc(-c2c3nc(c(-c4c(F)c(F)c(F)c(F)c4F)c4ccc([nH]4)c(-c4c(F)c(F)c(F)c(F)c4F)c4nc(c(-c5c(F)c(F)c(F)c(F)c5F)c5ccc2[nH]5)C=C4)C=C3)cc1)S(=O)(=O)NC1COC1
REMARK SMILES IDX 7 1 6 2 5 3 3 4 4 5 2 7 1 8 76 9 77 10 78 11 79 12 80 14
REMARK SMILES IDX 81 15 83 16 82 17 8 18 9 19 10 20 11 21 12 23 13 24 14 25
REMARK SMILES IDX 75 26 15 27 74 28 16 29 17 30 18 31 68 32 19 33 73 34 67 35
REMARK SMILES IDX 69 36 20 37 72 38 66 39 65 40 21 42 53 43 33 44 52 45 34 46
REMARK SMILES IDX 37 47 51 48 70 49 35 50 36 51 50 53 71 54 38 55 22 56 23 57
REMARK SMILES IDX 31 58 24 59 25 60 29 61 32 62 26 63 27 64 30 65 28 66 54 67
REMARK SMILES IDX 55 68 63 69 56 70 57 71 61 72 64 73 58 74 59 75 62 76 60 77
REMARK SMILES IDX 39 78 40 79 48 80 41 81 42 82 46 83 49 84 43 85 44 86 47 87
REMARK SMILES IDX 45 88
REMARK H PARENT 5 6 79 13 10 22 69 41 37 52
REMARK Flexibility Score: inf
ROOT
ATOM      1  C   UNL A   1      31.980  30.374  26.882  1.00  0.00     0.023 C 
ENDROOT
BRANCH   1   2
ATOM      2  C   UNL A   1      31.866  29.690  25.518  1.00  0.00     0.116 C 
BRANCH   2   3
ATOM      3  N   UNL A   1      32.613  28.446  25.460  1.00  0.00    -0.355 N 
ATOM      4  C   UNL A   1      33.000  27.686  24.399  1.00  0.00     0.239 C 
ATOM      5  O   UNL A   1      33.678  26.689  24.667  1.00  0.00    -0.274 OA
ATOM      6  H   UNL A   1      32.887  28.091  26.338  1.00  0.00     0.163 HD
BRANCH   4   7
ATOM      7  C   UNL A   1      32.692  28.072  22.970  1.00  0.00     0.209 C 
ATOM      8  C   UNL A   1      33.806  27.607  22.030  1.00  0.00     0.037 C 
BRANCH   7   9
ATOM      9  S   UNL A   1      31.111  27.413  22.425  1.00  0.00     0.223 S 
ATOM     10  O   UNL A   1      31.308  26.420  21.391  1.00  0.00    -0.212 OA
ATOM     11  O   UNL A   1      30.341  27.052  23.594  1.00  0.00    -0.212 OA
BRANCH   9  12
ATOM     12  N   UNL A   1      30.266  28.678  21.732  1.00  0.00    -0.207 NA
ATOM     13  H   UNL A   1      29.625  28.235  21.074  1.00  0.00     0.141 HD
BRANCH  12  14
ATOM     14  C   UNL A   1      29.439  29.712  22.441  1.00  0.00     0.121 C 
ATOM     15  C   UNL A   1      28.858  30.902  21.665  1.00  0.00     0.182 C 
ATOM     16  C   UNL A   1      27.967  29.384  22.725  1.00  0.00     0.182 C 
ATOM     17  O   UNL A   1      27.542  30.678  22.232  1.00  0.00    -0.378 OA
ENDBRANCH  12  14
ENDBRANCH   9  12
ENDBRANCH   7   9
ENDBRANCH   4   7
ENDBRANCH   2   3
ENDBRANCH   1   2
BRANCH   1  18
ATOM     18  C   UNL A   1      31.694  31.875  26.894  1.00  0.00     0.023 C 
BRANCH  18  19
ATOM     19  C   UNL A   1      32.867  32.752  27.311  1.00  0.00     0.116 C 
BRANCH  19  20
ATOM     20  N   UNL A   1      32.466  34.112  27.635  1.00  0.00    -0.352 N 
ATOM     21  C   UNL A   1      32.969  34.974  28.580  1.00  0.00     0.251 C 
ATOM     22  H   UNL A   1      31.722  34.469  27.098  1.00  0.00     0.163 HD
ATOM     23  O   UNL A   1      32.405  36.038  28.811  1.00  0.00    -0.269 OA
BRANCH  21  24
ATOM     24  C   UNL A   1      34.176  34.599  29.346  1.00  0.00     0.039 A 
ATOM     25  C   UNL A   1      34.020  34.051  30.621  1.00  0.00     0.014 A 
ATOM     26  C   UNL A   1      35.451  34.754  28.796  1.00  0.00     0.014 A 
ATOM     27  C   UNL A   1      35.137  33.566  31.306  1.00  0.00     0.010 A 
ATOM     28  C   UNL A   1      36.552  34.208  29.447  1.00  0.00     0.010 A 
ATOM     29  C   UNL A   1      36.403  33.591  30.698  1.00  0.00    -0.014 A 
BRANCH  29  30
ATOM     30  C   UNL A   1      37.573  32.921  31.322  1.00  0.00     0.031 A 
ATOM     31  C   UNL A   1      38.194  31.719  30.672  1.00  0.00     0.074 A 
ATOM     32  C   UNL A   1      38.005  33.340  32.528  1.00  0.00     0.049 A 
ATOM     33  N   UNL A   1      39.135  30.929  31.124  1.00  0.00    -0.248 NA
ATOM     34  C   UNL A   1      37.671  31.334  29.350  1.00  0.00     0.031 C 
ATOM     35  C   UNL A   1      37.446  34.465  33.283  1.00  0.00     0.029 A 
ATOM     36  N   UNL A   1      38.995  32.854  33.345  1.00  0.00    -0.354 N 
ATOM     37  C   UNL A   1      39.304  29.949  30.155  1.00  0.00     0.074 A 
ATOM     38  C   UNL A   1      38.346  30.218  29.106  1.00  0.00     0.031 C 
ATOM     39  C   UNL A   1      38.101  34.583  34.448  1.00  0.00     0.029 A 
ATOM     40  C   UNL A   1      39.095  33.520  34.545  1.00  0.00     0.049 A 
ATOM     41  H   UNL A   1      39.579  32.101  33.096  1.00  0.00     0.167 HD
ATOM     42  C   UNL A   1      40.192  28.926  30.142  1.00  0.00     0.037 A 
ATOM     43  C   UNL A   1      39.881  33.282  35.612  1.00  0.00     0.037 A 
ATOM     44  C   UNL A   1      41.168  28.686  31.172  1.00  0.00     0.049 A 
ATOM     45  C   UNL A   1      40.849  32.130  35.569  1.00  0.00     0.074 A 
ATOM     46  C   UNL A   1      42.176  27.738  31.197  1.00  0.00     0.029 A 
ATOM     47  N   UNL A   1      41.252  29.391  32.363  1.00  0.00    -0.354 N 
ATOM     48  N   UNL A   1      41.064  31.266  34.606  1.00  0.00    -0.248 NA
ATOM     49  C   UNL A   1      41.681  31.916  36.761  1.00  0.00     0.031 C 
ATOM     50  C   UNL A   1      42.836  27.834  32.425  1.00  0.00     0.029 A 
ATOM     51  C   UNL A   1      42.271  28.873  33.146  1.00  0.00     0.049 A 
ATOM     52  H   UNL A   1      40.675  30.147  32.613  1.00  0.00     0.167 HD
ATOM     53  C   UNL A   1      42.064  30.422  35.068  1.00  0.00     0.074 A 
ATOM     54  C   UNL A   1      42.431  30.891  36.388  1.00  0.00     0.031 C 
ATOM     55  C   UNL A   1      42.623  29.350  34.457  1.00  0.00     0.037 A 
BRANCH  42  56
ATOM     56  C   UNL A   1      40.165  27.984  28.977  1.00  0.00     0.064 A 
ATOM     57  C   UNL A   1      40.882  28.249  27.801  1.00  0.00     0.173 A 
ATOM     58  C   UNL A   1      39.489  26.759  29.073  1.00  0.00     0.173 A 
ATOM     59  F   UNL A   1      41.537  29.410  27.656  1.00  0.00    -0.203 F 
ATOM     60  C   UNL A   1      40.914  27.324  26.760  1.00  0.00     0.198 A 
ATOM     61  C   UNL A   1      39.544  25.827  28.041  1.00  0.00     0.198 A 
ATOM     62  F   UNL A   1      38.794  26.455  30.180  1.00  0.00    -0.203 F 
ATOM     63  F   UNL A   1      41.585  27.608  25.635  1.00  0.00    -0.200 F 
ATOM     64  C   UNL A   1      40.255  26.110  26.885  1.00  0.00     0.200 A 
ATOM     65  F   UNL A   1      38.918  24.648  28.170  1.00  0.00    -0.200 F 
ATOM     66  F   UNL A   1      40.305  25.213  25.891  1.00  0.00    -0.200 F 
ENDBRANCH  42  56
BRANCH  43  67
ATOM     67  C   UNL A   1      39.776  34.135  36.825  1.00  0.00     0.064 A 
ATOM     68  C   UNL A   1      40.543  35.302  36.955  1.00  0.00     0.173 A 
ATOM     69  C   UNL A   1      38.936  33.785  37.892  1.00  0.00     0.173 A 
ATOM     70  F   UNL A   1      41.378  35.666  35.972  1.00  0.00    -0.203 F 
ATOM     71  C   UNL A   1      40.495  36.069  38.118  1.00  0.00     0.198 A 
ATOM     72  C   UNL A   1      38.867  34.570  39.042  1.00  0.00     0.198 A 
ATOM     73  F   UNL A   1      38.180  32.680  37.818  1.00  0.00    -0.203 F 
ATOM     74  F   UNL A   1      41.284  37.145  38.239  1.00  0.00    -0.200 F 
ATOM     75  C   UNL A   1      39.655  35.704  39.159  1.00  0.00     0.200 A 
ATOM     76  F   UNL A   1      38.044  34.220  40.040  1.00  0.00    -0.200 F 
ATOM     77  F   UNL A   1      39.615  36.439  40.279  1.00  0.00    -0.200 F 
ENDBRANCH  43  67
BRANCH  55  78
ATOM     78  C   UNL A   1      43.697  28.616  35.204  1.00  0.00     0.064 A 
ATOM     79  C   UNL A   1      45.048  28.971  35.077  1.00  0.00     0.173 A 
ATOM     80  C   UNL A   1      43.369  27.577  36.089  1.00  0.00     0.173 A 
ATOM     81  F   UNL A   1      45.412  29.946  34.230  1.00  0.00    -0.203 F 
ATOM     82  C   UNL A   1      46.033  28.301  35.795  1.00  0.00     0.198 A 
ATOM     83  C   UNL A   1      44.355  26.930  36.828  1.00  0.00     0.198 A 
ATOM     84  F   UNL A   1      42.091  27.204  36.250  1.00  0.00    -0.203 F 
ATOM     85  F   UNL A   1      47.322  28.629  35.626  1.00  0.00    -0.200 F 
ATOM     86  C   UNL A   1      45.686  27.287  36.676  1.00  0.00     0.200 A 
ATOM     87  F   UNL A   1      44.016  25.960  37.688  1.00  0.00    -0.200 F 
ATOM     88  F   UNL A   1      46.636  26.651  37.374  1.00  0.00    -0.200 F 
ENDBRANCH  55  78
ENDBRANCH  29  30
ENDBRANCH  21  24
ENDBRANCH  19  20
ENDBRANCH  18  19
ENDBRANCH   1  18
TORSDOF 14
ENDMDL
