MODEL 1
REMARK VINA RESULT:     -12.7      0.000      0.000
REMARK SMILES CC(C)[C@@H](CNC(=O)[C@@H]1CC[C@@H]2CCCC[C@@H]2[NH2+]1)C(=O)NCCCCNC(=O)c1ccc(-c2c3nc(c(-c4c(F)c(F)c(F)c(F)c4F)c4ccc([nH]4)c(-c4c(F)c(F)c(F)c(F)c4F)c4nc(c(-c5c(F)c(F)c(F)c(F)c5F)c5ccc2[nH]5)C=C4)C=C3)cc1
REMARK SMILES IDX 23 1 22 2 21 3 19 4 20 5 4 7 2 8 1 9 3 10 5 11 6 12 7 13
REMARK SMILES IDX 8 15 9 16 10 17 18 18 11 19 17 20 12 23 16 24 13 25 15 26
REMARK SMILES IDX 14 27 24 28 25 29 26 30 27 31 28 33 29 34 30 35 91 36 31 37
REMARK SMILES IDX 90 38 32 39 33 40 34 41 84 42 35 43 89 44 83 45 85 46 36 47
REMARK SMILES IDX 88 48 82 49 81 50 37 52 69 53 49 54 68 55 50 56 53 57 67 58
REMARK SMILES IDX 86 59 51 60 52 61 66 63 87 64 54 65 38 66 39 67 47 68 40 69
REMARK SMILES IDX 41 70 45 71 48 72 42 73 43 74 46 75 44 76 70 77 71 78 79 79
REMARK SMILES IDX 72 80 73 81 77 82 80 83 74 84 75 85 78 86 76 87 55 88 56 89
REMARK SMILES IDX 64 90 57 91 58 92 62 93 65 94 59 95 60 96 63 97 61 98
REMARK H PARENT 21 6 6 14 18 21 18 22 26 32 85 51 53 62
REMARK Flexibility Score: inf
ROOT
ATOM      1  C   UNL A   1      32.164  30.600  26.416  1.00  0.00     0.023 C 
ENDROOT
BRANCH   1   2
ATOM      2  C   UNL A   1      31.225  30.293  25.259  1.00  0.00     0.116 C 
BRANCH   2   3
ATOM      3  N   UNL A   1      31.771  29.371  24.285  1.00  0.00    -0.356 N 
ATOM      4  C   UNL A   1      31.158  28.520  23.419  1.00  0.00     0.225 C 
ATOM      5  O   UNL A   1      31.862  28.024  22.533  1.00  0.00    -0.275 OA
ATOM      6  H   UNL A   1      32.755  29.358  24.243  1.00  0.00     0.163 HD
BRANCH   4   7
ATOM      7  C   UNL A   1      29.668  28.164  23.484  1.00  0.00     0.100 C 
BRANCH   7   8
ATOM      8  C   UNL A   1      28.775  28.911  22.456  1.00  0.00    -0.003 C 
ATOM      9  C   UNL A   1      27.375  29.208  23.002  1.00  0.00     0.008 C 
ATOM     10  C   UNL A   1      29.434  30.230  22.023  1.00  0.00     0.008 C 
ENDBRANCH   7   8
BRANCH   7  11
ATOM     11  C   UNL A   1      29.464  26.642  23.637  1.00  0.00     0.129 C 
BRANCH  11  12
ATOM     12  N   UNL A   1      30.329  26.018  24.618  1.00  0.00    -0.350 N 
ATOM     13  C   UNL A   1      30.942  24.794  24.555  1.00  0.00     0.278 C 
ATOM     14  H   UNL A   1      30.498  26.541  25.435  1.00  0.00     0.163 HD
ATOM     15  O   UNL A   1      31.212  24.241  25.622  1.00  0.00    -0.268 OA
BRANCH  13  16
ATOM     16  C   UNL A   1      31.290  24.197  23.175  1.00  0.00     0.272 C 
ATOM     17  C   UNL A   1      31.775  22.746  23.238  1.00  0.00     0.076 C 
ATOM     18  N   UNL A   1      32.271  25.054  22.481  1.00  0.00    -0.333 N 
ATOM     19  C   UNL A   1      33.158  22.607  23.860  1.00  0.00     0.016 C 
ATOM     20  C   UNL A   1      33.642  24.992  23.005  1.00  0.00     0.186 C 
ATOM     21  H   UNL A   1      31.950  26.021  22.552  1.00  0.00     0.347 HD
ATOM     22  H   UNL A   1      32.318  24.709  21.522  1.00  0.00     0.347 HD
ATOM     23  C   UNL A   1      34.171  23.559  23.212  1.00  0.00     0.048 C 
ATOM     24  C   UNL A   1      33.937  25.968  24.167  1.00  0.00     0.065 C 
ATOM     25  C   UNL A   1      35.490  23.599  23.991  1.00  0.00     0.010 C 
ATOM     26  C   UNL A   1      34.322  25.323  25.495  1.00  0.00     0.006 C 
ATOM     27  C   UNL A   1      35.352  24.201  25.387  1.00  0.00     0.001 C 
ENDBRANCH  13  16
ENDBRANCH  11  12
ENDBRANCH   7  11
ENDBRANCH   4   7
ENDBRANCH   2   3
ENDBRANCH   1   2
BRANCH   1  28
ATOM     28  C   UNL A   1      31.826  31.878  27.177  1.00  0.00     0.023 C 
BRANCH  28  29
ATOM     29  C   UNL A   1      32.969  32.878  27.335  1.00  0.00     0.116 C 
BRANCH  29  30
ATOM     30  N   UNL A   1      32.539  34.226  27.690  1.00  0.00    -0.352 N 
ATOM     31  C   UNL A   1      33.039  35.050  28.672  1.00  0.00     0.251 C 
ATOM     32  H   UNL A   1      31.795  34.592  27.159  1.00  0.00     0.163 HD
ATOM     33  O   UNL A   1      32.521  36.131  28.925  1.00  0.00    -0.269 OA
BRANCH  31  34
ATOM     34  C   UNL A   1      34.200  34.585  29.456  1.00  0.00     0.039 A 
ATOM     35  C   UNL A   1      33.983  33.995  30.702  1.00  0.00     0.014 A 
ATOM     36  C   UNL A   1      35.483  34.643  28.905  1.00  0.00     0.014 A 
ATOM     37  C   UNL A   1      35.045  33.368  31.355  1.00  0.00     0.010 A 
ATOM     38  C   UNL A   1      36.520  33.953  29.521  1.00  0.00     0.010 A 
ATOM     39  C   UNL A   1      36.307  33.294  30.742  1.00  0.00    -0.014 A 
BRANCH  39  40
ATOM     40  C   UNL A   1      37.413  32.509  31.342  1.00  0.00     0.031 A 
ATOM     41  C   UNL A   1      37.931  32.862  32.705  1.00  0.00     0.074 A 
ATOM     42  C   UNL A   1      38.009  31.537  30.622  1.00  0.00     0.049 A 
ATOM     43  N   UNL A   1      38.952  32.366  33.358  1.00  0.00    -0.248 NA
ATOM     44  C   UNL A   1      37.227  33.940  33.418  1.00  0.00     0.031 C 
ATOM     45  C   UNL A   1      37.632  31.136  29.265  1.00  0.00     0.029 A 
ATOM     46  N   UNL A   1      39.067  30.719  30.927  1.00  0.00    -0.354 N 
ATOM     47  C   UNL A   1      39.022  33.082  34.545  1.00  0.00     0.074 A 
ATOM     48  C   UNL A   1      37.976  34.080  34.501  1.00  0.00     0.031 C 
ATOM     49  C   UNL A   1      38.431  30.132  28.866  1.00  0.00     0.029 A 
ATOM     50  C   UNL A   1      39.398  29.845  29.920  1.00  0.00     0.049 A 
ATOM     51  H   UNL A   1      39.546  30.755  31.787  1.00  0.00     0.167 HD
ATOM     52  C   UNL A   1      39.868  32.906  35.588  1.00  0.00     0.037 A 
ATOM     53  C   UNL A   1      40.375  28.921  29.854  1.00  0.00     0.037 A 
ATOM     54  C   UNL A   1      40.888  31.893  35.642  1.00  0.00     0.049 A 
ATOM     55  C   UNL A   1      41.300  28.746  31.027  1.00  0.00     0.074 A 
ATOM     56  C   UNL A   1      41.753  31.594  36.679  1.00  0.00     0.029 A 
ATOM     57  N   UNL A   1      41.177  31.011  34.611  1.00  0.00    -0.354 N 
ATOM     58  N   UNL A   1      41.318  29.385  32.170  1.00  0.00    -0.248 NA
ATOM     59  C   UNL A   1      42.343  27.717  30.899  1.00  0.00     0.031 C 
ATOM     60  C   UNL A   1      42.590  30.553  36.263  1.00  0.00     0.029 A 
ATOM     61  C   UNL A   1      42.220  30.177  34.982  1.00  0.00     0.049 A 
ATOM     62  H   UNL A   1      40.710  30.982  33.744  1.00  0.00     0.167 HD
ATOM     63  C   UNL A   1      42.349  28.821  32.908  1.00  0.00     0.074 A 
ATOM     64  C   UNL A   1      42.928  27.779  32.086  1.00  0.00     0.031 C 
ATOM     65  C   UNL A   1      42.777  29.138  34.155  1.00  0.00     0.037 A 
BRANCH  52  66
ATOM     66  C   UNL A   1      39.713  33.828  36.761  1.00  0.00     0.064 A 
ATOM     67  C   UNL A   1      40.365  35.069  36.808  1.00  0.00     0.173 A 
ATOM     68  C   UNL A   1      38.889  33.477  37.841  1.00  0.00     0.173 A 
ATOM     69  F   UNL A   1      41.175  35.445  35.807  1.00  0.00    -0.203 F 
ATOM     70  C   UNL A   1      40.222  35.912  37.908  1.00  0.00     0.198 A 
ATOM     71  C   UNL A   1      38.726  34.334  38.925  1.00  0.00     0.198 A 
ATOM     72  F   UNL A   1      38.240  32.302  37.842  1.00  0.00    -0.203 F 
ATOM     73  F   UNL A   1      40.896  37.070  37.953  1.00  0.00    -0.200 F 
ATOM     74  C   UNL A   1      39.399  35.546  38.962  1.00  0.00     0.200 A 
ATOM     75  F   UNL A   1      37.922  33.985  39.938  1.00  0.00    -0.200 F 
ATOM     76  F   UNL A   1      39.261  36.359  40.017  1.00  0.00    -0.200 F 
ENDBRANCH  52  66
BRANCH  53  77
ATOM     77  C   UNL A   1      40.508  28.066  28.647  1.00  0.00     0.064 A 
ATOM     78  C   UNL A   1      39.862  26.824  28.577  1.00  0.00     0.173 A 
ATOM     79  C   UNL A   1      41.280  28.464  27.547  1.00  0.00     0.173 A 
ATOM     80  F   UNL A   1      39.131  26.392  29.614  1.00  0.00    -0.203 F 
ATOM     81  C   UNL A   1      39.997  26.005  27.458  1.00  0.00     0.198 A 
ATOM     82  C   UNL A   1      41.393  27.655  26.418  1.00  0.00     0.198 A 
ATOM     83  F   UNL A   1      41.915  29.645  27.564  1.00  0.00    -0.203 F 
ATOM     84  F   UNL A   1      39.400  24.805  27.434  1.00  0.00    -0.200 F 
ATOM     85  C   UNL A   1      40.757  26.423  26.378  1.00  0.00     0.200 A 
ATOM     86  F   UNL A   1      42.120  28.067  25.371  1.00  0.00    -0.200 F 
ATOM     87  F   UNL A   1      40.884  25.636  25.300  1.00  0.00    -0.200 F 
ENDBRANCH  53  77
BRANCH  65  88
ATOM     88  C   UNL A   1      43.904  28.327  34.721  1.00  0.00     0.064 A 
ATOM     89  C   UNL A   1      43.672  27.129  35.410  1.00  0.00     0.173 A 
ATOM     90  C   UNL A   1      45.233  28.733  34.532  1.00  0.00     0.173 A 
ATOM     91  F   UNL A   1      42.416  26.709  35.630  1.00  0.00    -0.203 F 
ATOM     92  C   UNL A   1      44.730  26.374  35.907  1.00  0.00     0.198 A 
ATOM     93  C   UNL A   1      46.291  27.962  35.007  1.00  0.00     0.198 A 
ATOM     94  F   UNL A   1      45.506  29.870  33.875  1.00  0.00    -0.203 F 
ATOM     95  F   UNL A   1      44.486  25.252  36.596  1.00  0.00    -0.200 F 
ATOM     96  C   UNL A   1      46.038  26.787  35.698  1.00  0.00     0.200 A 
ATOM     97  F   UNL A   1      47.554  28.357  34.795  1.00  0.00    -0.200 F 
ATOM     98  F   UNL A   1      47.057  26.054  36.170  1.00  0.00    -0.200 F 
ENDBRANCH  65  88
ENDBRANCH  39  40
ENDBRANCH  31  34
ENDBRANCH  29  30
ENDBRANCH  28  29
ENDBRANCH   1  28
TORSDOF 15
ENDMDL
MODEL 2
REMARK VINA RESULT:     -12.6      3.737      5.520
REMARK SMILES CC(C)[C@@H](CNC(=O)[C@@H]1CC[C@@H]2CCCC[C@@H]2[NH2+]1)C(=O)NCCCCNC(=O)c1ccc(-c2c3nc(c(-c4c(F)c(F)c(F)c(F)c4F)c4ccc([nH]4)c(-c4c(F)c(F)c(F)c(F)c4F)c4nc(c(-c5c(F)c(F)c(F)c(F)c5F)c5ccc2[nH]5)C=C4)C=C3)cc1
REMARK SMILES IDX 23 1 22 2 21 3 19 4 20 5 4 7 2 8 1 9 3 10 5 11 6 12 7 13
REMARK SMILES IDX 8 15 9 16 10 17 18 18 11 19 17 20 12 23 16 24 13 25 15 26
REMARK SMILES IDX 14 27 24 28 25 29 26 30 27 31 28 33 29 34 30 35 91 36 31 37
REMARK SMILES IDX 90 38 32 39 33 40 34 41 84 42 35 43 89 44 83 45 85 46 36 47
REMARK SMILES IDX 88 48 82 49 81 50 37 52 69 53 49 54 68 55 50 56 53 57 67 58
REMARK SMILES IDX 86 59 51 60 52 61 66 63 87 64 54 65 38 66 39 67 47 68 40 69
REMARK SMILES IDX 41 70 45 71 48 72 42 73 43 74 46 75 44 76 70 77 71 78 79 79
REMARK SMILES IDX 72 80 73 81 77 82 80 83 74 84 75 85 78 86 76 87 55 88 56 89
REMARK SMILES IDX 64 90 57 91 58 92 62 93 65 94 59 95 60 96 63 97 61 98
REMARK H PARENT 21 6 6 14 18 21 18 22 26 32 85 51 53 62
REMARK Flexibility Score: inf
ROOT
ATOM      1  C   UNL A   1      31.655  29.442  26.700  1.00  0.00     0.023 C 
ENDROOT
BRANCH   1   2
ATOM      2  C   UNL A   1      31.557  30.106  25.335  1.00  0.00     0.116 C 
BRANCH   2   3
ATOM      3  N   UNL A   1      31.935  29.247  24.233  1.00  0.00    -0.356 N 
ATOM      4  C   UNL A   1      31.179  28.518  23.368  1.00  0.00     0.225 C 
ATOM      5  O   UNL A   1      31.753  28.065  22.372  1.00  0.00    -0.275 OA
ATOM      6  H   UNL A   1      32.906  29.179  24.084  1.00  0.00     0.163 HD
BRANCH   4   7
ATOM      7  C   UNL A   1      29.683  28.248  23.563  1.00  0.00     0.100 C 
BRANCH   7   8
ATOM      8  C   UNL A   1      28.751  29.021  22.590  1.00  0.00    -0.003 C 
ATOM      9  C   UNL A   1      27.285  28.991  23.035  1.00  0.00     0.008 C 
ATOM     10  C   UNL A   1      29.202  30.483  22.453  1.00  0.00     0.008 C 
ENDBRANCH   7   8
BRANCH   7  11
ATOM     11  C   UNL A   1      29.409  26.744  23.772  1.00  0.00     0.129 C 
BRANCH  11  12
ATOM     12  N   UNL A   1      30.305  26.099  24.711  1.00  0.00    -0.350 N 
ATOM     13  C   UNL A   1      30.898  24.867  24.611  1.00  0.00     0.278 C 
ATOM     14  H   UNL A   1      30.515  26.611  25.525  1.00  0.00     0.163 HD
ATOM     15  O   UNL A   1      31.205  24.300  25.661  1.00  0.00    -0.268 OA
BRANCH  13  16
ATOM     16  C   UNL A   1      31.181  24.279  23.212  1.00  0.00     0.272 C 
ATOM     17  C   UNL A   1      31.631  22.816  23.240  1.00  0.00     0.076 C 
ATOM     18  N   UNL A   1      32.156  25.121  22.492  1.00  0.00    -0.333 N 
ATOM     19  C   UNL A   1      33.033  22.636  23.809  1.00  0.00     0.016 C 
ATOM     20  C   UNL A   1      33.544  25.019  22.965  1.00  0.00     0.186 C 
ATOM     21  H   UNL A   1      31.862  26.094  22.586  1.00  0.00     0.347 HD
ATOM     22  H   UNL A   1      32.160  24.786  21.529  1.00  0.00     0.347 HD
ATOM     23  C   UNL A   1      34.044  23.571  23.136  1.00  0.00     0.048 C 
ATOM     24  C   UNL A   1      33.905  25.973  24.126  1.00  0.00     0.065 C 
ATOM     25  C   UNL A   1      35.392  23.569  23.865  1.00  0.00     0.010 C 
ATOM     26  C   UNL A   1      34.322  25.302  25.432  1.00  0.00     0.006 C 
ATOM     27  C   UNL A   1      35.320  24.157  25.273  1.00  0.00     0.001 C 
ENDBRANCH  13  16
ENDBRANCH  11  12
ENDBRANCH   7  11
ENDBRANCH   4   7
ENDBRANCH   2   3
ENDBRANCH   1   2
BRANCH   1  28
ATOM     28  C   UNL A   1      32.707  28.341  26.789  1.00  0.00     0.023 C 
BRANCH  28  29
ATOM     29  C   UNL A   1      34.083  28.776  27.286  1.00  0.00     0.116 C 
BRANCH  29  30
ATOM     30  N   UNL A   1      34.111  30.108  27.878  1.00  0.00    -0.352 N 
ATOM     31  C   UNL A   1      35.148  30.728  28.537  1.00  0.00     0.251 C 
ATOM     32  H   UNL A   1      33.281  30.632  27.797  1.00  0.00     0.163 HD
ATOM     33  O   UNL A   1      35.006  31.823  29.069  1.00  0.00    -0.269 OA
BRANCH  31  34
ATOM     34  C   UNL A   1      36.441  30.023  28.632  1.00  0.00     0.039 A 
ATOM     35  C   UNL A   1      37.348  30.124  27.575  1.00  0.00     0.014 A 
ATOM     36  C   UNL A   1      36.787  29.355  29.810  1.00  0.00     0.014 A 
ATOM     37  C   UNL A   1      38.646  29.640  27.740  1.00  0.00     0.010 A 
ATOM     38  C   UNL A   1      38.100  28.942  29.998  1.00  0.00     0.010 A 
ATOM     39  C   UNL A   1      39.046  29.096  28.972  1.00  0.00    -0.014 A 
BRANCH  39  40
ATOM     40  C   UNL A   1      40.456  28.709  29.225  1.00  0.00     0.031 A 
ATOM     41  C   UNL A   1      41.378  29.655  29.936  1.00  0.00     0.074 A 
ATOM     42  C   UNL A   1      40.927  27.546  28.734  1.00  0.00     0.049 A 
ATOM     43  N   UNL A   1      42.663  29.546  30.162  1.00  0.00    -0.248 NA
ATOM     44  C   UNL A   1      40.783  30.906  30.432  1.00  0.00     0.031 C 
ATOM     45  C   UNL A   1      40.144  26.565  27.978  1.00  0.00     0.029 A 
ATOM     46  N   UNL A   1      42.183  26.996  28.786  1.00  0.00    -0.354 N 
ATOM     47  C   UNL A   1      43.031  30.719  30.808  1.00  0.00     0.074 A 
ATOM     48  C   UNL A   1      41.847  31.546  30.892  1.00  0.00     0.031 C 
ATOM     49  C   UNL A   1      40.930  25.525  27.660  1.00  0.00     0.029 A 
ATOM     50  C   UNL A   1      42.280  25.780  28.154  1.00  0.00     0.049 A 
ATOM     51  H   UNL A   1      42.944  27.432  29.233  1.00  0.00     0.167 HD
ATOM     52  C   UNL A   1      44.242  31.062  31.309  1.00  0.00     0.037 A 
ATOM     53  C   UNL A   1      43.340  24.967  27.987  1.00  0.00     0.037 A 
ATOM     54  C   UNL A   1      45.409  30.225  31.251  1.00  0.00     0.049 A 
ATOM     55  C   UNL A   1      44.673  25.372  28.554  1.00  0.00     0.074 A 
ATOM     56  C   UNL A   1      46.665  30.457  31.784  1.00  0.00     0.029 A 
ATOM     57  N   UNL A   1      45.463  28.989  30.623  1.00  0.00    -0.354 N 
ATOM     58  N   UNL A   1      44.995  26.454  29.218  1.00  0.00    -0.248 NA
ATOM     59  C   UNL A   1      45.791  24.440  28.346  1.00  0.00     0.031 C 
ATOM     60  C   UNL A   1      47.488  29.377  31.448  1.00  0.00     0.029 A 
ATOM     61  C   UNL A   1      46.735  28.454  30.740  1.00  0.00     0.049 A 
ATOM     62  H   UNL A   1      44.707  28.557  30.162  1.00  0.00     0.167 HD
ATOM     63  C   UNL A   1      46.340  26.323  29.533  1.00  0.00     0.074 A 
ATOM     64  C   UNL A   1      46.773  25.050  28.995  1.00  0.00     0.031 C 
ATOM     65  C   UNL A   1      47.145  27.180  30.208  1.00  0.00     0.037 A 
BRANCH  52  66
ATOM     66  C   UNL A   1      44.355  32.403  31.972  1.00  0.00     0.064 A 
ATOM     67  C   UNL A   1      44.109  32.564  33.344  1.00  0.00     0.173 A 
ATOM     68  C   UNL A   1      44.733  33.535  31.234  1.00  0.00     0.173 A 
ATOM     69  F   UNL A   1      43.731  31.516  34.090  1.00  0.00    -0.203 F 
ATOM     70  C   UNL A   1      44.207  33.816  33.947  1.00  0.00     0.198 A 
ATOM     71  C   UNL A   1      44.858  34.779  31.846  1.00  0.00     0.198 A 
ATOM     72  F   UNL A   1      44.984  33.433  29.920  1.00  0.00    -0.203 F 
ATOM     73  F   UNL A   1      43.917  33.955  35.248  1.00  0.00    -0.200 F 
ATOM     74  C   UNL A   1      44.586  34.921  33.199  1.00  0.00     0.200 A 
ATOM     75  F   UNL A   1      45.235  35.843  31.125  1.00  0.00    -0.200 F 
ATOM     76  F   UNL A   1      44.682  36.123  33.780  1.00  0.00    -0.200 F 
ENDBRANCH  52  66
BRANCH  53  77
ATOM     77  C   UNL A   1      43.177  23.669  27.282  1.00  0.00     0.064 A 
ATOM     78  C   UNL A   1      42.576  22.578  27.923  1.00  0.00     0.173 A 
ATOM     79  C   UNL A   1      43.619  23.491  25.964  1.00  0.00     0.173 A 
ATOM     80  F   UNL A   1      42.157  22.696  29.191  1.00  0.00    -0.203 F 
ATOM     81  C   UNL A   1      42.436  21.351  27.278  1.00  0.00     0.198 A 
ATOM     82  C   UNL A   1      43.456  22.270  25.310  1.00  0.00     0.198 A 
ATOM     83  F   UNL A   1      44.198  24.505  25.305  1.00  0.00    -0.203 F 
ATOM     84  F   UNL A   1      41.893  20.313  27.928  1.00  0.00    -0.200 F 
ATOM     85  C   UNL A   1      42.871  21.200  25.971  1.00  0.00     0.200 A 
ATOM     86  F   UNL A   1      43.868  22.130  24.043  1.00  0.00    -0.200 F 
ATOM     87  F   UNL A   1      42.735  20.021  25.349  1.00  0.00    -0.200 F 
ENDBRANCH  53  77
BRANCH  65  88
ATOM     88  C   UNL A   1      48.565  26.756  30.433  1.00  0.00     0.064 A 
ATOM     89  C   UNL A   1      49.594  27.151  29.568  1.00  0.00     0.173 A 
ATOM     90  C   UNL A   1      48.905  25.982  31.552  1.00  0.00     0.173 A 
ATOM     91  F   UNL A   1      49.316  27.879  28.474  1.00  0.00    -0.203 F 
ATOM     92  C   UNL A   1      50.912  26.771  29.805  1.00  0.00     0.198 A 
ATOM     93  C   UNL A   1      50.227  25.625  31.801  1.00  0.00     0.198 A 
ATOM     94  F   UNL A   1      47.955  25.583  32.411  1.00  0.00    -0.203 F 
ATOM     95  F   UNL A   1      51.876  27.127  28.944  1.00  0.00    -0.200 F 
ATOM     96  C   UNL A   1      51.228  26.016  30.924  1.00  0.00     0.200 A 
ATOM     97  F   UNL A   1      50.532  24.904  32.888  1.00  0.00    -0.200 F 
ATOM     98  F   UNL A   1      52.499  25.656  31.155  1.00  0.00    -0.200 F 
ENDBRANCH  65  88
ENDBRANCH  39  40
ENDBRANCH  31  34
ENDBRANCH  29  30
ENDBRANCH  28  29
ENDBRANCH   1  28
TORSDOF 15
ENDMDL
MODEL 3
REMARK VINA RESULT:     -12.5      5.502     11.092
REMARK SMILES CC(C)[C@@H](CNC(=O)[C@@H]1CC[C@@H]2CCCC[C@@H]2[NH2+]1)C(=O)NCCCCNC(=O)c1ccc(-c2c3nc(c(-c4c(F)c(F)c(F)c(F)c4F)c4ccc([nH]4)c(-c4c(F)c(F)c(F)c(F)c4F)c4nc(c(-c5c(F)c(F)c(F)c(F)c5F)c5ccc2[nH]5)C=C4)C=C3)cc1
REMARK SMILES IDX 23 1 22 2 21 3 19 4 20 5 4 7 2 8 1 9 3 10 5 11 6 12 7 13
REMARK SMILES IDX 8 15 9 16 10 17 18 18 11 19 17 20 12 23 16 24 13 25 15 26
REMARK SMILES IDX 14 27 24 28 25 29 26 30 27 31 28 33 29 34 30 35 91 36 31 37
REMARK SMILES IDX 90 38 32 39 33 40 34 41 84 42 35 43 89 44 83 45 85 46 36 47
REMARK SMILES IDX 88 48 82 49 81 50 37 52 69 53 49 54 68 55 50 56 53 57 67 58
REMARK SMILES IDX 86 59 51 60 52 61 66 63 87 64 54 65 38 66 39 67 47 68 40 69
REMARK SMILES IDX 41 70 45 71 48 72 42 73 43 74 46 75 44 76 70 77 71 78 79 79
REMARK SMILES IDX 72 80 73 81 77 82 80 83 74 84 75 85 78 86 76 87 55 88 56 89
REMARK SMILES IDX 64 90 57 91 58 92 62 93 65 94 59 95 60 96 63 97 61 98
REMARK H PARENT 21 6 6 14 18 21 18 22 26 32 85 51 53 62
REMARK Flexibility Score: inf
ROOT
ATOM      1  C   UNL A   1      37.138  21.037  25.238  1.00  0.00     0.023 C 
ENDROOT
BRANCH   1   2
ATOM      2  C   UNL A   1      35.837  20.287  24.996  1.00  0.00     0.116 C 
BRANCH   2   3
ATOM      3  N   UNL A   1      34.672  20.930  25.567  1.00  0.00    -0.356 N 
ATOM      4  C   UNL A   1      33.366  20.913  25.185  1.00  0.00     0.225 C 
ATOM      5  O   UNL A   1      32.543  21.356  25.994  1.00  0.00    -0.275 OA
ATOM      6  H   UNL A   1      34.855  21.470  26.369  1.00  0.00     0.163 HD
BRANCH   4   7
ATOM      7  C   UNL A   1      32.880  20.376  23.834  1.00  0.00     0.100 C 
BRANCH   7   8
ATOM      8  C   UNL A   1      32.231  18.966  23.891  1.00  0.00    -0.003 C 
ATOM      9  C   UNL A   1      32.478  18.155  22.615  1.00  0.00     0.008 C 
ATOM     10  C   UNL A   1      32.759  18.174  25.097  1.00  0.00     0.008 C 
ENDBRANCH   7   8
BRANCH   7  11
ATOM     11  C   UNL A   1      32.145  21.469  23.029  1.00  0.00     0.129 C 
BRANCH  11  12
ATOM     12  N   UNL A   1      32.751  22.783  23.116  1.00  0.00    -0.350 N 
ATOM     13  C   UNL A   1      32.130  24.003  23.183  1.00  0.00     0.278 C 
ATOM     14  H   UNL A   1      33.736  22.802  23.128  1.00  0.00     0.163 HD
ATOM     15  O   UNL A   1      32.755  24.979  22.767  1.00  0.00    -0.268 OA
BRANCH  13  16
ATOM     16  C   UNL A   1      30.718  24.095  23.799  1.00  0.00     0.272 C 
ATOM     17  C   UNL A   1      30.047  25.457  23.597  1.00  0.00     0.076 C 
ATOM     18  N   UNL A   1      30.760  23.731  25.229  1.00  0.00    -0.333 N 
ATOM     19  C   UNL A   1      30.688  26.564  24.423  1.00  0.00     0.016 C 
ATOM     20  C   UNL A   1      31.360  24.737  26.116  1.00  0.00     0.186 C 
ATOM     21  H   UNL A   1      31.299  22.870  25.318  1.00  0.00     0.347 HD
ATOM     22  H   UNL A   1      29.788  23.638  25.524  1.00  0.00     0.347 HD
ATOM     23  C   UNL A   1      30.826  26.166  25.898  1.00  0.00     0.048 C 
ATOM     24  C   UNL A   1      32.896  24.634  26.268  1.00  0.00     0.065 C 
ATOM     25  C   UNL A   1      31.684  27.168  26.678  1.00  0.00     0.010 C 
ATOM     26  C   UNL A   1      33.693  25.841  25.784  1.00  0.00     0.006 C 
ATOM     27  C   UNL A   1      33.144  27.193  26.230  1.00  0.00     0.001 C 
ENDBRANCH  13  16
ENDBRANCH  11  12
ENDBRANCH   7  11
ENDBRANCH   4   7
ENDBRANCH   2   3
ENDBRANCH   1   2
BRANCH   1  28
ATOM     28  C   UNL A   1      38.396  20.219  24.963  1.00  0.00     0.023 C 
BRANCH  28  29
ATOM     29  C   UNL A   1      39.470  20.267  26.047  1.00  0.00     0.116 C 
BRANCH  29  30
ATOM     30  N   UNL A   1      40.403  19.147  26.012  1.00  0.00    -0.352 N 
ATOM     31  C   UNL A   1      41.774  19.175  26.130  1.00  0.00     0.251 C 
ATOM     32  H   UNL A   1      40.002  18.257  25.887  1.00  0.00     0.163 HD
ATOM     33  O   UNL A   1      42.449  18.161  25.991  1.00  0.00    -0.269 OA
BRANCH  31  34
ATOM     34  C   UNL A   1      42.431  20.471  26.388  1.00  0.00     0.039 A 
ATOM     35  C   UNL A   1      42.832  21.254  25.304  1.00  0.00     0.014 A 
ATOM     36  C   UNL A   1      42.549  20.946  27.697  1.00  0.00     0.014 A 
ATOM     37  C   UNL A   1      43.260  22.563  25.529  1.00  0.00     0.010 A 
ATOM     38  C   UNL A   1      42.903  22.272  27.910  1.00  0.00     0.010 A 
ATOM     39  C   UNL A   1      43.245  23.099  26.828  1.00  0.00    -0.014 A 
BRANCH  39  40
ATOM     40  C   UNL A   1      43.553  24.528  27.079  1.00  0.00     0.031 A 
ATOM     41  C   UNL A   1      44.943  25.046  26.858  1.00  0.00     0.074 A 
ATOM     42  C   UNL A   1      42.602  25.335  27.590  1.00  0.00     0.049 A 
ATOM     43  N   UNL A   1      45.436  26.232  27.115  1.00  0.00    -0.248 NA
ATOM     44  C   UNL A   1      45.920  24.096  26.304  1.00  0.00     0.031 C 
ATOM     45  C   UNL A   1      41.227  24.937  27.900  1.00  0.00     0.029 A 
ATOM     46  N   UNL A   1      42.652  26.658  27.953  1.00  0.00    -0.354 N 
ATOM     47  C   UNL A   1      46.779  26.162  26.772  1.00  0.00     0.074 A 
ATOM     48  C   UNL A   1      47.036  24.806  26.338  1.00  0.00     0.031 C 
ATOM     49  C   UNL A   1      40.560  25.997  28.381  1.00  0.00     0.029 A 
ATOM     50  C   UNL A   1      41.466  27.139  28.451  1.00  0.00     0.049 A 
ATOM     51  H   UNL A   1      43.462  27.210  27.866  1.00  0.00     0.167 HD
ATOM     52  C   UNL A   1      47.707  27.148  26.793  1.00  0.00     0.037 A 
ATOM     53  C   UNL A   1      41.148  28.362  28.917  1.00  0.00     0.037 A 
ATOM     54  C   UNL A   1      47.441  28.503  27.195  1.00  0.00     0.049 A 
ATOM     55  C   UNL A   1      42.198  29.439  28.928  1.00  0.00     0.074 A 
ATOM     56  C   UNL A   1      48.299  29.588  27.192  1.00  0.00     0.029 A 
ATOM     57  N   UNL A   1      46.221  28.959  27.671  1.00  0.00    -0.354 N 
ATOM     58  N   UNL A   1      43.449  29.380  28.542  1.00  0.00    -0.248 NA
ATOM     59  C   UNL A   1      41.791  30.755  29.441  1.00  0.00     0.031 C 
ATOM     60  C   UNL A   1      47.608  30.693  27.699  1.00  0.00     0.029 A 
ATOM     61  C   UNL A   1      46.307  30.306  27.982  1.00  0.00     0.049 A 
ATOM     62  H   UNL A   1      45.413  28.405  27.774  1.00  0.00     0.167 HD
ATOM     63  C   UNL A   1      43.970  30.651  28.737  1.00  0.00     0.074 A 
ATOM     64  C   UNL A   1      42.896  31.465  29.267  1.00  0.00     0.031 C 
ATOM     65  C   UNL A   1      45.225  31.103  28.498  1.00  0.00     0.037 A 
BRANCH  52  66
ATOM     66  C   UNL A   1      49.097  26.792  26.356  1.00  0.00     0.064 A 
ATOM     67  C   UNL A   1      50.038  26.272  27.257  1.00  0.00     0.173 A 
ATOM     68  C   UNL A   1      49.488  26.952  25.018  1.00  0.00     0.173 A 
ATOM     69  F   UNL A   1      49.718  26.114  28.551  1.00  0.00    -0.203 F 
ATOM     70  C   UNL A   1      51.330  25.956  26.843  1.00  0.00     0.198 A 
ATOM     71  C   UNL A   1      50.770  26.606  24.601  1.00  0.00     0.198 A 
ATOM     72  F   UNL A   1      48.624  27.440  24.114  1.00  0.00    -0.203 F 
ATOM     73  F   UNL A   1      52.226  25.510  27.733  1.00  0.00    -0.200 F 
ATOM     74  C   UNL A   1      51.692  26.117  25.514  1.00  0.00     0.200 A 
ATOM     75  F   UNL A   1      51.117  26.753  23.315  1.00  0.00    -0.200 F 
ATOM     76  F   UNL A   1      52.933  25.810  25.116  1.00  0.00    -0.200 F 
ENDBRANCH  52  66
BRANCH  53  77
ATOM     77  C   UNL A   1      39.765  28.645  29.378  1.00  0.00     0.064 A 
ATOM     78  C   UNL A   1      39.388  28.390  30.704  1.00  0.00     0.173 A 
ATOM     79  C   UNL A   1      38.796  29.170  28.512  1.00  0.00     0.173 A 
ATOM     80  F   UNL A   1      40.275  27.868  31.562  1.00  0.00    -0.203 F 
ATOM     81  C   UNL A   1      38.088  28.633  31.142  1.00  0.00     0.198 A 
ATOM     82  C   UNL A   1      37.503  29.436  28.958  1.00  0.00     0.198 A 
ATOM     83  F   UNL A   1      39.108  29.434  27.235  1.00  0.00    -0.203 F 
ATOM     84  F   UNL A   1      37.744  28.343  32.404  1.00  0.00    -0.200 F 
ATOM     85  C   UNL A   1      37.148  29.161  30.270  1.00  0.00     0.200 A 
ATOM     86  F   UNL A   1      36.599  29.957  28.116  1.00  0.00    -0.200 F 
ATOM     87  F   UNL A   1      35.899  29.398  30.692  1.00  0.00    -0.200 F 
ENDBRANCH  53  77
BRANCH  65  88
ATOM     88  C   UNL A   1      45.498  32.551  28.774  1.00  0.00     0.064 A 
ATOM     89  C   UNL A   1      45.255  33.540  27.811  1.00  0.00     0.173 A 
ATOM     90  C   UNL A   1      45.965  32.957  30.033  1.00  0.00     0.173 A 
ATOM     91  F   UNL A   1      44.824  33.199  26.587  1.00  0.00    -0.203 F 
ATOM     92  C   UNL A   1      45.489  34.883  28.092  1.00  0.00     0.198 A 
ATOM     93  C   UNL A   1      46.173  34.303  30.320  1.00  0.00     0.198 A 
ATOM     94  F   UNL A   1      46.208  32.048  30.989  1.00  0.00    -0.203 F 
ATOM     95  F   UNL A   1      45.287  35.810  27.145  1.00  0.00    -0.200 F 
ATOM     96  C   UNL A   1      45.939  35.264  29.348  1.00  0.00     0.200 A 
ATOM     97  F   UNL A   1      46.598  34.670  31.536  1.00  0.00    -0.200 F 
ATOM     98  F   UNL A   1      46.156  36.559  29.619  1.00  0.00    -0.200 F 
ENDBRANCH  65  88
ENDBRANCH  39  40
ENDBRANCH  31  34
ENDBRANCH  29  30
ENDBRANCH  28  29
ENDBRANCH   1  28
TORSDOF 15
ENDMDL
