MODEL 1
REMARK VINA RESULT:     -14.4      0.000      0.000
REMARK SMILES O=C(NCCCCNC(=O)c1ccc(-c2c3nc(c(-c4c(F)c(F)c(F)c(F)c4F)c4ccc([nH]4)c(-c4c(F)c(F)c(F)c(F)c4F)c4nc(c(-c5c(F)c(F)c(F)c(F)c5F)c5ccc2[nH]5)C=C4)C=C3)cc1)C1=Cc2cc(Cl)cc(-c3ccc(O)cc3)c2O[C@@H]1C(F)(F)F
REMARK SMILES IDX 5 1 4 2 3 3 1 4 2 5 74 7 75 8 91 9 76 10 90 11 77 12 89 13
REMARK SMILES IDX 78 14 81 15 79 16 80 17 92 18 93 19 94 20 95 21 82 22 83 23
REMARK SMILES IDX 88 24 84 25 87 26 85 27 86 28 6 30 7 31 8 32 9 33 10 35
REMARK SMILES IDX 11 36 12 37 73 38 13 39 72 40 14 41 15 42 16 43 66 44 17 45
REMARK SMILES IDX 71 46 65 47 67 48 18 49 70 50 64 51 63 52 19 54 51 55 31 56
REMARK SMILES IDX 50 57 32 58 35 59 49 60 68 61 33 62 34 63 48 65 69 66 36 67
REMARK SMILES IDX 20 68 21 69 29 70 22 71 23 72 27 73 30 74 24 75 25 76 28 77
REMARK SMILES IDX 26 78 52 79 53 80 61 81 54 82 55 83 59 84 62 85 56 86 57 87
REMARK SMILES IDX 60 88 58 89 37 90 38 91 46 92 39 93 40 94 44 95 47 96 41 97
REMARK SMILES IDX 42 98 45 99 43 100
REMARK H PARENT 3 6 86 29 8 34 67 53 35 64
REMARK Flexibility Score: inf
ROOT
ATOM      1  C   UNL A   1      31.521  27.403  26.653  1.00  0.00     0.023 C 
ENDROOT
BRANCH   1   2
ATOM      2  C   UNL A   1      30.758  26.183  26.121  1.00  0.00     0.116 C 
BRANCH   2   3
ATOM      3  N   UNL A   1      31.012  24.955  26.876  1.00  0.00    -0.352 N 
ATOM      4  O   UNL A   1      32.164  23.177  27.620  1.00  0.00    -0.270 OA
ATOM      5  C   UNL A   1      31.871  23.905  26.676  1.00  0.00     0.251 C 
ATOM      6  H   UNL A   1      30.458  24.866  27.685  1.00  0.00     0.163 HD
BRANCH   5   7
ATOM      7  C   UNL A   1      32.540  23.701  25.369  1.00  0.00     0.067 C 
ATOM      8  C   UNL A   1      33.829  24.019  25.214  1.00  0.00     0.025 C 
ATOM      9  C   UNL A   1      31.946  22.642  24.491  1.00  0.00     0.314 C 
ATOM     10  C   UNL A   1      34.700  22.900  24.869  1.00  0.00     0.019 A 
ATOM     11  O   UNL A   1      32.770  21.453  24.470  1.00  0.00    -0.475 OA
ATOM     12  C   UNL A   1      36.065  23.029  25.136  1.00  0.00     0.032 A 
ATOM     13  C   UNL A   1      34.124  21.629  24.662  1.00  0.00     0.135 A 
ATOM     14  C   UNL A   1      36.841  21.884  25.267  1.00  0.00     0.042 A 
ATOM     15  C   UNL A   1      34.899  20.471  24.846  1.00  0.00     0.026 A 
ATOM     16  Cl  UNL A   1      38.485  22.030  25.751  1.00  0.00    -0.084 Cl
ATOM     17  C   UNL A   1      36.267  20.619  25.140  1.00  0.00     0.033 A 
BRANCH   9  18
ATOM     18  C   UNL A   1      31.694  23.201  23.072  1.00  0.00     0.429 C 
ATOM     19  F   UNL A   1      32.160  22.360  22.117  1.00  0.00    -0.167 F 
ATOM     20  F   UNL A   1      30.372  23.373  22.829  1.00  0.00    -0.167 F 
ATOM     21  F   UNL A   1      32.291  24.401  22.868  1.00  0.00    -0.167 F 
ENDBRANCH   9  18
BRANCH  15  22
ATOM     22  C   UNL A   1      34.290  19.141  24.970  1.00  0.00    -0.014 A 
ATOM     23  C   UNL A   1      34.835  18.061  24.251  1.00  0.00     0.012 A 
ATOM     24  C   UNL A   1      33.141  18.921  25.738  1.00  0.00     0.012 A 
ATOM     25  C   UNL A   1      34.226  16.808  24.259  1.00  0.00     0.047 A 
ATOM     26  C   UNL A   1      32.528  17.663  25.751  1.00  0.00     0.047 A 
ATOM     27  C   UNL A   1      33.067  16.624  24.996  1.00  0.00     0.115 A 
BRANCH  27  28
ATOM     28  O   UNL A   1      32.476  15.397  24.945  1.00  0.00    -0.508 OA
ATOM     29  H   UNL A   1      31.594  15.289  25.243  1.00  0.00     0.293 HD
ENDBRANCH  27  28
ENDBRANCH  15  22
ENDBRANCH   5   7
ENDBRANCH   2   3
ENDBRANCH   1   2
BRANCH   1  30
ATOM     30  C   UNL A   1      31.575  28.590  25.680  1.00  0.00     0.023 C 
BRANCH  30  31
ATOM     31  C   UNL A   1      32.752  29.554  25.819  1.00  0.00     0.116 C 
BRANCH  31  32
ATOM     32  N   UNL A   1      32.429  30.848  26.397  1.00  0.00    -0.352 N 
ATOM     33  C   UNL A   1      33.222  31.611  27.233  1.00  0.00     0.251 C 
ATOM     34  H   UNL A   1      31.549  31.223  26.168  1.00  0.00     0.163 HD
ATOM     35  O   UNL A   1      32.809  32.675  27.694  1.00  0.00    -0.269 OA
BRANCH  33  36
ATOM     36  C   UNL A   1      34.556  31.105  27.631  1.00  0.00     0.039 A 
ATOM     37  C   UNL A   1      35.594  32.020  27.826  1.00  0.00     0.014 A 
ATOM     38  C   UNL A   1      34.758  29.749  27.901  1.00  0.00     0.014 A 
ATOM     39  C   UNL A   1      36.794  31.592  28.401  1.00  0.00     0.010 A 
ATOM     40  C   UNL A   1      35.933  29.333  28.525  1.00  0.00     0.010 A 
ATOM     41  C   UNL A   1      36.950  30.257  28.815  1.00  0.00    -0.014 A 
BRANCH  41  42
ATOM     42  C   UNL A   1      38.124  29.849  29.634  1.00  0.00     0.031 A 
ATOM     43  C   UNL A   1      38.340  30.394  31.016  1.00  0.00     0.074 A 
ATOM     44  C   UNL A   1      39.043  29.022  29.092  1.00  0.00     0.049 A 
ATOM     45  N   UNL A   1      39.312  30.146  31.859  1.00  0.00    -0.248 NA
ATOM     46  C   UNL A   1      37.348  31.359  31.511  1.00  0.00     0.031 C 
ATOM     47  C   UNL A   1      38.991  28.474  27.736  1.00  0.00     0.029 A 
ATOM     48  N   UNL A   1      40.204  28.503  29.613  1.00  0.00    -0.354 N 
ATOM     49  C   UNL A   1      39.049  30.918  32.981  1.00  0.00     0.074 A 
ATOM     50  C   UNL A   1      37.854  31.683  32.693  1.00  0.00     0.031 C 
ATOM     51  C   UNL A   1      40.056  27.680  27.539  1.00  0.00     0.029 A 
ATOM     52  C   UNL A   1      40.881  27.681  28.742  1.00  0.00     0.049 A 
ATOM     53  H   UNL A   1      40.521  28.700  30.524  1.00  0.00     0.167 HD
ATOM     54  C   UNL A   1      39.727  30.967  34.154  1.00  0.00     0.037 A 
ATOM     55  C   UNL A   1      42.035  27.005  28.895  1.00  0.00     0.037 A 
ATOM     56  C   UNL A   1      40.911  30.200  34.446  1.00  0.00     0.049 A 
ATOM     57  C   UNL A   1      42.768  27.078  30.207  1.00  0.00     0.074 A 
ATOM     58  C   UNL A   1      41.630  30.141  35.628  1.00  0.00     0.029 A 
ATOM     59  N   UNL A   1      41.555  29.363  33.547  1.00  0.00    -0.354 N 
ATOM     60  N   UNL A   1      42.454  27.739  31.294  1.00  0.00    -0.248 NA
ATOM     61  C   UNL A   1      44.011  26.300  30.317  1.00  0.00     0.031 C 
ATOM     62  C   UNL A   1      42.733  29.301  35.432  1.00  0.00     0.029 A 
ATOM     63  C   UNL A   1      42.675  28.801  34.142  1.00  0.00     0.049 A 
ATOM     64  H   UNL A   1      41.261  29.194  32.622  1.00  0.00     0.167 HD
ATOM     65  C   UNL A   1      43.441  27.436  32.222  1.00  0.00     0.074 A 
ATOM     66  C   UNL A   1      44.356  26.520  31.578  1.00  0.00     0.031 C 
ATOM     67  C   UNL A   1      43.574  27.882  33.495  1.00  0.00     0.037 A 
BRANCH  54  68
ATOM     68  C   UNL A   1      39.197  31.873  35.225  1.00  0.00     0.064 A 
ATOM     69  C   UNL A   1      38.417  31.375  36.280  1.00  0.00     0.173 A 
ATOM     70  C   UNL A   1      39.522  33.237  35.236  1.00  0.00     0.173 A 
ATOM     71  F   UNL A   1      38.073  30.078  36.312  1.00  0.00    -0.203 F 
ATOM     72  C   UNL A   1      37.963  32.214  37.294  1.00  0.00     0.198 A 
ATOM     73  C   UNL A   1      39.089  34.068  36.266  1.00  0.00     0.198 A 
ATOM     74  F   UNL A   1      40.274  33.761  34.257  1.00  0.00    -0.203 F 
ATOM     75  F   UNL A   1      37.189  31.724  38.272  1.00  0.00    -0.200 F 
ATOM     76  C   UNL A   1      38.306  33.558  37.291  1.00  0.00     0.200 A 
ATOM     77  F   UNL A   1      39.433  35.364  36.270  1.00  0.00    -0.200 F 
ATOM     78  F   UNL A   1      37.879  34.362  38.274  1.00  0.00    -0.200 F 
ENDBRANCH  54  68
BRANCH  55  79
ATOM     79  C   UNL A   1      42.561  26.169  27.784  1.00  0.00     0.064 A 
ATOM     80  C   UNL A   1      43.536  26.667  26.907  1.00  0.00     0.173 A 
ATOM     81  C   UNL A   1      42.089  24.868  27.563  1.00  0.00     0.173 A 
ATOM     82  F   UNL A   1      44.002  27.915  27.066  1.00  0.00    -0.203 F 
ATOM     83  C   UNL A   1      44.000  25.904  25.838  1.00  0.00     0.198 A 
ATOM     84  C   UNL A   1      42.574  24.096  26.510  1.00  0.00     0.198 A 
ATOM     85  F   UNL A   1      41.160  24.343  28.376  1.00  0.00    -0.203 F 
ATOM     86  F   UNL A   1      44.895  26.423  24.986  1.00  0.00    -0.200 F 
ATOM     87  C   UNL A   1      43.522  24.618  25.643  1.00  0.00     0.200 A 
ATOM     88  F   UNL A   1      42.119  22.848  26.332  1.00  0.00    -0.200 F 
ATOM     89  F   UNL A   1      43.967  23.884  24.614  1.00  0.00    -0.200 F 
ENDBRANCH  55  79
BRANCH  67  90
ATOM     90  C   UNL A   1      44.736  27.358  34.289  1.00  0.00     0.064 A 
ATOM     91  C   UNL A   1      45.961  28.039  34.335  1.00  0.00     0.173 A 
ATOM     92  C   UNL A   1      44.609  26.179  35.040  1.00  0.00     0.173 A 
ATOM     93  F   UNL A   1      46.137  29.162  33.623  1.00  0.00    -0.203 F 
ATOM     94  C   UNL A   1      47.026  27.546  35.086  1.00  0.00     0.198 A 
ATOM     95  C   UNL A   1      45.666  25.704  35.810  1.00  0.00     0.198 A 
ATOM     96  F   UNL A   1      43.457  25.493  35.032  1.00  0.00    -0.203 F 
ATOM     97  F   UNL A   1      48.202  28.188  35.080  1.00  0.00    -0.200 F 
ATOM     98  C   UNL A   1      46.875  26.383  35.828  1.00  0.00     0.200 A 
ATOM     99  F   UNL A   1      45.516  24.586  36.536  1.00  0.00    -0.200 F 
ATOM    100  F   UNL A   1      47.898  25.913  36.554  1.00  0.00    -0.200 F 
ENDBRANCH  67  90
ENDBRANCH  41  42
ENDBRANCH  33  36
ENDBRANCH  31  32
ENDBRANCH  30  31
ENDBRANCH   1  30
TORSDOF 14
ENDMDL
MODEL 2
REMARK VINA RESULT:     -14.2      0.414      7.085
REMARK SMILES O=C(NCCCCNC(=O)c1ccc(-c2c3nc(c(-c4c(F)c(F)c(F)c(F)c4F)c4ccc([nH]4)c(-c4c(F)c(F)c(F)c(F)c4F)c4nc(c(-c5c(F)c(F)c(F)c(F)c5F)c5ccc2[nH]5)C=C4)C=C3)cc1)C1=Cc2cc(Cl)cc(-c3ccc(O)cc3)c2O[C@@H]1C(F)(F)F
REMARK SMILES IDX 5 1 4 2 3 3 1 4 2 5 74 7 75 8 91 9 76 10 90 11 77 12 89 13
REMARK SMILES IDX 78 14 81 15 79 16 80 17 92 18 93 19 94 20 95 21 82 22 83 23
REMARK SMILES IDX 88 24 84 25 87 26 85 27 86 28 6 30 7 31 8 32 9 33 10 35
REMARK SMILES IDX 11 36 12 37 73 38 13 39 72 40 14 41 15 42 16 43 66 44 17 45
REMARK SMILES IDX 71 46 65 47 67 48 18 49 70 50 64 51 63 52 19 54 51 55 31 56
REMARK SMILES IDX 50 57 32 58 35 59 49 60 68 61 33 62 34 63 48 65 69 66 36 67
REMARK SMILES IDX 20 68 21 69 29 70 22 71 23 72 27 73 30 74 24 75 25 76 28 77
REMARK SMILES IDX 26 78 52 79 53 80 61 81 54 82 55 83 59 84 62 85 56 86 57 87
REMARK SMILES IDX 60 88 58 89 37 90 38 91 46 92 39 93 40 94 44 95 47 96 41 97
REMARK SMILES IDX 42 98 45 99 43 100
REMARK H PARENT 3 6 86 29 8 34 67 53 35 64
REMARK Flexibility Score: inf
ROOT
ATOM      1  C   UNL A   1      31.586  27.530  26.781  1.00  0.00     0.023 C 
ENDROOT
BRANCH   1   2
ATOM      2  C   UNL A   1      30.973  26.288  26.122  1.00  0.00     0.116 C 
BRANCH   2   3
ATOM      3  N   UNL A   1      31.194  25.053  26.876  1.00  0.00    -0.352 N 
ATOM      4  O   UNL A   1      32.297  23.242  27.616  1.00  0.00    -0.270 OA
ATOM      5  C   UNL A   1      32.022  23.979  26.673  1.00  0.00     0.251 C 
ATOM      6  H   UNL A   1      30.639  24.979  27.686  1.00  0.00     0.163 HD
BRANCH   5   7
ATOM      7  C   UNL A   1      32.680  23.756  25.364  1.00  0.00     0.067 C 
ATOM      8  C   UNL A   1      33.980  24.029  25.208  1.00  0.00     0.025 C 
ATOM      9  C   UNL A   1      32.048  22.722  24.484  1.00  0.00     0.314 C 
ATOM     10  C   UNL A   1      34.810  22.881  24.857  1.00  0.00     0.019 A 
ATOM     11  O   UNL A   1      32.830  21.505  24.456  1.00  0.00    -0.475 OA
ATOM     12  C   UNL A   1      36.179  22.962  25.121  1.00  0.00     0.032 A 
ATOM     13  C   UNL A   1      34.190  21.632  24.646  1.00  0.00     0.135 A 
ATOM     14  C   UNL A   1      36.915  21.789  25.247  1.00  0.00     0.042 A 
ATOM     15  C   UNL A   1      34.923  20.447  24.824  1.00  0.00     0.026 A 
ATOM     16  Cl  UNL A   1      38.564  21.876  25.728  1.00  0.00    -0.084 Cl
ATOM     17  C   UNL A   1      36.297  20.545  25.116  1.00  0.00     0.033 A 
BRANCH   9  18
ATOM     18  C   UNL A   1      31.814  23.295  23.066  1.00  0.00     0.429 C 
ATOM     19  F   UNL A   1      32.356  24.529  22.934  1.00  0.00    -0.167 F 
ATOM     20  F   UNL A   1      32.379  22.516  22.112  1.00  0.00    -0.167 F 
ATOM     21  F   UNL A   1      30.499  23.404  22.757  1.00  0.00    -0.167 F 
ENDBRANCH   9  18
BRANCH  15  22
ATOM     22  C   UNL A   1      34.268  19.138  24.944  1.00  0.00    -0.014 A 
ATOM     23  C   UNL A   1      34.780  18.041  24.228  1.00  0.00     0.012 A 
ATOM     24  C   UNL A   1      33.108  18.958  25.705  1.00  0.00     0.012 A 
ATOM     25  C   UNL A   1      34.127  16.809  24.232  1.00  0.00     0.047 A 
ATOM     26  C   UNL A   1      32.452  17.722  25.715  1.00  0.00     0.047 A 
ATOM     27  C   UNL A   1      32.959  16.665  24.963  1.00  0.00     0.115 A 
BRANCH  27  28
ATOM     28  O   UNL A   1      32.326  15.460  24.908  1.00  0.00    -0.508 OA
ATOM     29  H   UNL A   1      32.436  14.907  24.158  1.00  0.00     0.293 HD
ENDBRANCH  27  28
ENDBRANCH  15  22
ENDBRANCH   5   7
ENDBRANCH   2   3
ENDBRANCH   1   2
BRANCH   1  30
ATOM     30  C   UNL A   1      31.423  28.824  25.968  1.00  0.00     0.023 C 
BRANCH  30  31
ATOM     31  C   UNL A   1      32.602  29.795  25.957  1.00  0.00     0.116 C 
BRANCH  31  32
ATOM     32  N   UNL A   1      32.318  31.121  26.481  1.00  0.00    -0.352 N 
ATOM     33  C   UNL A   1      33.142  31.902  27.267  1.00  0.00     0.251 C 
ATOM     34  H   UNL A   1      31.442  31.505  26.250  1.00  0.00     0.163 HD
ATOM     35  O   UNL A   1      32.762  32.995  27.687  1.00  0.00    -0.269 OA
BRANCH  33  36
ATOM     36  C   UNL A   1      34.472  31.384  27.665  1.00  0.00     0.039 A 
ATOM     37  C   UNL A   1      35.533  32.283  27.803  1.00  0.00     0.014 A 
ATOM     38  C   UNL A   1      34.649  30.036  27.990  1.00  0.00     0.014 A 
ATOM     39  C   UNL A   1      36.733  31.853  28.377  1.00  0.00     0.010 A 
ATOM     40  C   UNL A   1      35.826  29.622  28.613  1.00  0.00     0.010 A 
ATOM     41  C   UNL A   1      36.867  30.534  28.845  1.00  0.00    -0.014 A 
BRANCH  41  42
ATOM     42  C   UNL A   1      38.046  30.135  29.662  1.00  0.00     0.031 A 
ATOM     43  C   UNL A   1      39.057  29.152  29.147  1.00  0.00     0.074 A 
ATOM     44  C   UNL A   1      38.167  30.620  30.916  1.00  0.00     0.049 A 
ATOM     45  N   UNL A   1      40.136  28.694  29.732  1.00  0.00    -0.248 NA
ATOM     46  C   UNL A   1      38.818  28.595  27.808  1.00  0.00     0.031 C 
ATOM     47  C   UNL A   1      37.220  31.527  31.565  1.00  0.00     0.029 A 
ATOM     48  N   UNL A   1      39.132  30.413  31.872  1.00  0.00    -0.354 N 
ATOM     49  C   UNL A   1      40.705  27.800  28.836  1.00  0.00     0.074 A 
ATOM     50  C   UNL A   1      39.825  27.741  27.688  1.00  0.00     0.031 C 
ATOM     51  C   UNL A   1      37.660  31.817  32.800  1.00  0.00     0.029 A 
ATOM     52  C   UNL A   1      38.906  31.096  33.043  1.00  0.00     0.049 A 
ATOM     53  H   UNL A   1      39.913  29.830  31.731  1.00  0.00     0.167 HD
ATOM     54  C   UNL A   1      41.866  27.111  28.950  1.00  0.00     0.037 A 
ATOM     55  C   UNL A   1      39.620  31.139  34.184  1.00  0.00     0.037 A 
ATOM     56  C   UNL A   1      42.748  27.175  30.087  1.00  0.00     0.049 A 
ATOM     57  C   UNL A   1      40.905  30.363  34.282  1.00  0.00     0.074 A 
ATOM     58  C   UNL A   1      43.975  26.558  30.263  1.00  0.00     0.029 A 
ATOM     59  N   UNL A   1      42.495  27.895  31.245  1.00  0.00    -0.354 N 
ATOM     60  N   UNL A   1      41.478  29.597  33.388  1.00  0.00    -0.248 NA
ATOM     61  C   UNL A   1      41.648  30.468  35.547  1.00  0.00     0.031 C 
ATOM     62  C   UNL A   1      44.445  26.870  31.544  1.00  0.00     0.029 A 
ATOM     63  C   UNL A   1      43.533  27.719  32.148  1.00  0.00     0.049 A 
ATOM     64  H   UNL A   1      41.696  28.449  31.403  1.00  0.00     0.167 HD
ATOM     65  C   UNL A   1      42.659  29.152  33.969  1.00  0.00     0.074 A 
ATOM     66  C   UNL A   1      42.729  29.747  35.286  1.00  0.00     0.031 C 
ATOM     67  C   UNL A   1      43.598  28.323  33.453  1.00  0.00     0.037 A 
BRANCH  54  68
ATOM     68  C   UNL A   1      42.267  26.231  27.802  1.00  0.00     0.064 A 
ATOM     69  C   UNL A   1      43.176  26.672  26.829  1.00  0.00     0.173 A 
ATOM     70  C   UNL A   1      41.789  24.916  27.708  1.00  0.00     0.173 A 
ATOM     71  F   UNL A   1      43.656  27.924  26.871  1.00  0.00    -0.203 F 
ATOM     72  C   UNL A   1      43.575  25.836  25.790  1.00  0.00     0.198 A 
ATOM     73  C   UNL A   1      42.211  24.073  26.682  1.00  0.00     0.198 A 
ATOM     74  F   UNL A   1      40.927  24.442  28.619  1.00  0.00    -0.203 F 
ATOM     75  F   UNL A   1      44.416  26.290  24.850  1.00  0.00    -0.200 F 
ATOM     76  C   UNL A   1      43.099  24.535  25.722  1.00  0.00     0.200 A 
ATOM     77  F   UNL A   1      41.762  22.811  26.625  1.00  0.00    -0.200 F 
ATOM     78  F   UNL A   1      43.494  23.726  24.728  1.00  0.00    -0.200 F 
ENDBRANCH  54  68
BRANCH  55  79
ATOM     79  C   UNL A   1      39.154  31.973  35.323  1.00  0.00     0.064 A 
ATOM     80  C   UNL A   1      39.475  33.336  35.398  1.00  0.00     0.173 A 
ATOM     81  C   UNL A   1      38.396  31.424  36.367  1.00  0.00     0.173 A 
ATOM     82  F   UNL A   1      40.217  33.901  34.433  1.00  0.00    -0.203 F 
ATOM     83  C   UNL A   1      39.078  34.111  36.484  1.00  0.00     0.198 A 
ATOM     84  C   UNL A   1      37.976  32.207  37.440  1.00  0.00     0.198 A 
ATOM     85  F   UNL A   1      38.058  30.126  36.342  1.00  0.00    -0.203 F 
ATOM     86  F   UNL A   1      39.442  35.399  36.555  1.00  0.00    -0.200 F 
ATOM     87  C   UNL A   1      38.325  33.547  37.503  1.00  0.00     0.200 A 
ATOM     88  F   UNL A   1      37.237  31.661  38.416  1.00  0.00    -0.200 F 
ATOM     89  F   UNL A   1      37.944  34.292  38.549  1.00  0.00    -0.200 F 
ENDBRANCH  55  79
BRANCH  67  90
ATOM     90  C   UNL A   1      44.802  28.035  34.302  1.00  0.00     0.064 A 
ATOM     91  C   UNL A   1      45.938  28.857  34.271  1.00  0.00     0.173 A 
ATOM     92  C   UNL A   1      44.805  26.942  35.183  1.00  0.00     0.173 A 
ATOM     93  F   UNL A   1      45.991  29.905  33.434  1.00  0.00    -0.203 F 
ATOM     94  C   UNL A   1      47.043  28.582  35.074  1.00  0.00     0.198 A 
ATOM     95  C   UNL A   1      45.900  26.687  36.003  1.00  0.00     0.198 A 
ATOM     96  F   UNL A   1      43.742  26.128  35.254  1.00  0.00    -0.203 F 
ATOM     97  F   UNL A   1      48.135  29.355  34.994  1.00  0.00    -0.200 F 
ATOM     98  C   UNL A   1      47.020  27.502  35.943  1.00  0.00     0.200 A 
ATOM     99  F   UNL A   1      45.873  25.649  36.852  1.00  0.00    -0.200 F 
ATOM    100  F   UNL A   1      48.082  27.242  36.718  1.00  0.00    -0.200 F 
ENDBRANCH  67  90
ENDBRANCH  41  42
ENDBRANCH  33  36
ENDBRANCH  31  32
ENDBRANCH  30  31
ENDBRANCH   1  30
TORSDOF 14
ENDMDL
MODEL 3
REMARK VINA RESULT:     -14.1      2.141      3.165
REMARK SMILES O=C(NCCCCNC(=O)c1ccc(-c2c3nc(c(-c4c(F)c(F)c(F)c(F)c4F)c4ccc([nH]4)c(-c4c(F)c(F)c(F)c(F)c4F)c4nc(c(-c5c(F)c(F)c(F)c(F)c5F)c5ccc2[nH]5)C=C4)C=C3)cc1)C1=Cc2cc(Cl)cc(-c3ccc(O)cc3)c2O[C@@H]1C(F)(F)F
REMARK SMILES IDX 5 1 4 2 3 3 1 4 2 5 74 7 75 8 91 9 76 10 90 11 77 12 89 13
REMARK SMILES IDX 78 14 81 15 79 16 80 17 92 18 93 19 94 20 95 21 82 22 83 23
REMARK SMILES IDX 88 24 84 25 87 26 85 27 86 28 6 30 7 31 8 32 9 33 10 35
REMARK SMILES IDX 11 36 12 37 73 38 13 39 72 40 14 41 15 42 16 43 66 44 17 45
REMARK SMILES IDX 71 46 65 47 67 48 18 49 70 50 64 51 63 52 19 54 51 55 31 56
REMARK SMILES IDX 50 57 32 58 35 59 49 60 68 61 33 62 34 63 48 65 69 66 36 67
REMARK SMILES IDX 20 68 21 69 29 70 22 71 23 72 27 73 30 74 24 75 25 76 28 77
REMARK SMILES IDX 26 78 52 79 53 80 61 81 54 82 55 83 59 84 62 85 56 86 57 87
REMARK SMILES IDX 60 88 58 89 37 90 38 91 46 92 39 93 40 94 44 95 47 96 41 97
REMARK SMILES IDX 42 98 45 99 43 100
REMARK H PARENT 3 6 86 29 8 34 67 53 35 64
REMARK Flexibility Score: inf
ROOT
ATOM      1  C   UNL A   1      31.428  27.724  27.044  1.00  0.00     0.023 C 
ENDROOT
BRANCH   1   2
ATOM      2  C   UNL A   1      31.173  26.504  26.151  1.00  0.00     0.116 C 
BRANCH   2   3
ATOM      3  N   UNL A   1      31.319  25.224  26.846  1.00  0.00    -0.352 N 
ATOM      4  O   UNL A   1      32.343  23.363  27.573  1.00  0.00    -0.270 OA
ATOM      5  C   UNL A   1      32.158  24.157  26.655  1.00  0.00     0.251 C 
ATOM      6  H   UNL A   1      30.692  25.107  27.596  1.00  0.00     0.163 HD
BRANCH   5   7
ATOM      7  C   UNL A   1      32.933  24.007  25.401  1.00  0.00     0.067 C 
ATOM      8  C   UNL A   1      34.250  24.239  25.389  1.00  0.00     0.025 C 
ATOM      9  C   UNL A   1      32.357  23.067  24.386  1.00  0.00     0.314 C 
ATOM     10  C   UNL A   1      35.073  23.089  25.029  1.00  0.00     0.019 A 
ATOM     11  O   UNL A   1      33.097  21.826  24.338  1.00  0.00    -0.475 OA
ATOM     12  C   UNL A   1      36.412  23.095  25.428  1.00  0.00     0.032 A 
ATOM     13  C   UNL A   1      34.436  21.884  24.664  1.00  0.00     0.135 A 
ATOM     14  C   UNL A   1      37.093  21.888  25.530  1.00  0.00     0.042 A 
ATOM     15  C   UNL A   1      35.110  20.661  24.818  1.00  0.00     0.026 A 
ATOM     16  Cl  UNL A   1      38.690  21.873  26.170  1.00  0.00    -0.084 Cl
ATOM     17  C   UNL A   1      36.451  20.683  25.244  1.00  0.00     0.033 A 
BRANCH   9  18
ATOM     18  C   UNL A   1      32.280  23.754  23.002  1.00  0.00     0.429 C 
ATOM     19  F   UNL A   1      33.121  24.812  22.926  1.00  0.00    -0.167 F 
ATOM     20  F   UNL A   1      32.627  22.906  22.003  1.00  0.00    -0.167 F 
ATOM     21  F   UNL A   1      31.037  24.212  22.714  1.00  0.00    -0.167 F 
ENDBRANCH   9  18
BRANCH  15  22
ATOM     22  C   UNL A   1      34.405  19.374  24.772  1.00  0.00    -0.014 A 
ATOM     23  C   UNL A   1      33.117  19.271  25.329  1.00  0.00     0.012 A 
ATOM     24  C   UNL A   1      34.998  18.223  24.243  1.00  0.00     0.012 A 
ATOM     25  C   UNL A   1      32.457  18.046  25.399  1.00  0.00     0.047 A 
ATOM     26  C   UNL A   1      34.338  16.991  24.310  1.00  0.00     0.047 A 
ATOM     27  C   UNL A   1      33.081  16.912  24.904  1.00  0.00     0.115 A 
BRANCH  27  28
ATOM     28  O   UNL A   1      32.423  15.726  25.030  1.00  0.00    -0.508 OA
ATOM     29  H   UNL A   1      32.131  15.268  24.265  1.00  0.00     0.293 HD
ENDBRANCH  27  28
ENDBRANCH  15  22
ENDBRANCH   5   7
ENDBRANCH   2   3
ENDBRANCH   1   2
BRANCH   1  30
ATOM     30  C   UNL A   1      32.913  28.054  27.256  1.00  0.00     0.023 C 
BRANCH  30  31
ATOM     31  C   UNL A   1      33.497  29.205  26.437  1.00  0.00     0.116 C 
BRANCH  31  32
ATOM     32  N   UNL A   1      33.453  30.508  27.079  1.00  0.00    -0.352 N 
ATOM     33  C   UNL A   1      34.408  31.063  27.907  1.00  0.00     0.251 C 
ATOM     34  H   UNL A   1      32.654  31.055  26.904  1.00  0.00     0.163 HD
ATOM     35  O   UNL A   1      34.227  32.165  28.428  1.00  0.00    -0.269 OA
BRANCH  33  36
ATOM     36  C   UNL A   1      35.632  30.292  28.226  1.00  0.00     0.039 A 
ATOM     37  C   UNL A   1      36.670  30.257  27.292  1.00  0.00     0.014 A 
ATOM     38  C   UNL A   1      35.793  29.686  29.475  1.00  0.00     0.014 A 
ATOM     39  C   UNL A   1      37.908  29.718  27.653  1.00  0.00     0.010 A 
ATOM     40  C   UNL A   1      37.043  29.198  29.853  1.00  0.00     0.010 A 
ATOM     41  C   UNL A   1      38.124  29.241  28.958  1.00  0.00    -0.014 A 
BRANCH  41  42
ATOM     42  C   UNL A   1      39.494  28.884  29.418  1.00  0.00     0.031 A 
ATOM     43  C   UNL A   1      40.262  29.775  30.351  1.00  0.00     0.074 A 
ATOM     44  C   UNL A   1      40.077  27.767  28.932  1.00  0.00     0.049 A 
ATOM     45  N   UNL A   1      41.466  29.613  30.843  1.00  0.00    -0.248 NA
ATOM     46  C   UNL A   1      39.604  31.019  30.772  1.00  0.00     0.031 C 
ATOM     47  C   UNL A   1      39.469  26.850  27.967  1.00  0.00     0.029 A 
ATOM     48  N   UNL A   1      41.312  27.217  29.177  1.00  0.00    -0.354 N 
ATOM     49  C   UNL A   1      41.708  30.729  31.632  1.00  0.00     0.074 A 
ATOM     50  C   UNL A   1      40.546  31.586  31.512  1.00  0.00     0.031 C 
ATOM     51  C   UNL A   1      40.321  25.842  27.719  1.00  0.00     0.029 A 
ATOM     52  C   UNL A   1      41.545  26.052  28.485  1.00  0.00     0.049 A 
ATOM     53  H   UNL A   1      41.968  27.620  29.791  1.00  0.00     0.167 HD
ATOM     54  C   UNL A   1      42.788  31.003  32.403  1.00  0.00     0.037 A 
ATOM     55  C   UNL A   1      42.622  25.244  28.468  1.00  0.00     0.037 A 
ATOM     56  C   UNL A   1      43.940  30.148  32.531  1.00  0.00     0.049 A 
ATOM     57  C   UNL A   1      43.807  25.573  29.334  1.00  0.00     0.074 A 
ATOM     58  C   UNL A   1      45.054  30.316  33.336  1.00  0.00     0.029 A 
ATOM     59  N   UNL A   1      44.130  28.966  31.830  1.00  0.00    -0.354 N 
ATOM     60  N   UNL A   1      43.981  26.585  30.149  1.00  0.00    -0.248 NA
ATOM     61  C   UNL A   1      44.943  24.640  29.287  1.00  0.00     0.031 C 
ATOM     62  C   UNL A   1      45.937  29.258  33.092  1.00  0.00     0.029 A 
ATOM     63  C   UNL A   1      45.353  28.407  32.169  1.00  0.00     0.049 A 
ATOM     64  H   UNL A   1      43.492  28.581  31.187  1.00  0.00     0.167 HD
ATOM     65  C   UNL A   1      45.228  26.396  30.729  1.00  0.00     0.074 A 
ATOM     66  C   UNL A   1      45.762  25.165  30.187  1.00  0.00     0.031 C 
ATOM     67  C   UNL A   1      45.871  27.176  31.631  1.00  0.00     0.037 A 
BRANCH  54  68
ATOM     68  C   UNL A   1      42.773  32.280  33.190  1.00  0.00     0.064 A 
ATOM     69  C   UNL A   1      43.299  33.468  32.661  1.00  0.00     0.173 A 
ATOM     70  C   UNL A   1      42.172  32.334  34.457  1.00  0.00     0.173 A 
ATOM     71  F   UNL A   1      43.890  33.468  31.457  1.00  0.00    -0.203 F 
ATOM     72  C   UNL A   1      43.244  34.659  33.380  1.00  0.00     0.198 A 
ATOM     73  C   UNL A   1      42.095  33.532  35.162  1.00  0.00     0.198 A 
ATOM     74  F   UNL A   1      41.644  31.228  35.003  1.00  0.00    -0.203 F 
ATOM     75  F   UNL A   1      43.786  35.774  32.871  1.00  0.00    -0.200 F 
ATOM     76  C   UNL A   1      42.635  34.692  34.627  1.00  0.00     0.200 A 
ATOM     77  F   UNL A   1      41.493  33.567  36.360  1.00  0.00    -0.200 F 
ATOM     78  F   UNL A   1      42.572  35.842  35.312  1.00  0.00    -0.200 F 
ENDBRANCH  54  68
BRANCH  55  79
ATOM     79  C   UNL A   1      42.622  24.021  27.623  1.00  0.00     0.064 A 
ATOM     80  C   UNL A   1      42.277  22.773  28.161  1.00  0.00     0.173 A 
ATOM     81  C   UNL A   1      42.984  24.070  26.269  1.00  0.00     0.173 A 
ATOM     82  F   UNL A   1      41.944  22.673  29.457  1.00  0.00    -0.203 F 
ATOM     83  C   UNL A   1      42.318  21.618  27.384  1.00  0.00     0.198 A 
ATOM     84  C   UNL A   1      42.998  22.918  25.487  1.00  0.00     0.198 A 
ATOM     85  F   UNL A   1      43.319  25.240  25.705  1.00  0.00    -0.203 F 
ATOM     86  F   UNL A   1      42.032  20.431  27.937  1.00  0.00    -0.200 F 
ATOM     87  C   UNL A   1      42.675  21.692  26.047  1.00  0.00     0.200 A 
ATOM     88  F   UNL A   1      43.331  22.995  24.190  1.00  0.00    -0.200 F 
ATOM     89  F   UNL A   1      42.715  20.580  25.299  1.00  0.00    -0.200 F 
ENDBRANCH  55  79
BRANCH  67  90
ATOM     90  C   UNL A   1      47.212  26.706  32.115  1.00  0.00     0.064 A 
ATOM     91  C   UNL A   1      48.403  27.126  31.503  1.00  0.00     0.173 A 
ATOM     92  C   UNL A   1      47.308  25.854  33.225  1.00  0.00     0.173 A 
ATOM     93  F   UNL A   1      48.364  27.928  30.429  1.00  0.00    -0.203 F 
ATOM     94  C   UNL A   1      49.640  26.689  31.972  1.00  0.00     0.198 A 
ATOM     95  C   UNL A   1      48.547  25.442  33.707  1.00  0.00     0.198 A 
ATOM     96  F   UNL A   1      46.199  25.427  33.848  1.00  0.00    -0.203 F 
ATOM     97  F   UNL A   1      50.763  27.066  31.344  1.00  0.00    -0.200 F 
ATOM     98  C   UNL A   1      49.711  25.854  33.077  1.00  0.00     0.200 A 
ATOM     99  F   UNL A   1      48.615  24.643  34.782  1.00  0.00    -0.200 F 
ATOM    100  F   UNL A   1      50.902  25.439  33.529  1.00  0.00    -0.200 F 
ENDBRANCH  67  90
ENDBRANCH  41  42
ENDBRANCH  33  36
ENDBRANCH  31  32
ENDBRANCH  30  31
ENDBRANCH   1  30
TORSDOF 14
ENDMDL
