MODEL 1
REMARK VINA RESULT:     -13.0      0.000      0.000
REMARK SMILES O=C(C[NH+]1CCN(c2cc(-c3ccccc3)nc(-c3ccccc3F)n2)CC1)NCCCCNC(=O)c1ccc(-c2c3nc(c(-c4c(F)c(F)c(F)c(F)c4F)c4ccc([nH]4)c(-c4c(F)c(F)c(F)c(F)c4F)c4nc(c(-c5c(F)c(F)c(F)c(F)c5F)c5ccc2[nH]5)C=C4)C=C3)cc1
REMARK SMILES IDX 31 1 30 2 29 3 1 4 2 5 3 7 4 8 5 9 28 10 6 12 27 13 7 14
REMARK SMILES IDX 8 15 9 16 26 17 10 18 18 19 17 20 11 21 12 22 16 23 13 24
REMARK SMILES IDX 15 25 14 26 19 27 20 28 24 29 21 30 23 31 25 32 22 33 32 34
REMARK SMILES IDX 33 35 34 36 35 37 36 39 37 40 38 41 99 42 39 43 98 44 40 45
REMARK SMILES IDX 41 46 42 47 92 48 43 49 97 50 91 51 93 52 44 53 96 54 90 55
REMARK SMILES IDX 89 56 45 58 77 59 57 60 76 61 58 62 61 63 75 64 94 65 59 66
REMARK SMILES IDX 60 67 74 69 95 70 62 71 46 72 47 73 55 74 48 75 49 76 53 77
REMARK SMILES IDX 56 78 50 79 51 80 54 81 52 82 78 83 79 84 87 85 80 86 81 87
REMARK SMILES IDX 85 88 88 89 82 90 83 91 86 92 84 93 63 94 64 95 72 96 65 97
REMARK SMILES IDX 66 98 70 99 73 100 67 101 68 102 71 103 69 104
REMARK H PARENT 29 6 4 11 34 38 93 57 61 68
REMARK Flexibility Score: inf
ROOT
ATOM      1  C   UNL A   1      36.351  21.779  24.356  1.00  0.00     0.023 C 
ENDROOT
BRANCH   1   2
ATOM      2  C   UNL A   1      35.242  20.926  24.973  1.00  0.00     0.116 C 
BRANCH   2   3
ATOM      3  N   UNL A   1      33.983  21.636  25.046  1.00  0.00    -0.351 N 
ATOM      4  O   UNL A   1      32.872  20.297  23.551  1.00  0.00    -0.269 OA
ATOM      5  C   UNL A   1      32.883  21.269  24.302  1.00  0.00     0.275 C 
ATOM      6  H   UNL A   1      33.910  22.409  25.649  1.00  0.00     0.163 HD
BRANCH   5   7
ATOM      7  C   UNL A   1      31.688  22.229  24.377  1.00  0.00     0.363 C 
BRANCH   7   8
ATOM      8  N   UNL A   1      31.519  23.005  23.123  1.00  0.00    -0.324 N 
ATOM      9  C   UNL A   1      30.327  23.898  23.192  1.00  0.00     0.284 C 
ATOM     10  C   UNL A   1      32.723  23.856  22.884  1.00  0.00     0.284 C 
ATOM     11  H   UNL A   1      31.395  22.335  22.364  1.00  0.00     0.348 HD
ATOM     12  C   UNL A   1      30.430  25.093  24.176  1.00  0.00     0.179 C 
ATOM     13  C   UNL A   1      32.896  25.050  23.856  1.00  0.00     0.179 C 
ATOM     14  N   UNL A   1      31.659  25.820  23.895  1.00  0.00    -0.345 N 
BRANCH  14  15
ATOM     15  C   UNL A   1      31.662  27.187  24.041  1.00  0.00     0.133 A 
ATOM     16  C   UNL A   1      30.752  27.936  23.329  1.00  0.00     0.076 A 
ATOM     17  N   UNL A   1      32.450  27.745  24.969  1.00  0.00    -0.211 NA
ATOM     18  C   UNL A   1      30.642  29.275  23.642  1.00  0.00     0.076 A 
ATOM     19  C   UNL A   1      32.315  29.070  25.178  1.00  0.00     0.165 A 
ATOM     20  N   UNL A   1      31.442  29.871  24.543  1.00  0.00    -0.228 NA
BRANCH  18  21
ATOM     21  C   UNL A   1      29.574  30.093  23.058  1.00  0.00     0.000 A 
ATOM     22  C   UNL A   1      29.048  31.199  23.739  1.00  0.00     0.010 A 
ATOM     23  C   UNL A   1      29.065  29.797  21.778  1.00  0.00     0.010 A 
ATOM     24  C   UNL A   1      28.062  31.997  23.151  1.00  0.00     0.001 A 
ATOM     25  C   UNL A   1      28.076  30.588  21.194  1.00  0.00     0.001 A 
ATOM     26  C   UNL A   1      27.578  31.693  21.879  1.00  0.00     0.000 A 
ENDBRANCH  18  21
BRANCH  19  27
ATOM     27  C   UNL A   1      33.187  29.658  26.190  1.00  0.00     0.055 A 
ATOM     28  C   UNL A   1      34.379  29.018  26.581  1.00  0.00     0.015 A 
ATOM     29  C   UNL A   1      32.845  30.847  26.843  1.00  0.00     0.134 A 
ATOM     30  C   UNL A   1      35.193  29.555  27.584  1.00  0.00     0.001 A 
ATOM     31  C   UNL A   1      33.647  31.384  27.851  1.00  0.00     0.040 A 
ATOM     32  F   UNL A   1      31.702  31.484  26.545  1.00  0.00    -0.206 F 
ATOM     33  C   UNL A   1      34.823  30.737  28.222  1.00  0.00     0.003 A 
ENDBRANCH  19  27
ENDBRANCH  14  15
ENDBRANCH   7   8
ENDBRANCH   5   7
ENDBRANCH   2   3
ENDBRANCH   1   2
BRANCH   1  34
ATOM     34  C   UNL A   1      36.241  23.281  24.633  1.00  0.00     0.023 C 
BRANCH  34  35
ATOM     35  C   UNL A   1      37.279  23.850  25.596  1.00  0.00     0.116 C 
BRANCH  35  36
ATOM     36  N   UNL A   1      38.454  23.004  25.738  1.00  0.00    -0.352 N 
ATOM     37  C   UNL A   1      39.677  23.288  26.297  1.00  0.00     0.251 C 
ATOM     38  H   UNL A   1      38.359  22.092  25.380  1.00  0.00     0.163 HD
ATOM     39  O   UNL A   1      40.595  22.475  26.209  1.00  0.00    -0.269 OA
BRANCH  37  40
ATOM     40  C   UNL A   1      39.911  24.582  26.973  1.00  0.00     0.039 A 
ATOM     41  C   UNL A   1      39.486  24.736  28.296  1.00  0.00     0.014 A 
ATOM     42  C   UNL A   1      40.542  25.643  26.318  1.00  0.00     0.014 A 
ATOM     43  C   UNL A   1      39.760  25.922  28.982  1.00  0.00     0.010 A 
ATOM     44  C   UNL A   1      40.883  26.794  27.025  1.00  0.00     0.010 A 
ATOM     45  C   UNL A   1      40.498  26.946  28.367  1.00  0.00    -0.014 A 
BRANCH  45  46
ATOM     46  C   UNL A   1      40.890  28.170  29.114  1.00  0.00     0.031 A 
ATOM     47  C   UNL A   1      42.281  28.314  29.666  1.00  0.00     0.074 A 
ATOM     48  C   UNL A   1      39.973  29.129  29.349  1.00  0.00     0.049 A 
ATOM     49  N   UNL A   1      42.786  29.272  30.402  1.00  0.00    -0.248 NA
ATOM     50  C   UNL A   1      43.224  27.223  29.374  1.00  0.00     0.031 C 
ATOM     51  C   UNL A   1      38.578  29.091  28.907  1.00  0.00     0.029 A 
ATOM     52  N   UNL A   1      40.072  30.318  30.030  1.00  0.00    -0.354 N 
ATOM     53  C   UNL A   1      44.097  28.896  30.665  1.00  0.00     0.074 A 
ATOM     54  C   UNL A   1      44.292  27.595  30.063  1.00  0.00     0.031 C 
ATOM     55  C   UNL A   1      37.958  30.212  29.310  1.00  0.00     0.029 A 
ATOM     56  C   UNL A   1      38.896  31.026  30.076  1.00  0.00     0.049 A 
ATOM     57  H   UNL A   1      40.907  30.634  30.446  1.00  0.00     0.167 HD
ATOM     58  C   UNL A   1      45.059  29.584  31.327  1.00  0.00     0.037 A 
ATOM     59  C   UNL A   1      38.601  32.195  30.679  1.00  0.00     0.037 A 
ATOM     60  C   UNL A   1      44.866  30.885  31.916  1.00  0.00     0.049 A 
ATOM     61  C   UNL A   1      39.680  32.928  31.431  1.00  0.00     0.074 A 
ATOM     62  C   UNL A   1      45.791  31.683  32.566  1.00  0.00     0.029 A 
ATOM     63  N   UNL A   1      43.663  31.575  31.931  1.00  0.00    -0.354 N 
ATOM     64  N   UNL A   1      40.933  32.593  31.615  1.00  0.00    -0.248 NA
ATOM     65  C   UNL A   1      39.304  34.206  32.051  1.00  0.00     0.031 C 
ATOM     66  C   UNL A   1      45.136  32.830  33.025  1.00  0.00     0.029 A 
ATOM     67  C   UNL A   1      43.816  32.779  32.604  1.00  0.00     0.049 A 
ATOM     68  H   UNL A   1      42.824  31.258  31.526  1.00  0.00     0.167 HD
ATOM     69  C   UNL A   1      41.503  33.629  32.344  1.00  0.00     0.074 A 
ATOM     70  C   UNL A   1      40.461  34.612  32.554  1.00  0.00     0.031 C 
ATOM     71  C   UNL A   1      42.774  33.754  32.799  1.00  0.00     0.037 A 
BRANCH  58  72
ATOM     72  C   UNL A   1      46.413  28.943  31.449  1.00  0.00     0.064 A 
ATOM     73  C   UNL A   1      47.411  29.139  30.482  1.00  0.00     0.173 A 
ATOM     74  C   UNL A   1      46.731  28.156  32.567  1.00  0.00     0.173 A 
ATOM     75  F   UNL A   1      47.158  29.874  29.390  1.00  0.00    -0.203 F 
ATOM     76  C   UNL A   1      48.663  28.543  30.613  1.00  0.00     0.198 A 
ATOM     77  C   UNL A   1      47.996  27.591  32.711  1.00  0.00     0.198 A 
ATOM     78  F   UNL A   1      45.818  27.941  33.526  1.00  0.00    -0.203 F 
ATOM     79  F   UNL A   1      49.581  28.701  29.649  1.00  0.00    -0.200 F 
ATOM     80  C   UNL A   1      48.957  27.777  31.730  1.00  0.00     0.200 A 
ATOM     81  F   UNL A   1      48.283  26.864  33.800  1.00  0.00    -0.200 F 
ATOM     82  F   UNL A   1      50.166  27.212  31.858  1.00  0.00    -0.200 F 
ENDBRANCH  58  72
BRANCH  59  83
ATOM     83  C   UNL A   1      37.224  32.753  30.589  1.00  0.00     0.064 A 
ATOM     84  C   UNL A   1      36.843  33.567  29.514  1.00  0.00     0.173 A 
ATOM     85  C   UNL A   1      36.265  32.491  31.579  1.00  0.00     0.173 A 
ATOM     86  F   UNL A   1      37.729  33.863  28.551  1.00  0.00    -0.203 F 
ATOM     87  C   UNL A   1      35.565  34.122  29.447  1.00  0.00     0.198 A 
ATOM     88  C   UNL A   1      34.979  33.018  31.495  1.00  0.00     0.198 A 
ATOM     89  F   UNL A   1      36.575  31.713  32.626  1.00  0.00    -0.203 F 
ATOM     90  F   UNL A   1      35.246  34.941  28.436  1.00  0.00    -0.200 F 
ATOM     91  C   UNL A   1      34.633  33.842  30.434  1.00  0.00     0.200 A 
ATOM     92  F   UNL A   1      34.075  32.731  32.442  1.00  0.00    -0.200 F 
ATOM     93  F   UNL A   1      33.404  34.372  30.367  1.00  0.00    -0.200 F 
ENDBRANCH  59  83
BRANCH  71  94
ATOM     94  C   UNL A   1      43.124  35.017  33.534  1.00  0.00     0.064 A 
ATOM     95  C   UNL A   1      43.086  35.095  34.934  1.00  0.00     0.173 A 
ATOM     96  C   UNL A   1      43.543  36.155  32.826  1.00  0.00     0.173 A 
ATOM     97  F   UNL A   1      42.679  34.041  35.658  1.00  0.00    -0.203 F 
ATOM     98  C   UNL A   1      43.423  36.273  35.596  1.00  0.00     0.198 A 
ATOM     99  C   UNL A   1      43.914  37.319  33.493  1.00  0.00     0.198 A 
ATOM    100  F   UNL A   1      43.605  36.133  31.486  1.00  0.00    -0.203 F 
ATOM    101  F   UNL A   1      43.327  36.341  36.931  1.00  0.00    -0.200 F 
ATOM    102  C   UNL A   1      43.845  37.381  34.876  1.00  0.00     0.200 A 
ATOM    103  F   UNL A   1      44.337  38.382  32.795  1.00  0.00    -0.200 F 
ATOM    104  F   UNL A   1      44.179  38.510  35.514  1.00  0.00    -0.200 F 
ENDBRANCH  71  94
ENDBRANCH  45  46
ENDBRANCH  37  40
ENDBRANCH  35  36
ENDBRANCH  34  35
ENDBRANCH   1  34
TORSDOF 15
ENDMDL
MODEL 2
REMARK VINA RESULT:     -13.0      3.011      3.980
REMARK SMILES O=C(C[NH+]1CCN(c2cc(-c3ccccc3)nc(-c3ccccc3F)n2)CC1)NCCCCNC(=O)c1ccc(-c2c3nc(c(-c4c(F)c(F)c(F)c(F)c4F)c4ccc([nH]4)c(-c4c(F)c(F)c(F)c(F)c4F)c4nc(c(-c5c(F)c(F)c(F)c(F)c5F)c5ccc2[nH]5)C=C4)C=C3)cc1
REMARK SMILES IDX 31 1 30 2 29 3 1 4 2 5 3 7 4 8 5 9 28 10 6 12 27 13 7 14
REMARK SMILES IDX 8 15 9 16 26 17 10 18 18 19 17 20 11 21 12 22 16 23 13 24
REMARK SMILES IDX 15 25 14 26 19 27 20 28 24 29 21 30 23 31 25 32 22 33 32 34
REMARK SMILES IDX 33 35 34 36 35 37 36 39 37 40 38 41 99 42 39 43 98 44 40 45
REMARK SMILES IDX 41 46 42 47 92 48 43 49 97 50 91 51 93 52 44 53 96 54 90 55
REMARK SMILES IDX 89 56 45 58 77 59 57 60 76 61 58 62 61 63 75 64 94 65 59 66
REMARK SMILES IDX 60 67 74 69 95 70 62 71 46 72 47 73 55 74 48 75 49 76 53 77
REMARK SMILES IDX 56 78 50 79 51 80 54 81 52 82 78 83 79 84 87 85 80 86 81 87
REMARK SMILES IDX 85 88 88 89 82 90 83 91 86 92 84 93 63 94 64 95 72 96 65 97
REMARK SMILES IDX 66 98 70 99 73 100 67 101 68 102 71 103 69 104
REMARK H PARENT 29 6 4 11 34 38 93 57 61 68
REMARK Flexibility Score: inf
ROOT
ATOM      1  C   UNL A   1      36.379  19.801  24.776  1.00  0.00     0.023 C 
ENDROOT
BRANCH   1   2
ATOM      2  C   UNL A   1      34.923  19.337  24.794  1.00  0.00     0.116 C 
BRANCH   2   3
ATOM      3  N   UNL A   1      34.002  20.435  24.995  1.00  0.00    -0.351 N 
ATOM      4  O   UNL A   1      32.153  19.127  25.359  1.00  0.00    -0.269 OA
ATOM      5  C   UNL A   1      32.662  20.240  25.248  1.00  0.00     0.275 C 
ATOM      6  H   UNL A   1      34.345  21.356  24.949  1.00  0.00     0.163 HD
BRANCH   5   7
ATOM      7  C   UNL A   1      31.803  21.512  25.269  1.00  0.00     0.363 C 
BRANCH   7   8
ATOM      8  N   UNL A   1      32.083  22.352  26.461  1.00  0.00    -0.324 N 
ATOM      9  C   UNL A   1      33.284  23.210  26.252  1.00  0.00     0.284 C 
ATOM     10  C   UNL A   1      30.919  23.244  26.741  1.00  0.00     0.284 C 
ATOM     11  H   UNL A   1      32.251  21.722  27.245  1.00  0.00     0.348 HD
ATOM     12  C   UNL A   1      33.130  24.351  25.212  1.00  0.00     0.179 C 
ATOM     13  C   UNL A   1      30.696  24.387  25.719  1.00  0.00     0.179 C 
ATOM     14  N   UNL A   1      31.942  25.123  25.544  1.00  0.00    -0.345 N 
BRANCH  14  15
ATOM     15  C   UNL A   1      31.956  26.479  25.321  1.00  0.00     0.133 A 
ATOM     16  C   UNL A   1      30.998  27.031  24.500  1.00  0.00     0.076 A 
ATOM     17  N   UNL A   1      32.808  27.248  26.012  1.00  0.00    -0.211 NA
ATOM     18  C   UNL A   1      30.911  28.406  24.454  1.00  0.00     0.076 A 
ATOM     19  C   UNL A   1      32.689  28.583  25.871  1.00  0.00     0.165 A 
ATOM     20  N   UNL A   1      31.774  29.204  25.108  1.00  0.00    -0.228 NA
BRANCH  18  21
ATOM     21  C   UNL A   1      29.805  29.062  23.748  1.00  0.00     0.000 A 
ATOM     22  C   UNL A   1      28.793  28.317  23.127  1.00  0.00     0.010 A 
ATOM     23  C   UNL A   1      29.722  30.467  23.697  1.00  0.00     0.010 A 
ATOM     24  C   UNL A   1      27.721  28.955  22.496  1.00  0.00     0.001 A 
ATOM     25  C   UNL A   1      28.658  31.106  23.061  1.00  0.00     0.001 A 
ATOM     26  C   UNL A   1      27.653  30.348  22.465  1.00  0.00     0.000 A 
ENDBRANCH  18  21
BRANCH  19  27
ATOM     27  C   UNL A   1      33.630  29.401  26.630  1.00  0.00     0.055 A 
ATOM     28  C   UNL A   1      34.941  28.953  26.880  1.00  0.00     0.015 A 
ATOM     29  C   UNL A   1      33.250  30.631  27.175  1.00  0.00     0.134 A 
ATOM     30  C   UNL A   1      35.832  29.713  27.646  1.00  0.00     0.001 A 
ATOM     31  C   UNL A   1      34.130  31.391  27.948  1.00  0.00     0.040 A 
ATOM     32  F   UNL A   1      32.002  31.095  27.006  1.00  0.00    -0.206 F 
ATOM     33  C   UNL A   1      35.422  30.931  28.184  1.00  0.00     0.003 A 
ENDBRANCH  19  27
ENDBRANCH  14  15
ENDBRANCH   7   8
ENDBRANCH   5   7
ENDBRANCH   2   3
ENDBRANCH   1   2
BRANCH   1  34
ATOM     34  C   UNL A   1      36.575  21.316  24.665  1.00  0.00     0.023 C 
BRANCH  34  35
ATOM     35  C   UNL A   1      37.970  21.825  25.012  1.00  0.00     0.116 C 
BRANCH  35  36
ATOM     36  N   UNL A   1      38.760  20.867  25.771  1.00  0.00    -0.352 N 
ATOM     37  C   UNL A   1      39.820  21.079  26.618  1.00  0.00     0.251 C 
ATOM     38  H   UNL A   1      38.494  19.926  25.661  1.00  0.00     0.163 HD
ATOM     39  O   UNL A   1      40.443  20.122  27.072  1.00  0.00    -0.269 OA
BRANCH  37  40
ATOM     40  C   UNL A   1      40.245  22.454  26.959  1.00  0.00     0.039 A 
ATOM     41  C   UNL A   1      41.237  22.630  27.929  1.00  0.00     0.014 A 
ATOM     42  C   UNL A   1      39.677  23.568  26.336  1.00  0.00     0.014 A 
ATOM     43  C   UNL A   1      41.709  23.913  28.219  1.00  0.00     0.010 A 
ATOM     44  C   UNL A   1      40.202  24.837  26.567  1.00  0.00     0.010 A 
ATOM     45  C   UNL A   1      41.226  25.025  27.510  1.00  0.00    -0.014 A 
BRANCH  45  46
ATOM     46  C   UNL A   1      41.790  26.383  27.729  1.00  0.00     0.031 A 
ATOM     47  C   UNL A   1      43.157  26.733  27.207  1.00  0.00     0.074 A 
ATOM     48  C   UNL A   1      41.097  27.284  28.452  1.00  0.00     0.049 A 
ATOM     49  N   UNL A   1      43.843  27.838  27.360  1.00  0.00    -0.248 NA
ATOM     50  C   UNL A   1      43.855  25.696  26.433  1.00  0.00     0.031 C 
ATOM     51  C   UNL A   1      39.781  27.054  29.051  1.00  0.00     0.029 A 
ATOM     52  N   UNL A   1      41.407  28.571  28.818  1.00  0.00    -0.354 N 
ATOM     53  C   UNL A   1      45.052  27.625  26.710  1.00  0.00     0.074 A 
ATOM     54  C   UNL A   1      45.031  26.265  26.214  1.00  0.00     0.031 C 
ATOM     55  C   UNL A   1      39.389  28.168  29.691  1.00  0.00     0.029 A 
ATOM     56  C   UNL A   1      40.441  29.173  29.588  1.00  0.00     0.049 A 
ATOM     57  H   UNL A   1      42.242  29.021  28.553  1.00  0.00     0.167 HD
ATOM     58  C   UNL A   1      46.077  28.491  26.521  1.00  0.00     0.037 A 
ATOM     59  C   UNL A   1      40.412  30.393  30.158  1.00  0.00     0.037 A 
ATOM     60  C   UNL A   1      46.092  29.848  27.005  1.00  0.00     0.049 A 
ATOM     61  C   UNL A   1      41.575  31.328  29.956  1.00  0.00     0.074 A 
ATOM     62  C   UNL A   1      47.063  30.817  26.824  1.00  0.00     0.029 A 
ATOM     63  N   UNL A   1      45.089  30.425  27.771  1.00  0.00    -0.354 N 
ATOM     64  N   UNL A   1      42.682  31.137  29.283  1.00  0.00    -0.248 NA
ATOM     65  C   UNL A   1      41.477  32.652  30.586  1.00  0.00     0.031 C 
ATOM     66  C   UNL A   1      46.676  31.962  27.528  1.00  0.00     0.029 A 
ATOM     67  C   UNL A   1      45.432  31.729  28.093  1.00  0.00     0.049 A 
ATOM     68  H   UNL A   1      44.258  29.975  28.046  1.00  0.00     0.167 HD
ATOM     69  C   UNL A   1      43.399  32.323  29.382  1.00  0.00     0.074 A 
ATOM     70  C   UNL A   1      42.592  33.233  30.167  1.00  0.00     0.031 C 
ATOM     71  C   UNL A   1      44.617  32.629  28.869  1.00  0.00     0.037 A 
BRANCH  58  72
ATOM     72  C   UNL A   1      47.272  27.998  25.754  1.00  0.00     0.064 A 
ATOM     73  C   UNL A   1      47.263  27.909  24.353  1.00  0.00     0.173 A 
ATOM     74  C   UNL A   1      48.454  27.647  26.424  1.00  0.00     0.173 A 
ATOM     75  F   UNL A   1      46.156  28.222  23.663  1.00  0.00    -0.203 F 
ATOM     76  C   UNL A   1      48.381  27.456  23.656  1.00  0.00     0.198 A 
ATOM     77  C   UNL A   1      49.581  27.229  25.721  1.00  0.00     0.198 A 
ATOM     78  F   UNL A   1      48.522  27.720  27.761  1.00  0.00    -0.203 F 
ATOM     79  F   UNL A   1      48.328  27.329  22.323  1.00  0.00    -0.200 F 
ATOM     80  C   UNL A   1      49.540  27.124  24.339  1.00  0.00     0.200 A 
ATOM     81  F   UNL A   1      50.706  26.923  26.381  1.00  0.00    -0.200 F 
ATOM     82  F   UNL A   1      50.617  26.697  23.665  1.00  0.00    -0.200 F 
ENDBRANCH  58  72
BRANCH  59  83
ATOM     83  C   UNL A   1      39.235  30.808  30.970  1.00  0.00     0.064 A 
ATOM     84  C   UNL A   1      38.240  31.634  30.430  1.00  0.00     0.173 A 
ATOM     85  C   UNL A   1      39.087  30.396  32.303  1.00  0.00     0.173 A 
ATOM     86  F   UNL A   1      38.345  32.070  29.166  1.00  0.00    -0.203 F 
ATOM     87  C   UNL A   1      37.156  32.054  31.200  1.00  0.00     0.198 A 
ATOM     88  C   UNL A   1      37.987  30.789  33.061  1.00  0.00     0.198 A 
ATOM     89  F   UNL A   1      40.008  29.600  32.867  1.00  0.00    -0.203 F 
ATOM     90  F   UNL A   1      36.248  32.887  30.675  1.00  0.00    -0.200 F 
ATOM     91  C   UNL A   1      37.028  31.626  32.512  1.00  0.00     0.200 A 
ATOM     92  F   UNL A   1      37.858  30.359  34.324  1.00  0.00    -0.200 F 
ATOM     93  F   UNL A   1      35.984  32.027  33.251  1.00  0.00    -0.200 F 
ENDBRANCH  59  83
BRANCH  71  94
ATOM     94  C   UNL A   1      45.136  34.020  29.104  1.00  0.00     0.064 A 
ATOM     95  C   UNL A   1      45.951  34.331  30.202  1.00  0.00     0.173 A 
ATOM     96  C   UNL A   1      44.844  35.048  28.193  1.00  0.00     0.173 A 
ATOM     97  F   UNL A   1      46.249  33.390  31.110  1.00  0.00    -0.203 F 
ATOM     98  C   UNL A   1      46.429  35.624  30.396  1.00  0.00     0.198 A 
ATOM     99  C   UNL A   1      45.353  36.331  28.371  1.00  0.00     0.198 A 
ATOM    100  F   UNL A   1      44.075  34.803  27.121  1.00  0.00    -0.203 F 
ATOM    101  F   UNL A   1      47.161  35.911  31.482  1.00  0.00    -0.200 F 
ATOM    102  C   UNL A   1      46.137  36.621  29.477  1.00  0.00     0.200 A 
ATOM    103  F   UNL A   1      45.083  37.287  27.472  1.00  0.00    -0.200 F 
ATOM    104  F   UNL A   1      46.606  37.863  29.659  1.00  0.00    -0.200 F 
ENDBRANCH  71  94
ENDBRANCH  45  46
ENDBRANCH  37  40
ENDBRANCH  35  36
ENDBRANCH  34  35
ENDBRANCH   1  34
TORSDOF 15
ENDMDL
MODEL 3
REMARK VINA RESULT:     -12.8      3.011      4.856
REMARK SMILES O=C(C[NH+]1CCN(c2cc(-c3ccccc3)nc(-c3ccccc3F)n2)CC1)NCCCCNC(=O)c1ccc(-c2c3nc(c(-c4c(F)c(F)c(F)c(F)c4F)c4ccc([nH]4)c(-c4c(F)c(F)c(F)c(F)c4F)c4nc(c(-c5c(F)c(F)c(F)c(F)c5F)c5ccc2[nH]5)C=C4)C=C3)cc1
REMARK SMILES IDX 31 1 30 2 29 3 1 4 2 5 3 7 4 8 5 9 28 10 6 12 27 13 7 14
REMARK SMILES IDX 8 15 9 16 26 17 10 18 18 19 17 20 11 21 12 22 16 23 13 24
REMARK SMILES IDX 15 25 14 26 19 27 20 28 24 29 21 30 23 31 25 32 22 33 32 34
REMARK SMILES IDX 33 35 34 36 35 37 36 39 37 40 38 41 99 42 39 43 98 44 40 45
REMARK SMILES IDX 41 46 42 47 92 48 43 49 97 50 91 51 93 52 44 53 96 54 90 55
REMARK SMILES IDX 89 56 45 58 77 59 57 60 76 61 58 62 61 63 75 64 94 65 59 66
REMARK SMILES IDX 60 67 74 69 95 70 62 71 46 72 47 73 55 74 48 75 49 76 53 77
REMARK SMILES IDX 56 78 50 79 51 80 54 81 52 82 78 83 79 84 87 85 80 86 81 87
REMARK SMILES IDX 85 88 88 89 82 90 83 91 86 92 84 93 63 94 64 95 72 96 65 97
REMARK SMILES IDX 66 98 70 99 73 100 67 101 68 102 71 103 69 104
REMARK H PARENT 29 6 4 11 34 38 93 57 61 68
REMARK Flexibility Score: inf
ROOT
ATOM      1  C   UNL A   1      35.568  21.989  26.325  1.00  0.00     0.023 C 
ENDROOT
BRANCH   1   2
ATOM      2  C   UNL A   1      34.329  21.219  26.781  1.00  0.00     0.116 C 
BRANCH   2   3
ATOM      3  N   UNL A   1      33.106  21.799  26.267  1.00  0.00    -0.351 N 
ATOM      4  O   UNL A   1      33.066  20.580  24.325  1.00  0.00    -0.269 OA
ATOM      5  C   UNL A   1      32.571  21.440  25.050  1.00  0.00     0.275 C 
ATOM      6  H   UNL A   1      32.639  22.475  26.808  1.00  0.00     0.163 HD
BRANCH   5   7
ATOM      7  C   UNL A   1      31.367  22.272  24.588  1.00  0.00     0.363 C 
BRANCH   7   8
ATOM      8  N   UNL A   1      31.714  23.175  23.463  1.00  0.00    -0.324 N 
ATOM      9  C   UNL A   1      30.582  24.084  23.126  1.00  0.00     0.284 C 
ATOM     10  C   UNL A   1      32.892  24.017  23.829  1.00  0.00     0.284 C 
ATOM     11  H   UNL A   1      31.927  22.589  22.656  1.00  0.00     0.348 HD
ATOM     12  C   UNL A   1      30.246  25.171  24.181  1.00  0.00     0.179 C 
ATOM     13  C   UNL A   1      32.625  25.102  24.903  1.00  0.00     0.179 C 
ATOM     14  N   UNL A   1      31.466  25.893  24.507  1.00  0.00    -0.345 N 
BRANCH  14  15
ATOM     15  C   UNL A   1      31.381  27.238  24.779  1.00  0.00     0.133 A 
ATOM     16  C   UNL A   1      32.247  27.789  25.698  1.00  0.00     0.076 A 
ATOM     17  N   UNL A   1      30.558  28.004  24.051  1.00  0.00    -0.211 NA
ATOM     18  C   UNL A   1      32.275  29.164  25.804  1.00  0.00     0.076 A 
ATOM     19  C   UNL A   1      30.613  29.335  24.253  1.00  0.00     0.165 A 
ATOM     20  N   UNL A   1      31.437  29.957  25.113  1.00  0.00    -0.228 NA
BRANCH  18  21
ATOM     21  C   UNL A   1      33.294  29.829  26.624  1.00  0.00     0.000 A 
ATOM     22  C   UNL A   1      34.532  29.224  26.880  1.00  0.00     0.010 A 
ATOM     23  C   UNL A   1      33.056  31.110  27.158  1.00  0.00     0.010 A 
ATOM     24  C   UNL A   1      35.511  29.889  27.626  1.00  0.00     0.001 A 
ATOM     25  C   UNL A   1      34.028  31.771  27.910  1.00  0.00     0.001 A 
ATOM     26  C   UNL A   1      35.259  31.161  28.138  1.00  0.00     0.000 A 
ENDBRANCH  18  21
BRANCH  19  27
ATOM     27  C   UNL A   1      29.704  30.149  23.451  1.00  0.00     0.055 A 
ATOM     28  C   UNL A   1      29.211  29.684  22.217  1.00  0.00     0.015 A 
ATOM     29  C   UNL A   1      29.333  31.436  23.854  1.00  0.00     0.134 A 
ATOM     30  C   UNL A   1      28.378  30.480  21.424  1.00  0.00     0.001 A 
ATOM     31  C   UNL A   1      28.509  32.239  23.064  1.00  0.00     0.040 A 
ATOM     32  F   UNL A   1      29.801  31.953  25.000  1.00  0.00    -0.206 F 
ATOM     33  C   UNL A   1      28.031  31.761  21.847  1.00  0.00     0.003 A 
ENDBRANCH  19  27
ENDBRANCH  14  15
ENDBRANCH   7   8
ENDBRANCH   5   7
ENDBRANCH   2   3
ENDBRANCH   1   2
BRANCH   1  34
ATOM     34  C   UNL A   1      36.319  21.368  25.144  1.00  0.00     0.023 C 
BRANCH  34  35
ATOM     35  C   UNL A   1      37.805  21.702  25.061  1.00  0.00     0.116 C 
BRANCH  35  36
ATOM     36  N   UNL A   1      38.650  20.737  25.747  1.00  0.00    -0.352 N 
ATOM     37  C   UNL A   1      39.761  20.943  26.529  1.00  0.00     0.251 C 
ATOM     38  H   UNL A   1      38.386  19.796  25.635  1.00  0.00     0.163 HD
ATOM     39  O   UNL A   1      40.420  19.983  26.923  1.00  0.00    -0.269 OA
BRANCH  37  40
ATOM     40  C   UNL A   1      40.194  22.315  26.872  1.00  0.00     0.039 A 
ATOM     41  C   UNL A   1      41.213  22.482  27.814  1.00  0.00     0.014 A 
ATOM     42  C   UNL A   1      39.607  23.434  26.277  1.00  0.00     0.014 A 
ATOM     43  C   UNL A   1      41.692  23.764  28.103  1.00  0.00     0.010 A 
ATOM     44  C   UNL A   1      40.137  24.702  26.505  1.00  0.00     0.010 A 
ATOM     45  C   UNL A   1      41.188  24.882  27.419  1.00  0.00    -0.014 A 
BRANCH  45  46
ATOM     46  C   UNL A   1      41.756  26.238  27.635  1.00  0.00     0.031 A 
ATOM     47  C   UNL A   1      43.117  26.589  27.096  1.00  0.00     0.074 A 
ATOM     48  C   UNL A   1      41.074  27.138  28.370  1.00  0.00     0.049 A 
ATOM     49  N   UNL A   1      43.807  27.692  27.243  1.00  0.00    -0.248 NA
ATOM     50  C   UNL A   1      43.803  25.552  26.310  1.00  0.00     0.031 C 
ATOM     51  C   UNL A   1      39.766  26.908  28.986  1.00  0.00     0.029 A 
ATOM     52  N   UNL A   1      41.391  28.424  28.736  1.00  0.00    -0.354 N 
ATOM     53  C   UNL A   1      45.006  27.479  26.576  1.00  0.00     0.074 A 
ATOM     54  C   UNL A   1      44.977  26.121  26.077  1.00  0.00     0.031 C 
ATOM     55  C   UNL A   1      39.384  28.020  29.635  1.00  0.00     0.029 A 
ATOM     56  C   UNL A   1      40.436  29.024  29.520  1.00  0.00     0.049 A 
ATOM     57  H   UNL A   1      42.223  28.873  28.461  1.00  0.00     0.167 HD
ATOM     58  C   UNL A   1      46.030  28.345  26.376  1.00  0.00     0.037 A 
ATOM     59  C   UNL A   1      40.416  30.243  30.095  1.00  0.00     0.037 A 
ATOM     60  C   UNL A   1      46.053  29.700  26.864  1.00  0.00     0.049 A 
ATOM     61  C   UNL A   1      41.578  31.177  29.880  1.00  0.00     0.074 A 
ATOM     62  C   UNL A   1      47.023  30.668  26.674  1.00  0.00     0.029 A 
ATOM     63  N   UNL A   1      45.061  30.276  27.645  1.00  0.00    -0.354 N 
ATOM     64  N   UNL A   1      42.676  30.987  29.192  1.00  0.00    -0.248 NA
ATOM     65  C   UNL A   1      41.490  32.499  30.516  1.00  0.00     0.031 C 
ATOM     66  C   UNL A   1      46.647  31.811  27.387  1.00  0.00     0.029 A 
ATOM     67  C   UNL A   1      45.410  31.579  27.968  1.00  0.00     0.049 A 
ATOM     68  H   UNL A   1      44.234  29.826  27.930  1.00  0.00     0.167 HD
ATOM     69  C   UNL A   1      43.395  32.171  29.285  1.00  0.00     0.074 A 
ATOM     70  C   UNL A   1      42.600  33.080  30.084  1.00  0.00     0.031 C 
ATOM     71  C   UNL A   1      44.607  32.477  28.757  1.00  0.00     0.037 A 
BRANCH  58  72
ATOM     72  C   UNL A   1      47.213  27.852  25.592  1.00  0.00     0.064 A 
ATOM     73  C   UNL A   1      47.209  27.828  24.189  1.00  0.00     0.173 A 
ATOM     74  C   UNL A   1      48.382  27.437  26.250  1.00  0.00     0.173 A 
ATOM     75  F   UNL A   1      46.116  28.205  23.510  1.00  0.00    -0.203 F 
ATOM     76  C   UNL A   1      48.317  27.375  23.475  1.00  0.00     0.198 A 
ATOM     77  C   UNL A   1      49.500  27.018  25.532  1.00  0.00     0.198 A 
ATOM     78  F   UNL A   1      48.445  27.446  27.589  1.00  0.00    -0.203 F 
ATOM     79  F   UNL A   1      48.267  27.310  22.138  1.00  0.00    -0.200 F 
ATOM     80  C   UNL A   1      49.463  26.979  24.146  1.00  0.00     0.200 A 
ATOM     81  F   UNL A   1      50.612  26.650  26.182  1.00  0.00    -0.200 F 
ATOM     82  F   UNL A   1      50.530  26.551  23.458  1.00  0.00    -0.200 F 
ENDBRANCH  58  72
BRANCH  59  83
ATOM     83  C   UNL A   1      39.251  30.656  30.924  1.00  0.00     0.064 A 
ATOM     84  C   UNL A   1      38.241  31.471  30.394  1.00  0.00     0.173 A 
ATOM     85  C   UNL A   1      39.129  30.254  32.262  1.00  0.00     0.173 A 
ATOM     86  F   UNL A   1      38.322  31.899  29.126  1.00  0.00    -0.203 F 
ATOM     87  C   UNL A   1      37.168  31.891  31.180  1.00  0.00     0.198 A 
ATOM     88  C   UNL A   1      38.040  30.646  33.036  1.00  0.00     0.198 A 
ATOM     89  F   UNL A   1      40.064  29.468  32.816  1.00  0.00    -0.203 F 
ATOM     90  F   UNL A   1      36.246  32.714  30.664  1.00  0.00    -0.200 F 
ATOM     91  C   UNL A   1      37.065  31.473  32.497  1.00  0.00     0.200 A 
ATOM     92  F   UNL A   1      37.935  30.225  34.305  1.00  0.00    -0.200 F 
ATOM     93  F   UNL A   1      36.032  31.873  33.251  1.00  0.00    -0.200 F 
ENDBRANCH  59  83
BRANCH  71  94
ATOM     94  C   UNL A   1      45.131  33.866  28.989  1.00  0.00     0.064 A 
ATOM     95  C   UNL A   1      44.814  34.931  28.132  1.00  0.00     0.173 A 
ATOM     96  C   UNL A   1      45.929  34.144  30.111  1.00  0.00     0.173 A 
ATOM     97  F   UNL A   1      44.067  34.718  27.039  1.00  0.00    -0.203 F 
ATOM     98  C   UNL A   1      45.303  36.213  28.371  1.00  0.00     0.198 A 
ATOM     99  C   UNL A   1      46.385  35.434  30.365  1.00  0.00     0.198 A 
ATOM    100  F   UNL A   1      46.255  33.165  30.968  1.00  0.00    -0.203 F 
ATOM    101  F   UNL A   1      45.032  37.202  27.508  1.00  0.00    -0.200 F 
ATOM    102  C   UNL A   1      46.080  36.466  29.491  1.00  0.00     0.200 A 
ATOM    103  F   UNL A   1      47.122  35.678  31.458  1.00  0.00    -0.200 F 
ATOM    104  F   UNL A   1      46.541  37.701  29.726  1.00  0.00    -0.200 F 
ENDBRANCH  71  94
ENDBRANCH  45  46
ENDBRANCH  37  40
ENDBRANCH  35  36
ENDBRANCH  34  35
ENDBRANCH   1  34
TORSDOF 15
ENDMDL
