MODEL 1
REMARK VINA RESULT:     -11.9      0.000      0.000
REMARK SMILES Cc1[nH]c(=O)sc1S(=O)(=O)NC1(CC(=O)NCCCCNC(=O)c2ccc(-c3c4nc(c(-c5c(F)c(F)c(F)c(F)c5F)c5ccc([nH]5)c(-c5c(F)c(F)c(F)c(F)c5F)c5nc(c(-c6c(F)c(F)c(F)c(F)c6F)c6ccc3[nH]6)C=C5)C=C4)cc2)CCC1
REMARK SMILES IDX 17 1 16 2 14 3 15 4 13 6 12 7 87 8 89 9 88 10 11 11 8 13
REMARK SMILES IDX 9 14 10 15 7 16 1 17 2 18 3 19 4 20 6 22 5 23 18 24 19 25
REMARK SMILES IDX 20 26 21 27 22 28 23 30 24 31 25 32 86 33 26 34 85 35 27 36
REMARK SMILES IDX 28 37 29 38 79 39 30 40 84 41 78 42 80 43 31 44 83 45 77 46
REMARK SMILES IDX 76 47 32 49 64 50 44 51 63 52 45 53 48 54 62 55 81 56 46 57
REMARK SMILES IDX 47 58 61 60 82 61 49 62 33 63 34 64 42 65 35 66 36 67 40 68
REMARK SMILES IDX 43 69 37 70 38 71 41 72 39 73 65 74 66 75 74 76 67 77 68 78
REMARK SMILES IDX 72 79 75 80 69 81 70 82 73 83 71 84 50 85 51 86 59 87 52 88
REMARK SMILES IDX 53 89 57 90 60 91 54 92 55 93 58 94 56 95
REMARK H PARENT 16 5 11 12 3 21 21 29 80 48 48 59
REMARK Flexibility Score: inf
ROOT
ATOM      1  C   UNL A   1      39.140  21.345  26.012  1.00  0.00     0.116 C 
ENDROOT
BRANCH   1   2
ATOM      2  N   UNL A   1      38.902  22.772  26.028  1.00  0.00    -0.356 N 
ATOM      3  C   UNL A   1      37.763  23.442  25.700  1.00  0.00     0.221 C 
ATOM      4  O   UNL A   1      37.521  24.473  26.333  1.00  0.00    -0.275 OA
ATOM      5  H   UNL A   1      39.661  23.331  26.312  1.00  0.00     0.163 HD
BRANCH   3   6
ATOM      6  C   UNL A   1      36.761  22.908  24.707  1.00  0.00     0.123 C 
BRANCH   6   7
ATOM      7  C   UNL A   1      35.295  22.639  25.094  1.00  0.00     0.042 C 
ATOM      8  C   UNL A   1      35.285  21.473  26.194  1.00  0.00     0.024 C 
ATOM      9  C   UNL A   1      34.453  21.593  24.263  1.00  0.00     0.024 C 
ATOM     10  C   UNL A   1      35.067  20.455  25.078  1.00  0.00     0.004 C 
BRANCH   7  11
ATOM     11  N   UNL A   1      34.533  23.824  25.677  1.00  0.00    -0.204 NA
ATOM     12  H   UNL A   1      34.464  23.571  26.662  1.00  0.00     0.142 HD
BRANCH  11  13
ATOM     13  S   UNL A   1      33.059  24.611  25.413  1.00  0.00     0.252 S 
ATOM     14  O   UNL A   1      33.149  25.867  26.120  1.00  0.00    -0.206 OA
ATOM     15  O   UNL A   1      32.101  23.625  25.879  1.00  0.00    -0.206 OA
BRANCH  13  16
ATOM     16  C   UNL A   1      32.707  24.910  23.745  1.00  0.00     0.158 A 
ATOM     17  C   UNL A   1      30.170  25.352  23.933  1.00  0.00     0.067 C 
ATOM     18  C   UNL A   1      31.496  25.246  23.262  1.00  0.00     0.046 A 
ATOM     19  N   UNL A   1      31.524  25.530  21.911  1.00  0.00    -0.315 N 
ATOM     20  C   UNL A   1      32.738  25.433  21.275  1.00  0.00     0.305 A 
ATOM     21  H   UNL A   1      30.709  25.789  21.424  1.00  0.00     0.170 HD
ATOM     22  S   UNL A   1      33.943  25.037  22.489  1.00  0.00    -0.061 S 
ATOM     23  O   UNL A   1      32.941  25.531  20.084  1.00  0.00    -0.257 OA
ENDBRANCH  13  16
ENDBRANCH  11  13
ENDBRANCH   7  11
ENDBRANCH   6   7
ENDBRANCH   3   6
ENDBRANCH   1   2
BRANCH   1  24
ATOM     24  C   UNL A   1      40.388  20.924  26.793  1.00  0.00     0.023 C 
BRANCH  24  25
ATOM     25  C   UNL A   1      41.440  20.110  26.055  1.00  0.00     0.023 C 
BRANCH  25  26
ATOM     26  C   UNL A   1      42.745  19.927  26.775  1.00  0.00     0.116 C 
BRANCH  26  27
ATOM     27  N   UNL A   1      43.844  19.482  25.911  1.00  0.00    -0.352 N 
ATOM     28  C   UNL A   1      44.492  20.252  24.951  1.00  0.00     0.251 C 
ATOM     29  H   UNL A   1      44.152  18.552  26.022  1.00  0.00     0.163 HD
ATOM     30  O   UNL A   1      45.099  19.752  24.015  1.00  0.00    -0.269 OA
BRANCH  28  31
ATOM     31  C   UNL A   1      44.431  21.713  25.134  1.00  0.00     0.039 A 
ATOM     32  C   UNL A   1      43.552  22.550  24.447  1.00  0.00     0.014 A 
ATOM     33  C   UNL A   1      45.160  22.176  26.215  1.00  0.00     0.014 A 
ATOM     34  C   UNL A   1      43.365  23.839  24.945  1.00  0.00     0.010 A 
ATOM     35  C   UNL A   1      44.654  23.239  26.894  1.00  0.00     0.010 A 
ATOM     36  C   UNL A   1      43.901  24.162  26.206  1.00  0.00    -0.014 A 
BRANCH  36  37
ATOM     37  C   UNL A   1      43.642  25.411  26.909  1.00  0.00     0.031 A 
ATOM     38  C   UNL A   1      44.609  26.479  26.579  1.00  0.00     0.074 A 
ATOM     39  C   UNL A   1      42.533  25.633  27.655  1.00  0.00     0.049 A 
ATOM     40  N   UNL A   1      45.597  26.865  27.311  1.00  0.00    -0.248 NA
ATOM     41  C   UNL A   1      44.616  27.040  25.220  1.00  0.00     0.031 C 
ATOM     42  C   UNL A   1      41.335  24.795  27.835  1.00  0.00     0.029 A 
ATOM     43  N   UNL A   1      42.220  26.729  28.401  1.00  0.00    -0.354 N 
ATOM     44  C   UNL A   1      46.219  27.885  26.605  1.00  0.00     0.074 A 
ATOM     45  C   UNL A   1      45.712  27.805  25.260  1.00  0.00     0.031 C 
ATOM     46  C   UNL A   1      40.355  25.502  28.439  1.00  0.00     0.029 A 
ATOM     47  C   UNL A   1      40.908  26.766  28.871  1.00  0.00     0.049 A 
ATOM     48  H   UNL A   1      42.871  27.442  28.590  1.00  0.00     0.167 HD
ATOM     49  C   UNL A   1      46.887  28.863  27.277  1.00  0.00     0.037 A 
ATOM     50  C   UNL A   1      40.333  27.765  29.589  1.00  0.00     0.037 A 
ATOM     51  C   UNL A   1      47.122  28.463  28.646  1.00  0.00     0.049 A 
ATOM     52  C   UNL A   1      41.442  28.539  30.202  1.00  0.00     0.074 A 
ATOM     53  C   UNL A   1      47.816  27.434  29.250  1.00  0.00     0.029 A 
ATOM     54  N   UNL A   1      46.240  28.928  29.592  1.00  0.00    -0.354 N 
ATOM     55  N   UNL A   1      42.237  28.052  31.116  1.00  0.00    -0.248 NA
ATOM     56  C   UNL A   1      41.970  29.657  29.438  1.00  0.00     0.031 C 
ATOM     57  C   UNL A   1      46.995  27.026  30.345  1.00  0.00     0.029 A 
ATOM     58  C   UNL A   1      45.895  27.883  30.409  1.00  0.00     0.049 A 
ATOM     59  H   UNL A   1      45.913  29.854  29.670  1.00  0.00     0.167 HD
ATOM     60  C   UNL A   1      43.500  28.495  30.751  1.00  0.00     0.074 A 
ATOM     61  C   UNL A   1      43.264  29.534  29.749  1.00  0.00     0.031 C 
ATOM     62  C   UNL A   1      44.614  27.775  31.072  1.00  0.00     0.037 A 
BRANCH  49  63
ATOM     63  C   UNL A   1      46.946  30.310  26.854  1.00  0.00     0.064 A 
ATOM     64  C   UNL A   1      48.186  30.980  26.923  1.00  0.00     0.173 A 
ATOM     65  C   UNL A   1      45.816  31.140  26.694  1.00  0.00     0.173 A 
ATOM     66  F   UNL A   1      49.327  30.293  27.079  1.00  0.00    -0.203 F 
ATOM     67  C   UNL A   1      48.272  32.374  26.937  1.00  0.00     0.198 A 
ATOM     68  C   UNL A   1      45.912  32.530  26.658  1.00  0.00     0.198 A 
ATOM     69  F   UNL A   1      44.569  30.662  26.685  1.00  0.00    -0.203 F 
ATOM     70  F   UNL A   1      49.456  32.964  27.146  1.00  0.00    -0.200 F 
ATOM     71  C   UNL A   1      47.134  33.148  26.815  1.00  0.00     0.200 A 
ATOM     72  F   UNL A   1      44.794  33.263  26.559  1.00  0.00    -0.200 F 
ATOM     73  F   UNL A   1      47.204  34.482  26.900  1.00  0.00    -0.200 F 
ENDBRANCH  49  63
BRANCH  50  74
ATOM     74  C   UNL A   1      38.952  28.301  29.495  1.00  0.00     0.064 A 
ATOM     75  C   UNL A   1      38.171  28.506  30.646  1.00  0.00     0.173 A 
ATOM     76  C   UNL A   1      38.488  28.907  28.311  1.00  0.00     0.173 A 
ATOM     77  F   UNL A   1      38.562  28.000  31.824  1.00  0.00    -0.203 F 
ATOM     78  C   UNL A   1      37.015  29.298  30.621  1.00  0.00     0.198 A 
ATOM     79  C   UNL A   1      37.336  29.698  28.288  1.00  0.00     0.198 A 
ATOM     80  F   UNL A   1      39.199  28.826  27.178  1.00  0.00    -0.203 F 
ATOM     81  F   UNL A   1      36.333  29.523  31.753  1.00  0.00    -0.200 F 
ATOM     82  C   UNL A   1      36.608  29.905  29.445  1.00  0.00     0.200 A 
ATOM     83  F   UNL A   1      36.973  30.312  27.153  1.00  0.00    -0.200 F 
ATOM     84  F   UNL A   1      35.542  30.718  29.435  1.00  0.00    -0.200 F 
ENDBRANCH  50  74
BRANCH  62  85
ATOM     85  C   UNL A   1      44.464  26.644  32.055  1.00  0.00     0.064 A 
ATOM     86  C   UNL A   1      44.289  25.295  31.700  1.00  0.00     0.173 A 
ATOM     87  C   UNL A   1      44.681  26.928  33.410  1.00  0.00     0.173 A 
ATOM     88  F   UNL A   1      44.158  24.929  30.420  1.00  0.00    -0.203 F 
ATOM     89  C   UNL A   1      44.313  24.284  32.663  1.00  0.00     0.198 A 
ATOM     90  C   UNL A   1      44.738  25.917  34.363  1.00  0.00     0.198 A 
ATOM     91  F   UNL A   1      44.899  28.194  33.801  1.00  0.00    -0.203 F 
ATOM     92  F   UNL A   1      44.147  23.003  32.298  1.00  0.00    -0.200 F 
ATOM     93  C   UNL A   1      44.548  24.595  33.991  1.00  0.00     0.200 A 
ATOM     94  F   UNL A   1      45.012  26.221  35.639  1.00  0.00    -0.200 F 
ATOM     95  F   UNL A   1      44.621  23.622  34.910  1.00  0.00    -0.200 F 
ENDBRANCH  62  85
ENDBRANCH  36  37
ENDBRANCH  28  31
ENDBRANCH  26  27
ENDBRANCH  25  26
ENDBRANCH  24  25
ENDBRANCH   1  24
TORSDOF 15
ENDMDL
MODEL 2
REMARK VINA RESULT:     -11.5      2.959      8.735
REMARK SMILES Cc1[nH]c(=O)sc1S(=O)(=O)NC1(CC(=O)NCCCCNC(=O)c2ccc(-c3c4nc(c(-c5c(F)c(F)c(F)c(F)c5F)c5ccc([nH]5)c(-c5c(F)c(F)c(F)c(F)c5F)c5nc(c(-c6c(F)c(F)c(F)c(F)c6F)c6ccc3[nH]6)C=C5)C=C4)cc2)CCC1
REMARK SMILES IDX 17 1 16 2 14 3 15 4 13 6 12 7 87 8 89 9 88 10 11 11 8 13
REMARK SMILES IDX 9 14 10 15 7 16 1 17 2 18 3 19 4 20 6 22 5 23 18 24 19 25
REMARK SMILES IDX 20 26 21 27 22 28 23 30 24 31 25 32 86 33 26 34 85 35 27 36
REMARK SMILES IDX 28 37 29 38 79 39 30 40 84 41 78 42 80 43 31 44 83 45 77 46
REMARK SMILES IDX 76 47 32 49 64 50 44 51 63 52 45 53 48 54 62 55 81 56 46 57
REMARK SMILES IDX 47 58 61 60 82 61 49 62 33 63 34 64 42 65 35 66 36 67 40 68
REMARK SMILES IDX 43 69 37 70 38 71 41 72 39 73 65 74 66 75 74 76 67 77 68 78
REMARK SMILES IDX 72 79 75 80 69 81 70 82 73 83 71 84 50 85 51 86 59 87 52 88
REMARK SMILES IDX 53 89 57 90 60 91 54 92 55 93 58 94 56 95
REMARK H PARENT 16 5 11 12 3 21 21 29 80 48 48 59
REMARK Flexibility Score: inf
ROOT
ATOM      1  C   UNL A   1      32.160  29.866  25.667  1.00  0.00     0.116 C 
ENDROOT
BRANCH   1   2
ATOM      2  N   UNL A   1      33.137  29.360  24.728  1.00  0.00    -0.356 N 
ATOM      3  C   UNL A   1      33.506  28.070  24.505  1.00  0.00     0.221 C 
ATOM      4  O   UNL A   1      33.813  27.768  23.348  1.00  0.00    -0.275 OA
ATOM      5  H   UNL A   1      33.593  30.038  24.178  1.00  0.00     0.163 HD
BRANCH   3   6
ATOM      6  C   UNL A   1      33.431  27.006  25.572  1.00  0.00     0.123 C 
BRANCH   6   7
ATOM      7  C   UNL A   1      32.792  25.629  25.306  1.00  0.00     0.042 C 
ATOM      8  C   UNL A   1      31.325  25.878  24.709  1.00  0.00     0.024 C 
ATOM      9  C   UNL A   1      31.988  24.912  26.460  1.00  0.00     0.024 C 
ATOM     10  C   UNL A   1      30.757  25.752  26.121  1.00  0.00     0.004 C 
BRANCH   7  11
ATOM     11  N   UNL A   1      33.537  24.729  24.327  1.00  0.00    -0.204 NA
ATOM     12  H   UNL A   1      32.777  24.199  23.902  1.00  0.00     0.142 HD
BRANCH  11  13
ATOM     13  S   UNL A   1      34.777  23.579  24.385  1.00  0.00     0.252 S 
ATOM     14  O   UNL A   1      35.641  23.985  25.469  1.00  0.00    -0.206 OA
ATOM     15  O   UNL A   1      35.301  23.629  23.032  1.00  0.00    -0.206 OA
BRANCH  13  16
ATOM     16  C   UNL A   1      34.228  21.961  24.656  1.00  0.00     0.158 A 
ATOM     17  C   UNL A   1      36.510  20.806  25.009  1.00  0.00     0.067 C 
ATOM     18  C   UNL A   1      35.026  20.915  24.945  1.00  0.00     0.046 A 
ATOM     19  N   UNL A   1      34.313  19.765  25.217  1.00  0.00    -0.315 N 
ATOM     20  C   UNL A   1      32.943  19.846  25.158  1.00  0.00     0.305 A 
ATOM     21  H   UNL A   1      34.767  18.921  25.443  1.00  0.00     0.170 HD
ATOM     22  S   UNL A   1      32.525  21.517  24.816  1.00  0.00    -0.061 S 
ATOM     23  O   UNL A   1      32.158  18.928  25.252  1.00  0.00    -0.257 OA
ENDBRANCH  13  16
ENDBRANCH  11  13
ENDBRANCH   7  11
ENDBRANCH   6   7
ENDBRANCH   3   6
ENDBRANCH   1   2
BRANCH   1  24
ATOM     24  C   UNL A   1      32.729  30.120  27.065  1.00  0.00     0.023 C 
BRANCH  24  25
ATOM     25  C   UNL A   1      33.123  31.547  27.419  1.00  0.00     0.023 C 
BRANCH  25  26
ATOM     26  C   UNL A   1      34.519  31.725  27.940  1.00  0.00     0.116 C 
BRANCH  26  27
ATOM     27  N   UNL A   1      34.580  32.222  29.320  1.00  0.00    -0.352 N 
ATOM     28  C   UNL A   1      35.439  31.767  30.316  1.00  0.00     0.251 C 
ATOM     29  H   UNL A   1      33.955  32.944  29.563  1.00  0.00     0.163 HD
ATOM     30  O   UNL A   1      35.195  31.915  31.504  1.00  0.00    -0.269 OA
BRANCH  28  31
ATOM     31  C   UNL A   1      36.680  31.117  29.861  1.00  0.00     0.039 A 
ATOM     32  C   UNL A   1      37.895  31.781  29.699  1.00  0.00     0.014 A 
ATOM     33  C   UNL A   1      36.611  29.734  29.824  1.00  0.00     0.014 A 
ATOM     34  C   UNL A   1      39.048  31.003  29.591  1.00  0.00     0.010 A 
ATOM     35  C   UNL A   1      37.742  29.049  30.137  1.00  0.00     0.010 A 
ATOM     36  C   UNL A   1      38.960  29.622  29.852  1.00  0.00    -0.014 A 
BRANCH  36  37
ATOM     37  C   UNL A   1      40.108  28.731  29.934  1.00  0.00     0.031 A 
ATOM     38  C   UNL A   1      40.599  28.535  31.315  1.00  0.00     0.074 A 
ATOM     39  C   UNL A   1      40.577  28.015  28.883  1.00  0.00     0.049 A 
ATOM     40  N   UNL A   1      41.637  29.090  31.840  1.00  0.00    -0.248 NA
ATOM     41  C   UNL A   1      39.752  27.818  32.278  1.00  0.00     0.031 C 
ATOM     42  C   UNL A   1      40.021  27.859  27.528  1.00  0.00     0.029 A 
ATOM     43  N   UNL A   1      41.671  27.207  28.829  1.00  0.00    -0.354 N 
ATOM     44  C   UNL A   1      41.709  28.610  33.140  1.00  0.00     0.074 A 
ATOM     45  C   UNL A   1      40.429  28.011  33.414  1.00  0.00     0.031 C 
ATOM     46  C   UNL A   1      40.644  26.851  26.878  1.00  0.00     0.029 A 
ATOM     47  C   UNL A   1      41.769  26.423  27.680  1.00  0.00     0.049 A 
ATOM     48  H   UNL A   1      42.341  27.177  29.549  1.00  0.00     0.167 HD
ATOM     49  C   UNL A   1      42.917  28.519  33.761  1.00  0.00     0.037 A 
ATOM     50  C   UNL A   1      42.730  25.503  27.407  1.00  0.00     0.037 A 
ATOM     51  C   UNL A   1      43.913  29.284  33.043  1.00  0.00     0.049 A 
ATOM     52  C   UNL A   1      43.891  25.835  28.269  1.00  0.00     0.074 A 
ATOM     53  C   UNL A   1      44.064  30.618  32.724  1.00  0.00     0.029 A 
ATOM     54  N   UNL A   1      44.722  28.594  32.173  1.00  0.00    -0.354 N 
ATOM     55  N   UNL A   1      44.597  26.924  28.134  1.00  0.00    -0.248 NA
ATOM     56  C   UNL A   1      43.942  25.209  29.581  1.00  0.00     0.031 C 
ATOM     57  C   UNL A   1      44.575  30.624  31.391  1.00  0.00     0.029 A 
ATOM     58  C   UNL A   1      44.796  29.301  31.002  1.00  0.00     0.049 A 
ATOM     59  H   UNL A   1      45.173  27.738  32.360  1.00  0.00     0.167 HD
ATOM     60  C   UNL A   1      44.817  27.361  29.434  1.00  0.00     0.074 A 
ATOM     61  C   UNL A   1      44.447  26.228  30.282  1.00  0.00     0.031 C 
ATOM     62  C   UNL A   1      44.988  28.687  29.706  1.00  0.00     0.037 A 
BRANCH  49  63
ATOM     63  C   UNL A   1      43.305  27.430  34.731  1.00  0.00     0.064 A 
ATOM     64  C   UNL A   1      43.677  27.798  36.041  1.00  0.00     0.173 A 
ATOM     65  C   UNL A   1      43.631  26.109  34.357  1.00  0.00     0.173 A 
ATOM     66  F   UNL A   1      43.421  29.031  36.503  1.00  0.00    -0.203 F 
ATOM     67  C   UNL A   1      44.410  26.944  36.868  1.00  0.00     0.198 A 
ATOM     68  C   UNL A   1      44.318  25.243  35.205  1.00  0.00     0.198 A 
ATOM     69  F   UNL A   1      43.410  25.635  33.128  1.00  0.00    -0.203 F 
ATOM     70  F   UNL A   1      44.860  27.389  38.049  1.00  0.00    -0.200 F 
ATOM     71  C   UNL A   1      44.738  25.671  36.446  1.00  0.00     0.200 A 
ATOM     72  F   UNL A   1      44.644  24.018  34.769  1.00  0.00    -0.200 F 
ATOM     73  F   UNL A   1      45.501  24.876  37.206  1.00  0.00    -0.200 F 
ENDBRANCH  49  63
BRANCH  50  74
ATOM     74  C   UNL A   1      42.590  24.185  26.738  1.00  0.00     0.064 A 
ATOM     75  C   UNL A   1      43.280  23.897  25.547  1.00  0.00     0.173 A 
ATOM     76  C   UNL A   1      42.027  23.085  27.414  1.00  0.00     0.173 A 
ATOM     77  F   UNL A   1      43.883  24.880  24.864  1.00  0.00    -0.203 F 
ATOM     78  C   UNL A   1      43.426  22.584  25.079  1.00  0.00     0.198 A 
ATOM     79  C   UNL A   1      42.175  21.776  26.947  1.00  0.00     0.198 A 
ATOM     80  F   UNL A   1      41.410  23.250  28.593  1.00  0.00    -0.203 F 
ATOM     81  F   UNL A   1      44.145  22.343  23.974  1.00  0.00    -0.200 F 
ATOM     82  C   UNL A   1      42.886  21.524  25.788  1.00  0.00     0.200 A 
ATOM     83  F   UNL A   1      41.681  20.755  27.662  1.00  0.00    -0.200 F 
ATOM     84  F   UNL A   1      43.083  20.263  25.378  1.00  0.00    -0.200 F 
ENDBRANCH  50  74
BRANCH  62  85
ATOM     85  C   UNL A   1      45.204  29.624  28.548  1.00  0.00     0.064 A 
ATOM     86  C   UNL A   1      44.177  30.309  27.874  1.00  0.00     0.173 A 
ATOM     87  C   UNL A   1      46.524  29.967  28.227  1.00  0.00     0.173 A 
ATOM     88  F   UNL A   1      42.891  30.101  28.177  1.00  0.00    -0.203 F 
ATOM     89  C   UNL A   1      44.466  31.279  26.911  1.00  0.00     0.198 A 
ATOM     90  C   UNL A   1      46.808  30.957  27.292  1.00  0.00     0.198 A 
ATOM     91  F   UNL A   1      47.543  29.378  28.871  1.00  0.00    -0.203 F 
ATOM     92  F   UNL A   1      43.469  31.922  26.283  1.00  0.00    -0.200 F 
ATOM     93  C   UNL A   1      45.781  31.609  26.630  1.00  0.00     0.200 A 
ATOM     94  F   UNL A   1      48.082  31.304  27.059  1.00  0.00    -0.200 F 
ATOM     95  F   UNL A   1      46.060  32.574  25.742  1.00  0.00    -0.200 F 
ENDBRANCH  62  85
ENDBRANCH  36  37
ENDBRANCH  28  31
ENDBRANCH  26  27
ENDBRANCH  25  26
ENDBRANCH  24  25
ENDBRANCH   1  24
TORSDOF 15
ENDMDL
MODEL 3
REMARK VINA RESULT:     -11.4      5.229     10.167
REMARK SMILES Cc1[nH]c(=O)sc1S(=O)(=O)NC1(CC(=O)NCCCCNC(=O)c2ccc(-c3c4nc(c(-c5c(F)c(F)c(F)c(F)c5F)c5ccc([nH]5)c(-c5c(F)c(F)c(F)c(F)c5F)c5nc(c(-c6c(F)c(F)c(F)c(F)c6F)c6ccc3[nH]6)C=C5)C=C4)cc2)CCC1
REMARK SMILES IDX 17 1 16 2 14 3 15 4 13 6 12 7 87 8 89 9 88 10 11 11 8 13
REMARK SMILES IDX 9 14 10 15 7 16 1 17 2 18 3 19 4 20 6 22 5 23 18 24 19 25
REMARK SMILES IDX 20 26 21 27 22 28 23 30 24 31 25 32 86 33 26 34 85 35 27 36
REMARK SMILES IDX 28 37 29 38 79 39 30 40 84 41 78 42 80 43 31 44 83 45 77 46
REMARK SMILES IDX 76 47 32 49 64 50 44 51 63 52 45 53 48 54 62 55 81 56 46 57
REMARK SMILES IDX 47 58 61 60 82 61 49 62 33 63 34 64 42 65 35 66 36 67 40 68
REMARK SMILES IDX 43 69 37 70 38 71 41 72 39 73 65 74 66 75 74 76 67 77 68 78
REMARK SMILES IDX 72 79 75 80 69 81 70 82 73 83 71 84 50 85 51 86 59 87 52 88
REMARK SMILES IDX 53 89 57 90 60 91 54 92 55 93 58 94 56 95
REMARK H PARENT 16 5 11 12 3 21 21 29 80 48 48 59
REMARK Flexibility Score: inf
ROOT
ATOM      1  C   UNL A   1      44.695  29.034  26.912  1.00  0.00     0.116 C 
ENDROOT
BRANCH   1   2
ATOM      2  N   UNL A   1      44.220  28.300  25.760  1.00  0.00    -0.356 N 
ATOM      3  C   UNL A   1      43.183  27.422  25.686  1.00  0.00     0.221 C 
ATOM      4  O   UNL A   1      42.546  27.397  24.629  1.00  0.00    -0.275 OA
ATOM      5  H   UNL A   1      44.709  28.456  24.920  1.00  0.00     0.163 HD
BRANCH   3   6
ATOM      6  C   UNL A   1      42.728  26.598  26.865  1.00  0.00     0.123 C 
BRANCH   6   7
ATOM      7  C   UNL A   1      42.811  25.060  26.865  1.00  0.00     0.042 C 
ATOM      8  C   UNL A   1      41.313  24.489  26.818  1.00  0.00     0.024 C 
ATOM      9  C   UNL A   1      42.854  24.285  28.240  1.00  0.00     0.024 C 
ATOM     10  C   UNL A   1      41.333  24.385  28.341  1.00  0.00     0.004 C 
BRANCH   7  11
ATOM     11  N   UNL A   1      43.575  24.435  25.702  1.00  0.00    -0.204 NA
ATOM     12  H   UNL A   1      42.821  24.048  25.134  1.00  0.00     0.142 HD
BRANCH  11  13
ATOM     13  S   UNL A   1      44.801  23.291  25.486  1.00  0.00     0.252 S 
ATOM     14  O   UNL A   1      45.698  23.457  26.606  1.00  0.00    -0.206 OA
ATOM     15  O   UNL A   1      45.291  23.618  24.158  1.00  0.00    -0.206 OA
BRANCH  13  16
ATOM     16  C   UNL A   1      44.240  21.655  25.430  1.00  0.00     0.158 A 
ATOM     17  C   UNL A   1      46.404  20.505  24.619  1.00  0.00     0.067 C 
ATOM     18  C   UNL A   1      44.998  20.592  25.101  1.00  0.00     0.046 A 
ATOM     19  N   UNL A   1      44.323  19.396  25.242  1.00  0.00    -0.315 N 
ATOM     20  C   UNL A   1      43.022  19.458  25.683  1.00  0.00     0.305 A 
ATOM     21  H   UNL A   1      44.753  18.535  25.036  1.00  0.00     0.170 HD
ATOM     22  S   UNL A   1      42.656  21.141  26.022  1.00  0.00    -0.061 S 
ATOM     23  O   UNL A   1      42.239  18.536  25.759  1.00  0.00    -0.257 OA
ENDBRANCH  13  16
ENDBRANCH  11  13
ENDBRANCH   7  11
ENDBRANCH   6   7
ENDBRANCH   3   6
ENDBRANCH   1   2
BRANCH   1  24
ATOM     24  C   UNL A   1      44.161  30.466  26.989  1.00  0.00     0.023 C 
BRANCH  24  25
ATOM     25  C   UNL A   1      45.040  31.578  26.436  1.00  0.00     0.023 C 
BRANCH  25  26
ATOM     26  C   UNL A   1      44.486  32.968  26.561  1.00  0.00     0.116 C 
BRANCH  26  27
ATOM     27  N   UNL A   1      45.512  34.007  26.704  1.00  0.00    -0.352 N 
ATOM     28  C   UNL A   1      45.377  35.198  27.411  1.00  0.00     0.251 C 
ATOM     29  H   UNL A   1      46.377  33.846  26.260  1.00  0.00     0.163 HD
ATOM     30  O   UNL A   1      46.075  36.174  27.183  1.00  0.00    -0.269 OA
BRANCH  28  31
ATOM     31  C   UNL A   1      44.359  35.214  28.476  1.00  0.00     0.039 A 
ATOM     32  C   UNL A   1      43.174  35.945  28.413  1.00  0.00     0.014 A 
ATOM     33  C   UNL A   1      44.558  34.261  29.461  1.00  0.00     0.014 A 
ATOM     34  C   UNL A   1      42.163  35.618  29.316  1.00  0.00     0.010 A 
ATOM     35  C   UNL A   1      43.451  33.701  30.014  1.00  0.00     0.010 A 
ATOM     36  C   UNL A   1      42.303  34.454  30.096  1.00  0.00    -0.014 A 
BRANCH  36  37
ATOM     37  C   UNL A   1      41.257  33.914  30.953  1.00  0.00     0.031 A 
ATOM     38  C   UNL A   1      41.715  33.633  32.330  1.00  0.00     0.074 A 
ATOM     39  C   UNL A   1      39.955  33.835  30.585  1.00  0.00     0.049 A 
ATOM     40  N   UNL A   1      42.003  32.475  32.816  1.00  0.00    -0.248 NA
ATOM     41  C   UNL A   1      42.091  34.757  33.200  1.00  0.00     0.031 C 
ATOM     42  C   UNL A   1      39.284  34.350  29.379  1.00  0.00     0.029 A 
ATOM     43  N   UNL A   1      38.911  33.295  31.274  1.00  0.00    -0.354 N 
ATOM     44  C   UNL A   1      42.378  32.697  34.133  1.00  0.00     0.074 A 
ATOM     45  C   UNL A   1      42.613  34.112  34.247  1.00  0.00     0.031 C 
ATOM     46  C   UNL A   1      37.942  34.298  29.529  1.00  0.00     0.029 A 
ATOM     47  C   UNL A   1      37.651  33.568  30.744  1.00  0.00     0.049 A 
ATOM     48  H   UNL A   1      39.038  32.755  32.086  1.00  0.00     0.167 HD
ATOM     49  C   UNL A   1      42.191  31.720  35.063  1.00  0.00     0.037 A 
ATOM     50  C   UNL A   1      36.454  33.193  31.265  1.00  0.00     0.037 A 
ATOM     51  C   UNL A   1      41.932  30.452  34.418  1.00  0.00     0.049 A 
ATOM     52  C   UNL A   1      36.728  32.051  32.173  1.00  0.00     0.074 A 
ATOM     53  C   UNL A   1      42.645  29.639  33.559  1.00  0.00     0.029 A 
ATOM     54  N   UNL A   1      40.618  30.072  34.292  1.00  0.00    -0.354 N 
ATOM     55  N   UNL A   1      37.151  30.889  31.757  1.00  0.00    -0.248 NA
ATOM     56  C   UNL A   1      37.013  32.365  33.564  1.00  0.00     0.031 C 
ATOM     57  C   UNL A   1      41.681  29.151  32.626  1.00  0.00     0.029 A 
ATOM     58  C   UNL A   1      40.422  29.614  33.015  1.00  0.00     0.049 A 
ATOM     59  H   UNL A   1      39.933  30.119  34.999  1.00  0.00     0.167 HD
ATOM     60  C   UNL A   1      38.123  30.522  32.677  1.00  0.00     0.074 A 
ATOM     61  C   UNL A   1      37.946  31.439  33.803  1.00  0.00     0.031 C 
ATOM     62  C   UNL A   1      39.162  29.716  32.313  1.00  0.00     0.037 A 
BRANCH  49  63
ATOM     63  C   UNL A   1      41.815  31.965  36.504  1.00  0.00     0.064 A 
ATOM     64  C   UNL A   1      40.656  32.721  36.777  1.00  0.00     0.173 A 
ATOM     65  C   UNL A   1      42.687  31.774  37.597  1.00  0.00     0.173 A 
ATOM     66  F   UNL A   1      39.759  32.970  35.812  1.00  0.00    -0.203 F 
ATOM     67  C   UNL A   1      40.443  33.324  38.018  1.00  0.00     0.198 A 
ATOM     68  C   UNL A   1      42.444  32.337  38.850  1.00  0.00     0.198 A 
ATOM     69  F   UNL A   1      43.858  31.144  37.481  1.00  0.00    -0.203 F 
ATOM     70  F   UNL A   1      39.400  34.147  38.187  1.00  0.00    -0.200 F 
ATOM     71  C   UNL A   1      41.343  33.140  39.050  1.00  0.00     0.200 A 
ATOM     72  F   UNL A   1      43.339  32.162  39.832  1.00  0.00    -0.200 F 
ATOM     73  F   UNL A   1      41.180  33.773  40.219  1.00  0.00    -0.200 F 
ENDBRANCH  49  63
BRANCH  50  74
ATOM     74  C   UNL A   1      35.181  33.955  31.312  1.00  0.00     0.064 A 
ATOM     75  C   UNL A   1      34.942  34.910  32.316  1.00  0.00     0.173 A 
ATOM     76  C   UNL A   1      34.312  33.985  30.204  1.00  0.00     0.173 A 
ATOM     77  F   UNL A   1      35.749  34.980  33.385  1.00  0.00    -0.203 F 
ATOM     78  C   UNL A   1      33.917  35.858  32.202  1.00  0.00     0.198 A 
ATOM     79  C   UNL A   1      33.291  34.932  30.091  1.00  0.00     0.198 A 
ATOM     80  F   UNL A   1      34.501  33.160  29.164  1.00  0.00    -0.203 F 
ATOM     81  F   UNL A   1      33.761  36.793  33.150  1.00  0.00    -0.200 F 
ATOM     82  C   UNL A   1      33.103  35.877  31.083  1.00  0.00     0.200 A 
ATOM     83  F   UNL A   1      32.534  34.966  28.985  1.00  0.00    -0.200 F 
ATOM     84  F   UNL A   1      32.166  36.827  30.941  1.00  0.00    -0.200 F 
ENDBRANCH  50  74
BRANCH  62  85
ATOM     85  C   UNL A   1      39.082  29.019  30.980  1.00  0.00     0.064 A 
ATOM     86  C   UNL A   1      39.489  29.585  29.759  1.00  0.00     0.173 A 
ATOM     87  C   UNL A   1      38.738  27.661  30.976  1.00  0.00     0.173 A 
ATOM     88  F   UNL A   1      39.910  30.853  29.690  1.00  0.00    -0.203 F 
ATOM     89  C   UNL A   1      39.529  28.826  28.588  1.00  0.00     0.198 A 
ATOM     90  C   UNL A   1      38.812  26.898  29.815  1.00  0.00     0.198 A 
ATOM     91  F   UNL A   1      38.387  27.057  32.122  1.00  0.00    -0.203 F 
ATOM     92  F   UNL A   1      39.924  29.388  27.434  1.00  0.00    -0.200 F 
ATOM     93  C   UNL A   1      39.202  27.481  28.620  1.00  0.00     0.200 A 
ATOM     94  F   UNL A   1      38.539  25.587  29.863  1.00  0.00    -0.200 F 
ATOM     95  F   UNL A   1      39.288  26.738  27.507  1.00  0.00    -0.200 F 
ENDBRANCH  62  85
ENDBRANCH  36  37
ENDBRANCH  28  31
ENDBRANCH  26  27
ENDBRANCH  25  26
ENDBRANCH  24  25
ENDBRANCH   1  24
TORSDOF 15
ENDMDL
