MODEL 1
REMARK VINA RESULT:     -11.4      0.000      0.000
REMARK SMILES Cc1ccc(NC(=O)c2cccn2CC(=O)NCCCCNC(=O)c2ccc(-c3c4nc(c(-c5c(F)c(F)c(F)c(F)c5F)c5ccc([nH]5)c(-c5c(F)c(F)c(F)c(F)c5F)c5nc(c(-c6c(F)c(F)c(F)c(F)c6F)c6ccc3[nH]6)C=C5)C=C4)cc2)cc1
REMARK SMILES IDX 19 1 18 2 17 3 15 4 16 5 14 7 13 8 9 9 10 10 11 11 12 12
REMARK SMILES IDX 7 13 6 14 8 16 5 17 1 18 2 19 3 20 89 21 4 22 88 23 20 24
REMARK SMILES IDX 21 25 22 26 23 27 24 29 25 30 26 31 87 32 27 33 86 34 28 35
REMARK SMILES IDX 29 36 30 37 80 38 31 39 85 40 79 41 81 42 32 43 84 44 78 45
REMARK SMILES IDX 77 46 33 48 65 49 45 50 64 51 46 52 49 53 63 54 82 55 47 56
REMARK SMILES IDX 48 57 62 59 83 60 50 61 34 62 35 63 43 64 36 65 37 66 41 67
REMARK SMILES IDX 44 68 38 69 39 70 42 71 40 72 66 73 67 74 75 75 68 76 69 77
REMARK SMILES IDX 73 78 76 79 70 80 71 81 74 82 72 83 51 84 52 85 60 86 53 87
REMARK SMILES IDX 54 88 58 89 61 90 55 91 56 92 59 93 57 94
REMARK H PARENT 17 6 6 15 22 28 81 47 49 58
REMARK Flexibility Score: inf
ROOT
ATOM      1  C   UNL A   1      46.063  26.584  25.169  1.00  0.00     0.023 C 
ENDROOT
BRANCH   1   2
ATOM      2  C   UNL A   1      46.615  25.846  26.396  1.00  0.00     0.116 C 
BRANCH   2   3
ATOM      3  N   UNL A   1      46.792  24.418  26.170  1.00  0.00    -0.355 N 
ATOM      4  C   UNL A   1      45.861  23.430  25.989  1.00  0.00     0.239 C 
ATOM      5  O   UNL A   1      46.273  22.292  25.744  1.00  0.00    -0.273 OA
ATOM      6  H   UNL A   1      47.729  24.115  26.143  1.00  0.00     0.163 HD
BRANCH   4   7
ATOM      7  C   UNL A   1      44.373  23.721  26.053  1.00  0.00     0.222 C 
BRANCH   7   8
ATOM      8  N   UNL A   1      43.786  23.500  27.372  1.00  0.00    -0.334 N 
ATOM      9  C   UNL A   1      42.511  23.030  27.627  1.00  0.00     0.107 A 
ATOM     10  C   UNL A   1      42.437  22.791  28.995  1.00  0.00     0.033 A 
ATOM     11  C   UNL A   1      43.636  23.252  29.584  1.00  0.00     0.020 A 
ATOM     12  C   UNL A   1      44.452  23.680  28.562  1.00  0.00     0.087 A 
BRANCH   9  13
ATOM     13  C   UNL A   1      41.492  22.815  26.633  1.00  0.00     0.272 C 
ATOM     14  N   UNL A   1      40.523  23.759  26.393  1.00  0.00    -0.321 N 
ATOM     15  H   UNL A   1      39.809  23.438  25.796  1.00  0.00     0.170 HD
ATOM     16  O   UNL A   1      41.473  21.790  25.934  1.00  0.00    -0.267 OA
BRANCH  14  17
ATOM     17  C   UNL A   1      40.333  25.090  26.821  1.00  0.00     0.041 A 
ATOM     18  C   UNL A   1      39.862  29.261  27.880  1.00  0.00     0.044 C 
ATOM     19  C   UNL A   1      40.058  27.823  27.510  1.00  0.00    -0.051 A 
ATOM     20  C   UNL A   1      39.445  26.831  28.271  1.00  0.00     0.005 A 
ATOM     21  C   UNL A   1      40.836  27.442  26.414  1.00  0.00     0.005 A 
ATOM     22  C   UNL A   1      39.604  25.483  27.942  1.00  0.00     0.026 A 
ATOM     23  C   UNL A   1      40.968  26.089  26.074  1.00  0.00     0.026 A 
ENDBRANCH  14  17
ENDBRANCH   9  13
ENDBRANCH   7   8
ENDBRANCH   4   7
ENDBRANCH   2   3
ENDBRANCH   1   2
BRANCH   1  24
ATOM     24  C   UNL A   1      44.630  27.149  25.282  1.00  0.00     0.023 C 
BRANCH  24  25
ATOM     25  C   UNL A   1      44.396  28.361  26.237  1.00  0.00     0.116 C 
BRANCH  25  26
ATOM     26  N   UNL A   1      45.512  29.315  26.217  1.00  0.00    -0.352 N 
ATOM     27  C   UNL A   1      45.704  30.635  26.589  1.00  0.00     0.251 C 
ATOM     28  H   UNL A   1      46.330  28.914  25.846  1.00  0.00     0.163 HD
ATOM     29  O   UNL A   1      46.678  31.186  26.060  1.00  0.00    -0.269 OA
BRANCH  27  30
ATOM     30  C   UNL A   1      44.922  31.462  27.585  1.00  0.00     0.039 A 
ATOM     31  C   UNL A   1      44.623  30.912  28.865  1.00  0.00     0.014 A 
ATOM     32  C   UNL A   1      44.328  32.674  27.304  1.00  0.00     0.014 A 
ATOM     33  C   UNL A   1      43.782  31.548  29.845  1.00  0.00     0.010 A 
ATOM     34  C   UNL A   1      43.470  33.284  28.266  1.00  0.00     0.010 A 
ATOM     35  C   UNL A   1      43.176  32.768  29.571  1.00  0.00    -0.014 A 
BRANCH  35  36
ATOM     36  C   UNL A   1      42.513  33.732  30.563  1.00  0.00     0.031 A 
ATOM     37  C   UNL A   1      41.131  33.989  30.169  1.00  0.00     0.074 A 
ATOM     38  C   UNL A   1      42.641  34.101  31.881  1.00  0.00     0.049 A 
ATOM     39  N   UNL A   1      40.233  33.220  30.663  1.00  0.00    -0.248 NA
ATOM     40  C   UNL A   1      40.660  34.954  29.204  1.00  0.00     0.031 C 
ATOM     41  C   UNL A   1      43.796  34.000  32.750  1.00  0.00     0.029 A 
ATOM     42  N   UNL A   1      41.596  34.531  32.787  1.00  0.00    -0.354 N 
ATOM     43  C   UNL A   1      39.056  33.507  30.061  1.00  0.00     0.074 A 
ATOM     44  C   UNL A   1      39.346  34.670  29.231  1.00  0.00     0.031 C 
ATOM     45  C   UNL A   1      43.426  34.277  34.022  1.00  0.00     0.029 A 
ATOM     46  C   UNL A   1      41.948  34.472  34.157  1.00  0.00     0.049 A 
ATOM     47  H   UNL A   1      40.714  34.839  32.475  1.00  0.00     0.167 HD
ATOM     48  C   UNL A   1      38.001  32.716  30.391  1.00  0.00     0.037 A 
ATOM     49  C   UNL A   1      41.292  33.793  35.173  1.00  0.00     0.037 A 
ATOM     50  C   UNL A   1      38.358  31.408  31.013  1.00  0.00     0.049 A 
ATOM     51  C   UNL A   1      41.591  32.382  34.841  1.00  0.00     0.074 A 
ATOM     52  C   UNL A   1      37.890  30.111  30.902  1.00  0.00     0.029 A 
ATOM     53  N   UNL A   1      39.443  31.289  31.879  1.00  0.00    -0.354 N 
ATOM     54  N   UNL A   1      40.942  31.765  33.912  1.00  0.00    -0.248 NA
ATOM     55  C   UNL A   1      42.694  31.658  35.442  1.00  0.00     0.031 C 
ATOM     56  C   UNL A   1      38.806  29.231  31.575  1.00  0.00     0.029 A 
ATOM     57  C   UNL A   1      39.834  29.982  32.116  1.00  0.00     0.049 A 
ATOM     58  H   UNL A   1      39.894  32.066  32.285  1.00  0.00     0.167 HD
ATOM     59  C   UNL A   1      41.561  30.566  33.732  1.00  0.00     0.074 A 
ATOM     60  C   UNL A   1      42.709  30.592  34.635  1.00  0.00     0.031 C 
ATOM     61  C   UNL A   1      41.103  29.684  32.805  1.00  0.00     0.037 A 
BRANCH  48  62
ATOM     62  C   UNL A   1      36.599  33.221  30.252  1.00  0.00     0.064 A 
ATOM     63  C   UNL A   1      35.897  33.550  31.428  1.00  0.00     0.173 A 
ATOM     64  C   UNL A   1      35.959  33.550  29.045  1.00  0.00     0.173 A 
ATOM     65  F   UNL A   1      36.417  33.283  32.636  1.00  0.00    -0.203 F 
ATOM     66  C   UNL A   1      34.672  34.212  31.399  1.00  0.00     0.198 A 
ATOM     67  C   UNL A   1      34.766  34.276  29.017  1.00  0.00     0.198 A 
ATOM     68  F   UNL A   1      36.461  33.168  27.864  1.00  0.00    -0.203 F 
ATOM     69  F   UNL A   1      34.045  34.500  32.547  1.00  0.00    -0.200 F 
ATOM     70  C   UNL A   1      34.123  34.607  30.195  1.00  0.00     0.200 A 
ATOM     71  F   UNL A   1      34.253  34.671  27.843  1.00  0.00    -0.200 F 
ATOM     72  F   UNL A   1      32.979  35.304  30.168  1.00  0.00    -0.200 F 
ENDBRANCH  48  62
BRANCH  49  73
ATOM     73  C   UNL A   1      39.987  33.913  35.971  1.00  0.00     0.064 A 
ATOM     74  C   UNL A   1      39.949  33.494  37.313  1.00  0.00     0.173 A 
ATOM     75  C   UNL A   1      38.696  34.072  35.380  1.00  0.00     0.173 A 
ATOM     76  F   UNL A   1      41.092  33.241  37.965  1.00  0.00    -0.203 F 
ATOM     77  C   UNL A   1      38.735  33.220  37.986  1.00  0.00     0.198 A 
ATOM     78  C   UNL A   1      37.495  33.782  36.042  1.00  0.00     0.198 A 
ATOM     79  F   UNL A   1      38.536  34.461  34.112  1.00  0.00    -0.203 F 
ATOM     80  F   UNL A   1      38.757  32.767  39.248  1.00  0.00    -0.200 F 
ATOM     81  C   UNL A   1      37.513  33.347  37.345  1.00  0.00     0.200 A 
ATOM     82  F   UNL A   1      36.329  33.870  35.383  1.00  0.00    -0.200 F 
ATOM     83  F   UNL A   1      36.369  33.018  37.963  1.00  0.00    -0.200 F 
ENDBRANCH  49  73
BRANCH  61  84
ATOM     84  C   UNL A   1      42.012  28.563  32.402  1.00  0.00     0.064 A 
ATOM     85  C   UNL A   1      42.555  27.625  33.294  1.00  0.00     0.173 A 
ATOM     86  C   UNL A   1      42.479  28.507  31.079  1.00  0.00     0.173 A 
ATOM     87  F   UNL A   1      42.094  27.524  34.550  1.00  0.00    -0.203 F 
ATOM     88  C   UNL A   1      43.612  26.793  32.926  1.00  0.00     0.198 A 
ATOM     89  C   UNL A   1      43.500  27.641  30.696  1.00  0.00     0.198 A 
ATOM     90  F   UNL A   1      41.960  29.305  30.137  1.00  0.00    -0.203 F 
ATOM     91  F   UNL A   1      44.185  26.000  33.842  1.00  0.00    -0.200 F 
ATOM     92  C   UNL A   1      44.091  26.808  31.628  1.00  0.00     0.200 A 
ATOM     93  F   UNL A   1      43.924  27.635  29.423  1.00  0.00    -0.200 F 
ATOM     94  F   UNL A   1      45.109  26.012  31.274  1.00  0.00    -0.200 F 
ENDBRANCH  61  84
ENDBRANCH  35  36
ENDBRANCH  27  30
ENDBRANCH  25  26
ENDBRANCH  24  25
ENDBRANCH   1  24
TORSDOF 14
ENDMDL
MODEL 2
REMARK VINA RESULT:     -11.3      4.563      7.428
REMARK SMILES Cc1ccc(NC(=O)c2cccn2CC(=O)NCCCCNC(=O)c2ccc(-c3c4nc(c(-c5c(F)c(F)c(F)c(F)c5F)c5ccc([nH]5)c(-c5c(F)c(F)c(F)c(F)c5F)c5nc(c(-c6c(F)c(F)c(F)c(F)c6F)c6ccc3[nH]6)C=C5)C=C4)cc2)cc1
REMARK SMILES IDX 19 1 18 2 17 3 15 4 16 5 14 7 13 8 9 9 10 10 11 11 12 12
REMARK SMILES IDX 7 13 6 14 8 16 5 17 1 18 2 19 3 20 89 21 4 22 88 23 20 24
REMARK SMILES IDX 21 25 22 26 23 27 24 29 25 30 26 31 87 32 27 33 86 34 28 35
REMARK SMILES IDX 29 36 30 37 80 38 31 39 85 40 79 41 81 42 32 43 84 44 78 45
REMARK SMILES IDX 77 46 33 48 65 49 45 50 64 51 46 52 49 53 63 54 82 55 47 56
REMARK SMILES IDX 48 57 62 59 83 60 50 61 34 62 35 63 43 64 36 65 37 66 41 67
REMARK SMILES IDX 44 68 38 69 39 70 42 71 40 72 66 73 67 74 75 75 68 76 69 77
REMARK SMILES IDX 73 78 76 79 70 80 71 81 74 82 72 83 51 84 52 85 60 86 53 87
REMARK SMILES IDX 54 88 58 89 61 90 55 91 56 92 59 93 57 94
REMARK H PARENT 17 6 6 15 22 28 81 47 49 58
REMARK Flexibility Score: inf
ROOT
ATOM      1  C   UNL A   1      39.117  22.739  26.291  1.00  0.00     0.023 C 
ENDROOT
BRANCH   1   2
ATOM      2  C   UNL A   1      37.695  23.077  25.823  1.00  0.00     0.116 C 
BRANCH   2   3
ATOM      3  N   UNL A   1      37.490  22.832  24.401  1.00  0.00    -0.355 N 
ATOM      4  C   UNL A   1      36.430  23.152  23.595  1.00  0.00     0.239 C 
ATOM      5  O   UNL A   1      36.527  22.892  22.392  1.00  0.00    -0.273 OA
ATOM      6  H   UNL A   1      38.228  22.363  23.950  1.00  0.00     0.163 HD
BRANCH   4   7
ATOM      7  C   UNL A   1      35.190  23.831  24.145  1.00  0.00     0.222 C 
BRANCH   7   8
ATOM      8  N   UNL A   1      33.966  23.052  23.975  1.00  0.00    -0.334 N 
ATOM      9  C   UNL A   1      32.999  23.257  23.009  1.00  0.00     0.107 A 
ATOM     10  C   UNL A   1      32.118  22.184  23.089  1.00  0.00     0.033 A 
ATOM     11  C   UNL A   1      32.486  21.398  24.204  1.00  0.00     0.020 A 
ATOM     12  C   UNL A   1      33.630  21.953  24.730  1.00  0.00     0.087 A 
BRANCH   9  13
ATOM     13  C   UNL A   1      32.962  24.368  22.095  1.00  0.00     0.272 C 
ATOM     14  N   UNL A   1      32.548  25.612  22.505  1.00  0.00    -0.321 N 
ATOM     15  H   UNL A   1      32.434  26.248  21.762  1.00  0.00     0.170 HD
ATOM     16  O   UNL A   1      33.336  24.253  20.917  1.00  0.00    -0.267 OA
BRANCH  14  17
ATOM     17  C   UNL A   1      32.249  26.173  23.766  1.00  0.00     0.041 A 
ATOM     18  C   UNL A   1      31.572  28.060  27.602  1.00  0.00     0.044 C 
ATOM     19  C   UNL A   1      31.837  27.396  26.286  1.00  0.00    -0.051 A 
ATOM     20  C   UNL A   1      30.844  26.614  25.702  1.00  0.00     0.005 A 
ATOM     21  C   UNL A   1      33.053  27.544  25.616  1.00  0.00     0.005 A 
ATOM     22  C   UNL A   1      31.061  25.992  24.470  1.00  0.00     0.026 A 
ATOM     23  C   UNL A   1      33.254  26.940  24.368  1.00  0.00     0.026 A 
ENDBRANCH  14  17
ENDBRANCH   9  13
ENDBRANCH   7   8
ENDBRANCH   4   7
ENDBRANCH   2   3
ENDBRANCH   1   2
BRANCH   1  24
ATOM     24  C   UNL A   1      39.774  23.719  27.287  1.00  0.00     0.023 C 
BRANCH  24  25
ATOM     25  C   UNL A   1      39.421  25.235  27.160  1.00  0.00     0.116 C 
BRANCH  25  26
ATOM     26  N   UNL A   1      40.424  25.981  26.392  1.00  0.00    -0.352 N 
ATOM     27  C   UNL A   1      41.137  27.157  26.557  1.00  0.00     0.251 C 
ATOM     28  H   UNL A   1      40.647  25.531  25.545  1.00  0.00     0.163 HD
ATOM     29  O   UNL A   1      41.600  27.633  25.512  1.00  0.00    -0.269 OA
BRANCH  27  30
ATOM     30  C   UNL A   1      41.465  27.894  27.836  1.00  0.00     0.039 A 
ATOM     31  C   UNL A   1      41.790  29.280  27.778  1.00  0.00     0.014 A 
ATOM     32  C   UNL A   1      41.627  27.295  29.068  1.00  0.00     0.014 A 
ATOM     33  C   UNL A   1      42.241  30.055  28.905  1.00  0.00     0.010 A 
ATOM     34  C   UNL A   1      42.105  28.060  30.172  1.00  0.00     0.010 A 
ATOM     35  C   UNL A   1      42.411  29.461  30.149  1.00  0.00    -0.014 A 
BRANCH  35  36
ATOM     36  C   UNL A   1      42.580  30.154  31.506  1.00  0.00     0.031 A 
ATOM     37  C   UNL A   1      43.296  31.416  31.342  1.00  0.00     0.074 A 
ATOM     38  C   UNL A   1      41.948  30.195  32.728  1.00  0.00     0.049 A 
ATOM     39  N   UNL A   1      42.587  32.466  31.147  1.00  0.00    -0.248 NA
ATOM     40  C   UNL A   1      44.724  31.610  31.275  1.00  0.00     0.031 C 
ATOM     41  C   UNL A   1      41.075  29.213  33.337  1.00  0.00     0.029 A 
ATOM     42  N   UNL A   1      41.863  31.313  33.644  1.00  0.00    -0.354 N 
ATOM     43  C   UNL A   1      43.423  33.489  30.858  1.00  0.00     0.074 A 
ATOM     44  C   UNL A   1      44.757  32.936  31.052  1.00  0.00     0.031 C 
ATOM     45  C   UNL A   1      40.504  29.746  34.443  1.00  0.00     0.029 A 
ATOM     46  C   UNL A   1      40.843  31.193  34.620  1.00  0.00     0.049 A 
ATOM     47  H   UNL A   1      42.463  32.092  33.593  1.00  0.00     0.167 HD
ATOM     48  C   UNL A   1      42.837  34.670  30.522  1.00  0.00     0.037 A 
ATOM     49  C   UNL A   1      39.807  32.078  34.877  1.00  0.00     0.037 A 
ATOM     50  C   UNL A   1      41.410  34.573  30.101  1.00  0.00     0.049 A 
ATOM     51  C   UNL A   1      38.948  31.899  33.685  1.00  0.00     0.074 A 
ATOM     52  C   UNL A   1      40.637  35.167  29.119  1.00  0.00     0.029 A 
ATOM     53  N   UNL A   1      40.539  33.661  30.694  1.00  0.00    -0.354 N 
ATOM     54  N   UNL A   1      39.244  32.460  32.561  1.00  0.00    -0.248 NA
ATOM     55  C   UNL A   1      37.812  30.999  33.673  1.00  0.00     0.031 C 
ATOM     56  C   UNL A   1      39.375  34.480  29.047  1.00  0.00     0.029 A 
ATOM     57  C   UNL A   1      39.360  33.470  29.992  1.00  0.00     0.049 A 
ATOM     58  H   UNL A   1      40.744  33.192  31.536  1.00  0.00     0.167 HD
ATOM     59  C   UNL A   1      38.376  31.965  31.637  1.00  0.00     0.074 A 
ATOM     60  C   UNL A   1      37.573  30.981  32.358  1.00  0.00     0.031 C 
ATOM     61  C   UNL A   1      38.441  32.371  30.341  1.00  0.00     0.037 A 
BRANCH  48  62
ATOM     62  C   UNL A   1      43.568  35.962  30.712  1.00  0.00     0.064 A 
ATOM     63  C   UNL A   1      44.005  36.647  29.562  1.00  0.00     0.173 A 
ATOM     64  C   UNL A   1      43.728  36.644  31.930  1.00  0.00     0.173 A 
ATOM     65  F   UNL A   1      43.896  36.089  28.347  1.00  0.00    -0.203 F 
ATOM     66  C   UNL A   1      44.511  37.944  29.621  1.00  0.00     0.198 A 
ATOM     67  C   UNL A   1      44.169  37.969  31.980  1.00  0.00     0.198 A 
ATOM     68  F   UNL A   1      43.477  36.048  33.102  1.00  0.00    -0.203 F 
ATOM     69  F   UNL A   1      44.914  38.550  28.496  1.00  0.00    -0.200 F 
ATOM     70  C   UNL A   1      44.559  38.619  30.825  1.00  0.00     0.200 A 
ATOM     71  F   UNL A   1      44.194  38.620  33.153  1.00  0.00    -0.200 F 
ATOM     72  F   UNL A   1      44.982  39.889  30.872  1.00  0.00    -0.200 F 
ENDBRANCH  48  62
BRANCH  49  73
ATOM     73  C   UNL A   1      39.619  33.470  35.494  1.00  0.00     0.064 A 
ATOM     74  C   UNL A   1      40.410  34.543  35.048  1.00  0.00     0.173 A 
ATOM     75  C   UNL A   1      38.968  33.714  36.742  1.00  0.00     0.173 A 
ATOM     76  F   UNL A   1      41.129  34.419  33.924  1.00  0.00    -0.203 F 
ATOM     77  C   UNL A   1      40.567  35.731  35.799  1.00  0.00     0.198 A 
ATOM     78  C   UNL A   1      39.140  34.884  37.495  1.00  0.00     0.198 A 
ATOM     79  F   UNL A   1      38.177  32.807  37.323  1.00  0.00    -0.203 F 
ATOM     80  F   UNL A   1      41.381  36.701  35.356  1.00  0.00    -0.200 F 
ATOM     81  C   UNL A   1      39.948  35.892  37.028  1.00  0.00     0.200 A 
ATOM     82  F   UNL A   1      38.565  34.993  38.703  1.00  0.00    -0.200 F 
ATOM     83  F   UNL A   1      40.156  36.989  37.772  1.00  0.00    -0.200 F 
ENDBRANCH  49  73
BRANCH  61  84
ATOM     84  C   UNL A   1      37.721  31.548  29.317  1.00  0.00     0.064 A 
ATOM     85  C   UNL A   1      36.564  31.964  28.637  1.00  0.00     0.173 A 
ATOM     86  C   UNL A   1      38.123  30.220  29.105  1.00  0.00     0.173 A 
ATOM     87  F   UNL A   1      36.163  33.243  28.685  1.00  0.00    -0.203 F 
ATOM     88  C   UNL A   1      35.773  31.065  27.923  1.00  0.00     0.198 A 
ATOM     89  C   UNL A   1      37.360  29.332  28.349  1.00  0.00     0.198 A 
ATOM     90  F   UNL A   1      39.258  29.755  29.643  1.00  0.00    -0.203 F 
ATOM     91  F   UNL A   1      34.612  31.475  27.394  1.00  0.00    -0.200 F 
ATOM     92  C   UNL A   1      36.167  29.746  27.787  1.00  0.00     0.200 A 
ATOM     93  F   UNL A   1      37.778  28.068  28.189  1.00  0.00    -0.200 F 
ATOM     94  F   UNL A   1      35.406  28.880  27.104  1.00  0.00    -0.200 F 
ENDBRANCH  61  84
ENDBRANCH  35  36
ENDBRANCH  27  30
ENDBRANCH  25  26
ENDBRANCH  24  25
ENDBRANCH   1  24
TORSDOF 14
ENDMDL
MODEL 3
REMARK VINA RESULT:     -11.3      4.123     11.667
REMARK SMILES Cc1ccc(NC(=O)c2cccn2CC(=O)NCCCCNC(=O)c2ccc(-c3c4nc(c(-c5c(F)c(F)c(F)c(F)c5F)c5ccc([nH]5)c(-c5c(F)c(F)c(F)c(F)c5F)c5nc(c(-c6c(F)c(F)c(F)c(F)c6F)c6ccc3[nH]6)C=C5)C=C4)cc2)cc1
REMARK SMILES IDX 19 1 18 2 17 3 15 4 16 5 14 7 13 8 9 9 10 10 11 11 12 12
REMARK SMILES IDX 7 13 6 14 8 16 5 17 1 18 2 19 3 20 89 21 4 22 88 23 20 24
REMARK SMILES IDX 21 25 22 26 23 27 24 29 25 30 26 31 87 32 27 33 86 34 28 35
REMARK SMILES IDX 29 36 30 37 80 38 31 39 85 40 79 41 81 42 32 43 84 44 78 45
REMARK SMILES IDX 77 46 33 48 65 49 45 50 64 51 46 52 49 53 63 54 82 55 47 56
REMARK SMILES IDX 48 57 62 59 83 60 50 61 34 62 35 63 43 64 36 65 37 66 41 67
REMARK SMILES IDX 44 68 38 69 39 70 42 71 40 72 66 73 67 74 75 75 68 76 69 77
REMARK SMILES IDX 73 78 76 79 70 80 71 81 74 82 72 83 51 84 52 85 60 86 53 87
REMARK SMILES IDX 54 88 58 89 61 90 55 91 56 92 59 93 57 94
REMARK H PARENT 17 6 6 15 22 28 81 47 49 58
REMARK Flexibility Score: inf
ROOT
ATOM      1  C   UNL A   1      37.798  31.595  33.115  1.00  0.00     0.023 C 
ENDROOT
BRANCH   1   2
ATOM      2  C   UNL A   1      36.305  31.932  33.233  1.00  0.00     0.116 C 
BRANCH   2   3
ATOM      3  N   UNL A   1      36.057  33.348  33.474  1.00  0.00    -0.355 N 
ATOM      4  C   UNL A   1      35.745  34.351  32.595  1.00  0.00     0.239 C 
ATOM      5  O   UNL A   1      35.514  35.470  33.062  1.00  0.00    -0.273 OA
ATOM      6  H   UNL A   1      36.127  33.627  34.415  1.00  0.00     0.163 HD
BRANCH   4   7
ATOM      7  C   UNL A   1      35.651  34.098  31.102  1.00  0.00     0.222 C 
BRANCH   7   8
ATOM      8  N   UNL A   1      36.943  34.107  30.420  1.00  0.00    -0.334 N 
ATOM      9  C   UNL A   1      37.184  33.682  29.127  1.00  0.00     0.107 A 
ATOM     10  C   UNL A   1      38.492  34.044  28.823  1.00  0.00     0.033 A 
ATOM     11  C   UNL A   1      39.084  34.569  29.993  1.00  0.00     0.020 A 
ATOM     12  C   UNL A   1      38.107  34.600  30.962  1.00  0.00     0.087 A 
BRANCH   9  13
ATOM     13  C   UNL A   1      36.227  33.021  28.279  1.00  0.00     0.272 C 
ATOM     14  N   UNL A   1      36.182  31.651  28.192  1.00  0.00    -0.321 N 
ATOM     15  H   UNL A   1      35.585  31.327  27.480  1.00  0.00     0.170 HD
ATOM     16  O   UNL A   1      35.386  33.660  27.627  1.00  0.00    -0.267 OA
BRANCH  14  17
ATOM     17  C   UNL A   1      36.812  30.608  28.905  1.00  0.00     0.041 A 
ATOM     18  C   UNL A   1      38.981  27.455  30.928  1.00  0.00     0.044 C 
ATOM     19  C   UNL A   1      38.234  28.530  30.199  1.00  0.00    -0.051 A 
ATOM     20  C   UNL A   1      37.028  28.997  30.715  1.00  0.00     0.005 A 
ATOM     21  C   UNL A   1      38.717  29.088  29.013  1.00  0.00     0.005 A 
ATOM     22  C   UNL A   1      36.318  30.005  30.059  1.00  0.00     0.026 A 
ATOM     23  C   UNL A   1      38.012  30.118  28.376  1.00  0.00     0.026 A 
ENDBRANCH  14  17
ENDBRANCH   9  13
ENDBRANCH   7   8
ENDBRANCH   4   7
ENDBRANCH   2   3
ENDBRANCH   1   2
BRANCH   1  24
ATOM     24  C   UNL A   1      38.428  30.806  34.282  1.00  0.00     0.023 C 
BRANCH  24  25
ATOM     25  C   UNL A   1      39.631  29.864  33.961  1.00  0.00     0.116 C 
BRANCH  25  26
ATOM     26  N   UNL A   1      40.359  29.453  35.166  1.00  0.00    -0.352 N 
ATOM     27  C   UNL A   1      41.325  28.510  35.477  1.00  0.00     0.251 C 
ATOM     28  H   UNL A   1      40.095  29.983  35.952  1.00  0.00     0.163 HD
ATOM     29  O   UNL A   1      41.401  28.223  36.679  1.00  0.00    -0.269 OA
BRANCH  27  30
ATOM     30  C   UNL A   1      42.320  27.836  34.559  1.00  0.00     0.039 A 
ATOM     31  C   UNL A   1      42.843  28.558  33.447  1.00  0.00     0.014 A 
ATOM     32  C   UNL A   1      42.662  26.501  34.616  1.00  0.00     0.014 A 
ATOM     33  C   UNL A   1      43.694  27.985  32.436  1.00  0.00     0.010 A 
ATOM     34  C   UNL A   1      43.478  25.932  33.595  1.00  0.00     0.010 A 
ATOM     35  C   UNL A   1      44.041  26.641  32.483  1.00  0.00    -0.014 A 
BRANCH  35  36
ATOM     36  C   UNL A   1      45.152  25.930  31.701  1.00  0.00     0.031 A 
ATOM     37  C   UNL A   1      44.598  24.813  30.941  1.00  0.00     0.074 A 
ATOM     38  C   UNL A   1      46.383  26.225  31.161  1.00  0.00     0.049 A 
ATOM     39  N   UNL A   1      44.219  25.057  29.741  1.00  0.00    -0.248 NA
ATOM     40  C   UNL A   1      44.335  23.476  31.417  1.00  0.00     0.031 C 
ATOM     41  C   UNL A   1      47.310  27.277  31.524  1.00  0.00     0.029 A 
ATOM     42  N   UNL A   1      46.989  25.658  29.974  1.00  0.00    -0.354 N 
ATOM     43  C   UNL A   1      43.593  23.955  29.267  1.00  0.00     0.074 A 
ATOM     44  C   UNL A   1      43.780  22.953  30.308  1.00  0.00     0.031 C 
ATOM     45  C   UNL A   1      48.298  27.341  30.601  1.00  0.00     0.029 A 
ATOM     46  C   UNL A   1      48.065  26.414  29.449  1.00  0.00     0.049 A 
ATOM     47  H   UNL A   1      46.678  24.817  29.566  1.00  0.00     0.167 HD
ATOM     48  C   UNL A   1      43.032  24.065  28.033  1.00  0.00     0.037 A 
ATOM     49  C   UNL A   1      48.197  26.925  28.166  1.00  0.00     0.037 A 
ATOM     50  C   UNL A   1      42.802  25.461  27.562  1.00  0.00     0.049 A 
ATOM     51  C   UNL A   1      47.187  28.006  28.161  1.00  0.00     0.074 A 
ATOM     52  C   UNL A   1      41.789  26.109  26.878  1.00  0.00     0.029 A 
ATOM     53  N   UNL A   1      43.695  26.486  27.868  1.00  0.00    -0.354 N 
ATOM     54  N   UNL A   1      45.932  27.744  28.006  1.00  0.00    -0.248 NA
ATOM     55  C   UNL A   1      47.524  29.386  28.449  1.00  0.00     0.031 C 
ATOM     56  C   UNL A   1      42.026  27.526  26.935  1.00  0.00     0.029 A 
ATOM     57  C   UNL A   1      43.194  27.757  27.641  1.00  0.00     0.049 A 
ATOM     58  H   UNL A   1      44.603  26.322  28.216  1.00  0.00     0.167 HD
ATOM     59  C   UNL A   1      45.261  28.908  28.224  1.00  0.00     0.074 A 
ATOM     60  C   UNL A   1      46.289  29.876  28.599  1.00  0.00     0.031 C 
ATOM     61  C   UNL A   1      43.905  28.951  28.135  1.00  0.00     0.037 A 
BRANCH  48  62
ATOM     62  C   UNL A   1      42.810  22.850  27.188  1.00  0.00     0.064 A 
ATOM     63  C   UNL A   1      43.685  22.630  26.106  1.00  0.00     0.173 A 
ATOM     64  C   UNL A   1      41.902  21.813  27.461  1.00  0.00     0.173 A 
ATOM     65  F   UNL A   1      44.594  23.554  25.760  1.00  0.00    -0.203 F 
ATOM     66  C   UNL A   1      43.689  21.436  25.388  1.00  0.00     0.198 A 
ATOM     67  C   UNL A   1      41.954  20.591  26.787  1.00  0.00     0.198 A 
ATOM     68  F   UNL A   1      40.933  21.958  28.375  1.00  0.00    -0.203 F 
ATOM     69  F   UNL A   1      44.541  21.280  24.366  1.00  0.00    -0.200 F 
ATOM     70  C   UNL A   1      42.849  20.403  25.751  1.00  0.00     0.200 A 
ATOM     71  F   UNL A   1      41.146  19.587  27.162  1.00  0.00    -0.200 F 
ATOM     72  F   UNL A   1      42.899  19.230  25.105  1.00  0.00    -0.200 F 
ENDBRANCH  48  62
BRANCH  49  73
ATOM     73  C   UNL A   1      48.456  26.398  26.748  1.00  0.00     0.064 A 
ATOM     74  C   UNL A   1      49.183  27.183  25.835  1.00  0.00     0.173 A 
ATOM     75  C   UNL A   1      47.718  25.338  26.137  1.00  0.00     0.173 A 
ATOM     76  F   UNL A   1      49.864  28.252  26.270  1.00  0.00    -0.203 F 
ATOM     77  C   UNL A   1      49.142  26.954  24.440  1.00  0.00     0.198 A 
ATOM     78  C   UNL A   1      47.664  25.124  24.753  1.00  0.00     0.198 A 
ATOM     79  F   UNL A   1      46.968  24.491  26.847  1.00  0.00    -0.203 F 
ATOM     80  F   UNL A   1      49.808  27.769  23.608  1.00  0.00    -0.200 F 
ATOM     81  C   UNL A   1      48.370  25.938  23.900  1.00  0.00     0.200 A 
ATOM     82  F   UNL A   1      46.871  24.162  24.255  1.00  0.00    -0.200 F 
ATOM     83  F   UNL A   1      48.277  25.768  22.573  1.00  0.00    -0.200 F 
ENDBRANCH  49  73
BRANCH  61  84
ATOM     84  C   UNL A   1      43.205  30.137  28.725  1.00  0.00     0.064 A 
ATOM     85  C   UNL A   1      43.488  31.471  28.389  1.00  0.00     0.173 A 
ATOM     86  C   UNL A   1      42.304  29.939  29.783  1.00  0.00     0.173 A 
ATOM     87  F   UNL A   1      44.248  31.764  27.323  1.00  0.00    -0.203 F 
ATOM     88  C   UNL A   1      43.027  32.533  29.165  1.00  0.00     0.198 A 
ATOM     89  C   UNL A   1      41.801  31.003  30.529  1.00  0.00     0.198 A 
ATOM     90  F   UNL A   1      41.908  28.706  30.122  1.00  0.00    -0.203 F 
ATOM     91  F   UNL A   1      43.422  33.783  28.885  1.00  0.00    -0.200 F 
ATOM     92  C   UNL A   1      42.190  32.298  30.241  1.00  0.00     0.200 A 
ATOM     93  F   UNL A   1      40.955  30.762  31.541  1.00  0.00    -0.200 F 
ATOM     94  F   UNL A   1      41.749  33.318  30.991  1.00  0.00    -0.200 F 
ENDBRANCH  61  84
ENDBRANCH  35  36
ENDBRANCH  27  30
ENDBRANCH  25  26
ENDBRANCH  24  25
ENDBRANCH   1  24
TORSDOF 14
ENDMDL
