MODEL 1
REMARK VINA RESULT:     -12.2      0.000      0.000
REMARK SMILES COc1ncccc1C(=O)N[C@@](C)(C(=O)NCCCCNC(=O)c1ccc(-c2c3nc(c(-c4c(F)c(F)c(F)c(F)c4F)c4ccc([nH]4)c(-c4c(F)c(F)c(F)c(F)c4F)c4nc(c(-c5c(F)c(F)c(F)c(F)c5F)c5ccc2[nH]5)C=C4)C=C3)cc1)C(F)(F)F
REMARK SMILES IDX 18 1 17 2 16 3 14 4 15 5 12 7 13 8 11 9 9 10 10 11 8 13 3 14
REMARK SMILES IDX 4 15 5 16 7 17 6 18 2 19 1 20 87 21 88 22 89 23 90 24 19 25
REMARK SMILES IDX 20 26 21 27 22 28 23 30 24 31 25 32 86 33 26 34 85 35 27 36
REMARK SMILES IDX 28 37 29 38 79 39 30 40 84 41 78 42 80 43 31 44 83 45 77 46
REMARK SMILES IDX 76 47 32 49 64 50 44 51 63 52 45 53 48 54 62 55 81 56 46 57
REMARK SMILES IDX 47 58 61 60 82 61 49 62 33 63 34 64 42 65 35 66 36 67 40 68
REMARK SMILES IDX 43 69 37 70 38 71 41 72 39 73 65 74 66 75 74 76 67 77 68 78
REMARK SMILES IDX 72 79 75 80 69 81 70 82 73 83 71 84 50 85 51 86 59 87 52 88
REMARK SMILES IDX 53 89 57 90 60 91 54 92 55 93 58 94 56 95
REMARK H PARENT 16 6 11 12 21 29 80 48 48 59
REMARK Flexibility Score: inf
ROOT
ATOM      1  C   UNL A   1      31.676  30.613  26.576  1.00  0.00     0.023 C 
ENDROOT
BRANCH   1   2
ATOM      2  C   UNL A   1      33.064  30.126  26.163  1.00  0.00     0.116 C 
BRANCH   2   3
ATOM      3  N   UNL A   1      33.128  29.771  24.754  1.00  0.00    -0.354 N 
ATOM      4  C   UNL A   1      32.923  28.622  24.046  1.00  0.00     0.254 C 
ATOM      5  O   UNL A   1      33.016  28.762  22.823  1.00  0.00    -0.272 OA
ATOM      6  H   UNL A   1      33.377  30.532  24.181  1.00  0.00     0.163 HD
BRANCH   4   7
ATOM      7  C   UNL A   1      32.692  27.241  24.712  1.00  0.00     0.212 C 
ATOM      8  C   UNL A   1      33.441  27.112  26.052  1.00  0.00     0.056 C 
BRANCH   7   9
ATOM      9  N   UNL A   1      33.269  26.293  23.690  1.00  0.00    -0.330 N 
ATOM     10  C   UNL A   1      33.897  25.116  23.421  1.00  0.00     0.257 C 
ATOM     11  O   UNL A   1      33.993  24.955  22.198  1.00  0.00    -0.269 OA
ATOM     12  H   UNL A   1      33.125  26.723  22.815  1.00  0.00     0.165 HD
BRANCH  10  13
ATOM     13  C   UNL A   1      34.453  24.074  24.329  1.00  0.00     0.101 A 
ATOM     14  C   UNL A   1      33.611  23.409  25.238  1.00  0.00     0.226 A 
ATOM     15  N   UNL A   1      34.016  22.466  26.134  1.00  0.00    -0.221 NA
ATOM     16  C   UNL A   1      35.320  22.153  26.154  1.00  0.00     0.115 A 
ATOM     17  C   UNL A   1      35.791  23.706  24.406  1.00  0.00     0.021 A 
ATOM     18  C   UNL A   1      36.238  22.738  25.312  1.00  0.00     0.021 A 
BRANCH  14  19
ATOM     19  O   UNL A   1      32.282  23.710  25.366  1.00  0.00    -0.480 OA
ATOM     20  C   UNL A   1      31.931  23.775  26.743  1.00  0.00     0.280 C 
ENDBRANCH  14  19
ENDBRANCH  10  13
ENDBRANCH   7   9
BRANCH   7  21
ATOM     21  C   UNL A   1      31.194  27.229  25.057  1.00  0.00     0.420 C 
ATOM     22  F   UNL A   1      30.550  26.116  24.651  1.00  0.00    -0.168 F 
ATOM     23  F   UNL A   1      31.023  27.334  26.403  1.00  0.00    -0.168 F 
ATOM     24  F   UNL A   1      30.541  28.298  24.534  1.00  0.00    -0.168 F 
ENDBRANCH   7  21
ENDBRANCH   4   7
ENDBRANCH   2   3
ENDBRANCH   1   2
BRANCH   1  25
ATOM     25  C   UNL A   1      31.516  32.128  26.703  1.00  0.00     0.023 C 
BRANCH  25  26
ATOM     26  C   UNL A   1      32.709  32.866  27.298  1.00  0.00     0.116 C 
BRANCH  26  27
ATOM     27  N   UNL A   1      32.401  34.240  27.660  1.00  0.00    -0.352 N 
ATOM     28  C   UNL A   1      32.987  35.041  28.615  1.00  0.00     0.251 C 
ATOM     29  H   UNL A   1      31.671  34.657  27.150  1.00  0.00     0.163 HD
ATOM     30  O   UNL A   1      32.512  36.135  28.879  1.00  0.00    -0.269 OA
BRANCH  28  31
ATOM     31  C   UNL A   1      34.176  34.552  29.344  1.00  0.00     0.039 A 
ATOM     32  C   UNL A   1      33.999  33.952  30.593  1.00  0.00     0.014 A 
ATOM     33  C   UNL A   1      35.453  34.662  28.789  1.00  0.00     0.014 A 
ATOM     34  C   UNL A   1      35.097  33.397  31.253  1.00  0.00     0.010 A 
ATOM     35  C   UNL A   1      36.533  34.040  29.412  1.00  0.00     0.010 A 
ATOM     36  C   UNL A   1      36.366  33.401  30.650  1.00  0.00    -0.014 A 
BRANCH  36  37
ATOM     37  C   UNL A   1      37.526  32.737  31.297  1.00  0.00     0.031 A 
ATOM     38  C   UNL A   1      38.202  31.575  30.623  1.00  0.00     0.074 A 
ATOM     39  C   UNL A   1      37.926  33.135  32.522  1.00  0.00     0.049 A 
ATOM     40  N   UNL A   1      39.180  30.819  31.060  1.00  0.00    -0.248 NA
ATOM     41  C   UNL A   1      37.698  31.191  29.295  1.00  0.00     0.031 C 
ATOM     42  C   UNL A   1      37.314  34.213  33.303  1.00  0.00     0.029 A 
ATOM     43  N   UNL A   1      38.931  32.670  33.333  1.00  0.00    -0.354 N 
ATOM     44  C   UNL A   1      39.390  29.866  30.073  1.00  0.00     0.074 A 
ATOM     45  C   UNL A   1      38.411  30.105  29.035  1.00  0.00     0.031 C 
ATOM     46  C   UNL A   1      37.966  34.335  34.470  1.00  0.00     0.029 A 
ATOM     47  C   UNL A   1      39.012  33.321  34.541  1.00  0.00     0.049 A 
ATOM     48  H   UNL A   1      39.537  31.938  33.074  1.00  0.00     0.167 HD
ATOM     49  C   UNL A   1      40.330  28.892  30.027  1.00  0.00     0.037 A 
ATOM     50  C   UNL A   1      39.829  33.114  35.591  1.00  0.00     0.037 A 
ATOM     51  C   UNL A   1      41.325  28.681  31.044  1.00  0.00     0.049 A 
ATOM     52  C   UNL A   1      40.870  32.028  35.507  1.00  0.00     0.074 A 
ATOM     53  C   UNL A   1      42.370  27.774  31.051  1.00  0.00     0.029 A 
ATOM     54  N   UNL A   1      41.397  29.383  32.238  1.00  0.00    -0.354 N 
ATOM     55  N   UNL A   1      41.115  31.190  34.529  1.00  0.00    -0.248 NA
ATOM     56  C   UNL A   1      41.753  31.863  36.670  1.00  0.00     0.031 C 
ATOM     57  C   UNL A   1      43.039  27.886  32.272  1.00  0.00     0.029 A 
ATOM     58  C   UNL A   1      42.452  28.908  33.000  1.00  0.00     0.049 A 
ATOM     59  H   UNL A   1      40.790  30.110  32.504  1.00  0.00     0.167 HD
ATOM     60  C   UNL A   1      42.199  30.426  34.943  1.00  0.00     0.074 A 
ATOM     61  C   UNL A   1      42.574  30.910  36.253  1.00  0.00     0.031 C 
ATOM     62  C   UNL A   1      42.824  29.412  34.297  1.00  0.00     0.037 A 
BRANCH  49  63
ATOM     63  C   UNL A   1      40.339  27.976  28.838  1.00  0.00     0.064 A 
ATOM     64  C   UNL A   1      41.081  28.271  27.684  1.00  0.00     0.173 A 
ATOM     65  C   UNL A   1      39.658  26.751  28.883  1.00  0.00     0.173 A 
ATOM     66  F   UNL A   1      41.742  29.435  27.585  1.00  0.00    -0.203 F 
ATOM     67  C   UNL A   1      41.127  27.380  26.614  1.00  0.00     0.198 A 
ATOM     68  C   UNL A   1      39.731  25.848  27.825  1.00  0.00     0.198 A 
ATOM     69  F   UNL A   1      38.938  26.416  29.965  1.00  0.00    -0.203 F 
ATOM     70  F   UNL A   1      41.813  27.700  25.509  1.00  0.00    -0.200 F 
ATOM     71  C   UNL A   1      40.462  26.166  26.691  1.00  0.00     0.200 A 
ATOM     72  F   UNL A   1      39.100  24.669  27.906  1.00  0.00    -0.200 F 
ATOM     73  F   UNL A   1      40.524  25.302  25.668  1.00  0.00    -0.200 F 
ENDBRANCH  49  63
BRANCH  50  74
ATOM     74  C   UNL A   1      39.704  33.949  36.818  1.00  0.00     0.064 A 
ATOM     75  C   UNL A   1      38.905  33.539  37.894  1.00  0.00     0.173 A 
ATOM     76  C   UNL A   1      40.349  35.190  36.922  1.00  0.00     0.173 A 
ATOM     77  F   UNL A   1      38.251  32.370  37.836  1.00  0.00    -0.203 F 
ATOM     78  C   UNL A   1      38.727  34.355  39.011  1.00  0.00     0.198 A 
ATOM     79  C   UNL A   1      40.199  35.989  38.054  1.00  0.00     0.198 A 
ATOM     80  F   UNL A   1      41.131  35.627  35.923  1.00  0.00    -0.203 F 
ATOM     81  F   UNL A   1      37.904  33.967  39.996  1.00  0.00    -0.200 F 
ATOM     82  C   UNL A   1      39.376  35.577  39.091  1.00  0.00     0.200 A 
ATOM     83  F   UNL A   1      40.841  37.161  38.134  1.00  0.00    -0.200 F 
ATOM     84  F   UNL A   1      39.200  36.363  40.162  1.00  0.00    -0.200 F 
ENDBRANCH  50  74
BRANCH  62  85
ATOM     85  C   UNL A   1      44.010  28.788  34.974  1.00  0.00     0.064 A 
ATOM     86  C   UNL A   1      43.883  27.666  35.806  1.00  0.00     0.173 A 
ATOM     87  C   UNL A   1      45.300  29.296  34.750  1.00  0.00     0.173 A 
ATOM     88  F   UNL A   1      42.671  27.150  36.062  1.00  0.00    -0.203 F 
ATOM     89  C   UNL A   1      44.998  27.093  36.411  1.00  0.00     0.198 A 
ATOM     90  C   UNL A   1      46.417  28.699  35.329  1.00  0.00     0.198 A 
ATOM     91  F   UNL A   1      45.479  30.362  33.955  1.00  0.00    -0.203 F 
ATOM     92  F   UNL A   1      44.846  26.054  37.243  1.00  0.00    -0.200 F 
ATOM     93  C   UNL A   1      46.264  27.604  36.165  1.00  0.00     0.200 A 
ATOM     94  F   UNL A   1      47.640  29.184  35.075  1.00  0.00    -0.200 F 
ATOM     95  F   UNL A   1      47.337  27.045  36.740  1.00  0.00    -0.200 F 
ENDBRANCH  62  85
ENDBRANCH  36  37
ENDBRANCH  28  31
ENDBRANCH  26  27
ENDBRANCH  25  26
ENDBRANCH   1  25
TORSDOF 15
ENDMDL
MODEL 2
REMARK VINA RESULT:     -12.1      5.578     11.038
REMARK SMILES COc1ncccc1C(=O)N[C@@](C)(C(=O)NCCCCNC(=O)c1ccc(-c2c3nc(c(-c4c(F)c(F)c(F)c(F)c4F)c4ccc([nH]4)c(-c4c(F)c(F)c(F)c(F)c4F)c4nc(c(-c5c(F)c(F)c(F)c(F)c5F)c5ccc2[nH]5)C=C4)C=C3)cc1)C(F)(F)F
REMARK SMILES IDX 18 1 17 2 16 3 14 4 15 5 12 7 13 8 11 9 9 10 10 11 8 13 3 14
REMARK SMILES IDX 4 15 5 16 7 17 6 18 2 19 1 20 87 21 88 22 89 23 90 24 19 25
REMARK SMILES IDX 20 26 21 27 22 28 23 30 24 31 25 32 86 33 26 34 85 35 27 36
REMARK SMILES IDX 28 37 29 38 79 39 30 40 84 41 78 42 80 43 31 44 83 45 77 46
REMARK SMILES IDX 76 47 32 49 64 50 44 51 63 52 45 53 48 54 62 55 81 56 46 57
REMARK SMILES IDX 47 58 61 60 82 61 49 62 33 63 34 64 42 65 35 66 36 67 40 68
REMARK SMILES IDX 43 69 37 70 38 71 41 72 39 73 65 74 66 75 74 76 67 77 68 78
REMARK SMILES IDX 72 79 75 80 69 81 70 82 73 83 71 84 50 85 51 86 59 87 52 88
REMARK SMILES IDX 53 89 57 90 60 91 54 92 55 93 58 94 56 95
REMARK H PARENT 16 6 11 12 21 29 80 48 48 59
REMARK Flexibility Score: inf
ROOT
ATOM      1  C   UNL A   1      37.069  21.040  24.629  1.00  0.00     0.023 C 
ENDROOT
BRANCH   1   2
ATOM      2  C   UNL A   1      36.102  21.453  25.738  1.00  0.00     0.116 C 
BRANCH   2   3
ATOM      3  N   UNL A   1      34.896  20.640  25.751  1.00  0.00    -0.354 N 
ATOM      4  C   UNL A   1      33.565  20.900  25.603  1.00  0.00     0.254 C 
ATOM      5  O   UNL A   1      32.851  19.893  25.614  1.00  0.00    -0.272 OA
ATOM      6  H   UNL A   1      35.083  19.684  25.902  1.00  0.00     0.163 HD
BRANCH   4   7
ATOM      7  C   UNL A   1      32.980  22.334  25.527  1.00  0.00     0.212 C 
ATOM      8  C   UNL A   1      31.484  22.330  25.163  1.00  0.00     0.056 C 
BRANCH   7   9
ATOM      9  N   UNL A   1      33.794  22.952  24.417  1.00  0.00    -0.330 N 
ATOM     10  C   UNL A   1      34.235  24.074  23.787  1.00  0.00     0.257 C 
ATOM     11  O   UNL A   1      35.022  23.772  22.881  1.00  0.00    -0.269 OA
ATOM     12  H   UNL A   1      34.183  22.196  23.919  1.00  0.00     0.165 HD
BRANCH  10  13
ATOM     13  C   UNL A   1      33.919  25.513  24.013  1.00  0.00     0.101 A 
ATOM     14  C   UNL A   1      33.621  26.348  22.921  1.00  0.00     0.226 A 
ATOM     15  N   UNL A   1      33.349  27.680  23.008  1.00  0.00    -0.221 NA
ATOM     16  C   UNL A   1      33.374  28.238  24.227  1.00  0.00     0.115 A 
ATOM     17  C   UNL A   1      33.931  26.155  25.245  1.00  0.00     0.021 A 
ATOM     18  C   UNL A   1      33.653  27.520  25.367  1.00  0.00     0.021 A 
BRANCH  14  19
ATOM     19  O   UNL A   1      33.653  25.907  21.626  1.00  0.00    -0.480 OA
ATOM     20  C   UNL A   1      32.327  25.751  21.136  1.00  0.00     0.280 C 
ENDBRANCH  14  19
ENDBRANCH  10  13
ENDBRANCH   7   9
BRANCH   7  21
ATOM     21  C   UNL A   1      33.068  22.859  26.970  1.00  0.00     0.420 C 
ATOM     22  F   UNL A   1      33.000  21.892  27.907  1.00  0.00    -0.168 F 
ATOM     23  F   UNL A   1      34.238  23.528  27.154  1.00  0.00    -0.168 F 
ATOM     24  F   UNL A   1      32.096  23.766  27.242  1.00  0.00    -0.168 F 
ENDBRANCH   7  21
ENDBRANCH   4   7
ENDBRANCH   2   3
ENDBRANCH   1   2
BRANCH   1  25
ATOM     25  C   UNL A   1      38.020  19.894  24.973  1.00  0.00     0.023 C 
BRANCH  25  26
ATOM     26  C   UNL A   1      39.265  20.288  25.759  1.00  0.00     0.116 C 
BRANCH  26  27
ATOM     27  N   UNL A   1      40.224  19.202  25.882  1.00  0.00    -0.352 N 
ATOM     28  C   UNL A   1      41.577  19.259  26.126  1.00  0.00     0.251 C 
ATOM     29  H   UNL A   1      39.852  18.297  25.776  1.00  0.00     0.163 HD
ATOM     30  O   UNL A   1      42.259  18.247  26.065  1.00  0.00    -0.269 OA
BRANCH  28  31
ATOM     31  C   UNL A   1      42.207  20.562  26.428  1.00  0.00     0.039 A 
ATOM     32  C   UNL A   1      42.708  21.327  25.372  1.00  0.00     0.014 A 
ATOM     33  C   UNL A   1      42.280  21.036  27.740  1.00  0.00     0.014 A 
ATOM     34  C   UNL A   1      43.219  22.601  25.626  1.00  0.00     0.010 A 
ATOM     35  C   UNL A   1      42.717  22.336  27.981  1.00  0.00     0.010 A 
ATOM     36  C   UNL A   1      43.190  23.133  26.927  1.00  0.00    -0.014 A 
BRANCH  36  37
ATOM     37  C   UNL A   1      43.646  24.520  27.199  1.00  0.00     0.031 A 
ATOM     38  C   UNL A   1      42.669  25.550  27.697  1.00  0.00     0.074 A 
ATOM     39  C   UNL A   1      44.921  24.869  26.934  1.00  0.00     0.049 A 
ATOM     40  N   UNL A   1      42.857  26.827  27.923  1.00  0.00    -0.248 NA
ATOM     41  C   UNL A   1      41.292  25.096  27.948  1.00  0.00     0.031 C 
ATOM     42  C   UNL A   1      45.948  23.974  26.396  1.00  0.00     0.029 A 
ATOM     43  N   UNL A   1      45.568  26.073  27.065  1.00  0.00    -0.354 N 
ATOM     44  C   UNL A   1      41.624  27.326  28.320  1.00  0.00     0.074 A 
ATOM     45  C   UNL A   1      40.683  26.229  28.262  1.00  0.00     0.031 C 
ATOM     46  C   UNL A   1      47.097  24.655  26.258  1.00  0.00     0.029 A 
ATOM     47  C   UNL A   1      46.880  26.041  26.657  1.00  0.00     0.049 A 
ATOM     48  H   UNL A   1      45.133  26.882  27.418  1.00  0.00     0.167 HD
ATOM     49  C   UNL A   1      41.310  28.581  28.720  1.00  0.00     0.037 A 
ATOM     50  C   UNL A   1      47.799  27.024  26.598  1.00  0.00     0.037 A 
ATOM     51  C   UNL A   1      42.258  29.660  28.812  1.00  0.00     0.049 A 
ATOM     52  C   UNL A   1      47.423  28.409  27.056  1.00  0.00     0.074 A 
ATOM     53  C   UNL A   1      42.055  30.946  29.282  1.00  0.00     0.029 A 
ATOM     54  N   UNL A   1      43.586  29.581  28.422  1.00  0.00    -0.354 N 
ATOM     55  N   UNL A   1      46.275  28.845  27.515  1.00  0.00    -0.248 NA
ATOM     56  C   UNL A   1      48.472  29.436  26.998  1.00  0.00     0.031 C 
ATOM     57  C   UNL A   1      43.243  31.662  29.123  1.00  0.00     0.029 A 
ATOM     58  C   UNL A   1      44.206  30.806  28.615  1.00  0.00     0.049 A 
ATOM     59  H   UNL A   1      44.023  28.777  28.062  1.00  0.00     0.167 HD
ATOM     60  C   UNL A   1      46.473  30.184  27.830  1.00  0.00     0.074 A 
ATOM     61  C   UNL A   1      47.855  30.483  27.526  1.00  0.00     0.031 C 
ATOM     62  C   UNL A   1      45.589  31.084  28.323  1.00  0.00     0.037 A 
BRANCH  49  63
ATOM     63  C   UNL A   1      39.885  28.866  29.095  1.00  0.00     0.064 A 
ATOM     64  C   UNL A   1      38.939  29.275  28.144  1.00  0.00     0.173 A 
ATOM     65  C   UNL A   1      39.443  28.654  30.410  1.00  0.00     0.173 A 
ATOM     66  F   UNL A   1      39.311  29.503  26.875  1.00  0.00    -0.203 F 
ATOM     67  C   UNL A   1      37.607  29.475  28.498  1.00  0.00     0.198 A 
ATOM     68  C   UNL A   1      38.105  28.824  30.755  1.00  0.00     0.198 A 
ATOM     69  F   UNL A   1      40.306  28.257  31.358  1.00  0.00    -0.203 F 
ATOM     70  F   UNL A   1      36.728  29.900  27.580  1.00  0.00    -0.200 F 
ATOM     71  C   UNL A   1      37.190  29.239  29.799  1.00  0.00     0.200 A 
ATOM     72  F   UNL A   1      37.701  28.582  32.008  1.00  0.00    -0.200 F 
ATOM     73  F   UNL A   1      35.903  29.413  30.133  1.00  0.00    -0.200 F 
ENDBRANCH  49  63
BRANCH  50  74
ATOM     74  C   UNL A   1      49.170  26.742  26.087  1.00  0.00     0.064 A 
ATOM     75  C   UNL A   1      49.506  26.982  24.747  1.00  0.00     0.173 A 
ATOM     76  C   UNL A   1      50.157  26.192  26.917  1.00  0.00     0.173 A 
ATOM     77  F   UNL A   1      48.592  27.488  23.908  1.00  0.00    -0.203 F 
ATOM     78  C   UNL A   1      50.765  26.648  24.250  1.00  0.00     0.198 A 
ATOM     79  C   UNL A   1      51.427  25.892  26.428  1.00  0.00     0.198 A 
ATOM     80  F   UNL A   1      49.890  25.949  28.209  1.00  0.00    -0.203 F 
ATOM     81  F   UNL A   1      51.037  26.826  22.950  1.00  0.00    -0.200 F 
ATOM     82  C   UNL A   1      51.725  26.107  25.091  1.00  0.00     0.200 A 
ATOM     83  F   UNL A   1      52.356  25.384  27.247  1.00  0.00    -0.200 F 
ATOM     84  F   UNL A   1      52.933  25.780  24.611  1.00  0.00    -0.200 F 
ENDBRANCH  50  74
BRANCH  62  85
ATOM     85  C   UNL A   1      46.098  32.466  28.612  1.00  0.00     0.064 A 
ATOM     86  C   UNL A   1      46.671  32.800  29.849  1.00  0.00     0.173 A 
ATOM     87  C   UNL A   1      46.051  33.460  27.621  1.00  0.00     0.173 A 
ATOM     88  F   UNL A   1      46.727  31.891  30.834  1.00  0.00    -0.203 F 
ATOM     89  C   UNL A   1      47.152  34.085  30.091  1.00  0.00     0.198 A 
ATOM     90  C   UNL A   1      46.565  34.732  27.855  1.00  0.00     0.198 A 
ATOM     91  F   UNL A   1      45.521  33.190  26.418  1.00  0.00    -0.203 F 
ATOM     92  F   UNL A   1      47.647  34.395  31.297  1.00  0.00    -0.200 F 
ATOM     93  C   UNL A   1      47.106  35.046  29.092  1.00  0.00     0.200 A 
ATOM     94  F   UNL A   1      46.536  35.654  26.882  1.00  0.00    -0.200 F 
ATOM     95  F   UNL A   1      47.579  36.278  29.324  1.00  0.00    -0.200 F 
ENDBRANCH  62  85
ENDBRANCH  36  37
ENDBRANCH  28  31
ENDBRANCH  26  27
ENDBRANCH  25  26
ENDBRANCH   1  25
TORSDOF 15
ENDMDL
MODEL 3
REMARK VINA RESULT:     -12.1      0.425      1.684
REMARK SMILES COc1ncccc1C(=O)N[C@@](C)(C(=O)NCCCCNC(=O)c1ccc(-c2c3nc(c(-c4c(F)c(F)c(F)c(F)c4F)c4ccc([nH]4)c(-c4c(F)c(F)c(F)c(F)c4F)c4nc(c(-c5c(F)c(F)c(F)c(F)c5F)c5ccc2[nH]5)C=C4)C=C3)cc1)C(F)(F)F
REMARK SMILES IDX 18 1 17 2 16 3 14 4 15 5 12 7 13 8 11 9 9 10 10 11 8 13 3 14
REMARK SMILES IDX 4 15 5 16 7 17 6 18 2 19 1 20 87 21 88 22 89 23 90 24 19 25
REMARK SMILES IDX 20 26 21 27 22 28 23 30 24 31 25 32 86 33 26 34 85 35 27 36
REMARK SMILES IDX 28 37 29 38 79 39 30 40 84 41 78 42 80 43 31 44 83 45 77 46
REMARK SMILES IDX 76 47 32 49 64 50 44 51 63 52 45 53 48 54 62 55 81 56 46 57
REMARK SMILES IDX 47 58 61 60 82 61 49 62 33 63 34 64 42 65 35 66 36 67 40 68
REMARK SMILES IDX 43 69 37 70 38 71 41 72 39 73 65 74 66 75 74 76 67 77 68 78
REMARK SMILES IDX 72 79 75 80 69 81 70 82 73 83 71 84 50 85 51 86 59 87 52 88
REMARK SMILES IDX 53 89 57 90 60 91 54 92 55 93 58 94 56 95
REMARK H PARENT 16 6 11 12 21 29 80 48 48 59
REMARK Flexibility Score: inf
ROOT
ATOM      1  C   UNL A   1      31.776  30.501  26.744  1.00  0.00     0.023 C 
ENDROOT
BRANCH   1   2
ATOM      2  C   UNL A   1      33.135  29.971  26.289  1.00  0.00     0.116 C 
BRANCH   2   3
ATOM      3  N   UNL A   1      33.205  29.798  24.847  1.00  0.00    -0.354 N 
ATOM      4  C   UNL A   1      32.963  28.760  23.994  1.00  0.00     0.254 C 
ATOM      5  O   UNL A   1      33.080  29.052  22.800  1.00  0.00    -0.272 OA
ATOM      6  H   UNL A   1      33.494  30.616  24.379  1.00  0.00     0.163 HD
BRANCH   4   7
ATOM      7  C   UNL A   1      32.665  27.316  24.473  1.00  0.00     0.212 C 
ATOM      8  C   UNL A   1      33.457  26.953  25.743  1.00  0.00     0.056 C 
BRANCH   7   9
ATOM      9  N   UNL A   1      33.133  26.488  23.302  1.00  0.00    -0.330 N 
ATOM     10  C   UNL A   1      33.656  25.319  22.841  1.00  0.00     0.257 C 
ATOM     11  O   UNL A   1      33.703  25.333  21.605  1.00  0.00    -0.269 OA
ATOM     12  H   UNL A   1      32.999  27.052  22.505  1.00  0.00     0.165 HD
BRANCH  10  13
ATOM     13  C   UNL A   1      34.153  24.116  23.566  1.00  0.00     0.101 A 
ATOM     14  C   UNL A   1      33.322  23.457  24.490  1.00  0.00     0.226 A 
ATOM     15  N   UNL A   1      33.682  22.372  25.229  1.00  0.00    -0.221 NA
ATOM     16  C   UNL A   1      34.928  21.899  25.069  1.00  0.00     0.115 A 
ATOM     17  C   UNL A   1      35.429  23.579  23.451  1.00  0.00     0.021 A 
ATOM     18  C   UNL A   1      35.829  22.463  24.194  1.00  0.00     0.021 A 
BRANCH  14  19
ATOM     19  O   UNL A   1      32.065  23.903  24.798  1.00  0.00    -0.480 OA
ATOM     20  C   UNL A   1      31.218  22.797  25.088  1.00  0.00     0.280 C 
ENDBRANCH  14  19
ENDBRANCH  10  13
ENDBRANCH   7   9
BRANCH   7  21
ATOM     21  C   UNL A   1      31.185  27.349  24.888  1.00  0.00     0.420 C 
ATOM     22  F   UNL A   1      30.992  27.327  26.222  1.00  0.00    -0.168 F 
ATOM     23  F   UNL A   1      30.588  28.473  24.406  1.00  0.00    -0.168 F 
ATOM     24  F   UNL A   1      30.482  26.319  24.352  1.00  0.00    -0.168 F 
ENDBRANCH   7  21
ENDBRANCH   4   7
ENDBRANCH   2   3
ENDBRANCH   1   2
BRANCH   1  25
ATOM     25  C   UNL A   1      31.629  32.023  26.757  1.00  0.00     0.023 C 
BRANCH  25  26
ATOM     26  C   UNL A   1      32.819  32.793  27.316  1.00  0.00     0.116 C 
BRANCH  26  27
ATOM     27  N   UNL A   1      32.489  34.163  27.673  1.00  0.00    -0.352 N 
ATOM     28  C   UNL A   1      33.043  34.966  28.645  1.00  0.00     0.251 C 
ATOM     29  H   UNL A   1      31.768  34.575  27.146  1.00  0.00     0.163 HD
ATOM     30  O   UNL A   1      32.551  36.056  28.900  1.00  0.00    -0.269 OA
BRANCH  28  31
ATOM     31  C   UNL A   1      34.217  34.486  29.403  1.00  0.00     0.039 A 
ATOM     32  C   UNL A   1      34.010  33.837  30.623  1.00  0.00     0.014 A 
ATOM     33  C   UNL A   1      35.511  34.653  28.903  1.00  0.00     0.014 A 
ATOM     34  C   UNL A   1      35.098  33.292  31.306  1.00  0.00     0.010 A 
ATOM     35  C   UNL A   1      36.584  34.041  29.546  1.00  0.00     0.010 A 
ATOM     36  C   UNL A   1      36.389  33.353  30.754  1.00  0.00    -0.014 A 
BRANCH  36  37
ATOM     37  C   UNL A   1      37.543  32.701  31.424  1.00  0.00     0.031 A 
ATOM     38  C   UNL A   1      38.238  31.539  30.767  1.00  0.00     0.074 A 
ATOM     39  C   UNL A   1      37.921  33.108  32.652  1.00  0.00     0.049 A 
ATOM     40  N   UNL A   1      39.213  30.793  31.223  1.00  0.00    -0.248 NA
ATOM     41  C   UNL A   1      37.757  31.145  29.433  1.00  0.00     0.031 C 
ATOM     42  C   UNL A   1      37.290  34.186  33.417  1.00  0.00     0.029 A 
ATOM     43  N   UNL A   1      38.916  32.654  33.482  1.00  0.00    -0.354 N 
ATOM     44  C   UNL A   1      39.445  29.835  30.244  1.00  0.00     0.074 A 
ATOM     45  C   UNL A   1      38.481  30.063  29.190  1.00  0.00     0.031 C 
ATOM     46  C   UNL A   1      37.922  34.319  34.594  1.00  0.00     0.029 A 
ATOM     47  C   UNL A   1      38.974  33.312  34.687  1.00  0.00     0.049 A 
ATOM     48  H   UNL A   1      39.530  31.924  33.237  1.00  0.00     0.167 HD
ATOM     49  C   UNL A   1      40.392  28.868  30.219  1.00  0.00     0.037 A 
ATOM     50  C   UNL A   1      39.775  33.116  35.751  1.00  0.00     0.037 A 
ATOM     51  C   UNL A   1      41.372  28.669  31.253  1.00  0.00     0.049 A 
ATOM     52  C   UNL A   1      40.824  32.036  35.690  1.00  0.00     0.074 A 
ATOM     53  C   UNL A   1      42.423  27.769  31.281  1.00  0.00     0.029 A 
ATOM     54  N   UNL A   1      41.420  29.378  32.444  1.00  0.00    -0.354 N 
ATOM     55  N   UNL A   1      41.091  31.195  34.720  1.00  0.00    -0.248 NA
ATOM     56  C   UNL A   1      41.690  31.884  36.867  1.00  0.00     0.031 C 
ATOM     57  C   UNL A   1      43.071  27.892  32.513  1.00  0.00     0.029 A 
ATOM     58  C   UNL A   1      42.466  28.914  33.225  1.00  0.00     0.049 A 
ATOM     59  H   UNL A   1      40.805  30.102  32.696  1.00  0.00     0.167 HD
ATOM     60  C   UNL A   1      42.172  30.440  35.156  1.00  0.00     0.074 A 
ATOM     61  C   UNL A   1      42.523  30.934  36.469  1.00  0.00     0.031 C 
ATOM     62  C   UNL A   1      42.814  29.427  34.526  1.00  0.00     0.037 A 
BRANCH  49  63
ATOM     63  C   UNL A   1      40.426  27.946  29.035  1.00  0.00     0.064 A 
ATOM     64  C   UNL A   1      39.673  26.763  28.998  1.00  0.00     0.173 A 
ATOM     65  C   UNL A   1      41.162  28.289  27.891  1.00  0.00     0.173 A 
ATOM     66  F   UNL A   1      38.959  26.383  30.070  1.00  0.00    -0.203 F 
ATOM     67  C   UNL A   1      39.668  25.950  27.867  1.00  0.00     0.198 A 
ATOM     68  C   UNL A   1      41.131  27.491  26.750  1.00  0.00     0.198 A 
ATOM     69  F   UNL A   1      41.896  29.412  27.870  1.00  0.00    -0.203 F 
ATOM     70  F   UNL A   1      38.968  24.808  27.869  1.00  0.00    -0.200 F 
ATOM     71  C   UNL A   1      40.387  26.321  26.741  1.00  0.00     0.200 A 
ATOM     72  F   UNL A   1      41.814  27.858  25.658  1.00  0.00    -0.200 F 
ATOM     73  F   UNL A   1      40.365  25.548  25.647  1.00  0.00    -0.200 F 
ENDBRANCH  49  63
BRANCH  50  74
ATOM     74  C   UNL A   1      39.625  33.957  36.971  1.00  0.00     0.064 A 
ATOM     75  C   UNL A   1      38.843  33.529  38.054  1.00  0.00     0.173 A 
ATOM     76  C   UNL A   1      40.227  35.220  37.063  1.00  0.00     0.173 A 
ATOM     77  F   UNL A   1      38.230  32.338  38.007  1.00  0.00    -0.203 F 
ATOM     78  C   UNL A   1      38.640  34.348  39.164  1.00  0.00     0.198 A 
ATOM     79  C   UNL A   1      40.053  36.023  38.189  1.00  0.00     0.198 A 
ATOM     80  F   UNL A   1      40.991  35.675  36.058  1.00  0.00    -0.203 F 
ATOM     81  F   UNL A   1      37.834  33.940  40.154  1.00  0.00    -0.200 F 
ATOM     82  C   UNL A   1      39.248  35.592  39.232  1.00  0.00     0.200 A 
ATOM     83  F   UNL A   1      40.655  37.217  38.257  1.00  0.00    -0.200 F 
ATOM     84  F   UNL A   1      39.048  36.381  40.296  1.00  0.00    -0.200 F 
ENDBRANCH  50  74
BRANCH  62  85
ATOM     85  C   UNL A   1      43.994  28.815  35.224  1.00  0.00     0.064 A 
ATOM     86  C   UNL A   1      45.286  29.346  35.100  1.00  0.00     0.173 A 
ATOM     87  C   UNL A   1      43.819  27.705  36.066  1.00  0.00     0.173 A 
ATOM     88  F   UNL A   1      45.508  30.399  34.297  1.00  0.00    -0.203 F 
ATOM     89  C   UNL A   1      46.364  28.773  35.770  1.00  0.00     0.198 A 
ATOM     90  C   UNL A   1      44.893  27.155  36.761  1.00  0.00     0.198 A 
ATOM     91  F   UNL A   1      42.602  27.162  36.227  1.00  0.00    -0.203 F 
ATOM     92  F   UNL A   1      47.597  29.266  35.594  1.00  0.00    -0.200 F 
ATOM     93  C   UNL A   1      46.165  27.684  36.606  1.00  0.00     0.200 A 
ATOM     94  F   UNL A   1      44.695  26.115  37.583  1.00  0.00    -0.200 F 
ATOM     95  F   UNL A   1      47.202  27.140  37.257  1.00  0.00    -0.200 F 
ENDBRANCH  62  85
ENDBRANCH  36  37
ENDBRANCH  28  31
ENDBRANCH  26  27
ENDBRANCH  25  26
ENDBRANCH   1  25
TORSDOF 15
ENDMDL
