MODEL 1
REMARK VINA RESULT:     -13.2      0.000      0.000
REMARK SMILES O=C(Cn1nc(C2CC2)c2c(C(F)F)cc(-c3ccc(Cl)cc3)nc21)NCCCCNC(=O)c1ccc(-c2c3nc(c(-c4c(F)c(F)c(F)c(F)c4F)c4ccc([nH]4)c(-c4c(F)c(F)c(F)c(F)c4F)c4nc(c(-c5c(F)c(F)c(F)c(F)c5F)c5ccc2[nH]5)C=C4)C=C3)cc1
REMARK SMILES IDX 28 1 27 2 26 3 1 4 2 5 3 7 4 8 5 9 25 10 6 11 10 12 24 13
REMARK SMILES IDX 11 14 16 15 15 16 7 17 8 18 9 19 12 20 13 21 14 22 17 23
REMARK SMILES IDX 18 24 23 25 19 26 22 27 20 28 21 29 29 30 30 31 31 32 32 33
REMARK SMILES IDX 33 35 34 36 35 37 96 38 36 39 95 40 37 41 38 42 39 43 89 44
REMARK SMILES IDX 40 45 94 46 88 47 90 48 41 49 93 50 87 51 86 52 42 54 74 55
REMARK SMILES IDX 54 56 73 57 55 58 58 59 72 60 91 61 56 62 57 63 71 65 92 66
REMARK SMILES IDX 59 67 43 68 44 69 52 70 45 71 46 72 50 73 53 74 47 75 48 76
REMARK SMILES IDX 51 77 49 78 75 79 76 80 84 81 77 82 78 83 82 84 85 85 79 86
REMARK SMILES IDX 80 87 83 88 81 89 60 90 61 91 69 92 62 93 63 94 67 95 70 96
REMARK SMILES IDX 64 97 65 98 68 99 66 100
REMARK H PARENT 26 6 31 34 90 53 58 64
REMARK Flexibility Score: inf
ROOT
ATOM      1  C   UNL A   1      41.230  21.192  27.445  1.00  0.00     0.023 C 
ENDROOT
BRANCH   1   2
ATOM      2  C   UNL A   1      40.383  21.689  26.271  1.00  0.00     0.116 C 
BRANCH   2   3
ATOM      3  N   UNL A   1      39.091  22.198  26.691  1.00  0.00    -0.354 N 
ATOM      4  O   UNL A   1      38.017  21.739  24.718  1.00  0.00    -0.273 OA
ATOM      5  C   UNL A   1      37.978  22.157  25.873  1.00  0.00     0.241 C 
ATOM      6  H   UNL A   1      39.004  22.586  27.592  1.00  0.00     0.163 HD
BRANCH   5   7
ATOM      7  C   UNL A   1      36.720  22.748  26.465  1.00  0.00     0.246 C 
BRANCH   7   8
ATOM      8  N   UNL A   1      35.708  23.002  25.460  1.00  0.00    -0.237 N 
ATOM      9  N   UNL A   1      35.520  24.240  24.998  1.00  0.00    -0.175 NA
ATOM     10  C   UNL A   1      34.812  22.096  24.967  1.00  0.00     0.159 A 
ATOM     11  C   UNL A   1      34.449  24.147  24.195  1.00  0.00     0.076 A 
ATOM     12  C   UNL A   1      33.960  22.797  24.098  1.00  0.00     0.051 A 
ATOM     13  N   UNL A   1      34.805  20.782  25.288  1.00  0.00    -0.228 NA
ATOM     14  C   UNL A   1      32.965  22.017  23.447  1.00  0.00     0.033 A 
ATOM     15  C   UNL A   1      33.825  20.086  24.689  1.00  0.00     0.073 A 
ATOM     16  C   UNL A   1      32.927  20.643  23.787  1.00  0.00     0.039 A 
BRANCH  11  17
ATOM     17  C   UNL A   1      33.979  25.486  23.632  1.00  0.00     0.041 C 
ATOM     18  C   UNL A   1      33.143  25.693  22.405  1.00  0.00     0.011 C 
ATOM     19  C   UNL A   1      32.518  25.854  23.751  1.00  0.00     0.011 C 
ENDBRANCH  11  17
BRANCH  14  20
ATOM     20  C   UNL A   1      31.982  22.454  22.391  1.00  0.00     0.373 C 
ATOM     21  F   UNL A   1      31.556  21.458  21.578  1.00  0.00    -0.205 F 
ATOM     22  F   UNL A   1      30.883  23.057  22.916  1.00  0.00    -0.205 F 
ENDBRANCH  14  20
BRANCH  15  23
ATOM     23  C   UNL A   1      33.726  18.659  25.012  1.00  0.00     0.000 A 
ATOM     24  C   UNL A   1      32.662  18.162  25.780  1.00  0.00     0.012 A 
ATOM     25  C   UNL A   1      34.629  17.741  24.451  1.00  0.00     0.012 A 
ATOM     26  C   UNL A   1      32.472  16.784  25.928  1.00  0.00     0.021 A 
ATOM     27  C   UNL A   1      34.438  16.365  24.589  1.00  0.00     0.021 A 
ATOM     28  C   UNL A   1      33.349  15.892  25.316  1.00  0.00     0.041 A 
ATOM     29  Cl  UNL A   1      33.076  14.199  25.434  1.00  0.00    -0.084 Cl
ENDBRANCH  15  23
ENDBRANCH   7   8
ENDBRANCH   5   7
ENDBRANCH   2   3
ENDBRANCH   1   2
BRANCH   1  30
ATOM     30  C   UNL A   1      42.224  20.066  27.119  1.00  0.00     0.023 C 
BRANCH  30  31
ATOM     31  C   UNL A   1      42.306  19.708  25.643  1.00  0.00     0.116 C 
BRANCH  31  32
ATOM     32  N   UNL A   1      43.678  19.610  25.155  1.00  0.00    -0.352 N 
ATOM     33  C   UNL A   1      44.529  20.640  24.825  1.00  0.00     0.251 C 
ATOM     34  H   UNL A   1      44.037  18.699  25.047  1.00  0.00     0.163 HD
ATOM     35  O   UNL A   1      45.487  20.451  24.073  1.00  0.00    -0.269 OA
BRANCH  33  36
ATOM     36  C   UNL A   1      44.302  21.980  25.394  1.00  0.00     0.039 A 
ATOM     37  C   UNL A   1      43.462  22.902  24.758  1.00  0.00     0.014 A 
ATOM     38  C   UNL A   1      44.982  22.330  26.560  1.00  0.00     0.014 A 
ATOM     39  C   UNL A   1      43.274  24.158  25.333  1.00  0.00     0.010 A 
ATOM     40  C   UNL A   1      44.713  23.522  27.185  1.00  0.00     0.010 A 
ATOM     41  C   UNL A   1      43.901  24.457  26.552  1.00  0.00    -0.014 A 
BRANCH  41  42
ATOM     42  C   UNL A   1      43.639  25.710  27.249  1.00  0.00     0.031 A 
ATOM     43  C   UNL A   1      44.583  26.807  26.910  1.00  0.00     0.074 A 
ATOM     44  C   UNL A   1      42.491  25.943  27.922  1.00  0.00     0.049 A 
ATOM     45  N   UNL A   1      45.490  27.347  27.655  1.00  0.00    -0.248 NA
ATOM     46  C   UNL A   1      44.613  27.276  25.518  1.00  0.00     0.031 C 
ATOM     47  C   UNL A   1      41.321  25.065  28.050  1.00  0.00     0.029 A 
ATOM     48  N   UNL A   1      42.092  27.073  28.568  1.00  0.00    -0.354 N 
ATOM     49  C   UNL A   1      46.073  28.352  26.882  1.00  0.00     0.074 A 
ATOM     50  C   UNL A   1      45.648  28.117  25.529  1.00  0.00     0.031 C 
ATOM     51  C   UNL A   1      40.276  25.766  28.548  1.00  0.00     0.029 A 
ATOM     52  C   UNL A   1      40.751  27.079  28.942  1.00  0.00     0.049 A 
ATOM     53  H   UNL A   1      42.701  27.823  28.755  1.00  0.00     0.167 HD
ATOM     54  C   UNL A   1      46.624  29.455  27.463  1.00  0.00     0.037 A 
ATOM     55  C   UNL A   1      40.094  28.099  29.543  1.00  0.00     0.037 A 
ATOM     56  C   UNL A   1      46.748  29.265  28.884  1.00  0.00     0.049 A 
ATOM     57  C   UNL A   1      41.119  28.953  30.180  1.00  0.00     0.074 A 
ATOM     58  C   UNL A   1      47.561  28.537  29.724  1.00  0.00     0.029 A 
ATOM     59  N   UNL A   1      45.624  29.600  29.592  1.00  0.00    -0.354 N 
ATOM     60  N   UNL A   1      41.856  28.566  31.182  1.00  0.00    -0.248 NA
ATOM     61  C   UNL A   1      41.579  30.149  29.487  1.00  0.00     0.031 C 
ATOM     62  C   UNL A   1      46.763  28.230  30.868  1.00  0.00     0.029 A 
ATOM     63  C   UNL A   1      45.510  28.822  30.713  1.00  0.00     0.049 A 
ATOM     64  H   UNL A   1      44.986  30.304  29.330  1.00  0.00     0.167 HD
ATOM     65  C   UNL A   1      43.067  29.198  30.980  1.00  0.00     0.074 A 
ATOM     66  C   UNL A   1      42.782  30.283  30.050  1.00  0.00     0.031 C 
ATOM     67  C   UNL A   1      44.230  28.585  31.339  1.00  0.00     0.037 A 
BRANCH  54  68
ATOM     68  C   UNL A   1      46.633  30.850  26.868  1.00  0.00     0.064 A 
ATOM     69  C   UNL A   1      47.833  31.594  26.872  1.00  0.00     0.173 A 
ATOM     70  C   UNL A   1      45.469  31.589  26.566  1.00  0.00     0.173 A 
ATOM     71  F   UNL A   1      48.999  31.009  27.184  1.00  0.00    -0.203 F 
ATOM     72  C   UNL A   1      47.853  32.974  26.637  1.00  0.00     0.198 A 
ATOM     73  C   UNL A   1      45.501  32.954  26.277  1.00  0.00     0.198 A 
ATOM     74  F   UNL A   1      44.243  31.058  26.653  1.00  0.00    -0.203 F 
ATOM     75  F   UNL A   1      49.000  33.655  26.762  1.00  0.00    -0.200 F 
ATOM     76  C   UNL A   1      46.687  33.652  26.337  1.00  0.00     0.200 A 
ATOM     77  F   UNL A   1      44.352  33.596  26.019  1.00  0.00    -0.200 F 
ATOM     78  F   UNL A   1      46.694  34.979  26.158  1.00  0.00    -0.200 F 
ENDBRANCH  54  68
BRANCH  55  79
ATOM     79  C   UNL A   1      38.685  28.536  29.449  1.00  0.00     0.064 A 
ATOM     80  C   UNL A   1      37.912  28.707  30.611  1.00  0.00     0.173 A 
ATOM     81  C   UNL A   1      38.192  29.126  28.271  1.00  0.00     0.173 A 
ATOM     82  F   UNL A   1      38.327  28.191  31.778  1.00  0.00    -0.203 F 
ATOM     83  C   UNL A   1      36.756  29.491  30.614  1.00  0.00     0.198 A 
ATOM     84  C   UNL A   1      37.033  29.906  28.275  1.00  0.00     0.198 A 
ATOM     85  F   UNL A   1      38.888  29.048  27.128  1.00  0.00    -0.203 F 
ATOM     86  F   UNL A   1      36.101  29.710  31.763  1.00  0.00    -0.200 F 
ATOM     87  C   UNL A   1      36.330  30.109  29.450  1.00  0.00     0.200 A 
ATOM     88  F   UNL A   1      36.646  30.529  27.152  1.00  0.00    -0.200 F 
ATOM     89  F   UNL A   1      35.276  30.935  29.472  1.00  0.00    -0.200 F 
ENDBRANCH  55  79
BRANCH  67  90
ATOM     90  C   UNL A   1      44.130  27.471  32.338  1.00  0.00     0.064 A 
ATOM     91  C   UNL A   1      44.140  26.105  32.015  1.00  0.00     0.173 A 
ATOM     92  C   UNL A   1      44.099  27.812  33.695  1.00  0.00     0.173 A 
ATOM     93  F   UNL A   1      44.244  25.697  30.745  1.00  0.00    -0.203 F 
ATOM     94  C   UNL A   1      44.081  25.126  33.006  1.00  0.00     0.198 A 
ATOM     95  C   UNL A   1      44.077  26.835  34.685  1.00  0.00     0.198 A 
ATOM     96  F   UNL A   1      44.130  29.104  34.062  1.00  0.00    -0.203 F 
ATOM     97  F   UNL A   1      44.072  23.828  32.671  1.00  0.00    -0.200 F 
ATOM     98  C   UNL A   1      44.057  25.494  34.341  1.00  0.00     0.200 A 
ATOM     99  F   UNL A   1      44.097  27.197  35.975  1.00  0.00    -0.200 F 
ATOM    100  F   UNL A   1      44.037  24.555  35.298  1.00  0.00    -0.200 F 
ENDBRANCH  67  90
ENDBRANCH  41  42
ENDBRANCH  33  36
ENDBRANCH  31  32
ENDBRANCH  30  31
ENDBRANCH   1  30
TORSDOF 15
ENDMDL
MODEL 2
REMARK VINA RESULT:     -13.1      2.301      3.868
REMARK SMILES O=C(Cn1nc(C2CC2)c2c(C(F)F)cc(-c3ccc(Cl)cc3)nc21)NCCCCNC(=O)c1ccc(-c2c3nc(c(-c4c(F)c(F)c(F)c(F)c4F)c4ccc([nH]4)c(-c4c(F)c(F)c(F)c(F)c4F)c4nc(c(-c5c(F)c(F)c(F)c(F)c5F)c5ccc2[nH]5)C=C4)C=C3)cc1
REMARK SMILES IDX 28 1 27 2 26 3 1 4 2 5 3 7 4 8 5 9 25 10 6 11 10 12 24 13
REMARK SMILES IDX 11 14 16 15 15 16 7 17 8 18 9 19 12 20 13 21 14 22 17 23
REMARK SMILES IDX 18 24 23 25 19 26 22 27 20 28 21 29 29 30 30 31 31 32 32 33
REMARK SMILES IDX 33 35 34 36 35 37 96 38 36 39 95 40 37 41 38 42 39 43 89 44
REMARK SMILES IDX 40 45 94 46 88 47 90 48 41 49 93 50 87 51 86 52 42 54 74 55
REMARK SMILES IDX 54 56 73 57 55 58 58 59 72 60 91 61 56 62 57 63 71 65 92 66
REMARK SMILES IDX 59 67 43 68 44 69 52 70 45 71 46 72 50 73 53 74 47 75 48 76
REMARK SMILES IDX 51 77 49 78 75 79 76 80 84 81 77 82 78 83 82 84 85 85 79 86
REMARK SMILES IDX 80 87 83 88 81 89 60 90 61 91 69 92 62 93 63 94 67 95 70 96
REMARK SMILES IDX 64 97 65 98 68 99 66 100
REMARK H PARENT 26 6 31 34 90 53 58 64
REMARK Flexibility Score: inf
ROOT
ATOM      1  C   UNL A   1      40.605  21.210  25.752  1.00  0.00     0.023 C 
ENDROOT
BRANCH   1   2
ATOM      2  C   UNL A   1      39.354  21.629  26.528  1.00  0.00     0.116 C 
BRANCH   2   3
ATOM      3  N   UNL A   1      38.282  22.078  25.660  1.00  0.00    -0.354 N 
ATOM      4  O   UNL A   1      38.050  24.139  26.639  1.00  0.00    -0.273 OA
ATOM      5  C   UNL A   1      37.720  23.336  25.768  1.00  0.00     0.241 C 
ATOM      6  H   UNL A   1      37.943  21.464  24.969  1.00  0.00     0.163 HD
BRANCH   5   7
ATOM      7  C   UNL A   1      36.602  23.629  24.795  1.00  0.00     0.246 C 
BRANCH   7   8
ATOM      8  N   UNL A   1      35.332  23.094  25.243  1.00  0.00    -0.237 N 
ATOM      9  N   UNL A   1      35.102  21.781  25.188  1.00  0.00    -0.175 NA
ATOM     10  C   UNL A   1      34.249  23.819  25.652  1.00  0.00     0.159 A 
ATOM     11  C   UNL A   1      33.817  21.643  25.547  1.00  0.00     0.076 A 
ATOM     12  C   UNL A   1      33.213  22.902  25.892  1.00  0.00     0.051 A 
ATOM     13  N   UNL A   1      34.242  25.166  25.787  1.00  0.00    -0.228 NA
ATOM     14  C   UNL A   1      31.993  23.460  26.366  1.00  0.00     0.033 A 
ATOM     15  C   UNL A   1      33.061  25.660  26.193  1.00  0.00     0.073 A 
ATOM     16  C   UNL A   1      31.958  24.869  26.492  1.00  0.00     0.039 A 
BRANCH  11  17
ATOM     17  C   UNL A   1      33.297  20.210  25.449  1.00  0.00     0.041 C 
ATOM     18  C   UNL A   1      32.453  19.642  24.349  1.00  0.00     0.011 C 
ATOM     19  C   UNL A   1      33.901  19.285  24.419  1.00  0.00     0.011 C 
ENDBRANCH  11  17
BRANCH  14  20
ATOM     20  C   UNL A   1      30.748  22.735  26.810  1.00  0.00     0.373 C 
ATOM     21  F   UNL A   1      29.737  23.548  27.201  1.00  0.00    -0.205 F 
ATOM     22  F   UNL A   1      30.259  21.899  25.855  1.00  0.00    -0.205 F 
ENDBRANCH  14  20
BRANCH  15  23
ATOM     23  C   UNL A   1      32.959  27.116  26.330  1.00  0.00     0.000 A 
ATOM     24  C   UNL A   1      31.803  27.716  26.853  1.00  0.00     0.012 A 
ATOM     25  C   UNL A   1      34.068  27.933  26.057  1.00  0.00     0.012 A 
ATOM     26  C   UNL A   1      31.781  29.082  27.153  1.00  0.00     0.021 A 
ATOM     27  C   UNL A   1      34.054  29.296  26.365  1.00  0.00     0.021 A 
ATOM     28  C   UNL A   1      32.913  29.861  26.926  1.00  0.00     0.041 A 
ATOM     29  Cl  UNL A   1      32.914  31.524  27.363  1.00  0.00    -0.084 Cl
ENDBRANCH  15  23
ENDBRANCH   7   8
ENDBRANCH   5   7
ENDBRANCH   2   3
ENDBRANCH   1   2
BRANCH   1  30
ATOM     30  C   UNL A   1      41.128  19.795  26.045  1.00  0.00     0.023 C 
BRANCH  30  31
ATOM     31  C   UNL A   1      42.501  19.757  26.699  1.00  0.00     0.116 C 
BRANCH  31  32
ATOM     32  N   UNL A   1      43.594  19.757  25.732  1.00  0.00    -0.352 N 
ATOM     33  C   UNL A   1      44.121  20.835  25.057  1.00  0.00     0.251 C 
ATOM     34  H   UNL A   1      44.004  18.882  25.539  1.00  0.00     0.163 HD
ATOM     35  O   UNL A   1      44.748  20.678  24.008  1.00  0.00    -0.269 OA
BRANCH  33  36
ATOM     36  C   UNL A   1      43.947  22.191  25.608  1.00  0.00     0.039 A 
ATOM     37  C   UNL A   1      43.211  23.162  24.918  1.00  0.00     0.014 A 
ATOM     38  C   UNL A   1      44.575  22.503  26.813  1.00  0.00     0.014 A 
ATOM     39  C   UNL A   1      43.071  24.431  25.478  1.00  0.00     0.010 A 
ATOM     40  C   UNL A   1      44.347  23.714  27.417  1.00  0.00     0.010 A 
ATOM     41  C   UNL A   1      43.639  24.697  26.732  1.00  0.00    -0.014 A 
BRANCH  41  42
ATOM     42  C   UNL A   1      43.418  25.968  27.408  1.00  0.00     0.031 A 
ATOM     43  C   UNL A   1      44.381  27.037  27.033  1.00  0.00     0.074 A 
ATOM     44  C   UNL A   1      42.287  26.241  28.095  1.00  0.00     0.049 A 
ATOM     45  N   UNL A   1      45.312  27.570  27.752  1.00  0.00    -0.248 NA
ATOM     46  C   UNL A   1      44.399  27.478  25.631  1.00  0.00     0.031 C 
ATOM     47  C   UNL A   1      41.099  25.393  28.260  1.00  0.00     0.029 A 
ATOM     48  N   UNL A   1      41.925  27.392  28.725  1.00  0.00    -0.354 N 
ATOM     49  C   UNL A   1      45.905  28.546  26.950  1.00  0.00     0.074 A 
ATOM     50  C   UNL A   1      45.453  28.295  25.609  1.00  0.00     0.031 C 
ATOM     51  C   UNL A   1      40.079  26.128  28.760  1.00  0.00     0.029 A 
ATOM     52  C   UNL A   1      40.591  27.437  29.120  1.00  0.00     0.049 A 
ATOM     53  H   UNL A   1      42.553  28.132  28.888  1.00  0.00     0.167 HD
ATOM     54  C   UNL A   1      46.490  29.647  27.500  1.00  0.00     0.037 A 
ATOM     55  C   UNL A   1      39.967  28.483  29.712  1.00  0.00     0.037 A 
ATOM     56  C   UNL A   1      46.634  29.482  28.922  1.00  0.00     0.049 A 
ATOM     57  C   UNL A   1      41.022  29.326  30.316  1.00  0.00     0.074 A 
ATOM     58  C   UNL A   1      47.444  28.751  29.763  1.00  0.00     0.029 A 
ATOM     59  N   UNL A   1      45.530  29.856  29.641  1.00  0.00    -0.354 N 
ATOM     60  N   UNL A   1      41.766  28.941  31.313  1.00  0.00    -0.248 NA
ATOM     61  C   UNL A   1      41.498  30.497  29.591  1.00  0.00     0.031 C 
ATOM     62  C   UNL A   1      46.659  28.485  30.926  1.00  0.00     0.029 A 
ATOM     63  C   UNL A   1      45.417  29.103  30.779  1.00  0.00     0.049 A 
ATOM     64  H   UNL A   1      44.904  30.569  29.376  1.00  0.00     0.167 HD
ATOM     65  C   UNL A   1      42.988  29.540  31.079  1.00  0.00     0.074 A 
ATOM     66  C   UNL A   1      42.713  30.614  30.133  1.00  0.00     0.031 C 
ATOM     67  C   UNL A   1      44.142  28.908  31.431  1.00  0.00     0.037 A 
BRANCH  54  68
ATOM     68  C   UNL A   1      46.521  31.029  26.877  1.00  0.00     0.064 A 
ATOM     69  C   UNL A   1      47.732  31.755  26.869  1.00  0.00     0.173 A 
ATOM     70  C   UNL A   1      45.369  31.779  26.558  1.00  0.00     0.173 A 
ATOM     71  F   UNL A   1      48.889  31.159  27.194  1.00  0.00    -0.203 F 
ATOM     72  C   UNL A   1      47.774  33.130  26.607  1.00  0.00     0.198 A 
ATOM     73  C   UNL A   1      45.422  33.138  26.243  1.00  0.00     0.198 A 
ATOM     74  F   UNL A   1      44.136  31.269  26.654  1.00  0.00    -0.203 F 
ATOM     75  F   UNL A   1      48.931  33.796  26.719  1.00  0.00    -0.200 F 
ATOM     76  C   UNL A   1      46.619  33.819  26.291  1.00  0.00     0.200 A 
ATOM     77  F   UNL A   1      44.283  33.792  25.970  1.00  0.00    -0.200 F 
ATOM     78  F   UNL A   1      46.646  35.142  26.086  1.00  0.00    -0.200 F 
ENDBRANCH  54  68
BRANCH  55  79
ATOM     79  C   UNL A   1      38.567  28.950  29.632  1.00  0.00     0.064 A 
ATOM     80  C   UNL A   1      37.803  29.117  30.801  1.00  0.00     0.173 A 
ATOM     81  C   UNL A   1      38.082  29.572  28.467  1.00  0.00     0.173 A 
ATOM     82  F   UNL A   1      38.212  28.571  31.956  1.00  0.00    -0.203 F 
ATOM     83  C   UNL A   1      36.663  29.924  30.823  1.00  0.00     0.198 A 
ATOM     84  C   UNL A   1      36.939  30.375  28.491  1.00  0.00     0.198 A 
ATOM     85  F   UNL A   1      38.771  29.500  27.320  1.00  0.00    -0.203 F 
ATOM     86  F   UNL A   1      36.017  30.136  31.979  1.00  0.00    -0.200 F 
ATOM     87  C   UNL A   1      36.245  30.571  29.673  1.00  0.00     0.200 A 
ATOM     88  F   UNL A   1      36.560  31.026  27.381  1.00  0.00    -0.200 F 
ATOM     89  F   UNL A   1      35.209  31.419  29.714  1.00  0.00    -0.200 F 
ENDBRANCH  55  79
BRANCH  67  90
ATOM     90  C   UNL A   1      44.034  27.816  32.453  1.00  0.00     0.064 A 
ATOM     91  C   UNL A   1      44.024  26.443  32.158  1.00  0.00     0.173 A 
ATOM     92  C   UNL A   1      44.015  28.185  33.803  1.00  0.00     0.173 A 
ATOM     93  F   UNL A   1      44.116  26.009  30.897  1.00  0.00    -0.203 F 
ATOM     94  C   UNL A   1      43.958  25.486  33.170  1.00  0.00     0.198 A 
ATOM     95  C   UNL A   1      43.986  27.230  34.813  1.00  0.00     0.198 A 
ATOM     96  F   UNL A   1      44.064  29.484  34.143  1.00  0.00    -0.203 F 
ATOM     97  F   UNL A   1      43.931  24.182  32.861  1.00  0.00    -0.200 F 
ATOM     98  C   UNL A   1      43.946  25.881  34.497  1.00  0.00     0.200 A 
ATOM     99  F   UNL A   1      44.017  27.618  36.095  1.00  0.00    -0.200 F 
ATOM    100  F   UNL A   1      43.920  24.963  35.473  1.00  0.00    -0.200 F 
ENDBRANCH  67  90
ENDBRANCH  41  42
ENDBRANCH  33  36
ENDBRANCH  31  32
ENDBRANCH  30  31
ENDBRANCH   1  30
TORSDOF 15
ENDMDL
MODEL 3
REMARK VINA RESULT:     -12.8      3.302      5.109
REMARK SMILES O=C(Cn1nc(C2CC2)c2c(C(F)F)cc(-c3ccc(Cl)cc3)nc21)NCCCCNC(=O)c1ccc(-c2c3nc(c(-c4c(F)c(F)c(F)c(F)c4F)c4ccc([nH]4)c(-c4c(F)c(F)c(F)c(F)c4F)c4nc(c(-c5c(F)c(F)c(F)c(F)c5F)c5ccc2[nH]5)C=C4)C=C3)cc1
REMARK SMILES IDX 28 1 27 2 26 3 1 4 2 5 3 7 4 8 5 9 25 10 6 11 10 12 24 13
REMARK SMILES IDX 11 14 16 15 15 16 7 17 8 18 9 19 12 20 13 21 14 22 17 23
REMARK SMILES IDX 18 24 23 25 19 26 22 27 20 28 21 29 29 30 30 31 31 32 32 33
REMARK SMILES IDX 33 35 34 36 35 37 96 38 36 39 95 40 37 41 38 42 39 43 89 44
REMARK SMILES IDX 40 45 94 46 88 47 90 48 41 49 93 50 87 51 86 52 42 54 74 55
REMARK SMILES IDX 54 56 73 57 55 58 58 59 72 60 91 61 56 62 57 63 71 65 92 66
REMARK SMILES IDX 59 67 43 68 44 69 52 70 45 71 46 72 50 73 53 74 47 75 48 76
REMARK SMILES IDX 51 77 49 78 75 79 76 80 84 81 77 82 78 83 82 84 85 85 79 86
REMARK SMILES IDX 80 87 83 88 81 89 60 90 61 91 69 92 62 93 63 94 67 95 70 96
REMARK SMILES IDX 64 97 65 98 68 99 66 100
REMARK H PARENT 26 6 31 34 90 53 58 64
REMARK Flexibility Score: inf
ROOT
ATOM      1  C   UNL A   1      38.826  20.850  25.714  1.00  0.00     0.023 C 
ENDROOT
BRANCH   1   2
ATOM      2  C   UNL A   1      37.800  20.819  24.579  1.00  0.00     0.116 C 
BRANCH   2   3
ATOM      3  N   UNL A   1      36.846  21.908  24.659  1.00  0.00    -0.354 N 
ATOM      4  O   UNL A   1      37.128  22.613  22.494  1.00  0.00    -0.273 OA
ATOM      5  C   UNL A   1      36.558  22.721  23.578  1.00  0.00     0.241 C 
ATOM      6  H   UNL A   1      36.387  22.075  25.513  1.00  0.00     0.163 HD
BRANCH   5   7
ATOM      7  C   UNL A   1      35.554  23.817  23.845  1.00  0.00     0.246 C 
BRANCH   7   8
ATOM      8  N   UNL A   1      34.354  23.317  24.485  1.00  0.00    -0.237 N 
ATOM      9  N   UNL A   1      33.960  22.059  24.279  1.00  0.00    -0.175 NA
ATOM     10  C   UNL A   1      33.479  24.043  25.243  1.00  0.00     0.159 A 
ATOM     11  C   UNL A   1      32.775  21.965  24.900  1.00  0.00     0.076 A 
ATOM     12  C   UNL A   1      32.415  23.187  25.570  1.00  0.00     0.051 A 
ATOM     13  N   UNL A   1      33.664  25.339  25.586  1.00  0.00    -0.228 NA
ATOM     14  C   UNL A   1      31.402  23.749  26.394  1.00  0.00     0.033 A 
ATOM     15  C   UNL A   1      32.667  25.848  26.326  1.00  0.00     0.073 A 
ATOM     16  C   UNL A   1      31.566  25.110  26.746  1.00  0.00     0.039 A 
BRANCH  11  17
ATOM     17  C   UNL A   1      32.076  20.621  24.701  1.00  0.00     0.041 C 
ATOM     18  C   UNL A   1      32.565  19.477  23.867  1.00  0.00     0.011 C 
ATOM     19  C   UNL A   1      32.663  19.391  25.354  1.00  0.00     0.011 C 
ENDBRANCH  11  17
BRANCH  14  20
ATOM     20  C   UNL A   1      30.203  23.061  26.995  1.00  0.00     0.373 C 
ATOM     21  F   UNL A   1      29.154  23.882  27.244  1.00  0.00    -0.205 F 
ATOM     22  F   UNL A   1      29.749  22.033  26.229  1.00  0.00    -0.205 F 
ENDBRANCH  14  20
BRANCH  15  23
ATOM     23  C   UNL A   1      32.773  27.259  26.711  1.00  0.00     0.000 A 
ATOM     24  C   UNL A   1      33.968  27.972  26.529  1.00  0.00     0.012 A 
ATOM     25  C   UNL A   1      31.639  27.960  27.153  1.00  0.00     0.012 A 
ATOM     26  C   UNL A   1      34.009  29.356  26.723  1.00  0.00     0.021 A 
ATOM     27  C   UNL A   1      31.674  29.344  27.338  1.00  0.00     0.021 A 
ATOM     28  C   UNL A   1      32.857  30.039  27.108  1.00  0.00     0.041 A 
ATOM     29  Cl  UNL A   1      32.886  31.749  27.275  1.00  0.00    -0.084 Cl
ENDBRANCH  15  23
ENDBRANCH   7   8
ENDBRANCH   5   7
ENDBRANCH   2   3
ENDBRANCH   1   2
BRANCH   1  30
ATOM     30  C   UNL A   1      39.166  22.242  26.267  1.00  0.00     0.023 C 
BRANCH  30  31
ATOM     31  C   UNL A   1      40.415  22.285  27.135  1.00  0.00     0.116 C 
BRANCH  31  32
ATOM     32  N   UNL A   1      41.648  22.369  26.358  1.00  0.00    -0.352 N 
ATOM     33  C   UNL A   1      42.315  23.505  25.959  1.00  0.00     0.251 C 
ATOM     34  H   UNL A   1      42.049  21.512  26.087  1.00  0.00     0.163 HD
ATOM     35  O   UNL A   1      43.095  23.476  25.006  1.00  0.00    -0.269 OA
BRANCH  33  36
ATOM     36  C   UNL A   1      42.107  24.765  26.694  1.00  0.00     0.039 A 
ATOM     37  C   UNL A   1      42.739  25.000  27.921  1.00  0.00     0.014 A 
ATOM     38  C   UNL A   1      41.224  25.705  26.162  1.00  0.00     0.014 A 
ATOM     39  C   UNL A   1      42.514  26.207  28.580  1.00  0.00     0.010 A 
ATOM     40  C   UNL A   1      41.087  26.936  26.753  1.00  0.00     0.010 A 
ATOM     41  C   UNL A   1      41.689  27.173  27.985  1.00  0.00    -0.014 A 
BRANCH  41  42
ATOM     42  C   UNL A   1      41.522  28.493  28.579  1.00  0.00     0.031 A 
ATOM     43  C   UNL A   1      42.571  29.474  28.195  1.00  0.00     0.074 A 
ATOM     44  C   UNL A   1      40.381  28.877  29.192  1.00  0.00     0.049 A 
ATOM     45  N   UNL A   1      43.501  29.986  28.930  1.00  0.00    -0.248 NA
ATOM     46  C   UNL A   1      42.685  29.831  26.774  1.00  0.00     0.031 C 
ATOM     47  C   UNL A   1      39.132  28.119  29.341  1.00  0.00     0.029 A 
ATOM     48  N   UNL A   1      40.068  30.085  29.738  1.00  0.00    -0.354 N 
ATOM     49  C   UNL A   1      44.196  30.874  28.107  1.00  0.00     0.074 A 
ATOM     50  C   UNL A   1      43.792  30.575  26.761  1.00  0.00     0.031 C 
ATOM     51  C   UNL A   1      38.142  28.946  29.749  1.00  0.00     0.029 A 
ATOM     52  C   UNL A   1      38.723  30.238  30.062  1.00  0.00     0.049 A 
ATOM     53  H   UNL A   1      40.737  30.790  29.892  1.00  0.00     0.167 HD
ATOM     54  C   UNL A   1      44.828  31.964  28.625  1.00  0.00     0.037 A 
ATOM     55  C   UNL A   1      38.144  31.354  30.563  1.00  0.00     0.037 A 
ATOM     56  C   UNL A   1      44.893  31.873  30.060  1.00  0.00     0.049 A 
ATOM     57  C   UNL A   1      39.224  32.161  31.173  1.00  0.00     0.074 A 
ATOM     58  C   UNL A   1      45.611  31.141  30.979  1.00  0.00     0.029 A 
ATOM     59  N   UNL A   1      43.784  32.359  30.701  1.00  0.00    -0.354 N 
ATOM     60  N   UNL A   1      39.892  31.787  32.226  1.00  0.00    -0.248 NA
ATOM     61  C   UNL A   1      39.811  33.255  30.411  1.00  0.00     0.031 C 
ATOM     62  C   UNL A   1      44.756  30.994  32.114  1.00  0.00     0.029 A 
ATOM     63  C   UNL A   1      43.567  31.682  31.870  1.00  0.00     0.049 A 
ATOM     64  H   UNL A   1      43.221  33.094  30.366  1.00  0.00     0.167 HD
ATOM     65  C   UNL A   1      41.161  32.292  32.022  1.00  0.00     0.074 A 
ATOM     66  C   UNL A   1      41.004  33.324  31.006  1.00  0.00     0.031 C 
ATOM     67  C   UNL A   1      42.253  31.608  32.466  1.00  0.00     0.037 A 
BRANCH  54  68
ATOM     68  C   UNL A   1      44.981  33.303  27.930  1.00  0.00     0.064 A 
ATOM     69  C   UNL A   1      46.274  33.768  27.605  1.00  0.00     0.173 A 
ATOM     70  C   UNL A   1      43.956  34.268  27.836  1.00  0.00     0.173 A 
ATOM     71  F   UNL A   1      47.336  32.953  27.695  1.00  0.00    -0.203 F 
ATOM     72  C   UNL A   1      46.521  35.102  27.259  1.00  0.00     0.198 A 
ATOM     73  C   UNL A   1      44.197  35.583  27.436  1.00  0.00     0.198 A 
ATOM     74  F   UNL A   1      42.703  34.021  28.239  1.00  0.00    -0.203 F 
ATOM     75  F   UNL A   1      47.779  35.520  27.067  1.00  0.00    -0.200 F 
ATOM     76  C   UNL A   1      45.481  36.007  27.172  1.00  0.00     0.200 A 
ATOM     77  F   UNL A   1      43.176  36.452  27.390  1.00  0.00    -0.200 F 
ATOM     78  F   UNL A   1      45.717  37.295  26.887  1.00  0.00    -0.200 F 
ENDBRANCH  54  68
BRANCH  55  79
ATOM     79  C   UNL A   1      36.783  31.906  30.387  1.00  0.00     0.064 A 
ATOM     80  C   UNL A   1      35.880  31.934  31.464  1.00  0.00     0.173 A 
ATOM     81  C   UNL A   1      36.477  32.725  29.285  1.00  0.00     0.173 A 
ATOM     82  F   UNL A   1      36.115  31.196  32.559  1.00  0.00    -0.203 F 
ATOM     83  C   UNL A   1      34.777  32.790  31.474  1.00  0.00     0.198 A 
ATOM     84  C   UNL A   1      35.371  33.578  29.295  1.00  0.00     0.198 A 
ATOM     85  F   UNL A   1      37.307  32.792  28.235  1.00  0.00    -0.203 F 
ATOM     86  F   UNL A   1      33.994  32.859  32.560  1.00  0.00    -0.200 F 
ATOM     87  C   UNL A   1      34.536  33.629  30.399  1.00  0.00     0.200 A 
ATOM     88  F   UNL A   1      35.164  34.411  28.265  1.00  0.00    -0.200 F 
ATOM     89  F   UNL A   1      33.534  34.517  30.446  1.00  0.00    -0.200 F 
ENDBRANCH  55  79
BRANCH  67  90
ATOM     90  C   UNL A   1      42.023  30.586  33.540  1.00  0.00     0.064 A 
ATOM     91  C   UNL A   1      41.749  29.229  33.306  1.00  0.00     0.173 A 
ATOM     92  C   UNL A   1      42.163  30.995  34.871  1.00  0.00     0.173 A 
ATOM     93  F   UNL A   1      41.675  28.745  32.062  1.00  0.00    -0.203 F 
ATOM     94  C   UNL A   1      41.584  28.332  34.360  1.00  0.00     0.198 A 
ATOM     95  C   UNL A   1      42.035  30.093  35.921  1.00  0.00     0.198 A 
ATOM     96  F   UNL A   1      42.466  32.274  35.150  1.00  0.00    -0.203 F 
ATOM     97  F   UNL A   1      41.304  27.045  34.112  1.00  0.00    -0.200 F 
ATOM     98  C   UNL A   1      41.734  28.764  35.667  1.00  0.00     0.200 A 
ATOM     99  F   UNL A   1      42.223  30.509  37.181  1.00  0.00    -0.200 F 
ATOM    100  F   UNL A   1      41.612  27.897  36.682  1.00  0.00    -0.200 F 
ENDBRANCH  67  90
ENDBRANCH  41  42
ENDBRANCH  33  36
ENDBRANCH  31  32
ENDBRANCH  30  31
ENDBRANCH   1  30
TORSDOF 15
ENDMDL
