MODEL 1
REMARK VINA RESULT:     -12.1      0.000      0.000
REMARK SMILES N#CCC(=O)N/N=C/c1ccc(OCc2ccc(C(=O)NCCCCNC(=O)c3ccc(-c4c5nc(c(-c6c(F)c(F)c(F)c(F)c6F)c6ccc([nH]6)c(-c6c(F)c(F)c(F)c(F)c6F)c6nc(c(-c7c(F)c(F)c(F)c(F)c7F)c7ccc4[nH]7)C=C6)C=C5)cc3)cc2)c(Br)c1
REMARK SMILES IDX 19 1 20 2 21 3 18 5 15 6 16 7 93 8 17 9 92 10 14 11 13 12
REMARK SMILES IDX 12 13 9 14 10 15 96 16 11 17 94 18 95 19 8 20 7 21 6 22 4 23
REMARK SMILES IDX 5 24 3 26 2 27 1 28 22 29 23 30 24 31 25 32 26 33 27 34
REMARK SMILES IDX 28 36 29 37 30 38 91 39 31 40 90 41 32 42 33 43 34 44 84 45
REMARK SMILES IDX 35 46 89 47 83 48 85 49 36 50 88 51 82 52 81 53 37 55 69 56
REMARK SMILES IDX 49 57 68 58 50 59 53 60 67 61 86 62 51 63 52 64 66 66 87 67
REMARK SMILES IDX 54 68 38 69 39 70 47 71 40 72 41 73 45 74 48 75 42 76 43 77
REMARK SMILES IDX 46 78 44 79 70 80 71 81 79 82 72 83 73 84 77 85 80 86 74 87
REMARK SMILES IDX 75 88 78 89 76 90 55 91 56 92 64 93 57 94 58 95 62 96 65 97
REMARK SMILES IDX 59 98 60 99 63 100 61 101
REMARK H PARENT 21 4 6 25 26 35 85 54 53 65
REMARK Flexibility Score: inf
ROOT
ATOM      1  C   UNL A   1      33.720  28.652  23.838  1.00  0.00     0.251 C 
ATOM      2  O   UNL A   1      34.338  28.888  22.799  1.00  0.00    -0.269 OA
ATOM      3  N   UNL A   1      33.576  29.698  24.716  1.00  0.00    -0.352 N 
ATOM      4  H   UNL A   1      34.015  30.526  24.415  1.00  0.00     0.163 HD
ENDROOT
BRANCH   1   5
ATOM      5  C   UNL A   1      33.166  27.281  24.054  1.00  0.00     0.039 A 
ATOM      6  C   UNL A   1      32.175  24.616  24.267  1.00  0.00    -0.011 A 
ATOM      7  C   UNL A   1      32.301  25.243  23.018  1.00  0.00     0.008 A 
ATOM      8  C   UNL A   1      32.498  25.366  25.397  1.00  0.00     0.008 A 
ATOM      9  C   UNL A   1      32.775  26.559  22.916  1.00  0.00     0.014 A 
ATOM     10  C   UNL A   1      33.044  26.648  25.288  1.00  0.00     0.014 A 
BRANCH   6  11
ATOM     11  C   UNL A   1      31.751  23.158  24.308  1.00  0.00     0.265 C 
BRANCH  11  12
ATOM     12  O   UNL A   1      32.737  22.124  24.400  1.00  0.00    -0.488 OA
BRANCH  12  13
ATOM     13  C   UNL A   1      34.018  22.349  24.808  1.00  0.00     0.134 A 
ATOM     14  C   UNL A   1      36.797  22.592  25.144  1.00  0.00    -0.004 A 
ATOM     15  C   UNL A   1      36.259  22.600  23.864  1.00  0.00     0.013 A 
ATOM     16  C   UNL A   1      35.958  22.514  26.259  1.00  0.00     0.029 A 
ATOM     17  C   UNL A   1      34.878  22.506  23.706  1.00  0.00     0.048 A 
ATOM     18  C   UNL A   1      34.565  22.393  26.098  1.00  0.00     0.060 A 
ATOM     19  Br  UNL A   1      33.553  22.340  27.703  1.00  0.00    -0.047 Br
BRANCH  14  20
ATOM     20  C   UNL A   1      38.262  22.691  25.265  1.00  0.00     0.141 C 
ATOM     21  N   UNL A   1      38.942  21.868  25.997  1.00  0.00    -0.181 NA
BRANCH  21  22
ATOM     22  N   UNL A   1      40.279  22.113  26.047  1.00  0.00    -0.246 N 
ATOM     23  C   UNL A   1      41.232  21.156  26.313  1.00  0.00     0.254 C 
ATOM     24  O   UNL A   1      42.385  21.505  26.583  1.00  0.00    -0.272 OA
ATOM     25  H   UNL A   1      40.584  23.034  25.882  1.00  0.00     0.193 HD
BRANCH  23  26
ATOM     26  C   UNL A   1      40.886  19.699  26.134  1.00  0.00     0.221 C 
BRANCH  26  27
ATOM     27  C   UNL A   1      42.121  18.840  25.918  1.00  0.00     0.072 C 
ATOM     28  N   UNL A   1      43.145  18.128  25.740  1.00  0.00    -0.198 NA
ENDBRANCH  26  27
ENDBRANCH  23  26
ENDBRANCH  21  22
ENDBRANCH  14  20
ENDBRANCH  12  13
ENDBRANCH  11  12
ENDBRANCH   6  11
ENDBRANCH   1   5
BRANCH   3  29
ATOM     29  C   UNL A   1      32.908  29.828  25.993  1.00  0.00     0.116 C 
BRANCH  29  30
ATOM     30  C   UNL A   1      31.722  30.792  25.894  1.00  0.00     0.023 C 
BRANCH  30  31
ATOM     31  C   UNL A   1      31.611  31.763  27.073  1.00  0.00     0.023 C 
BRANCH  31  32
ATOM     32  C   UNL A   1      32.812  32.689  27.247  1.00  0.00     0.116 C 
BRANCH  32  33
ATOM     33  N   UNL A   1      32.442  34.058  27.570  1.00  0.00    -0.352 N 
ATOM     34  C   UNL A   1      32.986  34.886  28.523  1.00  0.00     0.251 C 
ATOM     35  H   UNL A   1      31.708  34.440  27.037  1.00  0.00     0.163 HD
ATOM     36  O   UNL A   1      32.490  35.981  28.749  1.00  0.00    -0.269 OA
BRANCH  34  37
ATOM     37  C   UNL A   1      34.148  34.414  29.306  1.00  0.00     0.039 A 
ATOM     38  C   UNL A   1      33.914  33.771  30.524  1.00  0.00     0.014 A 
ATOM     39  C   UNL A   1      35.449  34.568  28.824  1.00  0.00     0.014 A 
ATOM     40  C   UNL A   1      34.986  33.216  31.223  1.00  0.00     0.010 A 
ATOM     41  C   UNL A   1      36.508  33.958  29.489  1.00  0.00     0.010 A 
ATOM     42  C   UNL A   1      36.285  33.270  30.692  1.00  0.00    -0.014 A 
BRANCH  42  43
ATOM     43  C   UNL A   1      37.416  32.590  31.370  1.00  0.00     0.031 A 
ATOM     44  C   UNL A   1      38.092  31.415  30.725  1.00  0.00     0.074 A 
ATOM     45  C   UNL A   1      37.789  32.997  32.598  1.00  0.00     0.049 A 
ATOM     46  N   UNL A   1      39.069  30.671  31.180  1.00  0.00    -0.248 NA
ATOM     47  C   UNL A   1      37.587  31.001  29.407  1.00  0.00     0.031 C 
ATOM     48  C   UNL A   1      37.167  34.087  33.353  1.00  0.00     0.029 A 
ATOM     49  N   UNL A   1      38.777  32.537  33.433  1.00  0.00    -0.354 N 
ATOM     50  C   UNL A   1      39.288  29.702  30.212  1.00  0.00     0.074 A 
ATOM     51  C   UNL A   1      38.308  29.915  29.169  1.00  0.00     0.031 C 
ATOM     52  C   UNL A   1      37.802  34.226  34.527  1.00  0.00     0.029 A 
ATOM     53  C   UNL A   1      38.854  33.219  34.622  1.00  0.00     0.049 A 
ATOM     54  H   UNL A   1      39.373  31.789  33.201  1.00  0.00     0.167 HD
ATOM     55  C   UNL A   1      40.237  28.736  30.184  1.00  0.00     0.037 A 
ATOM     56  C   UNL A   1      39.681  33.050  35.671  1.00  0.00     0.037 A 
ATOM     57  C   UNL A   1      41.226  28.541  31.213  1.00  0.00     0.049 A 
ATOM     58  C   UNL A   1      40.732  31.975  35.609  1.00  0.00     0.074 A 
ATOM     59  C   UNL A   1      42.272  27.635  31.245  1.00  0.00     0.029 A 
ATOM     60  N   UNL A   1      41.287  29.265  32.395  1.00  0.00    -0.354 N 
ATOM     61  N   UNL A   1      40.983  31.117  34.652  1.00  0.00    -0.248 NA
ATOM     62  C   UNL A   1      41.621  31.853  36.773  1.00  0.00     0.031 C 
ATOM     63  C   UNL A   1      42.940  27.782  32.465  1.00  0.00     0.029 A 
ATOM     64  C   UNL A   1      42.340  28.812  33.173  1.00  0.00     0.049 A 
ATOM     65  H   UNL A   1      40.674  29.994  32.643  1.00  0.00     0.167 HD
ATOM     66  C   UNL A   1      42.069  30.369  35.084  1.00  0.00     0.074 A 
ATOM     67  C   UNL A   1      42.443  30.889  36.383  1.00  0.00     0.031 C 
ATOM     68  C   UNL A   1      42.698  29.342  34.464  1.00  0.00     0.037 A 
BRANCH  55  69
ATOM     69  C   UNL A   1      40.259  27.818  28.996  1.00  0.00     0.064 A 
ATOM     70  C   UNL A   1      39.533  26.618  28.983  1.00  0.00     0.173 A 
ATOM     71  C   UNL A   1      40.982  28.161  27.844  1.00  0.00     0.173 A 
ATOM     72  F   UNL A   1      38.835  26.239  30.064  1.00  0.00    -0.203 F 
ATOM     73  C   UNL A   1      39.551  25.782  27.870  1.00  0.00     0.198 A 
ATOM     74  C   UNL A   1      40.975  27.336  26.722  1.00  0.00     0.198 A 
ATOM     75  F   UNL A   1      41.690  29.300  27.802  1.00  0.00    -0.203 F 
ATOM     76  F   UNL A   1      38.887  24.618  27.898  1.00  0.00    -0.200 F 
ATOM     77  C   UNL A   1      40.265  26.144  26.738  1.00  0.00     0.200 A 
ATOM     78  F   UNL A   1      41.657  27.693  25.624  1.00  0.00    -0.200 F 
ATOM     79  F   UNL A   1      40.276  25.342  25.665  1.00  0.00    -0.200 F 
ENDBRANCH  55  69
BRANCH  56  80
ATOM     80  C   UNL A   1      39.569  33.938  36.857  1.00  0.00     0.064 A 
ATOM     81  C   UNL A   1      40.213  35.183  36.886  1.00  0.00     0.173 A 
ATOM     82  C   UNL A   1      38.824  33.562  37.984  1.00  0.00     0.173 A 
ATOM     83  F   UNL A   1      40.953  35.577  35.838  1.00  0.00    -0.203 F 
ATOM     84  C   UNL A   1      40.135  36.008  38.004  1.00  0.00     0.198 A 
ATOM     85  C   UNL A   1      38.725  34.400  39.092  1.00  0.00     0.198 A 
ATOM     86  F   UNL A   1      38.185  32.383  38.003  1.00  0.00    -0.203 F 
ATOM     87  F   UNL A   1      40.798  37.172  38.022  1.00  0.00    -0.200 F 
ATOM     88  C   UNL A   1      39.386  35.619  39.105  1.00  0.00     0.200 A 
ATOM     89  F   UNL A   1      37.989  34.026  40.148  1.00  0.00    -0.200 F 
ATOM     90  F   UNL A   1      39.310  36.414  40.181  1.00  0.00    -0.200 F 
ENDBRANCH  56  80
BRANCH  68  91
ATOM     91  C   UNL A   1      43.871  28.729  35.173  1.00  0.00     0.064 A 
ATOM     92  C   UNL A   1      45.182  29.169  34.939  1.00  0.00     0.173 A 
ATOM     93  C   UNL A   1      43.677  27.709  36.117  1.00  0.00     0.173 A 
ATOM     94  F   UNL A   1      45.420  30.130  34.034  1.00  0.00    -0.203 F 
ATOM     95  C   UNL A   1      46.259  28.589  35.603  1.00  0.00     0.198 A 
ATOM     96  C   UNL A   1      44.754  27.153  36.801  1.00  0.00     0.198 A 
ATOM     97  F   UNL A   1      42.442  27.258  36.381  1.00  0.00    -0.203 F 
ATOM     98  F   UNL A   1      47.507  28.990  35.327  1.00  0.00    -0.200 F 
ATOM     99  C   UNL A   1      46.044  27.587  36.538  1.00  0.00     0.200 A 
ATOM    100  F   UNL A   1      44.543  26.193  37.712  1.00  0.00    -0.200 F 
ATOM    101  F   UNL A   1      47.082  27.034  37.180  1.00  0.00    -0.200 F 
ENDBRANCH  68  91
ENDBRANCH  42  43
ENDBRANCH  34  37
ENDBRANCH  32  33
ENDBRANCH  31  32
ENDBRANCH  30  31
ENDBRANCH  29  30
ENDBRANCH   3  29
TORSDOF 18
ENDMDL
MODEL 2
REMARK VINA RESULT:     -12.0      0.568      7.136
REMARK SMILES N#CCC(=O)N/N=C/c1ccc(OCc2ccc(C(=O)NCCCCNC(=O)c3ccc(-c4c5nc(c(-c6c(F)c(F)c(F)c(F)c6F)c6ccc([nH]6)c(-c6c(F)c(F)c(F)c(F)c6F)c6nc(c(-c7c(F)c(F)c(F)c(F)c7F)c7ccc4[nH]7)C=C6)C=C5)cc3)cc2)c(Br)c1
REMARK SMILES IDX 19 1 20 2 21 3 18 5 15 6 16 7 93 8 17 9 92 10 14 11 13 12
REMARK SMILES IDX 12 13 9 14 10 15 96 16 11 17 94 18 95 19 8 20 7 21 6 22 4 23
REMARK SMILES IDX 5 24 3 26 2 27 1 28 22 29 23 30 24 31 25 32 26 33 27 34
REMARK SMILES IDX 28 36 29 37 30 38 91 39 31 40 90 41 32 42 33 43 34 44 84 45
REMARK SMILES IDX 35 46 89 47 83 48 85 49 36 50 88 51 82 52 81 53 37 55 69 56
REMARK SMILES IDX 49 57 68 58 50 59 53 60 67 61 86 62 51 63 52 64 66 66 87 67
REMARK SMILES IDX 54 68 38 69 39 70 47 71 40 72 41 73 45 74 48 75 42 76 43 77
REMARK SMILES IDX 46 78 44 79 70 80 71 81 79 82 72 83 73 84 77 85 80 86 74 87
REMARK SMILES IDX 75 88 78 89 76 90 55 91 56 92 64 93 57 94 58 95 62 96 65 97
REMARK SMILES IDX 59 98 60 99 63 100 61 101
REMARK H PARENT 21 4 6 25 26 35 85 54 53 65
REMARK Flexibility Score: inf
ROOT
ATOM      1  C   UNL A   1      33.668  28.657  23.778  1.00  0.00     0.251 C 
ATOM      2  O   UNL A   1      34.325  28.934  22.773  1.00  0.00    -0.269 OA
ATOM      3  N   UNL A   1      33.393  29.693  24.635  1.00  0.00    -0.352 N 
ATOM      4  H   UNL A   1      33.783  30.551  24.352  1.00  0.00     0.163 HD
ENDROOT
BRANCH   1   5
ATOM      5  C   UNL A   1      33.210  27.247  23.976  1.00  0.00     0.039 A 
ATOM      6  C   UNL A   1      32.388  24.523  24.148  1.00  0.00    -0.011 A 
ATOM      7  C   UNL A   1      32.376  25.205  22.922  1.00  0.00     0.008 A 
ATOM      8  C   UNL A   1      32.760  25.245  25.281  1.00  0.00     0.008 A 
ATOM      9  C   UNL A   1      32.767  26.550  22.841  1.00  0.00     0.014 A 
ATOM     10  C   UNL A   1      33.224  26.560  25.186  1.00  0.00     0.014 A 
BRANCH   6  11
ATOM     11  C   UNL A   1      32.049  23.042  24.157  1.00  0.00     0.265 C 
BRANCH  11  12
ATOM     12  O   UNL A   1      33.090  22.065  24.049  1.00  0.00    -0.488 OA
BRANCH  12  13
ATOM     13  C   UNL A   1      34.342  22.250  24.558  1.00  0.00     0.134 A 
ATOM     14  C   UNL A   1      37.091  22.500  25.080  1.00  0.00    -0.004 A 
ATOM     15  C   UNL A   1      36.616  22.712  23.793  1.00  0.00     0.013 A 
ATOM     16  C   UNL A   1      36.201  22.212  26.119  1.00  0.00     0.029 A 
ATOM     17  C   UNL A   1      35.249  22.613  23.547  1.00  0.00     0.048 A 
ATOM     18  C   UNL A   1      34.823  22.087  25.865  1.00  0.00     0.060 A 
ATOM     19  Br  UNL A   1      33.735  21.736  27.380  1.00  0.00    -0.047 Br
BRANCH  14  20
ATOM     20  C   UNL A   1      38.544  22.613  25.295  1.00  0.00     0.141 C 
ATOM     21  N   UNL A   1      39.214  21.694  25.914  1.00  0.00    -0.181 NA
BRANCH  21  22
ATOM     22  N   UNL A   1      40.538  21.959  26.077  1.00  0.00    -0.246 N 
ATOM     23  C   UNL A   1      41.478  21.020  26.437  1.00  0.00     0.254 C 
ATOM     24  O   UNL A   1      42.598  21.389  26.801  1.00  0.00    -0.272 OA
ATOM     25  H   UNL A   1      40.844  22.884  25.928  1.00  0.00     0.193 HD
BRANCH  23  26
ATOM     26  C   UNL A   1      41.169  19.557  26.246  1.00  0.00     0.221 C 
BRANCH  26  27
ATOM     27  C   UNL A   1      42.425  18.733  26.009  1.00  0.00     0.072 C 
ATOM     28  N   UNL A   1      43.466  18.051  25.813  1.00  0.00    -0.198 NA
ENDBRANCH  26  27
ENDBRANCH  23  26
ENDBRANCH  21  22
ENDBRANCH  14  20
ENDBRANCH  12  13
ENDBRANCH  11  12
ENDBRANCH   6  11
ENDBRANCH   1   5
BRANCH   3  29
ATOM     29  C   UNL A   1      32.643  29.778  25.871  1.00  0.00     0.116 C 
BRANCH  29  30
ATOM     30  C   UNL A   1      31.560  30.857  25.780  1.00  0.00     0.023 C 
BRANCH  30  31
ATOM     31  C   UNL A   1      31.493  31.772  27.006  1.00  0.00     0.023 C 
BRANCH  31  32
ATOM     32  C   UNL A   1      32.739  32.625  27.232  1.00  0.00     0.116 C 
BRANCH  32  33
ATOM     33  N   UNL A   1      32.438  34.007  27.568  1.00  0.00    -0.352 N 
ATOM     34  C   UNL A   1      33.051  34.811  28.500  1.00  0.00     0.251 C 
ATOM     35  H   UNL A   1      31.700  34.421  27.064  1.00  0.00     0.163 HD
ATOM     36  O   UNL A   1      32.609  35.924  28.746  1.00  0.00    -0.269 OA
BRANCH  34  37
ATOM     37  C   UNL A   1      34.222  34.291  29.238  1.00  0.00     0.039 A 
ATOM     38  C   UNL A   1      34.001  33.504  30.370  1.00  0.00     0.014 A 
ATOM     39  C   UNL A   1      35.521  34.542  28.792  1.00  0.00     0.014 A 
ATOM     40  C   UNL A   1      35.085  32.908  31.015  1.00  0.00     0.010 A 
ATOM     41  C   UNL A   1      36.594  33.895  29.395  1.00  0.00     0.010 A 
ATOM     42  C   UNL A   1      36.385  33.066  30.509  1.00  0.00    -0.014 A 
BRANCH  42  43
ATOM     43  C   UNL A   1      37.533  32.350  31.118  1.00  0.00     0.031 A 
ATOM     44  C   UNL A   1      38.026  32.729  32.485  1.00  0.00     0.074 A 
ATOM     45  C   UNL A   1      38.169  31.399  30.408  1.00  0.00     0.049 A 
ATOM     46  N   UNL A   1      39.035  32.244  33.164  1.00  0.00    -0.248 NA
ATOM     47  C   UNL A   1      37.308  33.815  33.171  1.00  0.00     0.031 C 
ATOM     48  C   UNL A   1      37.821  30.987  29.046  1.00  0.00     0.029 A 
ATOM     49  N   UNL A   1      39.247  30.611  30.728  1.00  0.00    -0.354 N 
ATOM     50  C   UNL A   1      39.078  32.968  34.346  1.00  0.00     0.074 A 
ATOM     51  C   UNL A   1      38.029  33.963  34.272  1.00  0.00     0.031 C 
ATOM     52  C   UNL A   1      38.654  30.008  28.657  1.00  0.00     0.029 A 
ATOM     53  C   UNL A   1      39.610  29.744  29.728  1.00  0.00     0.049 A 
ATOM     54  H   UNL A   1      39.713  30.663  31.593  1.00  0.00     0.167 HD
ATOM     55  C   UNL A   1      39.903  32.803  35.408  1.00  0.00     0.037 A 
ATOM     56  C   UNL A   1      40.605  28.838  29.680  1.00  0.00     0.037 A 
ATOM     57  C   UNL A   1      40.930  31.797  35.488  1.00  0.00     0.049 A 
ATOM     58  C   UNL A   1      41.500  28.668  30.878  1.00  0.00     0.074 A 
ATOM     59  C   UNL A   1      41.771  31.504  36.547  1.00  0.00     0.029 A 
ATOM     60  N   UNL A   1      41.257  30.921  34.463  1.00  0.00    -0.354 N 
ATOM     61  N   UNL A   1      41.479  29.304  32.023  1.00  0.00    -0.248 NA
ATOM     62  C   UNL A   1      42.552  27.648  30.777  1.00  0.00     0.031 C 
ATOM     63  C   UNL A   1      42.636  30.480  36.148  1.00  0.00     0.029 A 
ATOM     64  C   UNL A   1      42.302  30.102  34.857  1.00  0.00     0.049 A 
ATOM     65  H   UNL A   1      40.811  30.886  33.586  1.00  0.00     0.167 HD
ATOM     66  C   UNL A   1      42.495  28.748  32.787  1.00  0.00     0.074 A 
ATOM     67  C   UNL A   1      43.101  27.709  31.982  1.00  0.00     0.031 C 
ATOM     68  C   UNL A   1      42.893  29.071  34.042  1.00  0.00     0.037 A 
BRANCH  55  69
ATOM     69  C   UNL A   1      39.721  33.726  36.578  1.00  0.00     0.064 A 
ATOM     70  C   UNL A   1      40.346  34.981  36.625  1.00  0.00     0.173 A 
ATOM     71  C   UNL A   1      38.883  33.370  37.645  1.00  0.00     0.173 A 
ATOM     72  F   UNL A   1      41.167  35.365  35.636  1.00  0.00    -0.203 F 
ATOM     73  C   UNL A   1      40.160  35.834  37.710  1.00  0.00     0.198 A 
ATOM     74  C   UNL A   1      38.676  34.237  38.715  1.00  0.00     0.198 A 
ATOM     75  F   UNL A   1      38.258  32.183  37.647  1.00  0.00    -0.203 F 
ATOM     76  F   UNL A   1      40.804  37.009  37.755  1.00  0.00    -0.200 F 
ATOM     77  C   UNL A   1      39.320  35.465  38.749  1.00  0.00     0.200 A 
ATOM     78  F   UNL A   1      37.855  33.883  39.714  1.00  0.00    -0.200 F 
ATOM     79  F   UNL A   1      39.136  36.290  39.790  1.00  0.00    -0.200 F 
ENDBRANCH  55  69
BRANCH  56  80
ATOM     80  C   UNL A   1      40.789  27.999  28.468  1.00  0.00     0.064 A 
ATOM     81  C   UNL A   1      40.154  26.755  28.351  1.00  0.00     0.173 A 
ATOM     82  C   UNL A   1      41.605  28.418  27.406  1.00  0.00     0.173 A 
ATOM     83  F   UNL A   1      39.379  26.304  29.350  1.00  0.00    -0.203 F 
ATOM     84  C   UNL A   1      40.344  25.951  27.230  1.00  0.00     0.198 A 
ATOM     85  C   UNL A   1      41.773  27.625  26.273  1.00  0.00     0.198 A 
ATOM     86  F   UNL A   1      42.230  29.603  27.467  1.00  0.00    -0.203 F 
ATOM     87  F   UNL A   1      39.760  24.747  27.165  1.00  0.00    -0.200 F 
ATOM     88  C   UNL A   1      41.149  26.390  26.188  1.00  0.00     0.200 A 
ATOM     89  F   UNL A   1      42.540  28.058  25.264  1.00  0.00    -0.200 F 
ATOM     90  F   UNL A   1      41.330  25.617  25.109  1.00  0.00    -0.200 F 
ENDBRANCH  56  80
BRANCH  68  91
ATOM     91  C   UNL A   1      44.023  28.275  34.627  1.00  0.00     0.064 A 
ATOM     92  C   UNL A   1      45.356  28.690  34.501  1.00  0.00     0.173 A 
ATOM     93  C   UNL A   1      43.765  27.098  35.347  1.00  0.00     0.173 A 
ATOM     94  F   UNL A   1      45.655  29.800  33.808  1.00  0.00    -0.203 F 
ATOM     95  C   UNL A   1      46.393  27.940  35.049  1.00  0.00     0.198 A 
ATOM     96  C   UNL A   1      44.802  26.367  35.919  1.00  0.00     0.198 A 
ATOM     97  F   UNL A   1      42.506  26.662  35.502  1.00  0.00    -0.203 F 
ATOM     98  F   UNL A   1      47.663  28.328  34.872  1.00  0.00    -0.200 F 
ATOM     99  C   UNL A   1      46.115  26.784  35.762  1.00  0.00     0.200 A 
ATOM    100  F   UNL A   1      44.530  25.256  36.618  1.00  0.00    -0.200 F 
ATOM    101  F   UNL A   1      47.115  26.065  36.293  1.00  0.00    -0.200 F 
ENDBRANCH  68  91
ENDBRANCH  42  43
ENDBRANCH  34  37
ENDBRANCH  32  33
ENDBRANCH  31  32
ENDBRANCH  30  31
ENDBRANCH  29  30
ENDBRANCH   3  29
TORSDOF 18
ENDMDL
MODEL 3
REMARK VINA RESULT:     -11.3      4.425     10.872
REMARK SMILES N#CCC(=O)N/N=C/c1ccc(OCc2ccc(C(=O)NCCCCNC(=O)c3ccc(-c4c5nc(c(-c6c(F)c(F)c(F)c(F)c6F)c6ccc([nH]6)c(-c6c(F)c(F)c(F)c(F)c6F)c6nc(c(-c7c(F)c(F)c(F)c(F)c7F)c7ccc4[nH]7)C=C6)C=C5)cc3)cc2)c(Br)c1
REMARK SMILES IDX 19 1 20 2 21 3 18 5 15 6 16 7 93 8 17 9 92 10 14 11 13 12
REMARK SMILES IDX 12 13 9 14 10 15 96 16 11 17 94 18 95 19 8 20 7 21 6 22 4 23
REMARK SMILES IDX 5 24 3 26 2 27 1 28 22 29 23 30 24 31 25 32 26 33 27 34
REMARK SMILES IDX 28 36 29 37 30 38 91 39 31 40 90 41 32 42 33 43 34 44 84 45
REMARK SMILES IDX 35 46 89 47 83 48 85 49 36 50 88 51 82 52 81 53 37 55 69 56
REMARK SMILES IDX 49 57 68 58 50 59 53 60 67 61 86 62 51 63 52 64 66 66 87 67
REMARK SMILES IDX 54 68 38 69 39 70 47 71 40 72 41 73 45 74 48 75 42 76 43 77
REMARK SMILES IDX 46 78 44 79 70 80 71 81 79 82 72 83 73 84 77 85 80 86 74 87
REMARK SMILES IDX 75 88 78 89 76 90 55 91 56 92 64 93 57 94 58 95 62 96 65 97
REMARK SMILES IDX 59 98 60 99 63 100 61 101
REMARK H PARENT 21 4 6 25 26 35 85 54 53 65
REMARK Flexibility Score: inf
ROOT
ATOM      1  C   UNL A   1      41.367  23.823  26.598  1.00  0.00     0.251 C 
ATOM      2  O   UNL A   1      40.622  22.958  27.063  1.00  0.00    -0.269 OA
ATOM      3  N   UNL A   1      42.311  23.398  25.698  1.00  0.00    -0.352 N 
ATOM      4  H   UNL A   1      42.298  22.425  25.544  1.00  0.00     0.163 HD
ENDROOT
BRANCH   1   5
ATOM      5  C   UNL A   1      41.177  25.243  27.023  1.00  0.00     0.039 A 
ATOM      6  C   UNL A   1      40.961  27.917  27.988  1.00  0.00    -0.011 A 
ATOM      7  C   UNL A   1      41.361  26.873  28.836  1.00  0.00     0.008 A 
ATOM      8  C   UNL A   1      40.621  27.586  26.677  1.00  0.00     0.008 A 
ATOM      9  C   UNL A   1      41.452  25.556  28.363  1.00  0.00     0.014 A 
ATOM     10  C   UNL A   1      40.789  26.287  26.188  1.00  0.00     0.014 A 
BRANCH   6  11
ATOM     11  C   UNL A   1      40.976  29.338  28.528  1.00  0.00     0.265 C 
BRANCH  11  12
ATOM     12  O   UNL A   1      40.927  29.571  29.940  1.00  0.00    -0.488 OA
BRANCH  12  13
ATOM     13  C   UNL A   1      39.921  30.261  30.548  1.00  0.00     0.134 A 
ATOM     14  C   UNL A   1      38.212  32.120  31.778  1.00  0.00    -0.004 A 
ATOM     15  C   UNL A   1      39.189  32.567  30.898  1.00  0.00     0.013 A 
ATOM     16  C   UNL A   1      38.048  30.752  32.012  1.00  0.00     0.029 A 
ATOM     17  C   UNL A   1      40.015  31.637  30.271  1.00  0.00     0.048 A 
ATOM     18  C   UNL A   1      38.899  29.816  31.398  1.00  0.00     0.060 A 
ATOM     19  Br  UNL A   1      38.529  27.993  31.777  1.00  0.00    -0.047 Br
BRANCH  14  20
ATOM     20  C   UNL A   1      37.362  33.138  32.420  1.00  0.00     0.141 C 
ATOM     21  N   UNL A   1      36.783  34.072  31.736  1.00  0.00    -0.181 NA
BRANCH  21  22
ATOM     22  N   UNL A   1      36.068  34.965  32.472  1.00  0.00    -0.246 N 
ATOM     23  C   UNL A   1      34.816  35.425  32.131  1.00  0.00     0.254 C 
ATOM     24  O   UNL A   1      34.350  36.407  32.713  1.00  0.00    -0.272 OA
ATOM     25  H   UNL A   1      36.474  35.306  33.302  1.00  0.00     0.193 HD
BRANCH  23  26
ATOM     26  C   UNL A   1      33.982  34.636  31.153  1.00  0.00     0.221 C 
BRANCH  26  27
ATOM     27  C   UNL A   1      33.187  35.538  30.223  1.00  0.00     0.072 C 
ATOM     28  N   UNL A   1      32.528  36.285  29.452  1.00  0.00    -0.198 NA
ENDBRANCH  26  27
ENDBRANCH  23  26
ENDBRANCH  21  22
ENDBRANCH  14  20
ENDBRANCH  12  13
ENDBRANCH  11  12
ENDBRANCH   6  11
ENDBRANCH   1   5
BRANCH   3  29
ATOM     29  C   UNL A   1      43.321  24.092  24.928  1.00  0.00     0.116 C 
BRANCH  29  30
ATOM     30  C   UNL A   1      44.625  23.287  24.886  1.00  0.00     0.023 C 
BRANCH  30  31
ATOM     31  C   UNL A   1      45.300  23.130  26.252  1.00  0.00     0.023 C 
BRANCH  31  32
ATOM     32  C   UNL A   1      46.458  24.092  26.502  1.00  0.00     0.116 C 
BRANCH  32  33
ATOM     33  N   UNL A   1      46.914  24.769  25.299  1.00  0.00    -0.352 N 
ATOM     34  C   UNL A   1      46.817  26.104  24.982  1.00  0.00     0.251 C 
ATOM     35  H   UNL A   1      47.349  24.198  24.624  1.00  0.00     0.163 HD
ATOM     36  O   UNL A   1      47.152  26.504  23.876  1.00  0.00    -0.269 OA
BRANCH  34  37
ATOM     37  C   UNL A   1      46.253  27.039  25.978  1.00  0.00     0.039 A 
ATOM     38  C   UNL A   1      44.869  27.225  26.010  1.00  0.00     0.014 A 
ATOM     39  C   UNL A   1      47.077  27.692  26.897  1.00  0.00     0.014 A 
ATOM     40  C   UNL A   1      44.305  28.012  27.014  1.00  0.00     0.010 A 
ATOM     41  C   UNL A   1      46.509  28.422  27.935  1.00  0.00     0.010 A 
ATOM     42  C   UNL A   1      45.117  28.584  28.007  1.00  0.00    -0.014 A 
BRANCH  42  43
ATOM     43  C   UNL A   1      44.521  29.331  29.142  1.00  0.00     0.031 A 
ATOM     44  C   UNL A   1      44.236  30.801  29.018  1.00  0.00     0.074 A 
ATOM     45  C   UNL A   1      44.297  28.693  30.306  1.00  0.00     0.049 A 
ATOM     46  N   UNL A   1      43.754  31.628  29.911  1.00  0.00    -0.248 NA
ATOM     47  C   UNL A   1      44.561  31.432  27.729  1.00  0.00     0.031 C 
ATOM     48  C   UNL A   1      44.591  27.283  30.568  1.00  0.00     0.029 A 
ATOM     49  N   UNL A   1      43.777  29.150  31.493  1.00  0.00    -0.354 N 
ATOM     50  C   UNL A   1      43.726  32.872  29.297  1.00  0.00     0.074 A 
ATOM     51  C   UNL A   1      44.290  32.705  27.975  1.00  0.00     0.031 C 
ATOM     52  C   UNL A   1      44.227  26.984  31.824  1.00  0.00     0.029 A 
ATOM     53  C   UNL A   1      43.701  28.185  32.467  1.00  0.00     0.049 A 
ATOM     54  H   UNL A   1      43.487  30.080  31.631  1.00  0.00     0.167 HD
ATOM     55  C   UNL A   1      43.251  34.043  29.785  1.00  0.00     0.037 A 
ATOM     56  C   UNL A   1      43.259  28.262  33.736  1.00  0.00     0.037 A 
ATOM     57  C   UNL A   1      42.669  34.200  31.093  1.00  0.00     0.049 A 
ATOM     58  C   UNL A   1      42.727  29.573  34.248  1.00  0.00     0.074 A 
ATOM     59  C   UNL A   1      42.096  35.328  31.653  1.00  0.00     0.029 A 
ATOM     60  N   UNL A   1      42.589  33.195  32.046  1.00  0.00    -0.354 N 
ATOM     61  N   UNL A   1      42.630  30.725  33.630  1.00  0.00    -0.248 NA
ATOM     62  C   UNL A   1      42.235  29.592  35.632  1.00  0.00     0.031 C 
ATOM     63  C   UNL A   1      41.709  35.018  32.961  1.00  0.00     0.029 A 
ATOM     64  C   UNL A   1      41.997  33.684  33.200  1.00  0.00     0.049 A 
ATOM     65  H   UNL A   1      42.906  32.272  31.921  1.00  0.00     0.167 HD
ATOM     66  C   UNL A   1      42.047  31.597  34.539  1.00  0.00     0.074 A 
ATOM     67  C   UNL A   1      41.794  30.836  35.744  1.00  0.00     0.031 C 
ATOM     68  C   UNL A   1      41.751  32.911  34.390  1.00  0.00     0.037 A 
BRANCH  55  69
ATOM     69  C   UNL A   1      43.331  35.249  28.894  1.00  0.00     0.064 A 
ATOM     70  C   UNL A   1      42.194  35.764  28.254  1.00  0.00     0.173 A 
ATOM     71  C   UNL A   1      44.549  35.919  28.709  1.00  0.00     0.173 A 
ATOM     72  F   UNL A   1      41.007  35.154  28.389  1.00  0.00    -0.203 F 
ATOM     73  C   UNL A   1      42.278  36.891  27.441  1.00  0.00     0.198 A 
ATOM     74  C   UNL A   1      44.625  37.062  27.918  1.00  0.00     0.198 A 
ATOM     75  F   UNL A   1      45.665  35.470  29.302  1.00  0.00    -0.203 F 
ATOM     76  F   UNL A   1      41.188  37.339  26.802  1.00  0.00    -0.200 F 
ATOM     77  C   UNL A   1      43.491  37.544  27.279  1.00  0.00     0.200 A 
ATOM     78  F   UNL A   1      45.796  37.699  27.772  1.00  0.00    -0.200 F 
ATOM     79  F   UNL A   1      43.571  38.632  26.501  1.00  0.00    -0.200 F 
ENDBRANCH  55  69
BRANCH  56  80
ATOM     80  C   UNL A   1      43.271  27.055  34.602  1.00  0.00     0.064 A 
ATOM     81  C   UNL A   1      42.101  26.312  34.815  1.00  0.00     0.173 A 
ATOM     82  C   UNL A   1      44.444  26.622  35.237  1.00  0.00     0.173 A 
ATOM     83  F   UNL A   1      40.950  26.699  34.243  1.00  0.00    -0.203 F 
ATOM     84  C   UNL A   1      42.098  25.196  35.647  1.00  0.00     0.198 A 
ATOM     85  C   UNL A   1      44.446  25.490  36.048  1.00  0.00     0.198 A 
ATOM     86  F   UNL A   1      45.590  27.296  35.060  1.00  0.00    -0.203 F 
ATOM     87  F   UNL A   1      40.957  24.531  35.869  1.00  0.00    -0.200 F 
ATOM     88  C   UNL A   1      43.273  24.782  36.259  1.00  0.00     0.200 A 
ATOM     89  F   UNL A   1      45.585  25.086  36.626  1.00  0.00    -0.200 F 
ATOM     90  F   UNL A   1      43.271  23.706  37.058  1.00  0.00    -0.200 F 
ENDBRANCH  56  80
BRANCH  68  91
ATOM     91  C   UNL A   1      41.099  33.601  35.552  1.00  0.00     0.064 A 
ATOM     92  C   UNL A   1      39.724  33.481  35.800  1.00  0.00     0.173 A 
ATOM     93  C   UNL A   1      41.864  34.370  36.443  1.00  0.00     0.173 A 
ATOM     94  F   UNL A   1      38.948  32.771  34.968  1.00  0.00    -0.203 F 
ATOM     95  C   UNL A   1      39.134  34.129  36.881  1.00  0.00     0.198 A 
ATOM     96  C   UNL A   1      41.275  34.992  37.540  1.00  0.00     0.198 A 
ATOM     97  F   UNL A   1      43.184  34.511  36.253  1.00  0.00    -0.203 F 
ATOM     98  F   UNL A   1      37.810  34.042  37.070  1.00  0.00    -0.200 F 
ATOM     99  C   UNL A   1      39.910  34.878  37.754  1.00  0.00     0.200 A 
ATOM    100  F   UNL A   1      42.029  35.705  38.389  1.00  0.00    -0.200 F 
ATOM    101  F   UNL A   1      39.340  35.497  38.797  1.00  0.00    -0.200 F 
ENDBRANCH  68  91
ENDBRANCH  42  43
ENDBRANCH  34  37
ENDBRANCH  32  33
ENDBRANCH  31  32
ENDBRANCH  30  31
ENDBRANCH  29  30
ENDBRANCH   3  29
TORSDOF 18
ENDMDL
