MODEL 1
REMARK VINA RESULT:      -9.7      0.000      0.000
REMARK SMILES CC1(C)CC[C@@]2(C(=O)NCCCCNC(=O)c3ccc(-c4c5nc(c(-c6c(F)c(F)c(F)c(F)c6F)c6ccc([nH]6)c(-c6c(F)c(F)c(F)c(F)c6F)c6nc(c(-c7c(F)c(F)c(F)c(F)c7F)c7ccc4[nH]7)C=C6)C=C5)cc3)CC[C@@]3(C)C(=CC[C@H]4[C@@]5(C)CC[C@H](O)C(C)(C)[C@@H]5CC[C@]43C)[C@@H]2C1
REMARK SMILES IDX 12 1 11 2 10 3 9 4 7 5 8 6 6 8 1 9 2 10 3 11 4 12 103 13
REMARK SMILES IDX 5 14 102 15 84 16 80 17 82 18 85 19 81 20 83 21 100 22 86 23
REMARK SMILES IDX 87 24 99 25 101 26 88 27 98 28 89 29 90 30 97 31 91 32 94 33
REMARK SMILES IDX 92 34 95 35 96 36 93 37 13 39 14 40 15 41 16 43 17 44 18 45
REMARK SMILES IDX 79 46 19 47 78 48 20 49 21 50 22 51 72 52 23 53 77 54 71 55
REMARK SMILES IDX 73 56 24 57 76 58 70 59 69 60 25 62 57 63 37 64 56 65 38 66
REMARK SMILES IDX 41 67 55 68 74 69 39 70 40 71 54 73 75 74 42 75 26 76 27 77
REMARK SMILES IDX 35 78 28 79 29 80 33 81 36 82 30 83 31 84 34 85 32 86 58 87
REMARK SMILES IDX 59 88 67 89 60 90 61 91 65 92 68 93 62 94 63 95 66 96 64 97
REMARK SMILES IDX 43 98 44 99 52 100 45 101 46 102 50 103 53 104 47 105 48 106
REMARK SMILES IDX 51 107 49 108
REMARK H PARENT 9 7 93 38 14 42 73 61 41 72
REMARK Flexibility Score: inf
ROOT
ATOM      1  C   UNL A   1      47.843  24.844  33.216  1.00  0.00     0.023 C 
ENDROOT
BRANCH   1   2
ATOM      2  C   UNL A   1      47.192  25.761  32.166  1.00  0.00     0.023 C 
BRANCH   2   3
ATOM      3  C   UNL A   1      47.654  25.759  30.698  1.00  0.00     0.116 C 
BRANCH   3   4
ATOM      4  N   UNL A   1      47.540  26.921  29.842  1.00  0.00    -0.356 N 
ATOM      5  C   UNL A   1      48.537  27.458  29.031  1.00  0.00     0.226 C 
ATOM      6  O   UNL A   1      49.707  27.523  29.408  1.00  0.00    -0.274 OA
ATOM      7  H   UNL A   1      46.667  27.376  29.830  1.00  0.00     0.163 HD
BRANCH   5   8
ATOM      8  C   UNL A   1      48.134  27.798  27.539  1.00  0.00     0.056 C 
ATOM      9  C   UNL A   1      46.060  24.711  25.937  1.00  0.00     0.011 C 
ATOM     10  C   UNL A   1      46.526  25.259  27.297  1.00  0.00    -0.035 C 
ATOM     11  C   UNL A   1      46.094  24.179  28.336  1.00  0.00     0.011 C 
ATOM     12  C   UNL A   1      48.066  25.287  27.280  1.00  0.00     0.007 C 
ATOM     13  C   UNL A   1      45.823  26.668  27.572  1.00  0.00     0.015 C 
ATOM     14  C   UNL A   1      48.615  26.579  26.717  1.00  0.00     0.018 C 
ATOM     15  C   UNL A   1      46.620  28.030  27.327  1.00  0.00     0.031 C 
ATOM     16  C   UNL A   1      46.259  29.346  28.150  1.00  0.00    -0.064 C 
ATOM     17  C   UNL A   1      48.872  29.010  26.933  1.00  0.00     0.018 C 
ATOM     18  C   UNL A   1      47.102  30.657  27.926  1.00  0.00    -0.006 C 
ATOM     19  C   UNL A   1      45.328  29.320  29.118  1.00  0.00    -0.027 C 
ATOM     20  C   UNL A   1      48.586  30.320  27.643  1.00  0.00     0.013 C 
ATOM     21  C   UNL A   1      46.515  31.252  26.601  1.00  0.00     0.017 C 
ATOM     22  C   UNL A   1      46.996  31.792  29.156  1.00  0.00    -0.020 C 
ATOM     23  C   UNL A   1      45.345  30.209  30.325  1.00  0.00     0.032 C 
ATOM     24  C   UNL A   1      46.578  31.141  30.516  1.00  0.00     0.006 C 
ATOM     25  C   UNL A   1      48.256  32.735  29.372  1.00  0.00     0.008 C 
ATOM     26  C   UNL A   1      45.828  32.807  28.834  1.00  0.00     0.012 C 
ATOM     27  C   UNL A   1      47.692  30.751  31.628  1.00  0.00    -0.025 C 
ATOM     28  C   UNL A   1      48.825  32.844  30.819  1.00  0.00     0.005 C 
ATOM     29  C   UNL A   1      47.004  31.100  32.979  1.00  0.00     0.012 C 
ATOM     30  C   UNL A   1      48.099  29.291  31.674  1.00  0.00     0.010 C 
ATOM     31  C   UNL A   1      49.069  31.449  31.377  1.00  0.00     0.003 C 
ATOM     32  C   UNL A   1      49.133  28.872  32.720  1.00  0.00     0.033 C 
ATOM     33  C   UNL A   1      50.187  31.194  32.486  1.00  0.00    -0.006 C 
ATOM     34  C   UNL A   1      50.428  29.652  32.581  1.00  0.00     0.120 C 
ATOM     35  C   UNL A   1      49.878  31.759  33.885  1.00  0.00     0.014 C 
ATOM     36  C   UNL A   1      51.537  31.816  32.056  1.00  0.00     0.014 C 
BRANCH  34  37
ATOM     37  O   UNL A   1      51.281  29.314  33.676  1.00  0.00    -0.393 OA
ATOM     38  H   UNL A   1      51.720  28.468  33.495  1.00  0.00     0.210 HD
ENDBRANCH  34  37
ENDBRANCH   5   8
ENDBRANCH   3   4
ENDBRANCH   2   3
ENDBRANCH   1   2
BRANCH   1  39
ATOM     39  C   UNL A   1      48.744  25.524  34.231  1.00  0.00     0.116 C 
BRANCH  39  40
ATOM     40  N   UNL A   1      48.335  25.193  35.581  1.00  0.00    -0.352 N 
ATOM     41  C   UNL A   1      47.281  25.726  36.292  1.00  0.00     0.251 C 
ATOM     42  H   UNL A   1      48.870  24.509  36.043  1.00  0.00     0.163 HD
ATOM     43  O   UNL A   1      47.280  25.682  37.515  1.00  0.00    -0.269 OA
BRANCH  41  44
ATOM     44  C   UNL A   1      46.157  26.371  35.572  1.00  0.00     0.039 A 
ATOM     45  C   UNL A   1      46.294  27.681  35.102  1.00  0.00     0.014 A 
ATOM     46  C   UNL A   1      44.948  25.694  35.402  1.00  0.00     0.014 A 
ATOM     47  C   UNL A   1      45.228  28.295  34.435  1.00  0.00     0.010 A 
ATOM     48  C   UNL A   1      43.922  26.272  34.659  1.00  0.00     0.010 A 
ATOM     49  C   UNL A   1      44.039  27.588  34.189  1.00  0.00    -0.014 A 
BRANCH  49  50
ATOM     50  C   UNL A   1      42.883  28.212  33.490  1.00  0.00     0.031 A 
ATOM     51  C   UNL A   1      42.626  27.895  32.039  1.00  0.00     0.074 A 
ATOM     52  C   UNL A   1      42.113  29.114  34.130  1.00  0.00     0.049 A 
ATOM     53  N   UNL A   1      41.745  28.409  31.218  1.00  0.00    -0.248 NA
ATOM     54  C   UNL A   1      43.505  26.890  31.418  1.00  0.00     0.031 C 
ATOM     55  C   UNL A   1      42.290  29.543  35.517  1.00  0.00     0.029 A 
ATOM     56  N   UNL A   1      41.035  29.844  33.692  1.00  0.00    -0.354 N 
ATOM     57  C   UNL A   1      41.985  27.812  29.985  1.00  0.00     0.074 A 
ATOM     58  C   UNL A   1      43.132  26.948  30.148  1.00  0.00     0.031 C 
ATOM     59  C   UNL A   1      41.338  30.440  35.826  1.00  0.00     0.029 A 
ATOM     60  C   UNL A   1      40.511  30.680  34.647  1.00  0.00     0.049 A 
ATOM     61  H   UNL A   1      40.672  29.773  32.780  1.00  0.00     0.167 HD
ATOM     62  C   UNL A   1      41.292  27.949  28.828  1.00  0.00     0.037 A 
ATOM     63  C   UNL A   1      39.482  31.548  34.577  1.00  0.00     0.037 A 
ATOM     64  C   UNL A   1      40.126  28.778  28.685  1.00  0.00     0.049 A 
ATOM     65  C   UNL A   1      38.725  31.678  33.282  1.00  0.00     0.074 A 
ATOM     66  C   UNL A   1      39.308  28.935  27.580  1.00  0.00     0.029 A 
ATOM     67  N   UNL A   1      39.610  29.591  29.684  1.00  0.00    -0.354 N 
ATOM     68  N   UNL A   1      38.918  31.058  32.143  1.00  0.00    -0.248 NA
ATOM     69  C   UNL A   1      37.603  32.628  33.263  1.00  0.00     0.031 C 
ATOM     70  C   UNL A   1      38.326  29.880  27.895  1.00  0.00     0.029 A 
ATOM     71  C   UNL A   1      38.498  30.271  29.213  1.00  0.00     0.049 A 
ATOM     72  H   UNL A   1      39.979  29.672  30.593  1.00  0.00     0.167 HD
ATOM     73  C   UNL A   1      37.930  31.519  31.283  1.00  0.00     0.074 A 
ATOM     74  C   UNL A   1      37.127  32.459  32.037  1.00  0.00     0.031 C 
ATOM     75  C   UNL A   1      37.708  31.196  29.985  1.00  0.00     0.037 A 
BRANCH  62  76
ATOM     76  C   UNL A   1      41.772  27.174  27.632  1.00  0.00     0.064 A 
ATOM     77  C   UNL A   1      42.611  27.753  26.666  1.00  0.00     0.173 A 
ATOM     78  C   UNL A   1      41.411  25.830  27.461  1.00  0.00     0.173 A 
ATOM     79  F   UNL A   1      42.981  29.038  26.775  1.00  0.00    -0.203 F 
ATOM     80  C   UNL A   1      43.038  27.027  25.557  1.00  0.00     0.198 A 
ATOM     81  C   UNL A   1      41.867  25.096  26.367  1.00  0.00     0.198 A 
ATOM     82  F   UNL A   1      40.616  25.222  28.355  1.00  0.00    -0.203 F 
ATOM     83  F   UNL A   1      43.789  27.620  24.619  1.00  0.00    -0.200 F 
ATOM     84  C   UNL A   1      42.671  25.698  25.412  1.00  0.00     0.200 A 
ATOM     85  F   UNL A   1      41.524  23.807  26.236  1.00  0.00    -0.200 F 
ATOM     86  F   UNL A   1      43.088  25.000  24.347  1.00  0.00    -0.200 F 
ENDBRANCH  62  76
BRANCH  63  87
ATOM     87  C   UNL A   1      39.090  32.338  35.775  1.00  0.00     0.064 A 
ATOM     88  C   UNL A   1      39.565  33.644  35.961  1.00  0.00     0.173 A 
ATOM     89  C   UNL A   1      38.243  31.809  36.759  1.00  0.00     0.173 A 
ATOM     90  F   UNL A   1      40.395  34.189  35.058  1.00  0.00    -0.203 F 
ATOM     91  C   UNL A   1      39.223  34.383  37.092  1.00  0.00     0.198 A 
ATOM     92  C   UNL A   1      37.877  32.559  37.876  1.00  0.00     0.198 A 
ATOM     93  F   UNL A   1      37.756  30.565  36.630  1.00  0.00    -0.203 F 
ATOM     94  F   UNL A   1      39.730  35.611  37.265  1.00  0.00    -0.200 F 
ATOM     95  C   UNL A   1      38.375  33.842  38.045  1.00  0.00     0.200 A 
ATOM     96  F   UNL A   1      37.045  32.038  38.788  1.00  0.00    -0.200 F 
ATOM     97  F   UNL A   1      38.043  34.553  39.131  1.00  0.00    -0.200 F 
ENDBRANCH  63  87
BRANCH  75  98
ATOM     98  C   UNL A   1      36.534  31.840  29.306  1.00  0.00     0.064 A 
ATOM     99  C   UNL A   1      35.401  31.101  28.938  1.00  0.00     0.173 A 
ATOM    100  C   UNL A   1      36.524  33.224  29.069  1.00  0.00     0.173 A 
ATOM    101  F   UNL A   1      35.368  29.774  29.130  1.00  0.00    -0.203 F 
ATOM    102  C   UNL A   1      34.309  31.721  28.336  1.00  0.00     0.198 A 
ATOM    103  C   UNL A   1      35.418  33.844  28.497  1.00  0.00     0.198 A 
ATOM    104  F   UNL A   1      37.581  33.977  29.411  1.00  0.00    -0.203 F 
ATOM    105  F   UNL A   1      33.255  30.988  27.950  1.00  0.00    -0.200 F 
ATOM    106  C   UNL A   1      34.314  33.091  28.125  1.00  0.00     0.200 A 
ATOM    107  F   UNL A   1      35.419  35.171  28.309  1.00  0.00    -0.200 F 
ATOM    108  F   UNL A   1      33.257  33.688  27.557  1.00  0.00    -0.200 F 
ENDBRANCH  75  98
ENDBRANCH  49  50
ENDBRANCH  41  44
ENDBRANCH  39  40
ENDBRANCH   1  39
TORSDOF 12
ENDMDL
MODEL 2
REMARK VINA RESULT:      -9.7      0.410      1.921
REMARK SMILES CC1(C)CC[C@@]2(C(=O)NCCCCNC(=O)c3ccc(-c4c5nc(c(-c6c(F)c(F)c(F)c(F)c6F)c6ccc([nH]6)c(-c6c(F)c(F)c(F)c(F)c6F)c6nc(c(-c7c(F)c(F)c(F)c(F)c7F)c7ccc4[nH]7)C=C6)C=C5)cc3)CC[C@@]3(C)C(=CC[C@H]4[C@@]5(C)CC[C@H](O)C(C)(C)[C@@H]5CC[C@]43C)[C@@H]2C1
REMARK SMILES IDX 12 1 11 2 10 3 9 4 7 5 8 6 6 8 1 9 2 10 3 11 4 12 103 13
REMARK SMILES IDX 5 14 102 15 84 16 80 17 82 18 85 19 81 20 83 21 100 22 86 23
REMARK SMILES IDX 87 24 99 25 101 26 88 27 98 28 89 29 90 30 97 31 91 32 94 33
REMARK SMILES IDX 92 34 95 35 96 36 93 37 13 39 14 40 15 41 16 43 17 44 18 45
REMARK SMILES IDX 79 46 19 47 78 48 20 49 21 50 22 51 72 52 23 53 77 54 71 55
REMARK SMILES IDX 73 56 24 57 76 58 70 59 69 60 25 62 57 63 37 64 56 65 38 66
REMARK SMILES IDX 41 67 55 68 74 69 39 70 40 71 54 73 75 74 42 75 26 76 27 77
REMARK SMILES IDX 35 78 28 79 29 80 33 81 36 82 30 83 31 84 34 85 32 86 58 87
REMARK SMILES IDX 59 88 67 89 60 90 61 91 65 92 68 93 62 94 63 95 66 96 64 97
REMARK SMILES IDX 43 98 44 99 52 100 45 101 46 102 50 103 53 104 47 105 48 106
REMARK SMILES IDX 51 107 49 108
REMARK H PARENT 9 7 93 38 14 42 73 61 41 72
REMARK Flexibility Score: inf
ROOT
ATOM      1  C   UNL A   1      48.973  25.549  33.107  1.00  0.00     0.023 C 
ENDROOT
BRANCH   1   2
ATOM      2  C   UNL A   1      48.653  25.560  31.602  1.00  0.00     0.023 C 
BRANCH   2   3
ATOM      3  C   UNL A   1      47.349  26.170  31.060  1.00  0.00     0.116 C 
BRANCH   3   4
ATOM      4  N   UNL A   1      47.331  27.212  30.056  1.00  0.00    -0.356 N 
ATOM      5  C   UNL A   1      48.317  27.471  29.107  1.00  0.00     0.226 C 
ATOM      6  O   UNL A   1      49.513  27.395  29.385  1.00  0.00    -0.274 OA
ATOM      7  H   UNL A   1      46.539  27.798  30.041  1.00  0.00     0.163 HD
BRANCH   5   8
ATOM      8  C   UNL A   1      47.831  27.674  27.614  1.00  0.00     0.056 C 
ATOM      9  C   UNL A   1      45.578  24.514  26.459  1.00  0.00     0.011 C 
ATOM     10  C   UNL A   1      46.143  25.179  27.727  1.00  0.00    -0.035 C 
ATOM     11  C   UNL A   1      45.747  24.223  28.894  1.00  0.00     0.011 C 
ATOM     12  C   UNL A   1      47.679  25.153  27.616  1.00  0.00     0.007 C 
ATOM     13  C   UNL A   1      45.497  26.631  27.898  1.00  0.00     0.015 C 
ATOM     14  C   UNL A   1      48.227  26.363  26.894  1.00  0.00     0.018 C 
ATOM     15  C   UNL A   1      46.315  27.934  27.470  1.00  0.00     0.031 C 
ATOM     16  C   UNL A   1      46.041  29.337  28.174  1.00  0.00    -0.064 C 
ATOM     17  C   UNL A   1      48.564  28.794  26.846  1.00  0.00     0.018 C 
ATOM     18  C   UNL A   1      46.905  30.590  27.769  1.00  0.00    -0.006 C 
ATOM     19  C   UNL A   1      45.172  29.439  29.193  1.00  0.00    -0.027 C 
ATOM     20  C   UNL A   1      48.358  30.177  27.435  1.00  0.00     0.013 C 
ATOM     21  C   UNL A   1      46.253  31.069  26.427  1.00  0.00     0.017 C 
ATOM     22  C   UNL A   1      46.907  31.845  28.881  1.00  0.00    -0.020 C 
ATOM     23  C   UNL A   1      45.288  30.442  30.301  1.00  0.00     0.032 C 
ATOM     24  C   UNL A   1      46.556  31.347  30.323  1.00  0.00     0.006 C 
ATOM     25  C   UNL A   1      48.203  32.762  28.926  1.00  0.00     0.008 C 
ATOM     26  C   UNL A   1      45.749  32.861  28.528  1.00  0.00     0.012 C 
ATOM     27  C   UNL A   1      47.726  31.033  31.401  1.00  0.00    -0.025 C 
ATOM     28  C   UNL A   1      48.864  32.995  30.318  1.00  0.00     0.005 C 
ATOM     29  C   UNL A   1      47.133  31.538  32.748  1.00  0.00     0.012 C 
ATOM     30  C   UNL A   1      48.094  29.572  31.571  1.00  0.00     0.010 C 
ATOM     31  C   UNL A   1      49.103  31.655  31.000  1.00  0.00     0.003 C 
ATOM     32  C   UNL A   1      49.180  29.224  32.591  1.00  0.00     0.033 C 
ATOM     33  C   UNL A   1      50.281  31.475  32.061  1.00  0.00    -0.006 C 
ATOM     34  C   UNL A   1      50.484  29.943  32.298  1.00  0.00     0.120 C 
ATOM     35  C   UNL A   1      50.075  32.187  33.411  1.00  0.00     0.014 C 
ATOM     36  C   UNL A   1      51.617  32.006  31.492  1.00  0.00     0.014 C 
BRANCH  34  37
ATOM     37  O   UNL A   1      51.394  29.687  33.369  1.00  0.00    -0.393 OA
ATOM     38  H   UNL A   1      51.253  30.337  34.075  1.00  0.00     0.210 HD
ENDBRANCH  34  37
ENDBRANCH   5   8
ENDBRANCH   3   4
ENDBRANCH   2   3
ENDBRANCH   1   2
BRANCH   1  39
ATOM     39  C   UNL A   1      48.148  24.602  33.959  1.00  0.00     0.116 C 
BRANCH  39  40
ATOM     40  N   UNL A   1      48.205  24.988  35.355  1.00  0.00    -0.352 N 
ATOM     41  C   UNL A   1      47.571  26.053  35.956  1.00  0.00     0.251 C 
ATOM     42  H   UNL A   1      48.760  24.425  35.940  1.00  0.00     0.163 HD
ATOM     43  O   UNL A   1      48.001  26.513  37.005  1.00  0.00    -0.269 OA
BRANCH  41  44
ATOM     44  C   UNL A   1      46.374  26.654  35.318  1.00  0.00     0.039 A 
ATOM     45  C   UNL A   1      45.132  26.026  35.443  1.00  0.00     0.014 A 
ATOM     46  C   UNL A   1      46.492  27.817  34.555  1.00  0.00     0.014 A 
ATOM     47  C   UNL A   1      44.005  26.585  34.829  1.00  0.00     0.010 A 
ATOM     48  C   UNL A   1      45.357  28.421  34.022  1.00  0.00     0.010 A 
ATOM     49  C   UNL A   1      44.104  27.799  34.129  1.00  0.00    -0.014 A 
BRANCH  49  50
ATOM     50  C   UNL A   1      42.930  28.418  33.457  1.00  0.00     0.031 A 
ATOM     51  C   UNL A   1      42.617  28.067  32.025  1.00  0.00     0.074 A 
ATOM     52  C   UNL A   1      42.192  29.344  34.101  1.00  0.00     0.049 A 
ATOM     53  N   UNL A   1      41.713  28.570  31.222  1.00  0.00    -0.248 NA
ATOM     54  C   UNL A   1      43.463  27.037  31.398  1.00  0.00     0.031 C 
ATOM     55  C   UNL A   1      42.423  29.806  35.469  1.00  0.00     0.029 A 
ATOM     56  N   UNL A   1      41.107  30.075  33.683  1.00  0.00    -0.354 N 
ATOM     57  C   UNL A   1      41.902  27.940  29.998  1.00  0.00     0.074 A 
ATOM     58  C   UNL A   1      43.045  27.067  30.142  1.00  0.00     0.031 C 
ATOM     59  C   UNL A   1      41.492  30.721  35.788  1.00  0.00     0.029 A 
ATOM     60  C   UNL A   1      40.625  30.941  34.634  1.00  0.00     0.049 A 
ATOM     61  H   UNL A   1      40.711  29.985  32.786  1.00  0.00     0.167 HD
ATOM     62  C   UNL A   1      41.169  28.054  28.863  1.00  0.00     0.037 A 
ATOM     63  C   UNL A   1      39.604  31.817  34.578  1.00  0.00     0.037 A 
ATOM     64  C   UNL A   1      40.007  28.893  28.740  1.00  0.00     0.049 A 
ATOM     65  C   UNL A   1      38.802  31.924  33.308  1.00  0.00     0.074 A 
ATOM     66  C   UNL A   1      39.152  29.031  27.662  1.00  0.00     0.029 A 
ATOM     67  N   UNL A   1      39.536  29.737  29.736  1.00  0.00    -0.354 N 
ATOM     68  N   UNL A   1      38.948  31.273  32.179  1.00  0.00    -0.248 NA
ATOM     69  C   UNL A   1      37.690  32.885  33.305  1.00  0.00     0.031 C 
ATOM     70  C   UNL A   1      38.191  29.994  27.987  1.00  0.00     0.029 A 
ATOM     71  C   UNL A   1      38.415  30.417  29.288  1.00  0.00     0.049 A 
ATOM     72  H   UNL A   1      39.938  29.837  30.628  1.00  0.00     0.167 HD
ATOM     73  C   UNL A   1      37.934  31.723  31.344  1.00  0.00     0.074 A 
ATOM     74  C   UNL A   1      37.169  32.690  32.101  1.00  0.00     0.031 C 
ATOM     75  C   UNL A   1      37.662  31.369  30.063  1.00  0.00     0.037 A 
BRANCH  62  76
ATOM     76  C   UNL A   1      41.598  27.245  27.671  1.00  0.00     0.064 A 
ATOM     77  C   UNL A   1      41.166  25.922  27.483  1.00  0.00     0.173 A 
ATOM     78  C   UNL A   1      42.430  27.805  26.690  1.00  0.00     0.173 A 
ATOM     79  F   UNL A   1      40.377  25.333  28.394  1.00  0.00    -0.203 F 
ATOM     80  C   UNL A   1      41.581  25.180  26.380  1.00  0.00     0.198 A 
ATOM     81  C   UNL A   1      42.816  27.071  25.569  1.00  0.00     0.198 A 
ATOM     82  F   UNL A   1      42.869  29.066  26.813  1.00  0.00    -0.203 F 
ATOM     83  F   UNL A   1      41.204  23.900  26.254  1.00  0.00    -0.200 F 
ATOM     84  C   UNL A   1      42.400  25.757  25.421  1.00  0.00     0.200 A 
ATOM     85  F   UNL A   1      43.595  27.635  24.637  1.00  0.00    -0.200 F 
ATOM     86  F   UNL A   1      42.794  25.044  24.357  1.00  0.00    -0.200 F 
ENDBRANCH  62  76
BRANCH  63  87
ATOM     87  C   UNL A   1      39.263  32.642  35.769  1.00  0.00     0.064 A 
ATOM     88  C   UNL A   1      38.403  32.151  36.761  1.00  0.00     0.173 A 
ATOM     89  C   UNL A   1      39.780  33.934  35.939  1.00  0.00     0.173 A 
ATOM     90  F   UNL A   1      37.864  30.928  36.634  1.00  0.00    -0.203 F 
ATOM     91  C   UNL A   1      38.059  32.925  37.867  1.00  0.00     0.198 A 
ATOM     92  C   UNL A   1      39.460  34.698  37.062  1.00  0.00     0.198 A 
ATOM     93  F   UNL A   1      40.612  34.452  35.023  1.00  0.00    -0.203 F 
ATOM     94  F   UNL A   1      37.198  32.448  38.776  1.00  0.00    -0.200 F 
ATOM     95  C   UNL A   1      38.592  34.196  38.019  1.00  0.00     0.200 A 
ATOM     96  F   UNL A   1      39.989  35.919  37.212  1.00  0.00    -0.200 F 
ATOM     97  F   UNL A   1      38.264  34.940  39.085  1.00  0.00    -0.200 F 
ENDBRANCH  63  87
BRANCH  75  98
ATOM     98  C   UNL A   1      36.472  32.009  29.410  1.00  0.00     0.064 A 
ATOM     99  C   UNL A   1      36.451  33.375  29.095  1.00  0.00     0.173 A 
ATOM    100  C   UNL A   1      35.360  31.232  29.047  1.00  0.00     0.173 A 
ATOM    101  F   UNL A   1      37.483  34.162  29.435  1.00  0.00    -0.203 F 
ATOM    102  C   UNL A   1      35.350  33.946  28.462  1.00  0.00     0.198 A 
ATOM    103  C   UNL A   1      34.276  31.800  28.385  1.00  0.00     0.198 A 
ATOM    104  F   UNL A   1      35.335  29.919  29.318  1.00  0.00    -0.203 F 
ATOM    105  F   UNL A   1      35.332  35.262  28.212  1.00  0.00    -0.200 F 
ATOM    106  C   UNL A   1      34.269  33.157  28.099  1.00  0.00     0.200 A 
ATOM    107  F   UNL A   1      33.240  31.033  28.020  1.00  0.00    -0.200 F 
ATOM    108  F   UNL A   1      33.215  33.706  27.478  1.00  0.00    -0.200 F 
ENDBRANCH  75  98
ENDBRANCH  49  50
ENDBRANCH  41  44
ENDBRANCH  39  40
ENDBRANCH   1  39
TORSDOF 12
ENDMDL
MODEL 3
REMARK VINA RESULT:      -9.6      2.891      7.758
REMARK SMILES CC1(C)CC[C@@]2(C(=O)NCCCCNC(=O)c3ccc(-c4c5nc(c(-c6c(F)c(F)c(F)c(F)c6F)c6ccc([nH]6)c(-c6c(F)c(F)c(F)c(F)c6F)c6nc(c(-c7c(F)c(F)c(F)c(F)c7F)c7ccc4[nH]7)C=C6)C=C5)cc3)CC[C@@]3(C)C(=CC[C@H]4[C@@]5(C)CC[C@H](O)C(C)(C)[C@@H]5CC[C@]43C)[C@@H]2C1
REMARK SMILES IDX 12 1 11 2 10 3 9 4 7 5 8 6 6 8 1 9 2 10 3 11 4 12 103 13
REMARK SMILES IDX 5 14 102 15 84 16 80 17 82 18 85 19 81 20 83 21 100 22 86 23
REMARK SMILES IDX 87 24 99 25 101 26 88 27 98 28 89 29 90 30 97 31 91 32 94 33
REMARK SMILES IDX 92 34 95 35 96 36 93 37 13 39 14 40 15 41 16 43 17 44 18 45
REMARK SMILES IDX 79 46 19 47 78 48 20 49 21 50 22 51 72 52 23 53 77 54 71 55
REMARK SMILES IDX 73 56 24 57 76 58 70 59 69 60 25 62 57 63 37 64 56 65 38 66
REMARK SMILES IDX 41 67 55 68 74 69 39 70 40 71 54 73 75 74 42 75 26 76 27 77
REMARK SMILES IDX 35 78 28 79 29 80 33 81 36 82 30 83 31 84 34 85 32 86 58 87
REMARK SMILES IDX 59 88 67 89 60 90 61 91 65 92 68 93 62 94 63 95 66 96 64 97
REMARK SMILES IDX 43 98 44 99 52 100 45 101 46 102 50 103 53 104 47 105 48 106
REMARK SMILES IDX 51 107 49 108
REMARK H PARENT 9 7 93 38 14 42 73 61 41 72
REMARK Flexibility Score: inf
ROOT
ATOM      1  C   UNL A   1      46.733  25.864  24.676  1.00  0.00     0.023 C 
ENDROOT
BRANCH   1   2
ATOM      2  C   UNL A   1      46.001  27.183  24.980  1.00  0.00     0.023 C 
BRANCH   2   3
ATOM      3  C   UNL A   1      46.764  28.448  25.409  1.00  0.00     0.116 C 
BRANCH   3   4
ATOM      4  N   UNL A   1      47.333  28.608  26.730  1.00  0.00    -0.356 N 
ATOM      5  C   UNL A   1      47.887  29.770  27.263  1.00  0.00     0.226 C 
ATOM      6  O   UNL A   1      48.588  30.519  26.583  1.00  0.00    -0.274 OA
ATOM      7  H   UNL A   1      47.326  27.814  27.313  1.00  0.00     0.163 HD
BRANCH   5   8
ATOM      8  C   UNL A   1      47.416  30.180  28.717  1.00  0.00     0.056 C 
ATOM      9  C   UNL A   1      43.464  31.062  28.684  1.00  0.00     0.011 C 
ATOM     10  C   UNL A   1      44.540  30.365  27.833  1.00  0.00    -0.035 C 
ATOM     11  C   UNL A   1      43.814  29.973  26.509  1.00  0.00     0.011 C 
ATOM     12  C   UNL A   1      45.601  31.423  27.475  1.00  0.00     0.007 C 
ATOM     13  C   UNL A   1      45.091  29.085  28.615  1.00  0.00     0.015 C 
ATOM     14  C   UNL A   1      46.686  31.530  28.524  1.00  0.00     0.018 C 
ATOM     15  C   UNL A   1      46.482  29.152  29.395  1.00  0.00     0.031 C 
ATOM     16  C   UNL A   1      47.359  27.840  29.614  1.00  0.00    -0.064 C 
ATOM     17  C   UNL A   1      48.563  30.480  29.705  1.00  0.00     0.018 C 
ATOM     18  C   UNL A   1      48.754  27.951  30.337  1.00  0.00    -0.006 C 
ATOM     19  C   UNL A   1      46.986  26.665  29.083  1.00  0.00    -0.027 C 
ATOM     20  C   UNL A   1      49.455  29.285  29.987  1.00  0.00     0.013 C 
ATOM     21  C   UNL A   1      48.377  28.024  31.856  1.00  0.00     0.017 C 
ATOM     22  C   UNL A   1      49.800  26.667  30.071  1.00  0.00    -0.020 C 
ATOM     23  C   UNL A   1      47.941  25.590  28.661  1.00  0.00     0.032 C 
ATOM     24  C   UNL A   1      49.464  25.907  28.745  1.00  0.00     0.006 C 
ATOM     25  C   UNL A   1      51.354  26.983  30.135  1.00  0.00     0.008 C 
ATOM     26  C   UNL A   1      49.598  25.582  31.203  1.00  0.00     0.012 C 
ATOM     27  C   UNL A   1      50.277  26.223  27.378  1.00  0.00    -0.025 C 
ATOM     28  C   UNL A   1      52.229  26.508  28.935  1.00  0.00     0.005 C 
ATOM     29  C   UNL A   1      50.430  24.828  26.707  1.00  0.00     0.012 C 
ATOM     30  C   UNL A   1      49.581  27.142  26.392  1.00  0.00     0.010 C 
ATOM     31  C   UNL A   1      51.613  26.996  27.631  1.00  0.00     0.003 C 
ATOM     32  C   UNL A   1      50.301  27.454  25.078  1.00  0.00     0.033 C 
ATOM     33  C   UNL A   1      52.519  27.255  26.344  1.00  0.00    -0.006 C 
ATOM     34  C   UNL A   1      51.669  28.068  25.314  1.00  0.00     0.120 C 
ATOM     35  C   UNL A   1      53.089  25.995  25.667  1.00  0.00     0.014 C 
ATOM     36  C   UNL A   1      53.734  28.143  26.699  1.00  0.00     0.014 C 
BRANCH  34  37
ATOM     37  O   UNL A   1      52.334  28.191  24.055  1.00  0.00    -0.393 OA
ATOM     38  H   UNL A   1      53.223  27.811  24.121  1.00  0.00     0.210 HD
ENDBRANCH  34  37
ENDBRANCH   5   8
ENDBRANCH   3   4
ENDBRANCH   2   3
ENDBRANCH   1   2
BRANCH   1  39
ATOM     39  C   UNL A   1      46.212  24.630  25.389  1.00  0.00     0.116 C 
BRANCH  39  40
ATOM     40  N   UNL A   1      45.083  24.066  24.675  1.00  0.00    -0.352 N 
ATOM     41  C   UNL A   1      43.780  23.967  25.112  1.00  0.00     0.251 C 
ATOM     42  H   UNL A   1      45.269  23.714  23.775  1.00  0.00     0.163 HD
ATOM     43  O   UNL A   1      43.029  23.133  24.623  1.00  0.00    -0.269 OA
BRANCH  41  44
ATOM     44  C   UNL A   1      43.294  24.860  26.191  1.00  0.00     0.039 A 
ATOM     45  C   UNL A   1      43.035  26.205  25.915  1.00  0.00     0.014 A 
ATOM     46  C   UNL A   1      43.142  24.376  27.491  1.00  0.00     0.014 A 
ATOM     47  C   UNL A   1      42.590  27.052  26.936  1.00  0.00     0.010 A 
ATOM     48  C   UNL A   1      42.613  25.195  28.485  1.00  0.00     0.010 A 
ATOM     49  C   UNL A   1      42.355  26.550  28.227  1.00  0.00    -0.014 A 
BRANCH  49  50
ATOM     50  C   UNL A   1      41.892  27.422  29.339  1.00  0.00     0.031 A 
ATOM     51  C   UNL A   1      42.612  27.393  30.663  1.00  0.00     0.074 A 
ATOM     52  C   UNL A   1      40.787  28.180  29.188  1.00  0.00     0.049 A 
ATOM     53  N   UNL A   1      42.308  27.988  31.790  1.00  0.00    -0.248 NA
ATOM     54  C   UNL A   1      43.816  26.549  30.740  1.00  0.00     0.031 C 
ATOM     55  C   UNL A   1      39.974  28.257  27.975  1.00  0.00     0.029 A 
ATOM     56  N   UNL A   1      40.150  29.020  30.069  1.00  0.00    -0.354 N 
ATOM     57  C   UNL A   1      43.264  27.567  32.708  1.00  0.00     0.074 A 
ATOM     58  C   UNL A   1      44.117  26.619  32.029  1.00  0.00     0.031 C 
ATOM     59  C   UNL A   1      38.962  29.117  28.177  1.00  0.00     0.029 A 
ATOM     60  C   UNL A   1      39.030  29.620  29.546  1.00  0.00     0.049 A 
ATOM     61  H   UNL A   1      40.466  29.178  30.988  1.00  0.00     0.167 HD
ATOM     62  C   UNL A   1      43.434  27.960  33.994  1.00  0.00     0.037 A 
ATOM     63  C   UNL A   1      38.155  30.475  30.110  1.00  0.00     0.037 A 
ATOM     64  C   UNL A   1      42.606  28.936  34.651  1.00  0.00     0.049 A 
ATOM     65  C   UNL A   1      38.367  30.899  31.539  1.00  0.00     0.074 A 
ATOM     66  C   UNL A   1      42.733  29.458  35.926  1.00  0.00     0.029 A 
ATOM     67  N   UNL A   1      41.496  29.541  34.078  1.00  0.00    -0.354 N 
ATOM     68  N   UNL A   1      39.313  30.548  32.376  1.00  0.00    -0.248 NA
ATOM     69  C   UNL A   1      37.391  31.843  32.102  1.00  0.00     0.031 C 
ATOM     70  C   UNL A   1      41.670  30.342  36.142  1.00  0.00     0.029 A 
ATOM     71  C   UNL A   1      40.914  30.413  34.984  1.00  0.00     0.049 A 
ATOM     72  H   UNL A   1      41.172  29.375  33.164  1.00  0.00     0.167 HD
ATOM     73  C   UNL A   1      39.064  31.245  33.550  1.00  0.00     0.074 A 
ATOM     74  C   UNL A   1      37.888  32.054  33.313  1.00  0.00     0.031 C 
ATOM     75  C   UNL A   1      39.747  31.216  34.722  1.00  0.00     0.037 A 
BRANCH  62  76
ATOM     76  C   UNL A   1      44.564  27.341  34.769  1.00  0.00     0.064 A 
ATOM     77  C   UNL A   1      44.394  26.154  35.500  1.00  0.00     0.173 A 
ATOM     78  C   UNL A   1      45.839  27.925  34.760  1.00  0.00     0.173 A 
ATOM     79  F   UNL A   1      43.194  25.557  35.550  1.00  0.00    -0.203 F 
ATOM     80  C   UNL A   1      45.447  25.599  36.223  1.00  0.00     0.198 A 
ATOM     81  C   UNL A   1      46.899  27.348  35.457  1.00  0.00     0.198 A 
ATOM     82  F   UNL A   1      46.062  29.056  34.074  1.00  0.00    -0.203 F 
ATOM     83  F   UNL A   1      45.243  24.499  36.962  1.00  0.00    -0.200 F 
ATOM     84  C   UNL A   1      46.699  26.192  36.196  1.00  0.00     0.200 A 
ATOM     85  F   UNL A   1      48.113  27.915  35.418  1.00  0.00    -0.200 F 
ATOM     86  F   UNL A   1      47.712  25.653  36.888  1.00  0.00    -0.200 F 
ENDBRANCH  62  76
BRANCH  63  87
ATOM     87  C   UNL A   1      37.015  31.007  29.315  1.00  0.00     0.064 A 
ATOM     88  C   UNL A   1      37.029  32.323  28.833  1.00  0.00     0.173 A 
ATOM     89  C   UNL A   1      35.890  30.221  29.027  1.00  0.00     0.173 A 
ATOM     90  F   UNL A   1      38.072  33.123  29.100  1.00  0.00    -0.203 F 
ATOM     91  C   UNL A   1      35.955  32.839  28.109  1.00  0.00     0.198 A 
ATOM     92  C   UNL A   1      34.829  30.727  28.276  1.00  0.00     0.198 A 
ATOM     93  F   UNL A   1      35.827  28.953  29.460  1.00  0.00    -0.203 F 
ATOM     94  F   UNL A   1      35.975  34.115  27.701  1.00  0.00    -0.200 F 
ATOM     95  C   UNL A   1      34.859  32.038  27.826  1.00  0.00     0.200 A 
ATOM     96  F   UNL A   1      33.779  29.945  27.993  1.00  0.00    -0.200 F 
ATOM     97  F   UNL A   1      33.828  32.532  27.127  1.00  0.00    -0.200 F 
ENDBRANCH  63  87
BRANCH  75  98
ATOM     98  C   UNL A   1      39.257  32.107  35.827  1.00  0.00     0.064 A 
ATOM     99  C   UNL A   1      38.325  31.659  36.774  1.00  0.00     0.173 A 
ATOM    100  C   UNL A   1      39.767  33.407  35.968  1.00  0.00     0.173 A 
ATOM    101  F   UNL A   1      37.797  30.430  36.674  1.00  0.00    -0.203 F 
ATOM    102  C   UNL A   1      37.904  32.489  37.810  1.00  0.00     0.198 A 
ATOM    103  C   UNL A   1      39.369  34.222  37.023  1.00  0.00     0.198 A 
ATOM    104  F   UNL A   1      40.667  33.880  35.093  1.00  0.00    -0.203 F 
ATOM    105  F   UNL A   1      36.979  32.057  38.677  1.00  0.00    -0.200 F 
ATOM    106  C   UNL A   1      38.433  33.765  37.939  1.00  0.00     0.200 A 
ATOM    107  F   UNL A   1      39.893  35.448  37.156  1.00  0.00    -0.200 F 
ATOM    108  F   UNL A   1      38.036  34.558  38.944  1.00  0.00    -0.200 F 
ENDBRANCH  75  98
ENDBRANCH  49  50
ENDBRANCH  41  44
ENDBRANCH  39  40
ENDBRANCH   1  39
TORSDOF 12
ENDMDL
