MODEL 1
REMARK VINA RESULT:     -11.6      0.000      0.000
REMARK SMILES CC(C)(C)C(=O)N1CCCC[C@@H]1C(=O)NCCCCNC(=O)c1ccc(-c2c3nc(c(-c4c(F)c(F)c(F)c(F)c4F)c4ccc([nH]4)c(-c4c(F)c(F)c(F)c(F)c4F)c4nc(c(-c5c(F)c(F)c(F)c(F)c5F)c5ccc2[nH]5)C=C4)C=C3)cc1
REMARK SMILES IDX 17 1 16 2 15 3 13 4 14 5 12 7 7 8 8 9 9 10 11 11 10 12 5 13
REMARK SMILES IDX 6 14 2 15 1 16 3 17 4 18 18 19 19 20 20 21 21 22 22 24 23 25
REMARK SMILES IDX 24 26 85 27 25 28 84 29 26 30 27 31 28 32 78 33 29 34 83 35
REMARK SMILES IDX 77 36 79 37 30 38 82 39 76 40 75 41 31 43 63 44 43 45 62 46
REMARK SMILES IDX 44 47 47 48 61 49 80 50 45 51 46 52 60 54 81 55 48 56 32 57
REMARK SMILES IDX 33 58 41 59 34 60 35 61 39 62 42 63 36 64 37 65 40 66 38 67
REMARK SMILES IDX 64 68 65 69 73 70 66 71 67 72 71 73 74 74 68 75 69 76 72 77
REMARK SMILES IDX 70 78 49 79 50 80 58 81 51 82 52 83 56 84 59 85 53 86 54 87
REMARK SMILES IDX 57 88 55 89
REMARK H PARENT 15 6 20 23 79 42 47 53
REMARK Flexibility Score: inf
ROOT
ATOM      1  C   UNL A   1      31.469  30.713  26.354  1.00  0.00     0.023 C 
ENDROOT
BRANCH   1   2
ATOM      2  C   UNL A   1      32.872  30.162  26.139  1.00  0.00     0.116 C 
BRANCH   2   3
ATOM      3  N   UNL A   1      33.055  29.761  24.755  1.00  0.00    -0.354 N 
ATOM      4  C   UNL A   1      32.345  28.874  24.005  1.00  0.00     0.242 C 
ATOM      5  O   UNL A   1      32.797  28.578  22.895  1.00  0.00    -0.273 OA
ATOM      6  H   UNL A   1      33.808  30.194  24.290  1.00  0.00     0.163 HD
BRANCH   4   7
ATOM      7  C   UNL A   1      31.128  28.129  24.579  1.00  0.00     0.174 C 
ATOM      8  N   UNL A   1      31.313  26.728  25.029  1.00  0.00    -0.330 N 
ATOM      9  C   UNL A   1      30.076  25.959  25.185  1.00  0.00     0.120 C 
ATOM     10  C   UNL A   1      29.273  25.912  23.901  1.00  0.00     0.022 C 
ATOM     11  C   UNL A   1      30.100  28.225  23.403  1.00  0.00     0.035 C 
ATOM     12  C   UNL A   1      28.879  27.322  23.500  1.00  0.00     0.004 C 
BRANCH   8  13
ATOM     13  C   UNL A   1      32.451  26.092  25.503  1.00  0.00     0.228 C 
ATOM     14  O   UNL A   1      32.990  26.591  26.504  1.00  0.00    -0.274 OA
BRANCH  13  15
ATOM     15  C   UNL A   1      33.164  24.906  24.784  1.00  0.00     0.041 C 
ATOM     16  C   UNL A   1      34.631  24.886  25.296  1.00  0.00     0.021 C 
ATOM     17  C   UNL A   1      33.191  25.177  23.274  1.00  0.00     0.021 C 
ATOM     18  C   UNL A   1      32.631  23.497  25.029  1.00  0.00     0.021 C 
ENDBRANCH  13  15
ENDBRANCH   8  13
ENDBRANCH   4   7
ENDBRANCH   2   3
ENDBRANCH   1   2
BRANCH   1  19
ATOM     19  C   UNL A   1      31.424  32.231  26.508  1.00  0.00     0.023 C 
BRANCH  19  20
ATOM     20  C   UNL A   1      32.613  32.818  27.256  1.00  0.00     0.116 C 
BRANCH  20  21
ATOM     21  N   UNL A   1      32.397  34.209  27.625  1.00  0.00    -0.352 N 
ATOM     22  C   UNL A   1      32.966  34.922  28.651  1.00  0.00     0.251 C 
ATOM     23  H   UNL A   1      31.758  34.705  27.063  1.00  0.00     0.163 HD
ATOM     24  O   UNL A   1      32.528  36.018  28.972  1.00  0.00    -0.269 OA
BRANCH  22  25
ATOM     25  C   UNL A   1      34.111  34.339  29.377  1.00  0.00     0.039 A 
ATOM     26  C   UNL A   1      33.873  33.554  30.506  1.00  0.00     0.014 A 
ATOM     27  C   UNL A   1      35.417  34.558  28.928  1.00  0.00     0.014 A 
ATOM     28  C   UNL A   1      34.947  32.952  31.162  1.00  0.00     0.010 A 
ATOM     29  C   UNL A   1      36.474  33.884  29.525  1.00  0.00     0.010 A 
ATOM     30  C   UNL A   1      36.254  33.093  30.662  1.00  0.00    -0.014 A 
BRANCH  30  31
ATOM     31  C   UNL A   1      37.410  32.462  31.344  1.00  0.00     0.031 A 
ATOM     32  C   UNL A   1      38.158  31.347  30.665  1.00  0.00     0.074 A 
ATOM     33  C   UNL A   1      37.757  32.855  32.585  1.00  0.00     0.049 A 
ATOM     34  N   UNL A   1      39.159  30.628  31.108  1.00  0.00    -0.248 NA
ATOM     35  C   UNL A   1      37.699  30.968  29.319  1.00  0.00     0.031 C 
ATOM     36  C   UNL A   1      37.083  33.893  33.364  1.00  0.00     0.029 A 
ATOM     37  N   UNL A   1      38.764  32.421  33.410  1.00  0.00    -0.354 N 
ATOM     38  C   UNL A   1      39.434  29.709  30.103  1.00  0.00     0.074 A 
ATOM     39  C   UNL A   1      38.454  29.912  29.060  1.00  0.00     0.031 C 
ATOM     40  C   UNL A   1      37.713  34.038  34.541  1.00  0.00     0.029 A 
ATOM     41  C   UNL A   1      38.809  33.077  34.616  1.00  0.00     0.049 A 
ATOM     42  H   UNL A   1      39.394  31.706  33.161  1.00  0.00     0.167 HD
ATOM     43  C   UNL A   1      40.435  28.798  30.041  1.00  0.00     0.037 A 
ATOM     44  C   UNL A   1      39.640  32.915  35.663  1.00  0.00     0.037 A 
ATOM     45  C   UNL A   1      41.421  28.615  31.073  1.00  0.00     0.049 A 
ATOM     46  C   UNL A   1      40.738  31.887  35.574  1.00  0.00     0.074 A 
ATOM     47  C   UNL A   1      42.500  27.749  31.093  1.00  0.00     0.029 A 
ATOM     48  N   UNL A   1      41.444  29.311  32.273  1.00  0.00    -0.354 N 
ATOM     49  N   UNL A   1      41.029  31.066  34.594  1.00  0.00    -0.248 NA
ATOM     50  C   UNL A   1      41.631  31.775  36.735  1.00  0.00     0.031 C 
ATOM     51  C   UNL A   1      43.145  27.883  32.326  1.00  0.00     0.029 A 
ATOM     52  C   UNL A   1      42.510  28.882  33.048  1.00  0.00     0.049 A 
ATOM     53  H   UNL A   1      40.799  30.006  32.535  1.00  0.00     0.167 HD
ATOM     54  C   UNL A   1      42.162  30.373  35.000  1.00  0.00     0.074 A 
ATOM     55  C   UNL A   1      42.509  30.877  36.312  1.00  0.00     0.031 C 
ATOM     56  C   UNL A   1      42.855  29.408  34.344  1.00  0.00     0.037 A 
BRANCH  43  57
ATOM     57  C   UNL A   1      40.511  27.936  28.813  1.00  0.00     0.064 A 
ATOM     58  C   UNL A   1      39.824  26.713  28.725  1.00  0.00     0.173 A 
ATOM     59  C   UNL A   1      41.265  28.342  27.702  1.00  0.00     0.173 A 
ATOM     60  F   UNL A   1      39.098  26.270  29.762  1.00  0.00    -0.203 F 
ATOM     61  C   UNL A   1      39.918  25.917  27.587  1.00  0.00     0.198 A 
ATOM     62  C   UNL A   1      41.327  27.560  26.551  1.00  0.00     0.198 A 
ATOM     63  F   UNL A   1      41.938  29.502  27.728  1.00  0.00    -0.203 F 
ATOM     64  F   UNL A   1      39.304  24.726  27.552  1.00  0.00    -0.200 F 
ATOM     65  C   UNL A   1      40.664  26.343  26.498  1.00  0.00     0.200 A 
ATOM     66  F   UNL A   1      42.035  27.982  25.494  1.00  0.00    -0.200 F 
ATOM     67  F   UNL A   1      40.749  25.579  25.401  1.00  0.00    -0.200 F 
ENDBRANCH  43  57
BRANCH  44  68
ATOM     68  C   UNL A   1      39.494  33.770  36.870  1.00  0.00     0.064 A 
ATOM     69  C   UNL A   1      38.737  33.339  37.970  1.00  0.00     0.173 A 
ATOM     70  C   UNL A   1      40.090  35.038  36.947  1.00  0.00     0.173 A 
ATOM     71  F   UNL A   1      38.132  32.143  37.938  1.00  0.00    -0.203 F 
ATOM     72  C   UNL A   1      38.559  34.155  39.086  1.00  0.00     0.198 A 
ATOM     73  C   UNL A   1      39.937  35.838  38.078  1.00  0.00     0.198 A 
ATOM     74  F   UNL A   1      40.830  35.495  35.926  1.00  0.00    -0.203 F 
ATOM     75  F   UNL A   1      37.785  33.740  40.098  1.00  0.00    -0.200 F 
ATOM     76  C   UNL A   1      39.163  35.400  39.141  1.00  0.00     0.200 A 
ATOM     77  F   UNL A   1      40.537  37.035  38.133  1.00  0.00    -0.200 F 
ATOM     78  F   UNL A   1      38.992  36.184  40.215  1.00  0.00    -0.200 F 
ENDBRANCH  44  68
BRANCH  56  79
ATOM     79  C   UNL A   1      44.099  28.885  35.002  1.00  0.00     0.064 A 
ATOM     80  C   UNL A   1      44.083  27.761  35.842  1.00  0.00     0.173 A 
ATOM     81  C   UNL A   1      45.336  29.506  34.763  1.00  0.00     0.173 A 
ATOM     82  F   UNL A   1      42.927  27.138  36.113  1.00  0.00    -0.203 F 
ATOM     83  C   UNL A   1      45.251  27.303  36.447  1.00  0.00     0.198 A 
ATOM     84  C   UNL A   1      46.507  29.021  35.338  1.00  0.00     0.198 A 
ATOM     85  F   UNL A   1      45.410  30.578  33.960  1.00  0.00    -0.203 F 
ATOM     86  F   UNL A   1      45.201  26.266  37.294  1.00  0.00    -0.200 F 
ATOM     87  C   UNL A   1      46.461  27.928  36.189  1.00  0.00     0.200 A 
ATOM     88  F   UNL A   1      47.678  29.616  35.073  1.00  0.00    -0.200 F 
ATOM     89  F   UNL A   1      47.585  27.481  36.768  1.00  0.00    -0.200 F 
ENDBRANCH  56  79
ENDBRANCH  30  31
ENDBRANCH  22  25
ENDBRANCH  20  21
ENDBRANCH  19  20
ENDBRANCH   1  19
TORSDOF 13
ENDMDL
MODEL 2
REMARK VINA RESULT:     -11.5      4.224      8.050
REMARK SMILES CC(C)(C)C(=O)N1CCCC[C@@H]1C(=O)NCCCCNC(=O)c1ccc(-c2c3nc(c(-c4c(F)c(F)c(F)c(F)c4F)c4ccc([nH]4)c(-c4c(F)c(F)c(F)c(F)c4F)c4nc(c(-c5c(F)c(F)c(F)c(F)c5F)c5ccc2[nH]5)C=C4)C=C3)cc1
REMARK SMILES IDX 17 1 16 2 15 3 13 4 14 5 12 7 7 8 8 9 9 10 11 11 10 12 5 13
REMARK SMILES IDX 6 14 2 15 1 16 3 17 4 18 18 19 19 20 20 21 21 22 22 24 23 25
REMARK SMILES IDX 24 26 85 27 25 28 84 29 26 30 27 31 28 32 78 33 29 34 83 35
REMARK SMILES IDX 77 36 79 37 30 38 82 39 76 40 75 41 31 43 63 44 43 45 62 46
REMARK SMILES IDX 44 47 47 48 61 49 80 50 45 51 46 52 60 54 81 55 48 56 32 57
REMARK SMILES IDX 33 58 41 59 34 60 35 61 39 62 42 63 36 64 37 65 40 66 38 67
REMARK SMILES IDX 64 68 65 69 73 70 66 71 67 72 71 73 74 74 68 75 69 76 72 77
REMARK SMILES IDX 70 78 49 79 50 80 58 81 51 82 52 83 56 84 59 85 53 86 54 87
REMARK SMILES IDX 57 88 55 89
REMARK H PARENT 15 6 20 23 79 42 47 53
REMARK Flexibility Score: inf
ROOT
ATOM      1  C   UNL A   1      34.692  22.883  24.394  1.00  0.00     0.023 C 
ENDROOT
BRANCH   1   2
ATOM      2  C   UNL A   1      33.660  23.955  24.720  1.00  0.00     0.116 C 
BRANCH   2   3
ATOM      3  N   UNL A   1      33.968  25.189  24.021  1.00  0.00    -0.354 N 
ATOM      4  C   UNL A   1      33.827  26.480  24.431  1.00  0.00     0.242 C 
ATOM      5  O   UNL A   1      34.007  27.366  23.591  1.00  0.00    -0.273 OA
ATOM      6  H   UNL A   1      34.332  25.077  23.113  1.00  0.00     0.163 HD
BRANCH   4   7
ATOM      7  C   UNL A   1      33.291  26.824  25.831  1.00  0.00     0.174 C 
ATOM      8  N   UNL A   1      31.823  26.951  26.006  1.00  0.00    -0.330 N 
ATOM      9  C   UNL A   1      31.404  27.654  27.221  1.00  0.00     0.120 C 
ATOM     10  C   UNL A   1      31.984  29.052  27.297  1.00  0.00     0.022 C 
ATOM     11  C   UNL A   1      34.027  28.170  26.143  1.00  0.00     0.035 C 
ATOM     12  C   UNL A   1      33.500  28.967  27.326  1.00  0.00     0.004 C 
BRANCH   8  13
ATOM     13  C   UNL A   1      30.791  26.351  25.302  1.00  0.00     0.228 C 
ATOM     14  O   UNL A   1      30.391  25.256  25.729  1.00  0.00    -0.274 OA
BRANCH  13  15
ATOM     15  C   UNL A   1      30.218  26.879  23.952  1.00  0.00     0.041 C 
ATOM     16  C   UNL A   1      30.510  28.405  23.905  1.00  0.00     0.021 C 
ATOM     17  C   UNL A   1      28.697  26.685  23.941  1.00  0.00     0.021 C 
ATOM     18  C   UNL A   1      30.803  26.317  22.659  1.00  0.00     0.021 C 
ENDBRANCH  13  15
ENDBRANCH   8  13
ENDBRANCH   4   7
ENDBRANCH   2   3
ENDBRANCH   1   2
BRANCH   1  19
ATOM     19  C   UNL A   1      36.127  23.405  24.361  1.00  0.00     0.023 C 
BRANCH  19  20
ATOM     20  C   UNL A   1      36.759  23.581  25.735  1.00  0.00     0.116 C 
BRANCH  20  21
ATOM     21  N   UNL A   1      37.810  22.607  25.984  1.00  0.00    -0.352 N 
ATOM     22  C   UNL A   1      39.089  22.822  26.435  1.00  0.00     0.251 C 
ATOM     23  H   UNL A   1      37.572  21.668  25.805  1.00  0.00     0.163 HD
ATOM     24  O   UNL A   1      39.928  21.933  26.390  1.00  0.00    -0.269 OA
BRANCH  22  25
ATOM     25  C   UNL A   1      39.445  24.153  26.964  1.00  0.00     0.039 A 
ATOM     26  C   UNL A   1      39.193  24.442  28.305  1.00  0.00     0.014 A 
ATOM     27  C   UNL A   1      40.041  25.106  26.132  1.00  0.00     0.014 A 
ATOM     28  C   UNL A   1      39.581  25.677  28.825  1.00  0.00     0.010 A 
ATOM     29  C   UNL A   1      40.510  26.297  26.673  1.00  0.00     0.010 A 
ATOM     30  C   UNL A   1      40.264  26.605  28.019  1.00  0.00    -0.014 A 
BRANCH  30  31
ATOM     31  C   UNL A   1      40.684  27.924  28.552  1.00  0.00     0.031 A 
ATOM     32  C   UNL A   1      42.135  28.174  28.862  1.00  0.00     0.074 A 
ATOM     33  C   UNL A   1      39.764  28.875  28.800  1.00  0.00     0.049 A 
ATOM     34  N   UNL A   1      42.703  29.233  29.382  1.00  0.00    -0.248 NA
ATOM     35  C   UNL A   1      43.071  27.073  28.579  1.00  0.00     0.031 C 
ATOM     36  C   UNL A   1      38.324  28.737  28.582  1.00  0.00     0.029 A 
ATOM     37  N   UNL A   1      39.905  30.147  29.295  1.00  0.00    -0.354 N 
ATOM     38  C   UNL A   1      44.050  28.918  29.499  1.00  0.00     0.074 A 
ATOM     39  C   UNL A   1      44.206  27.548  29.064  1.00  0.00     0.031 C 
ATOM     40  C   UNL A   1      37.717  29.888  28.913  1.00  0.00     0.029 A 
ATOM     41  C   UNL A   1      38.719  30.831  29.402  1.00  0.00     0.049 A 
ATOM     42  H   UNL A   1      40.775  30.532  29.550  1.00  0.00     0.167 HD
ATOM     43  C   UNL A   1      45.073  29.710  29.903  1.00  0.00     0.037 A 
ATOM     44  C   UNL A   1      38.471  32.077  29.849  1.00  0.00     0.037 A 
ATOM     45  C   UNL A   1      44.915  31.080  30.315  1.00  0.00     0.049 A 
ATOM     46  C   UNL A   1      39.624  32.933  30.304  1.00  0.00     0.074 A 
ATOM     47  C   UNL A   1      45.888  31.982  30.704  1.00  0.00     0.029 A 
ATOM     48  N   UNL A   1      43.699  31.743  30.393  1.00  0.00    -0.354 N 
ATOM     49  N   UNL A   1      40.903  32.648  30.352  1.00  0.00    -0.248 NA
ATOM     50  C   UNL A   1      39.296  34.293  30.754  1.00  0.00     0.031 C 
ATOM     51  C   UNL A   1      45.257  33.175  31.068  1.00  0.00     0.029 A 
ATOM     52  C   UNL A   1      43.896  33.039  30.841  1.00  0.00     0.049 A 
ATOM     53  H   UNL A   1      42.825  31.351  30.165  1.00  0.00     0.167 HD
ATOM     54  C   UNL A   1      41.535  33.802  30.794  1.00  0.00     0.074 A 
ATOM     55  C   UNL A   1      40.500  34.794  30.991  1.00  0.00     0.031 C 
ATOM     56  C   UNL A   1      42.856  34.022  31.012  1.00  0.00     0.037 A 
BRANCH  43  57
ATOM     57  C   UNL A   1      46.450  29.110  29.914  1.00  0.00     0.064 A 
ATOM     58  C   UNL A   1      46.970  28.473  31.053  1.00  0.00     0.173 A 
ATOM     59  C   UNL A   1      47.257  29.156  28.766  1.00  0.00     0.173 A 
ATOM     60  F   UNL A   1      46.248  28.412  32.182  1.00  0.00    -0.203 F 
ATOM     61  C   UNL A   1      48.256  27.938  31.053  1.00  0.00     0.198 A 
ATOM     62  C   UNL A   1      48.528  28.587  28.758  1.00  0.00     0.198 A 
ATOM     63  F   UNL A   1      46.811  29.747  27.649  1.00  0.00    -0.203 F 
ATOM     64  F   UNL A   1      48.751  27.391  32.172  1.00  0.00    -0.200 F 
ATOM     65  C   UNL A   1      49.031  27.988  29.904  1.00  0.00     0.200 A 
ATOM     66  F   UNL A   1      49.269  28.622  27.643  1.00  0.00    -0.200 F 
ATOM     67  F   UNL A   1      50.266  27.468  29.904  1.00  0.00    -0.200 F 
ENDBRANCH  43  57
BRANCH  44  68
ATOM     68  C   UNL A   1      37.081  32.605  29.853  1.00  0.00     0.064 A 
ATOM     69  C   UNL A   1      36.571  33.298  28.746  1.00  0.00     0.173 A 
ATOM     70  C   UNL A   1      36.241  32.444  30.965  1.00  0.00     0.173 A 
ATOM     71  F   UNL A   1      37.341  33.495  27.666  1.00  0.00    -0.203 F 
ATOM     72  C   UNL A   1      35.284  33.835  28.762  1.00  0.00     0.198 A 
ATOM     73  C   UNL A   1      34.943  32.953  30.965  1.00  0.00     0.198 A 
ATOM     74  F   UNL A   1      36.677  31.783  32.046  1.00  0.00    -0.203 F 
ATOM     75  F   UNL A   1      34.844  34.540  27.712  1.00  0.00    -0.200 F 
ATOM     76  C   UNL A   1      34.471  33.657  29.869  1.00  0.00     0.200 A 
ATOM     77  F   UNL A   1      34.154  32.764  32.032  1.00  0.00    -0.200 F 
ATOM     78  F   UNL A   1      33.234  34.172  29.884  1.00  0.00    -0.200 F 
ENDBRANCH  44  68
BRANCH  56  79
ATOM     79  C   UNL A   1      43.266  35.409  31.421  1.00  0.00     0.064 A 
ATOM     80  C   UNL A   1      43.654  36.378  30.485  1.00  0.00     0.173 A 
ATOM     81  C   UNL A   1      43.240  35.779  32.776  1.00  0.00     0.173 A 
ATOM     82  F   UNL A   1      43.707  36.074  29.179  1.00  0.00    -0.203 F 
ATOM     83  C   UNL A   1      44.038  37.654  30.892  1.00  0.00     0.198 A 
ATOM     84  C   UNL A   1      43.588  37.066  33.175  1.00  0.00     0.198 A 
ATOM     85  F   UNL A   1      42.867  34.894  33.712  1.00  0.00    -0.203 F 
ATOM     86  F   UNL A   1      44.465  38.543  29.986  1.00  0.00    -0.200 F 
ATOM     87  C   UNL A   1      43.997  37.998  32.235  1.00  0.00     0.200 A 
ATOM     88  F   UNL A   1      43.530  37.402  34.472  1.00  0.00    -0.200 F 
ATOM     89  F   UNL A   1      44.362  39.228  32.624  1.00  0.00    -0.200 F 
ENDBRANCH  56  79
ENDBRANCH  30  31
ENDBRANCH  22  25
ENDBRANCH  20  21
ENDBRANCH  19  20
ENDBRANCH   1  19
TORSDOF 13
ENDMDL
MODEL 3
REMARK VINA RESULT:     -11.5      0.682      2.676
REMARK SMILES CC(C)(C)C(=O)N1CCCC[C@@H]1C(=O)NCCCCNC(=O)c1ccc(-c2c3nc(c(-c4c(F)c(F)c(F)c(F)c4F)c4ccc([nH]4)c(-c4c(F)c(F)c(F)c(F)c4F)c4nc(c(-c5c(F)c(F)c(F)c(F)c5F)c5ccc2[nH]5)C=C4)C=C3)cc1
REMARK SMILES IDX 17 1 16 2 15 3 13 4 14 5 12 7 7 8 8 9 9 10 11 11 10 12 5 13
REMARK SMILES IDX 6 14 2 15 1 16 3 17 4 18 18 19 19 20 20 21 21 22 22 24 23 25
REMARK SMILES IDX 24 26 85 27 25 28 84 29 26 30 27 31 28 32 78 33 29 34 83 35
REMARK SMILES IDX 77 36 79 37 30 38 82 39 76 40 75 41 31 43 63 44 43 45 62 46
REMARK SMILES IDX 44 47 47 48 61 49 80 50 45 51 46 52 60 54 81 55 48 56 32 57
REMARK SMILES IDX 33 58 41 59 34 60 35 61 39 62 42 63 36 64 37 65 40 66 38 67
REMARK SMILES IDX 64 68 65 69 73 70 66 71 67 72 71 73 74 74 68 75 69 76 72 77
REMARK SMILES IDX 70 78 49 79 50 80 58 81 51 82 52 83 56 84 59 85 53 86 54 87
REMARK SMILES IDX 57 88 55 89
REMARK H PARENT 15 6 20 23 79 42 47 53
REMARK Flexibility Score: inf
ROOT
ATOM      1  C   UNL A   1      31.560  30.842  26.015  1.00  0.00     0.023 C 
ENDROOT
BRANCH   1   2
ATOM      2  C   UNL A   1      32.348  29.909  26.925  1.00  0.00     0.116 C 
BRANCH   2   3
ATOM      3  N   UNL A   1      31.598  28.693  27.182  1.00  0.00    -0.354 N 
ATOM      4  C   UNL A   1      31.833  27.420  26.759  1.00  0.00     0.242 C 
ATOM      5  O   UNL A   1      30.956  26.578  26.976  1.00  0.00    -0.273 OA
ATOM      6  H   UNL A   1      30.798  28.805  27.745  1.00  0.00     0.163 HD
BRANCH   4   7
ATOM      7  C   UNL A   1      33.053  27.075  25.888  1.00  0.00     0.174 C 
ATOM      8  N   UNL A   1      32.908  27.164  24.415  1.00  0.00    -0.330 N 
ATOM      9  C   UNL A   1      33.938  26.459  23.649  1.00  0.00     0.120 C 
ATOM     10  C   UNL A   1      34.000  24.986  24.001  1.00  0.00     0.022 C 
ATOM     11  C   UNL A   1      33.381  25.615  26.348  1.00  0.00     0.035 C 
ATOM     12  C   UNL A   1      34.349  24.834  25.470  1.00  0.00     0.004 C 
BRANCH   8  13
ATOM     13  C   UNL A   1      32.066  27.959  23.653  1.00  0.00     0.228 C 
ATOM     14  O   UNL A   1      32.367  29.160  23.564  1.00  0.00    -0.274 OA
BRANCH  13  15
ATOM     15  C   UNL A   1      30.714  27.482  23.041  1.00  0.00     0.041 C 
ATOM     16  C   UNL A   1      31.064  26.550  21.847  1.00  0.00     0.021 C 
ATOM     17  C   UNL A   1      29.955  28.696  22.490  1.00  0.00     0.021 C 
ATOM     18  C   UNL A   1      29.777  26.667  23.928  1.00  0.00     0.021 C 
ENDBRANCH  13  15
ENDBRANCH   8  13
ENDBRANCH   4   7
ENDBRANCH   2   3
ENDBRANCH   1   2
BRANCH   1  19
ATOM     19  C   UNL A   1      31.328  32.228  26.612  1.00  0.00     0.023 C 
BRANCH  19  20
ATOM     20  C   UNL A   1      32.540  32.811  27.327  1.00  0.00     0.116 C 
BRANCH  20  21
ATOM     21  N   UNL A   1      32.369  34.222  27.634  1.00  0.00    -0.352 N 
ATOM     22  C   UNL A   1      32.981  34.967  28.612  1.00  0.00     0.251 C 
ATOM     23  H   UNL A   1      31.728  34.708  27.066  1.00  0.00     0.163 HD
ATOM     24  O   UNL A   1      32.580  36.088  28.891  1.00  0.00    -0.269 OA
BRANCH  22  25
ATOM     25  C   UNL A   1      34.130  34.387  29.337  1.00  0.00     0.039 A 
ATOM     26  C   UNL A   1      33.897  33.632  30.487  1.00  0.00     0.014 A 
ATOM     27  C   UNL A   1      35.432  34.582  28.866  1.00  0.00     0.014 A 
ATOM     28  C   UNL A   1      34.973  33.033  31.142  1.00  0.00     0.010 A 
ATOM     29  C   UNL A   1      36.489  33.910  29.465  1.00  0.00     0.010 A 
ATOM     30  C   UNL A   1      36.275  33.148  30.623  1.00  0.00    -0.014 A 
BRANCH  30  31
ATOM     31  C   UNL A   1      37.433  32.519  31.305  1.00  0.00     0.031 A 
ATOM     32  C   UNL A   1      38.179  31.402  30.628  1.00  0.00     0.074 A 
ATOM     33  C   UNL A   1      37.783  32.917  32.544  1.00  0.00     0.049 A 
ATOM     34  N   UNL A   1      39.181  30.684  31.072  1.00  0.00    -0.248 NA
ATOM     35  C   UNL A   1      37.717  31.017  29.285  1.00  0.00     0.031 C 
ATOM     36  C   UNL A   1      37.110  33.959  33.320  1.00  0.00     0.029 A 
ATOM     37  N   UNL A   1      38.791  32.487  33.368  1.00  0.00    -0.354 N 
ATOM     38  C   UNL A   1      39.455  29.762  30.070  1.00  0.00     0.074 A 
ATOM     39  C   UNL A   1      38.472  29.961  29.029  1.00  0.00     0.031 C 
ATOM     40  C   UNL A   1      37.742  34.108  34.495  1.00  0.00     0.029 A 
ATOM     41  C   UNL A   1      38.839  33.147  34.571  1.00  0.00     0.049 A 
ATOM     42  H   UNL A   1      39.421  31.771  33.120  1.00  0.00     0.167 HD
ATOM     43  C   UNL A   1      40.456  28.851  30.009  1.00  0.00     0.037 A 
ATOM     44  C   UNL A   1      39.673  32.990  35.616  1.00  0.00     0.037 A 
ATOM     45  C   UNL A   1      41.444  28.672  31.040  1.00  0.00     0.049 A 
ATOM     46  C   UNL A   1      40.770  31.961  35.529  1.00  0.00     0.074 A 
ATOM     47  C   UNL A   1      42.523  27.807  31.060  1.00  0.00     0.029 A 
ATOM     48  N   UNL A   1      41.469  29.373  32.237  1.00  0.00    -0.354 N 
ATOM     49  N   UNL A   1      41.059  31.137  34.552  1.00  0.00    -0.248 NA
ATOM     50  C   UNL A   1      41.666  31.855  36.689  1.00  0.00     0.031 C 
ATOM     51  C   UNL A   1      43.171  27.946  32.291  1.00  0.00     0.029 A 
ATOM     52  C   UNL A   1      42.537  28.947  33.011  1.00  0.00     0.049 A 
ATOM     53  H   UNL A   1      40.825  30.069  32.498  1.00  0.00     0.167 HD
ATOM     54  C   UNL A   1      42.193  30.445  34.958  1.00  0.00     0.074 A 
ATOM     55  C   UNL A   1      42.543  30.955  36.267  1.00  0.00     0.031 C 
ATOM     56  C   UNL A   1      42.885  29.479  34.304  1.00  0.00     0.037 A 
BRANCH  43  57
ATOM     57  C   UNL A   1      40.528  27.984  28.784  1.00  0.00     0.064 A 
ATOM     58  C   UNL A   1      41.277  28.358  27.656  1.00  0.00     0.173 A 
ATOM     59  C   UNL A   1      39.856  26.753  28.742  1.00  0.00     0.173 A 
ATOM     60  F   UNL A   1      41.930  29.530  27.638  1.00  0.00    -0.203 F 
ATOM     61  C   UNL A   1      41.320  27.552  26.522  1.00  0.00     0.198 A 
ATOM     62  C   UNL A   1      39.931  25.931  27.620  1.00  0.00     0.198 A 
ATOM     63  F   UNL A   1      39.129  26.342  29.791  1.00  0.00    -0.203 F 
ATOM     64  F   UNL A   1      41.991  27.961  25.437  1.00  0.00    -0.200 F 
ATOM     65  C   UNL A   1      40.654  26.336  26.507  1.00  0.00     0.200 A 
ATOM     66  F   UNL A   1      39.300  24.749  27.613  1.00  0.00    -0.200 F 
ATOM     67  F   UNL A   1      40.700  25.558  25.417  1.00  0.00    -0.200 F 
ENDBRANCH  43  57
BRANCH  44  68
ATOM     68  C   UNL A   1      39.529  33.850  36.821  1.00  0.00     0.064 A 
ATOM     69  C   UNL A   1      40.133  35.115  36.879  1.00  0.00     0.173 A 
ATOM     70  C   UNL A   1      38.802  33.423  37.943  1.00  0.00     0.173 A 
ATOM     71  F   UNL A   1      40.854  35.560  35.841  1.00  0.00    -0.203 F 
ATOM     72  C   UNL A   1      40.039  35.906  38.023  1.00  0.00     0.198 A 
ATOM     73  C   UNL A   1      38.683  34.230  39.072  1.00  0.00     0.198 A 
ATOM     74  F   UNL A   1      38.199  32.226  37.936  1.00  0.00    -0.203 F 
ATOM     75  F   UNL A   1      40.673  37.085  38.070  1.00  0.00    -0.200 F 
ATOM     76  C   UNL A   1      39.310  35.465  39.115  1.00  0.00     0.200 A 
ATOM     77  F   UNL A   1      37.963  33.807  40.120  1.00  0.00    -0.200 F 
ATOM     78  F   UNL A   1      39.220  36.227  40.214  1.00  0.00    -0.200 F 
ENDBRANCH  44  68
BRANCH  56  79
ATOM     79  C   UNL A   1      44.131  28.958  34.961  1.00  0.00     0.064 A 
ATOM     80  C   UNL A   1      45.386  29.551  34.757  1.00  0.00     0.173 A 
ATOM     81  C   UNL A   1      44.060  27.861  35.836  1.00  0.00     0.173 A 
ATOM     82  F   UNL A   1      45.512  30.594  33.923  1.00  0.00    -0.203 F 
ATOM     83  C   UNL A   1      46.527  29.042  35.372  1.00  0.00     0.198 A 
ATOM     84  C   UNL A   1      45.197  27.380  36.478  1.00  0.00     0.198 A 
ATOM     85  F   UNL A   1      42.883  27.263  36.075  1.00  0.00    -0.203 F 
ATOM     86  F   UNL A   1      47.724  29.586  35.112  1.00  0.00    -0.200 F 
ATOM     87  C   UNL A   1      46.430  27.963  36.237  1.00  0.00     0.200 A 
ATOM     88  F   UNL A   1      45.097  26.347  37.328  1.00  0.00    -0.200 F 
ATOM     89  F   UNL A   1      47.530  27.478  36.832  1.00  0.00    -0.200 F 
ENDBRANCH  56  79
ENDBRANCH  30  31
ENDBRANCH  22  25
ENDBRANCH  20  21
ENDBRANCH  19  20
ENDBRANCH   1  19
TORSDOF 13
ENDMDL
