MODEL 1
REMARK VINA RESULT:     -13.0      0.000      0.000
REMARK SMILES NC(=O)C1CC[NH+](Cc2ccc(C(=O)NCCCCNC(=O)c3ccc(-c4c5nc(c(-c6c(F)c(F)c(F)c(F)c6F)c6ccc([nH]6)c(-c6c(F)c(F)c(F)c(F)c6F)c6nc(c(-c7c(F)c(F)c(F)c(F)c7F)c7ccc4[nH]7)C=C6)C=C5)cc3)cc2)CC1
REMARK SMILES IDX 17 1 16 2 15 3 13 4 14 5 12 7 9 8 10 9 87 10 11 11 86 12
REMARK SMILES IDX 8 13 7 14 4 15 5 16 89 17 6 18 88 19 2 21 1 22 3 25 18 26
REMARK SMILES IDX 19 27 20 28 21 29 22 31 23 32 24 33 85 34 25 35 84 36 26 37
REMARK SMILES IDX 27 38 28 39 78 40 29 41 83 42 77 43 79 44 30 45 82 46 76 47
REMARK SMILES IDX 75 48 31 50 63 51 43 52 62 53 44 54 47 55 61 56 80 57 45 58
REMARK SMILES IDX 46 59 60 61 81 62 48 63 32 64 33 65 41 66 34 67 35 68 39 69
REMARK SMILES IDX 42 70 36 71 37 72 40 73 38 74 64 75 65 76 73 77 66 78 67 79
REMARK SMILES IDX 71 80 74 81 68 82 69 83 72 84 70 85 49 86 50 87 58 88 51 89
REMARK SMILES IDX 52 90 56 91 59 92 53 93 54 94 57 95 55 96
REMARK H PARENT 15 6 7 20 1 23 1 24 20 30 79 49 47 60
REMARK Flexibility Score: inf
ROOT
ATOM      1  C   UNL A   1      31.775  30.497  26.865  1.00  0.00     0.023 C 
ENDROOT
BRANCH   1   2
ATOM      2  C   UNL A   1      32.920  30.054  25.951  1.00  0.00     0.116 C 
BRANCH   2   3
ATOM      3  N   UNL A   1      32.430  29.724  24.625  1.00  0.00    -0.352 N 
ATOM      4  C   UNL A   1      32.036  28.522  24.088  1.00  0.00     0.251 C 
ATOM      5  O   UNL A   1      31.562  28.511  22.953  1.00  0.00    -0.269 OA
ATOM      6  H   UNL A   1      32.368  30.488  24.008  1.00  0.00     0.163 HD
BRANCH   4   7
ATOM      7  C   UNL A   1      32.104  27.255  24.861  1.00  0.00     0.039 A 
ATOM      8  C   UNL A   1      32.333  24.754  26.136  1.00  0.00     0.006 A 
ATOM      9  C   UNL A   1      33.469  25.401  25.630  1.00  0.00     0.010 A 
ATOM     10  C   UNL A   1      31.102  25.422  26.088  1.00  0.00     0.010 A 
ATOM     11  C   UNL A   1      33.354  26.642  24.997  1.00  0.00     0.014 A 
ATOM     12  C   UNL A   1      30.992  26.668  25.468  1.00  0.00     0.014 A 
BRANCH   8  13
ATOM     13  C   UNL A   1      32.416  23.340  26.675  1.00  0.00     0.299 C 
BRANCH  13  14
ATOM     14  N   UNL A   1      32.969  22.326  25.754  1.00  0.00    -0.331 N 
ATOM     15  C   UNL A   1      33.497  19.727  24.489  1.00  0.00     0.089 C 
ATOM     16  C   UNL A   1      34.497  20.397  25.435  1.00  0.00     0.075 C 
ATOM     17  C   UNL A   1      32.574  20.782  23.870  1.00  0.00     0.075 C 
ATOM     18  C   UNL A   1      33.818  21.339  26.433  1.00  0.00     0.263 C 
ATOM     19  C   UNL A   1      31.940  21.681  24.935  1.00  0.00     0.263 C 
ATOM     20  H   UNL A   1      33.575  22.842  25.115  1.00  0.00     0.348 HD
BRANCH  15  21
ATOM     21  C   UNL A   1      32.698  18.625  25.181  1.00  0.00     0.220 C 
ATOM     22  N   UNL A   1      32.957  18.477  26.513  1.00  0.00    -0.369 N 
ATOM     23  H   UNL A   1      32.485  17.787  27.032  1.00  0.00     0.159 HD
ATOM     24  H   UNL A   1      33.617  19.060  26.954  1.00  0.00     0.159 HD
ATOM     25  O   UNL A   1      31.865  17.913  24.634  1.00  0.00    -0.275 OA
ENDBRANCH  15  21
ENDBRANCH  13  14
ENDBRANCH   8  13
ENDBRANCH   4   7
ENDBRANCH   2   3
ENDBRANCH   1   2
BRANCH   1  26
ATOM     26  C   UNL A   1      31.528  32.007  26.888  1.00  0.00     0.023 C 
BRANCH  26  27
ATOM     27  C   UNL A   1      32.749  32.857  27.219  1.00  0.00     0.116 C 
BRANCH  27  28
ATOM     28  N   UNL A   1      32.412  34.214  27.619  1.00  0.00    -0.352 N 
ATOM     29  C   UNL A   1      32.973  34.989  28.605  1.00  0.00     0.251 C 
ATOM     30  H   UNL A   1      31.681  34.636  27.114  1.00  0.00     0.163 HD
ATOM     31  O   UNL A   1      32.490  36.078  28.887  1.00  0.00    -0.269 OA
BRANCH  29  32
ATOM     32  C   UNL A   1      34.143  34.484  29.357  1.00  0.00     0.039 A 
ATOM     33  C   UNL A   1      33.928  33.874  30.596  1.00  0.00     0.014 A 
ATOM     34  C   UNL A   1      35.437  34.596  28.842  1.00  0.00     0.014 A 
ATOM     35  C   UNL A   1      35.004  33.317  31.286  1.00  0.00     0.010 A 
ATOM     36  C   UNL A   1      36.497  33.976  29.497  1.00  0.00     0.010 A 
ATOM     37  C   UNL A   1      36.292  33.330  30.725  1.00  0.00    -0.014 A 
BRANCH  37  38
ATOM     38  C   UNL A   1      37.425  32.657  31.405  1.00  0.00     0.031 A 
ATOM     39  C   UNL A   1      38.122  31.496  30.755  1.00  0.00     0.074 A 
ATOM     40  C   UNL A   1      37.785  33.056  32.639  1.00  0.00     0.049 A 
ATOM     41  N   UNL A   1      39.114  30.769  31.206  1.00  0.00    -0.248 NA
ATOM     42  C   UNL A   1      37.619  31.074  29.439  1.00  0.00     0.031 C 
ATOM     43  C   UNL A   1      37.137  34.123  33.404  1.00  0.00     0.029 A 
ATOM     44  N   UNL A   1      38.777  32.605  33.473  1.00  0.00    -0.354 N 
ATOM     45  C   UNL A   1      39.343  29.800  30.237  1.00  0.00     0.074 A 
ATOM     46  C   UNL A   1      38.353  29.997  29.201  1.00  0.00     0.031 C 
ATOM     47  C   UNL A   1      37.762  34.260  34.584  1.00  0.00     0.029 A 
ATOM     48  C   UNL A   1      38.833  33.273  34.673  1.00  0.00     0.049 A 
ATOM     49  H   UNL A   1      39.389  31.872  33.236  1.00  0.00     0.167 HD
ATOM     50  C   UNL A   1      40.307  28.850  30.206  1.00  0.00     0.037 A 
ATOM     51  C   UNL A   1      39.656  33.106  35.725  1.00  0.00     0.037 A 
ATOM     52  C   UNL A   1      41.306  28.676  31.228  1.00  0.00     0.049 A 
ATOM     53  C   UNL A   1      40.736  32.062  35.653  1.00  0.00     0.074 A 
ATOM     54  C   UNL A   1      42.377  27.799  31.249  1.00  0.00     0.029 A 
ATOM     55  N   UNL A   1      41.352  29.391  32.416  1.00  0.00    -0.354 N 
ATOM     56  N   UNL A   1      41.005  31.214  34.690  1.00  0.00    -0.248 NA
ATOM     57  C   UNL A   1      41.635  31.959  36.811  1.00  0.00     0.031 C 
ATOM     58  C   UNL A   1      43.040  27.948  32.471  1.00  0.00     0.029 A 
ATOM     59  C   UNL A   1      42.417  28.956  33.190  1.00  0.00     0.049 A 
ATOM     60  H   UNL A   1      40.723  30.104  32.672  1.00  0.00     0.167 HD
ATOM     61  C   UNL A   1      42.112  30.493  35.114  1.00  0.00     0.074 A 
ATOM     62  C   UNL A   1      42.479  31.018  36.413  1.00  0.00     0.031 C 
ATOM     63  C   UNL A   1      42.765  29.484  34.485  1.00  0.00     0.037 A 
BRANCH  50  64
ATOM     64  C   UNL A   1      40.327  27.922  29.026  1.00  0.00     0.064 A 
ATOM     65  C   UNL A   1      41.069  28.214  27.869  1.00  0.00     0.173 A 
ATOM     66  C   UNL A   1      39.621  26.710  29.060  1.00  0.00     0.173 A 
ATOM     67  F   UNL A   1      41.754  29.364  27.779  1.00  0.00    -0.203 F 
ATOM     68  C   UNL A   1      41.074  27.345  26.782  1.00  0.00     0.198 A 
ATOM     69  C   UNL A   1      39.654  25.828  27.982  1.00  0.00     0.198 A 
ATOM     70  F   UNL A   1      38.900  26.378  30.141  1.00  0.00    -0.203 F 
ATOM     71  F   UNL A   1      41.747  27.671  25.668  1.00  0.00    -0.200 F 
ATOM     72  C   UNL A   1      40.373  26.150  26.842  1.00  0.00     0.200 A 
ATOM     73  F   UNL A   1      38.986  24.668  28.047  1.00  0.00    -0.200 F 
ATOM     74  F   UNL A   1      40.383  25.312  25.795  1.00  0.00    -0.200 F 
ENDBRANCH  50  64
BRANCH  51  75
ATOM     75  C   UNL A   1      39.507  33.974  36.922  1.00  0.00     0.064 A 
ATOM     76  C   UNL A   1      38.758  33.552  38.030  1.00  0.00     0.173 A 
ATOM     77  C   UNL A   1      40.118  35.234  36.988  1.00  0.00     0.173 A 
ATOM     78  F   UNL A   1      38.140  32.362  38.005  1.00  0.00    -0.203 F 
ATOM     79  C   UNL A   1      38.611  34.366  39.151  1.00  0.00     0.198 A 
ATOM     80  C   UNL A   1      39.993  36.035  38.122  1.00  0.00     0.198 A 
ATOM     81  F   UNL A   1      40.850  35.681  35.958  1.00  0.00    -0.203 F 
ATOM     82  F   UNL A   1      37.856  33.956  40.178  1.00  0.00    -0.200 F 
ATOM     83  C   UNL A   1      39.235  35.604  39.198  1.00  0.00     0.200 A 
ATOM     84  F   UNL A   1      40.609  37.224  38.170  1.00  0.00    -0.200 F 
ATOM     85  F   UNL A   1      39.099  36.383  40.280  1.00  0.00    -0.200 F 
ENDBRANCH  51  75
BRANCH  63  86
ATOM     86  C   UNL A   1      43.954  28.897  35.187  1.00  0.00     0.064 A 
ATOM     87  C   UNL A   1      43.818  27.860  36.122  1.00  0.00     0.173 A 
ATOM     88  C   UNL A   1      45.249  29.357  34.901  1.00  0.00     0.173 A 
ATOM     89  F   UNL A   1      42.601  27.395  36.442  1.00  0.00    -0.203 F 
ATOM     90  C   UNL A   1      44.931  27.327  36.768  1.00  0.00     0.198 A 
ATOM     91  C   UNL A   1      46.361  28.800  35.526  1.00  0.00     0.198 A 
ATOM     92  F   UNL A   1      45.435  30.342  34.010  1.00  0.00    -0.203 F 
ATOM     93  F   UNL A   1      44.771  26.375  37.697  1.00  0.00    -0.200 F 
ATOM     94  C   UNL A   1      46.201  27.793  36.464  1.00  0.00     0.200 A 
ATOM     95  F   UNL A   1      47.590  29.242  35.221  1.00  0.00    -0.200 F 
ATOM     96  F   UNL A   1      47.272  27.276  37.084  1.00  0.00    -0.200 F 
ENDBRANCH  63  86
ENDBRANCH  37  38
ENDBRANCH  29  32
ENDBRANCH  27  28
ENDBRANCH  26  27
ENDBRANCH   1  26
TORSDOF 14
ENDMDL
MODEL 2
REMARK VINA RESULT:     -12.9      0.696      7.337
REMARK SMILES NC(=O)C1CC[NH+](Cc2ccc(C(=O)NCCCCNC(=O)c3ccc(-c4c5nc(c(-c6c(F)c(F)c(F)c(F)c6F)c6ccc([nH]6)c(-c6c(F)c(F)c(F)c(F)c6F)c6nc(c(-c7c(F)c(F)c(F)c(F)c7F)c7ccc4[nH]7)C=C6)C=C5)cc3)cc2)CC1
REMARK SMILES IDX 17 1 16 2 15 3 13 4 14 5 12 7 9 8 10 9 87 10 11 11 86 12
REMARK SMILES IDX 8 13 7 14 4 15 5 16 89 17 6 18 88 19 2 21 1 22 3 25 18 26
REMARK SMILES IDX 19 27 20 28 21 29 22 31 23 32 24 33 85 34 25 35 84 36 26 37
REMARK SMILES IDX 27 38 28 39 78 40 29 41 83 42 77 43 79 44 30 45 82 46 76 47
REMARK SMILES IDX 75 48 31 50 63 51 43 52 62 53 44 54 47 55 61 56 80 57 45 58
REMARK SMILES IDX 46 59 60 61 81 62 48 63 32 64 33 65 41 66 34 67 35 68 39 69
REMARK SMILES IDX 42 70 36 71 37 72 40 73 38 74 64 75 65 76 73 77 66 78 67 79
REMARK SMILES IDX 71 80 74 81 68 82 69 83 72 84 70 85 49 86 50 87 58 88 51 89
REMARK SMILES IDX 52 90 56 91 59 92 53 93 54 94 57 95 55 96
REMARK H PARENT 15 6 7 20 1 23 1 24 20 30 79 49 47 60
REMARK Flexibility Score: inf
ROOT
ATOM      1  C   UNL A   1      31.463  30.755  26.261  1.00  0.00     0.023 C 
ENDROOT
BRANCH   1   2
ATOM      2  C   UNL A   1      32.880  30.191  26.124  1.00  0.00     0.116 C 
BRANCH   2   3
ATOM      3  N   UNL A   1      33.192  29.902  24.736  1.00  0.00    -0.352 N 
ATOM      4  C   UNL A   1      33.147  28.722  24.033  1.00  0.00     0.251 C 
ATOM      5  O   UNL A   1      33.372  28.748  22.824  1.00  0.00    -0.269 OA
ATOM      6  H   UNL A   1      33.485  30.681  24.210  1.00  0.00     0.163 HD
BRANCH   4   7
ATOM      7  C   UNL A   1      32.771  27.437  24.677  1.00  0.00     0.039 A 
ATOM      8  C   UNL A   1      32.201  24.893  25.743  1.00  0.00     0.006 A 
ATOM      9  C   UNL A   1      33.519  25.368  25.701  1.00  0.00     0.010 A 
ATOM     10  C   UNL A   1      31.166  25.749  25.343  1.00  0.00     0.010 A 
ATOM     11  C   UNL A   1      33.802  26.630  25.171  1.00  0.00     0.014 A 
ATOM     12  C   UNL A   1      31.448  27.014  24.827  1.00  0.00     0.014 A 
BRANCH   8  13
ATOM     13  C   UNL A   1      31.898  23.468  26.160  1.00  0.00     0.299 C 
BRANCH  13  14
ATOM     14  N   UNL A   1      32.724  22.418  25.528  1.00  0.00    -0.331 N 
ATOM     15  C   UNL A   1      33.672  19.763  24.703  1.00  0.00     0.089 C 
ATOM     16  C   UNL A   1      34.337  20.557  25.830  1.00  0.00     0.075 C 
ATOM     17  C   UNL A   1      32.934  20.714  23.756  1.00  0.00     0.075 C 
ATOM     18  C   UNL A   1      33.372  21.535  26.506  1.00  0.00     0.263 C 
ATOM     19  C   UNL A   1      31.993  21.656  24.513  1.00  0.00     0.263 C 
ATOM     20  H   UNL A   1      33.471  22.916  25.044  1.00  0.00     0.348 HD
BRANCH  15  21
ATOM     21  C   UNL A   1      32.743  18.674  25.236  1.00  0.00     0.220 C 
ATOM     22  N   UNL A   1      32.932  18.349  26.548  1.00  0.00    -0.369 N 
ATOM     23  H   UNL A   1      32.374  17.655  26.968  1.00  0.00     0.159 HD
ATOM     24  H   UNL A   1      33.628  18.807  27.074  1.00  0.00     0.159 HD
ATOM     25  O   UNL A   1      31.866  18.119  24.586  1.00  0.00    -0.275 OA
ENDBRANCH  15  21
ENDBRANCH  13  14
ENDBRANCH   8  13
ENDBRANCH   4   7
ENDBRANCH   2   3
ENDBRANCH   1   2
BRANCH   1  26
ATOM     26  C   UNL A   1      31.401  32.265  26.500  1.00  0.00     0.023 C 
BRANCH  26  27
ATOM     27  C   UNL A   1      32.518  32.829  27.368  1.00  0.00     0.116 C 
BRANCH  27  28
ATOM     28  N   UNL A   1      32.311  34.220  27.739  1.00  0.00    -0.352 N 
ATOM     29  C   UNL A   1      32.999  34.984  28.652  1.00  0.00     0.251 C 
ATOM     30  H   UNL A   1      31.576  34.678  27.272  1.00  0.00     0.163 HD
ATOM     31  O   UNL A   1      32.617  36.114  28.926  1.00  0.00    -0.269 OA
BRANCH  29  32
ATOM     32  C   UNL A   1      34.181  34.418  29.336  1.00  0.00     0.039 A 
ATOM     33  C   UNL A   1      33.990  33.711  30.526  1.00  0.00     0.014 A 
ATOM     34  C   UNL A   1      35.465  34.567  28.804  1.00  0.00     0.014 A 
ATOM     35  C   UNL A   1      35.078  33.098  31.147  1.00  0.00     0.010 A 
ATOM     36  C   UNL A   1      36.537  33.895  29.385  1.00  0.00     0.010 A 
ATOM     37  C   UNL A   1      36.354  33.154  30.562  1.00  0.00    -0.014 A 
BRANCH  37  38
ATOM     38  C   UNL A   1      37.499  32.426  31.162  1.00  0.00     0.031 A 
ATOM     39  C   UNL A   1      38.005  32.794  32.527  1.00  0.00     0.074 A 
ATOM     40  C   UNL A   1      38.121  31.470  30.446  1.00  0.00     0.049 A 
ATOM     41  N   UNL A   1      39.005  32.287  33.203  1.00  0.00    -0.248 NA
ATOM     42  C   UNL A   1      37.318  33.899  33.212  1.00  0.00     0.031 C 
ATOM     43  C   UNL A   1      37.768  31.073  29.082  1.00  0.00     0.029 A 
ATOM     44  N   UNL A   1      39.187  30.666  30.761  1.00  0.00    -0.354 N 
ATOM     45  C   UNL A   1      39.074  33.018  34.382  1.00  0.00     0.074 A 
ATOM     46  C   UNL A   1      38.051  34.038  34.306  1.00  0.00     0.031 C 
ATOM     47  C   UNL A   1      38.588  30.086  28.686  1.00  0.00     0.029 A 
ATOM     48  C   UNL A   1      39.540  29.801  29.753  1.00  0.00     0.049 A 
ATOM     49  H   UNL A   1      39.655  30.705  31.626  1.00  0.00     0.167 HD
ATOM     50  C   UNL A   1      39.900  32.838  35.439  1.00  0.00     0.037 A 
ATOM     51  C   UNL A   1      40.523  28.883  29.698  1.00  0.00     0.037 A 
ATOM     52  C   UNL A   1      40.899  31.804  35.520  1.00  0.00     0.049 A 
ATOM     53  C   UNL A   1      41.409  28.683  30.896  1.00  0.00     0.074 A 
ATOM     54  C   UNL A   1      41.728  31.484  36.581  1.00  0.00     0.029 A 
ATOM     55  N   UNL A   1      41.209  30.925  34.492  1.00  0.00    -0.354 N 
ATOM     56  N   UNL A   1      41.402  29.316  32.045  1.00  0.00    -0.248 NA
ATOM     57  C   UNL A   1      42.431  27.633  30.796  1.00  0.00     0.031 C 
ATOM     58  C   UNL A   1      42.573  30.445  36.178  1.00  0.00     0.029 A 
ATOM     59  C   UNL A   1      42.236  30.080  34.884  1.00  0.00     0.049 A 
ATOM     60  H   UNL A   1      40.765  30.903  33.614  1.00  0.00     0.167 HD
ATOM     61  C   UNL A   1      42.402  28.730  32.810  1.00  0.00     0.074 A 
ATOM     62  C   UNL A   1      42.979  27.676  32.002  1.00  0.00     0.031 C 
ATOM     63  C   UNL A   1      42.806  29.039  34.067  1.00  0.00     0.037 A 
BRANCH  50  64
ATOM     64  C   UNL A   1      39.759  33.782  36.599  1.00  0.00     0.064 A 
ATOM     65  C   UNL A   1      40.435  35.012  36.637  1.00  0.00     0.173 A 
ATOM     66  C   UNL A   1      38.914  33.467  37.674  1.00  0.00     0.173 A 
ATOM     67  F   UNL A   1      41.263  35.358  35.640  1.00  0.00    -0.203 F 
ATOM     68  C   UNL A   1      40.295  35.874  37.721  1.00  0.00     0.198 A 
ATOM     69  C   UNL A   1      38.753  34.345  38.743  1.00  0.00     0.198 A 
ATOM     70  F   UNL A   1      38.240  32.307  37.688  1.00  0.00    -0.203 F 
ATOM     71  F   UNL A   1      40.992  37.019  37.759  1.00  0.00    -0.200 F 
ATOM     72  C   UNL A   1      39.450  35.543  38.769  1.00  0.00     0.200 A 
ATOM     73  F   UNL A   1      37.926  34.030  39.749  1.00  0.00    -0.200 F 
ATOM     74  F   UNL A   1      39.313  36.377  39.811  1.00  0.00    -0.200 F 
ENDBRANCH  50  64
BRANCH  51  75
ATOM     75  C   UNL A   1      40.696  28.061  28.472  1.00  0.00     0.064 A 
ATOM     76  C   UNL A   1      41.479  28.518  27.402  1.00  0.00     0.173 A 
ATOM     77  C   UNL A   1      40.093  26.801  28.349  1.00  0.00     0.173 A 
ATOM     78  F   UNL A   1      42.060  29.726  27.466  1.00  0.00    -0.203 F 
ATOM     79  C   UNL A   1      41.638  27.753  26.249  1.00  0.00     0.198 A 
ATOM     80  C   UNL A   1      40.276  26.026  27.206  1.00  0.00     0.198 A 
ATOM     81  F   UNL A   1      39.340  26.316  29.346  1.00  0.00    -0.203 F 
ATOM     82  F   UNL A   1      42.357  28.232  25.225  1.00  0.00    -0.200 F 
ATOM     83  C   UNL A   1      41.042  26.505  26.155  1.00  0.00     0.200 A 
ATOM     84  F   UNL A   1      39.711  24.813  27.124  1.00  0.00    -0.200 F 
ATOM     85  F   UNL A   1      41.201  25.767  25.048  1.00  0.00    -0.200 F 
ENDBRANCH  51  75
BRANCH  63  86
ATOM     86  C   UNL A   1      43.915  28.214  34.651  1.00  0.00     0.064 A 
ATOM     87  C   UNL A   1      43.658  27.016  35.334  1.00  0.00     0.173 A 
ATOM     88  C   UNL A   1      45.253  28.611  34.500  1.00  0.00     0.173 A 
ATOM     89  F   UNL A   1      42.396  26.601  35.518  1.00  0.00    -0.203 F 
ATOM     90  C   UNL A   1      44.698  26.262  35.873  1.00  0.00     0.198 A 
ATOM     91  C   UNL A   1      46.291  27.838  35.013  1.00  0.00     0.198 A 
ATOM     92  F   UNL A   1      45.553  29.744  33.849  1.00  0.00    -0.203 F 
ATOM     93  F   UNL A   1      44.425  25.150  36.569  1.00  0.00    -0.200 F 
ATOM     94  C   UNL A   1      46.013  26.670  35.706  1.00  0.00     0.200 A 
ATOM     95  F   UNL A   1      47.562  28.226  34.838  1.00  0.00    -0.200 F 
ATOM     96  F   UNL A   1      47.013  25.941  36.222  1.00  0.00    -0.200 F 
ENDBRANCH  63  86
ENDBRANCH  37  38
ENDBRANCH  29  32
ENDBRANCH  27  28
ENDBRANCH  26  27
ENDBRANCH   1  26
TORSDOF 14
ENDMDL
MODEL 3
REMARK VINA RESULT:     -12.9      5.604     11.389
REMARK SMILES NC(=O)C1CC[NH+](Cc2ccc(C(=O)NCCCCNC(=O)c3ccc(-c4c5nc(c(-c6c(F)c(F)c(F)c(F)c6F)c6ccc([nH]6)c(-c6c(F)c(F)c(F)c(F)c6F)c6nc(c(-c7c(F)c(F)c(F)c(F)c7F)c7ccc4[nH]7)C=C6)C=C5)cc3)cc2)CC1
REMARK SMILES IDX 17 1 16 2 15 3 13 4 14 5 12 7 9 8 10 9 87 10 11 11 86 12
REMARK SMILES IDX 8 13 7 14 4 15 5 16 89 17 6 18 88 19 2 21 1 22 3 25 18 26
REMARK SMILES IDX 19 27 20 28 21 29 22 31 23 32 24 33 85 34 25 35 84 36 26 37
REMARK SMILES IDX 27 38 28 39 78 40 29 41 83 42 77 43 79 44 30 45 82 46 76 47
REMARK SMILES IDX 75 48 31 50 63 51 43 52 62 53 44 54 47 55 61 56 80 57 45 58
REMARK SMILES IDX 46 59 60 61 81 62 48 63 32 64 33 65 41 66 34 67 35 68 39 69
REMARK SMILES IDX 42 70 36 71 37 72 40 73 38 74 64 75 65 76 73 77 66 78 67 79
REMARK SMILES IDX 71 80 74 81 68 82 69 83 72 84 70 85 49 86 50 87 58 88 51 89
REMARK SMILES IDX 52 90 56 91 59 92 53 93 54 94 57 95 55 96
REMARK H PARENT 15 6 7 20 1 23 1 24 20 30 79 49 47 60
REMARK Flexibility Score: inf
ROOT
ATOM      1  C   UNL A   1      37.375  21.099  24.575  1.00  0.00     0.023 C 
ENDROOT
BRANCH   1   2
ATOM      2  C   UNL A   1      37.106  22.065  25.733  1.00  0.00     0.116 C 
BRANCH   2   3
ATOM      3  N   UNL A   1      35.852  21.750  26.392  1.00  0.00    -0.352 N 
ATOM      4  C   UNL A   1      34.598  22.290  26.238  1.00  0.00     0.251 C 
ATOM      5  O   UNL A   1      33.660  21.784  26.853  1.00  0.00    -0.269 OA
ATOM      6  H   UNL A   1      35.908  21.029  27.060  1.00  0.00     0.163 HD
BRANCH   4   7
ATOM      7  C   UNL A   1      34.335  23.417  25.306  1.00  0.00     0.039 A 
ATOM      8  C   UNL A   1      33.662  25.618  23.683  1.00  0.00     0.006 A 
ATOM      9  C   UNL A   1      34.008  25.805  25.028  1.00  0.00     0.010 A 
ATOM     10  C   UNL A   1      33.760  24.331  23.138  1.00  0.00     0.010 A 
ATOM     11  C   UNL A   1      34.341  24.713  25.833  1.00  0.00     0.014 A 
ATOM     12  C   UNL A   1      34.107  23.243  23.940  1.00  0.00     0.014 A 
BRANCH   8  13
ATOM     13  C   UNL A   1      33.139  26.767  22.844  1.00  0.00     0.299 C 
BRANCH  13  14
ATOM     14  N   UNL A   1      31.943  27.459  23.365  1.00  0.00    -0.331 N 
ATOM     15  C   UNL A   1      29.678  29.322  23.541  1.00  0.00     0.089 C 
ATOM     16  C   UNL A   1      30.974  29.529  24.330  1.00  0.00     0.075 C 
ATOM     17  C   UNL A   1      29.511  27.841  23.187  1.00  0.00     0.075 C 
ATOM     18  C   UNL A   1      32.183  28.879  23.652  1.00  0.00     0.263 C 
ATOM     19  C   UNL A   1      30.764  27.271  22.515  1.00  0.00     0.263 C 
ATOM     20  H   UNL A   1      31.738  27.011  24.258  1.00  0.00     0.348 HD
BRANCH  15  21
ATOM     21  C   UNL A   1      29.614  30.205  22.297  1.00  0.00     0.220 C 
ATOM     22  N   UNL A   1      29.570  31.546  22.545  1.00  0.00    -0.369 N 
ATOM     23  H   UNL A   1      29.526  32.184  21.797  1.00  0.00     0.159 HD
ATOM     24  H   UNL A   1      29.580  31.876  23.473  1.00  0.00     0.159 HD
ATOM     25  O   UNL A   1      29.621  29.794  21.143  1.00  0.00    -0.275 OA
ENDBRANCH  15  21
ENDBRANCH  13  14
ENDBRANCH   8  13
ENDBRANCH   4   7
ENDBRANCH   2   3
ENDBRANCH   1   2
BRANCH   1  26
ATOM     26  C   UNL A   1      38.192  19.863  24.955  1.00  0.00     0.023 C 
BRANCH  26  27
ATOM     27  C   UNL A   1      39.319  20.113  25.950  1.00  0.00     0.116 C 
BRANCH  27  28
ATOM     28  N   UNL A   1      40.335  19.073  25.940  1.00  0.00    -0.352 N 
ATOM     29  C   UNL A   1      41.695  19.191  26.094  1.00  0.00     0.251 C 
ATOM     30  H   UNL A   1      40.002  18.156  25.804  1.00  0.00     0.163 HD
ATOM     31  O   UNL A   1      42.422  18.217  25.945  1.00  0.00    -0.269 OA
BRANCH  29  32
ATOM     32  C   UNL A   1      42.285  20.512  26.401  1.00  0.00     0.039 A 
ATOM     33  C   UNL A   1      42.726  21.309  25.341  1.00  0.00     0.014 A 
ATOM     34  C   UNL A   1      42.389  20.970  27.717  1.00  0.00     0.014 A 
ATOM     35  C   UNL A   1      43.210  22.591  25.597  1.00  0.00     0.010 A 
ATOM     36  C   UNL A   1      42.804  22.275  27.964  1.00  0.00     0.010 A 
ATOM     37  C   UNL A   1      43.218  23.099  26.907  1.00  0.00    -0.014 A 
BRANCH  37  38
ATOM     38  C   UNL A   1      43.640  24.495  27.179  1.00  0.00     0.031 A 
ATOM     39  C   UNL A   1      42.643  25.515  27.649  1.00  0.00     0.074 A 
ATOM     40  C   UNL A   1      44.915  24.857  26.943  1.00  0.00     0.049 A 
ATOM     41  N   UNL A   1      42.821  26.784  27.916  1.00  0.00    -0.248 NA
ATOM     42  C   UNL A   1      41.254  25.057  27.811  1.00  0.00     0.031 C 
ATOM     43  C   UNL A   1      45.959  23.975  26.417  1.00  0.00     0.029 A 
ATOM     44  N   UNL A   1      45.549  26.063  27.103  1.00  0.00    -0.354 N 
ATOM     45  C   UNL A   1      41.569  27.277  28.262  1.00  0.00     0.074 A 
ATOM     46  C   UNL A   1      40.632  26.184  28.120  1.00  0.00     0.031 C 
ATOM     47  C   UNL A   1      47.108  24.664  26.319  1.00  0.00     0.029 A 
ATOM     48  C   UNL A   1      46.876  26.039  26.747  1.00  0.00     0.049 A 
ATOM     49  H   UNL A   1      45.097  26.869  27.441  1.00  0.00     0.167 HD
ATOM     50  C   UNL A   1      41.239  28.520  28.683  1.00  0.00     0.037 A 
ATOM     51  C   UNL A   1      47.800  27.018  26.762  1.00  0.00     0.037 A 
ATOM     52  C   UNL A   1      42.181  29.597  28.849  1.00  0.00     0.049 A 
ATOM     53  C   UNL A   1      47.414  28.383  27.261  1.00  0.00     0.074 A 
ATOM     54  C   UNL A   1      41.962  30.868  29.350  1.00  0.00     0.029 A 
ATOM     55  N   UNL A   1      43.525  29.528  28.507  1.00  0.00    -0.354 N 
ATOM     56  N   UNL A   1      46.248  28.812  27.679  1.00  0.00    -0.248 NA
ATOM     57  C   UNL A   1      48.476  29.398  27.302  1.00  0.00     0.031 C 
ATOM     58  C   UNL A   1      43.160  31.584  29.265  1.00  0.00     0.029 A 
ATOM     59  C   UNL A   1      44.140  30.744  28.761  1.00  0.00     0.049 A 
ATOM     60  H   UNL A   1      43.975  28.733  28.140  1.00  0.00     0.167 HD
ATOM     61  C   UNL A   1      46.438  30.136  28.050  1.00  0.00     0.074 A 
ATOM     62  C   UNL A   1      47.839  30.433  27.828  1.00  0.00     0.031 C 
ATOM     63  C   UNL A   1      45.534  31.026  28.529  1.00  0.00     0.037 A 
BRANCH  50  64
ATOM     64  C   UNL A   1      39.794  28.786  28.997  1.00  0.00     0.064 A 
ATOM     65  C   UNL A   1      39.268  28.582  30.283  1.00  0.00     0.173 A 
ATOM     66  C   UNL A   1      38.930  29.278  28.008  1.00  0.00     0.173 A 
ATOM     67  F   UNL A   1      40.049  28.103  31.264  1.00  0.00    -0.203 F 
ATOM     68  C   UNL A   1      37.926  28.829  30.557  1.00  0.00     0.198 A 
ATOM     69  C   UNL A   1      37.594  29.553  28.293  1.00  0.00     0.198 A 
ATOM     70  F   UNL A   1      39.380  29.495  26.763  1.00  0.00    -0.203 F 
ATOM     71  F   UNL A   1      37.435  28.576  31.778  1.00  0.00    -0.200 F 
ATOM     72  C   UNL A   1      37.092  29.320  29.564  1.00  0.00     0.200 A 
ATOM     73  F   UNL A   1      36.793  30.040  27.335  1.00  0.00    -0.200 F 
ATOM     74  F   UNL A   1      35.800  29.563  29.830  1.00  0.00    -0.200 F 
ENDBRANCH  50  64
BRANCH  51  75
ATOM     75  C   UNL A   1      49.189  26.728  26.319  1.00  0.00     0.064 A 
ATOM     76  C   UNL A   1      50.138  26.214  27.213  1.00  0.00     0.173 A 
ATOM     77  C   UNL A   1      49.590  26.947  24.994  1.00  0.00     0.173 A 
ATOM     78  F   UNL A   1      49.806  26.006  28.496  1.00  0.00    -0.203 F 
ATOM     79  C   UNL A   1      51.443  25.948  26.802  1.00  0.00     0.198 A 
ATOM     80  C   UNL A   1      50.887  26.654  24.578  1.00  0.00     0.198 A 
ATOM     81  F   UNL A   1      48.717  27.431  24.099  1.00  0.00    -0.203 F 
ATOM     82  F   UNL A   1      52.342  25.497  27.687  1.00  0.00    -0.200 F 
ATOM     83  C   UNL A   1      51.814  26.161  25.484  1.00  0.00     0.200 A 
ATOM     84  F   UNL A   1      51.238  26.847  23.299  1.00  0.00    -0.200 F 
ATOM     85  F   UNL A   1      53.066  25.899  25.088  1.00  0.00    -0.200 F 
ENDBRANCH  51  75
BRANCH  63  86
ATOM     86  C   UNL A   1      46.039  32.400  28.863  1.00  0.00     0.064 A 
ATOM     87  C   UNL A   1      46.553  32.707  30.131  1.00  0.00     0.173 A 
ATOM     88  C   UNL A   1      46.034  33.415  27.893  1.00  0.00     0.173 A 
ATOM     89  F   UNL A   1      46.565  31.777  31.098  1.00  0.00    -0.203 F 
ATOM     90  C   UNL A   1      47.014  33.988  30.426  1.00  0.00     0.198 A 
ATOM     91  C   UNL A   1      46.525  34.684  28.182  1.00  0.00     0.198 A 
ATOM     92  F   UNL A   1      45.560  33.172  26.662  1.00  0.00    -0.203 F 
ATOM     93  F   UNL A   1      47.450  34.272  31.661  1.00  0.00    -0.200 F 
ATOM     94  C   UNL A   1      47.006  34.972  29.450  1.00  0.00     0.200 A 
ATOM     95  F   UNL A   1      46.530  35.632  27.233  1.00  0.00    -0.200 F 
ATOM     96  F   UNL A   1      47.455  36.203  29.735  1.00  0.00    -0.200 F 
ENDBRANCH  63  86
ENDBRANCH  37  38
ENDBRANCH  29  32
ENDBRANCH  27  28
ENDBRANCH  26  27
ENDBRANCH   1  26
TORSDOF 14
ENDMDL
