MODEL 1
REMARK VINA RESULT:     -10.2      0.000      0.000
REMARK SMILES O=C(/C=C/c1ccc(O)c(O)c1)NCCCCNC(=O)c1ccc(-c2c3nc(c(-c4c(F)c(F)c(F)c(F)c4F)c4ccc([nH]4)c(-c4c(F)c(F)c(F)c(F)c4F)c4nc(c(-c5c(F)c(F)c(F)c(F)c5F)c5ccc2[nH]5)C=C4)C=C3)cc1
REMARK SMILES IDX 15 1 14 2 13 3 1 4 2 5 3 7 4 8 5 9 6 10 12 11 7 12 10 13
REMARK SMILES IDX 8 14 11 15 9 17 16 19 17 20 18 21 19 22 20 24 21 25 22 26
REMARK SMILES IDX 83 27 23 28 82 29 24 30 25 31 26 32 76 33 27 34 81 35 75 36
REMARK SMILES IDX 77 37 28 38 80 39 74 40 73 41 29 43 61 44 41 45 60 46 42 47
REMARK SMILES IDX 45 48 59 49 78 50 43 51 44 52 58 54 79 55 46 56 30 57 31 58
REMARK SMILES IDX 39 59 32 60 33 61 37 62 40 63 34 64 35 65 38 66 36 67 62 68
REMARK SMILES IDX 63 69 71 70 64 71 65 72 69 73 72 74 66 75 67 76 70 77 68 78
REMARK SMILES IDX 47 79 48 80 56 81 49 82 50 83 54 84 57 85 51 86 52 87 55 88
REMARK SMILES IDX 53 89
REMARK H PARENT 13 6 11 16 9 18 18 23 77 42 45 53
REMARK Flexibility Score: inf
ROOT
ATOM      1  C   UNL A   1      32.153  35.999  31.065  1.00  0.00     0.023 C 
ENDROOT
BRANCH   1   2
ATOM      2  C   UNL A   1      32.187  35.861  32.587  1.00  0.00     0.116 C 
BRANCH   2   3
ATOM      3  N   UNL A   1      33.189  34.911  33.033  1.00  0.00    -0.353 N 
ATOM      4  O   UNL A   1      34.798  36.477  33.502  1.00  0.00    -0.270 OA
ATOM      5  C   UNL A   1      34.435  35.307  33.442  1.00  0.00     0.243 C 
ATOM      6  H   UNL A   1      32.966  33.952  33.041  1.00  0.00     0.163 HD
BRANCH   5   7
ATOM      7  C   UNL A   1      35.378  34.236  33.863  1.00  0.00     0.072 C 
ATOM      8  C   UNL A   1      36.126  34.205  34.977  1.00  0.00     0.014 C 
BRANCH   8   9
ATOM      9  C   UNL A   1      36.978  33.058  35.331  1.00  0.00    -0.022 A 
ATOM     10  C   UNL A   1      37.434  32.836  36.642  1.00  0.00     0.012 A 
ATOM     11  C   UNL A   1      37.312  32.135  34.330  1.00  0.00     0.058 A 
ATOM     12  C   UNL A   1      38.240  31.732  36.947  1.00  0.00     0.051 A 
ATOM     13  C   UNL A   1      38.112  31.043  34.641  1.00  0.00     0.157 A 
ATOM     14  C   UNL A   1      38.578  30.842  35.936  1.00  0.00     0.157 A 
BRANCH  13  15
ATOM     15  O   UNL A   1      38.444  30.161  33.652  1.00  0.00    -0.504 OA
ATOM     16  H   UNL A   1      38.262  30.370  32.758  1.00  0.00     0.293 HD
ENDBRANCH  13  15
BRANCH  14  17
ATOM     17  O   UNL A   1      39.366  29.749  36.166  1.00  0.00    -0.504 OA
ATOM     18  H   UNL A   1      38.999  28.980  36.555  1.00  0.00     0.293 HD
ENDBRANCH  14  17
ENDBRANCH   8   9
ENDBRANCH   5   7
ENDBRANCH   2   3
ENDBRANCH   1   2
BRANCH   1  19
ATOM     19  C   UNL A   1      33.228  36.915  30.471  1.00  0.00     0.023 C 
BRANCH  19  20
ATOM     20  C   UNL A   1      33.492  36.741  28.978  1.00  0.00     0.116 C 
BRANCH  20  21
ATOM     21  N   UNL A   1      32.812  35.590  28.408  1.00  0.00    -0.352 N 
ATOM     22  C   UNL A   1      33.254  34.297  28.261  1.00  0.00     0.251 C 
ATOM     23  H   UNL A   1      31.900  35.762  28.078  1.00  0.00     0.163 HD
ATOM     24  O   UNL A   1      32.580  33.486  27.628  1.00  0.00    -0.269 OA
BRANCH  22  25
ATOM     25  C   UNL A   1      34.556  33.877  28.829  1.00  0.00     0.039 A 
ATOM     26  C   UNL A   1      34.568  33.178  30.038  1.00  0.00     0.014 A 
ATOM     27  C   UNL A   1      35.760  34.171  28.182  1.00  0.00     0.014 A 
ATOM     28  C   UNL A   1      35.777  32.709  30.561  1.00  0.00     0.010 A 
ATOM     29  C   UNL A   1      36.955  33.638  28.663  1.00  0.00     0.010 A 
ATOM     30  C   UNL A   1      36.977  32.898  29.856  1.00  0.00    -0.014 A 
BRANCH  30  31
ATOM     31  C   UNL A   1      38.257  32.319  30.344  1.00  0.00     0.031 A 
ATOM     32  C   UNL A   1      38.762  31.013  29.795  1.00  0.00     0.074 A 
ATOM     33  C   UNL A   1      38.934  32.936  31.332  1.00  0.00     0.049 A 
ATOM     34  N   UNL A   1      39.817  30.319  30.142  1.00  0.00    -0.248 NA
ATOM     35  C   UNL A   1      37.960  30.390  28.731  1.00  0.00     0.031 C 
ATOM     36  C   UNL A   1      38.531  34.184  31.981  1.00  0.00     0.029 A 
ATOM     37  N   UNL A   1      40.101  32.592  31.972  1.00  0.00    -0.354 N 
ATOM     38  C   UNL A   1      39.799  29.178  29.352  1.00  0.00     0.074 A 
ATOM     39  C   UNL A   1      38.598  29.244  28.546  1.00  0.00     0.031 C 
ATOM     40  C   UNL A   1      39.445  34.514  32.908  1.00  0.00     0.029 A 
ATOM     41  C   UNL A   1      40.476  33.481  32.951  1.00  0.00     0.049 A 
ATOM     42  H   UNL A   1      40.620  31.785  31.750  1.00  0.00     0.167 HD
ATOM     43  C   UNL A   1      40.710  28.177  29.287  1.00  0.00     0.037 A 
ATOM     44  C   UNL A   1      41.524  33.461  33.795  1.00  0.00     0.037 A 
ATOM     45  C   UNL A   1      41.913  28.123  30.078  1.00  0.00     0.049 A 
ATOM     46  C   UNL A   1      42.510  32.325  33.719  1.00  0.00     0.074 A 
ATOM     47  C   UNL A   1      42.927  27.183  30.039  1.00  0.00     0.029 A 
ATOM     48  N   UNL A   1      42.260  29.044  31.054  1.00  0.00    -0.354 N 
ATOM     49  N   UNL A   1      42.519  31.289  32.917  1.00  0.00    -0.248 NA
ATOM     50  C   UNL A   1      43.635  32.361  34.664  1.00  0.00     0.031 C 
ATOM     51  C   UNL A   1      43.858  27.501  31.034  1.00  0.00     0.029 A 
ATOM     52  C   UNL A   1      43.459  28.677  31.647  1.00  0.00     0.049 A 
ATOM     53  H   UNL A   1      41.734  29.841  31.292  1.00  0.00     0.167 HD
ATOM     54  C   UNL A   1      43.663  30.569  33.236  1.00  0.00     0.074 A 
ATOM     55  C   UNL A   1      44.330  31.294  34.296  1.00  0.00     0.031 C 
ATOM     56  C   UNL A   1      44.118  29.411  32.698  1.00  0.00     0.037 A 
BRANCH  43  57
ATOM     57  C   UNL A   1      40.438  27.050  28.331  1.00  0.00     0.064 A 
ATOM     58  C   UNL A   1      41.102  26.950  27.099  1.00  0.00     0.173 A 
ATOM     59  C   UNL A   1      39.531  26.033  28.667  1.00  0.00     0.173 A 
ATOM     60  F   UNL A   1      41.975  27.898  26.722  1.00  0.00    -0.203 F 
ATOM     61  C   UNL A   1      40.842  25.897  26.224  1.00  0.00     0.198 A 
ATOM     62  C   UNL A   1      39.298  24.963  27.806  1.00  0.00     0.198 A 
ATOM     63  F   UNL A   1      38.873  26.073  29.836  1.00  0.00    -0.203 F 
ATOM     64  F   UNL A   1      41.447  25.854  25.030  1.00  0.00    -0.200 F 
ATOM     65  C   UNL A   1      39.946  24.900  26.583  1.00  0.00     0.200 A 
ATOM     66  F   UNL A   1      38.445  23.993  28.162  1.00  0.00    -0.200 F 
ATOM     67  F   UNL A   1      39.702  23.884  25.744  1.00  0.00    -0.200 F 
ENDBRANCH  43  57
BRANCH  44  68
ATOM     68  C   UNL A   1      41.710  34.563  34.776  1.00  0.00     0.064 A 
ATOM     69  C   UNL A   1      42.263  35.791  34.384  1.00  0.00     0.173 A 
ATOM     70  C   UNL A   1      41.351  34.412  36.124  1.00  0.00     0.173 A 
ATOM     71  F   UNL A   1      42.642  35.976  33.111  1.00  0.00    -0.203 F 
ATOM     72  C   UNL A   1      42.469  36.816  35.305  1.00  0.00     0.198 A 
ATOM     73  C   UNL A   1      41.528  35.449  37.038  1.00  0.00     0.198 A 
ATOM     74  F   UNL A   1      40.816  33.259  36.551  1.00  0.00    -0.203 F 
ATOM     75  F   UNL A   1      43.045  37.960  34.911  1.00  0.00    -0.200 F 
ATOM     76  C   UNL A   1      42.096  36.647  36.629  1.00  0.00     0.200 A 
ATOM     77  F   UNL A   1      41.152  35.286  38.313  1.00  0.00    -0.200 F 
ATOM     78  F   UNL A   1      42.290  37.634  37.513  1.00  0.00    -0.200 F 
ENDBRANCH  44  68
BRANCH  56  79
ATOM     79  C   UNL A   1      45.424  28.874  33.215  1.00  0.00     0.064 A 
ATOM     80  C   UNL A   1      45.479  27.956  34.275  1.00  0.00     0.173 A 
ATOM     81  C   UNL A   1      46.634  29.255  32.614  1.00  0.00     0.173 A 
ATOM     82  F   UNL A   1      44.352  27.570  34.894  1.00  0.00    -0.203 F 
ATOM     83  C   UNL A   1      46.699  27.463  34.732  1.00  0.00     0.198 A 
ATOM     84  C   UNL A   1      47.848  28.733  33.052  1.00  0.00     0.198 A 
ATOM     85  F   UNL A   1      46.638  30.124  31.593  1.00  0.00    -0.203 F 
ATOM     86  F   UNL A   1      46.730  26.628  35.781  1.00  0.00    -0.200 F 
ATOM     87  C   UNL A   1      47.880  27.844  34.116  1.00  0.00     0.200 A 
ATOM     88  F   UNL A   1      48.987  29.091  32.443  1.00  0.00    -0.200 F 
ATOM     89  F   UNL A   1      49.052  27.361  34.552  1.00  0.00    -0.200 F 
ENDBRANCH  56  79
ENDBRANCH  30  31
ENDBRANCH  22  25
ENDBRANCH  20  21
ENDBRANCH  19  20
ENDBRANCH   1  19
TORSDOF 14
ENDMDL
MODEL 2
REMARK VINA RESULT:     -10.2      4.383     10.735
REMARK SMILES O=C(/C=C/c1ccc(O)c(O)c1)NCCCCNC(=O)c1ccc(-c2c3nc(c(-c4c(F)c(F)c(F)c(F)c4F)c4ccc([nH]4)c(-c4c(F)c(F)c(F)c(F)c4F)c4nc(c(-c5c(F)c(F)c(F)c(F)c5F)c5ccc2[nH]5)C=C4)C=C3)cc1
REMARK SMILES IDX 15 1 14 2 13 3 1 4 2 5 3 7 4 8 5 9 6 10 12 11 7 12 10 13
REMARK SMILES IDX 8 14 11 15 9 17 16 19 17 20 18 21 19 22 20 24 21 25 22 26
REMARK SMILES IDX 83 27 23 28 82 29 24 30 25 31 26 32 76 33 27 34 81 35 75 36
REMARK SMILES IDX 77 37 28 38 80 39 74 40 73 41 29 43 61 44 41 45 60 46 42 47
REMARK SMILES IDX 45 48 59 49 78 50 43 51 44 52 58 54 79 55 46 56 30 57 31 58
REMARK SMILES IDX 39 59 32 60 33 61 37 62 40 63 34 64 35 65 38 66 36 67 62 68
REMARK SMILES IDX 63 69 71 70 64 71 65 72 69 73 72 74 66 75 67 76 70 77 68 78
REMARK SMILES IDX 47 79 48 80 56 81 49 82 50 83 54 84 57 85 51 86 52 87 55 88
REMARK SMILES IDX 53 89
REMARK H PARENT 13 6 11 16 9 18 18 23 77 42 45 53
REMARK Flexibility Score: inf
ROOT
ATOM      1  C   UNL A   1      33.718  26.645  25.412  1.00  0.00     0.023 C 
ENDROOT
BRANCH   1   2
ATOM      2  C   UNL A   1      32.253  26.263  25.197  1.00  0.00     0.116 C 
BRANCH   2   3
ATOM      3  N   UNL A   1      31.510  27.299  24.504  1.00  0.00    -0.353 N 
ATOM      4  O   UNL A   1      29.623  26.039  24.164  1.00  0.00    -0.270 OA
ATOM      5  C   UNL A   1      30.244  27.088  24.024  1.00  0.00     0.243 C 
ATOM      6  H   UNL A   1      31.928  28.180  24.374  1.00  0.00     0.163 HD
BRANCH   5   7
ATOM      7  C   UNL A   1      29.592  28.224  23.319  1.00  0.00     0.072 C 
ATOM      8  C   UNL A   1      29.836  29.532  23.488  1.00  0.00     0.014 C 
BRANCH   8   9
ATOM      9  C   UNL A   1      29.179  30.576  22.684  1.00  0.00    -0.022 A 
ATOM     10  C   UNL A   1      28.625  30.312  21.419  1.00  0.00     0.012 A 
ATOM     11  C   UNL A   1      29.070  31.866  23.218  1.00  0.00     0.058 A 
ATOM     12  C   UNL A   1      28.002  31.327  20.681  1.00  0.00     0.051 A 
ATOM     13  C   UNL A   1      28.451  32.867  22.480  1.00  0.00     0.157 A 
ATOM     14  C   UNL A   1      27.924  32.604  21.219  1.00  0.00     0.157 A 
BRANCH  13  15
ATOM     15  O   UNL A   1      28.367  34.125  23.006  1.00  0.00    -0.504 OA
ATOM     16  H   UNL A   1      28.416  34.872  22.443  1.00  0.00     0.293 HD
ENDBRANCH  13  15
BRANCH  14  17
ATOM     17  O   UNL A   1      27.336  33.640  20.548  1.00  0.00    -0.504 OA
ATOM     18  H   UNL A   1      27.544  33.791  19.647  1.00  0.00     0.293 HD
ENDBRANCH  14  17
ENDBRANCH   8   9
ENDBRANCH   5   7
ENDBRANCH   2   3
ENDBRANCH   1   2
BRANCH   1  19
ATOM     19  C   UNL A   1      33.955  28.096  25.843  1.00  0.00     0.023 C 
BRANCH  19  20
ATOM     20  C   UNL A   1      33.603  28.419  27.292  1.00  0.00     0.116 C 
BRANCH  20  21
ATOM     21  N   UNL A   1      33.572  29.846  27.567  1.00  0.00    -0.352 N 
ATOM     22  C   UNL A   1      34.539  30.652  28.120  1.00  0.00     0.251 C 
ATOM     23  H   UNL A   1      32.735  30.303  27.323  1.00  0.00     0.163 HD
ATOM     24  O   UNL A   1      34.279  31.820  28.401  1.00  0.00    -0.269 OA
BRANCH  22  25
ATOM     25  C   UNL A   1      35.888  30.115  28.415  1.00  0.00     0.039 A 
ATOM     26  C   UNL A   1      36.875  30.196  27.429  1.00  0.00     0.014 A 
ATOM     27  C   UNL A   1      36.184  29.529  29.649  1.00  0.00     0.014 A 
ATOM     28  C   UNL A   1      38.174  29.761  27.705  1.00  0.00     0.010 A 
ATOM     29  C   UNL A   1      37.496  29.166  29.950  1.00  0.00     0.010 A 
ATOM     30  C   UNL A   1      38.507  29.281  28.982  1.00  0.00    -0.014 A 
BRANCH  30  31
ATOM     31  C   UNL A   1      39.906  28.910  29.326  1.00  0.00     0.031 A 
ATOM     32  C   UNL A   1      40.763  29.838  30.141  1.00  0.00     0.074 A 
ATOM     33  C   UNL A   1      40.427  27.763  28.849  1.00  0.00     0.049 A 
ATOM     34  N   UNL A   1      42.022  29.719  30.483  1.00  0.00    -0.248 NA
ATOM     35  C   UNL A   1      40.130  31.079  30.613  1.00  0.00     0.031 C 
ATOM     36  C   UNL A   1      39.717  26.795  28.011  1.00  0.00     0.029 A 
ATOM     37  N   UNL A   1      41.682  27.220  28.989  1.00  0.00    -0.354 N 
ATOM     38  C   UNL A   1      42.333  30.869  31.196  1.00  0.00     0.074 A 
ATOM     39  C   UNL A   1      41.148  31.700  31.190  1.00  0.00     0.031 C 
ATOM     40  C   UNL A   1      40.535  25.768  27.733  1.00  0.00     0.029 A 
ATOM     41  C   UNL A   1      41.841  26.022  28.334  1.00  0.00     0.049 A 
ATOM     42  H   UNL A   1      42.399  27.648  29.511  1.00  0.00     0.167 HD
ATOM     43  C   UNL A   1      43.492  31.194  31.817  1.00  0.00     0.037 A 
ATOM     44  C   UNL A   1      42.920  25.225  28.219  1.00  0.00     0.037 A 
ATOM     45  C   UNL A   1      44.665  30.358  31.836  1.00  0.00     0.049 A 
ATOM     46  C   UNL A   1      44.204  25.620  28.901  1.00  0.00     0.074 A 
ATOM     47  C   UNL A   1      45.865  30.572  32.489  1.00  0.00     0.029 A 
ATOM     48  N   UNL A   1      44.786  29.150  31.165  1.00  0.00    -0.354 N 
ATOM     49  N   UNL A   1      44.462  26.676  29.632  1.00  0.00    -0.248 NA
ATOM     50  C   UNL A   1      45.344  24.707  28.742  1.00  0.00     0.031 C 
ATOM     51  C   UNL A   1      46.734  29.524  32.165  1.00  0.00     0.029 A 
ATOM     52  C   UNL A   1      46.053  28.623  31.364  1.00  0.00     0.049 A 
ATOM     53  H   UNL A   1      44.076  28.729  30.627  1.00  0.00     0.167 HD
ATOM     54  C   UNL A   1      45.780  26.540  30.048  1.00  0.00     0.074 A 
ATOM     55  C   UNL A   1      46.263  25.291  29.498  1.00  0.00     0.031 C 
ATOM     56  C   UNL A   1      46.522  27.374  30.817  1.00  0.00     0.037 A 
BRANCH  43  57
ATOM     57  C   UNL A   1      43.554  32.519  32.526  1.00  0.00     0.064 A 
ATOM     58  C   UNL A   1      43.208  32.649  33.879  1.00  0.00     0.173 A 
ATOM     59  C   UNL A   1      44.004  33.665  31.854  1.00  0.00     0.173 A 
ATOM     60  F   UNL A   1      42.763  31.587  34.569  1.00  0.00    -0.203 F 
ATOM     61  C   UNL A   1      43.274  33.883  34.523  1.00  0.00     0.198 A 
ATOM     62  C   UNL A   1      44.103  34.891  32.508  1.00  0.00     0.198 A 
ATOM     63  F   UNL A   1      44.357  33.598  30.561  1.00  0.00    -0.203 F 
ATOM     64  F   UNL A   1      42.884  33.993  35.800  1.00  0.00    -0.200 F 
ATOM     65  C   UNL A   1      43.729  35.001  33.839  1.00  0.00     0.200 A 
ATOM     66  F   UNL A   1      44.558  35.966  31.850  1.00  0.00    -0.200 F 
ATOM     67  F   UNL A   1      43.800  36.186  34.461  1.00  0.00    -0.200 F 
ENDBRANCH  43  57
BRANCH  44  68
ATOM     68  C   UNL A   1      42.830  23.958  27.445  1.00  0.00     0.064 A 
ATOM     69  C   UNL A   1      42.448  22.761  28.065  1.00  0.00     0.173 A 
ATOM     70  C   UNL A   1      43.133  23.916  26.075  1.00  0.00     0.173 A 
ATOM     71  F   UNL A   1      42.170  22.746  29.377  1.00  0.00    -0.203 F 
ATOM     72  C   UNL A   1      42.393  21.565  27.351  1.00  0.00     0.198 A 
ATOM     73  C   UNL A   1      43.046  22.726  25.355  1.00  0.00     0.198 A 
ATOM     74  F   UNL A   1      43.500  25.034  25.433  1.00  0.00    -0.203 F 
ATOM     75  F   UNL A   1      42.073  20.426  27.981  1.00  0.00    -0.200 F 
ATOM     76  C   UNL A   1      42.685  21.549  25.996  1.00  0.00     0.200 A 
ATOM     77  F   UNL A   1      43.315  22.718  24.043  1.00  0.00    -0.200 F 
ATOM     78  F   UNL A   1      42.628  20.401  25.309  1.00  0.00    -0.200 F 
ENDBRANCH  44  68
BRANCH  56  79
ATOM     79  C   UNL A   1      47.925  26.947  31.148  1.00  0.00     0.064 A 
ATOM     80  C   UNL A   1      49.028  27.384  30.399  1.00  0.00     0.173 A 
ATOM     81  C   UNL A   1      48.170  26.119  32.256  1.00  0.00     0.173 A 
ATOM     82  F   UNL A   1      48.847  28.164  29.322  1.00  0.00    -0.203 F 
ATOM     83  C   UNL A   1      50.320  26.984  30.730  1.00  0.00     0.198 A 
ATOM     84  C   UNL A   1      49.466  25.750  32.603  1.00  0.00     0.198 A 
ATOM     85  F   UNL A   1      47.152  25.679  33.010  1.00  0.00    -0.203 F 
ATOM     86  F   UNL A   1      51.354  27.370  29.968  1.00  0.00    -0.200 F 
ATOM     87  C   UNL A   1      50.540  26.176  31.835  1.00  0.00     0.200 A 
ATOM     88  F   UNL A   1      49.676  24.983  33.681  1.00  0.00    -0.200 F 
ATOM     89  F   UNL A   1      51.786  25.800  32.155  1.00  0.00    -0.200 F 
ENDBRANCH  56  79
ENDBRANCH  30  31
ENDBRANCH  22  25
ENDBRANCH  20  21
ENDBRANCH  19  20
ENDBRANCH   1  19
TORSDOF 14
ENDMDL
MODEL 3
REMARK VINA RESULT:     -10.0      5.007     11.295
REMARK SMILES O=C(/C=C/c1ccc(O)c(O)c1)NCCCCNC(=O)c1ccc(-c2c3nc(c(-c4c(F)c(F)c(F)c(F)c4F)c4ccc([nH]4)c(-c4c(F)c(F)c(F)c(F)c4F)c4nc(c(-c5c(F)c(F)c(F)c(F)c5F)c5ccc2[nH]5)C=C4)C=C3)cc1
REMARK SMILES IDX 15 1 14 2 13 3 1 4 2 5 3 7 4 8 5 9 6 10 12 11 7 12 10 13
REMARK SMILES IDX 8 14 11 15 9 17 16 19 17 20 18 21 19 22 20 24 21 25 22 26
REMARK SMILES IDX 83 27 23 28 82 29 24 30 25 31 26 32 76 33 27 34 81 35 75 36
REMARK SMILES IDX 77 37 28 38 80 39 74 40 73 41 29 43 61 44 41 45 60 46 42 47
REMARK SMILES IDX 45 48 59 49 78 50 43 51 44 52 58 54 79 55 46 56 30 57 31 58
REMARK SMILES IDX 39 59 32 60 33 61 37 62 40 63 34 64 35 65 38 66 36 67 62 68
REMARK SMILES IDX 63 69 71 70 64 71 65 72 69 73 72 74 66 75 67 76 70 77 68 78
REMARK SMILES IDX 47 79 48 80 56 81 49 82 50 83 54 84 57 85 51 86 52 87 55 88
REMARK SMILES IDX 53 89
REMARK H PARENT 13 6 11 16 9 18 18 23 77 42 45 53
REMARK Flexibility Score: inf
ROOT
ATOM      1  C   UNL A   1      45.050  21.125  23.850  1.00  0.00     0.023 C 
ENDROOT
BRANCH   1   2
ATOM      2  C   UNL A   1      46.136  21.842  24.652  1.00  0.00     0.116 C 
BRANCH   2   3
ATOM      3  N   UNL A   1      45.702  23.143  25.127  1.00  0.00    -0.353 N 
ATOM      4  O   UNL A   1      47.204  24.353  23.885  1.00  0.00    -0.270 OA
ATOM      5  C   UNL A   1      46.296  24.304  24.707  1.00  0.00     0.243 C 
ATOM      6  H   UNL A   1      44.959  23.192  25.770  1.00  0.00     0.163 HD
BRANCH   5   7
ATOM      7  C   UNL A   1      45.770  25.574  25.277  1.00  0.00     0.072 C 
ATOM      8  C   UNL A   1      46.458  26.698  25.528  1.00  0.00     0.014 C 
BRANCH   8   9
ATOM      9  C   UNL A   1      45.821  27.927  26.031  1.00  0.00    -0.022 A 
ATOM     10  C   UNL A   1      46.561  29.071  26.375  1.00  0.00     0.012 A 
ATOM     11  C   UNL A   1      44.424  27.965  26.131  1.00  0.00     0.058 A 
ATOM     12  C   UNL A   1      45.923  30.225  26.846  1.00  0.00     0.051 A 
ATOM     13  C   UNL A   1      43.799  29.114  26.599  1.00  0.00     0.157 A 
ATOM     14  C   UNL A   1      44.540  30.235  26.959  1.00  0.00     0.157 A 
BRANCH  13  15
ATOM     15  O   UNL A   1      42.438  29.132  26.707  1.00  0.00    -0.504 OA
ATOM     16  H   UNL A   1      42.020  29.763  27.260  1.00  0.00     0.293 HD
ENDBRANCH  13  15
BRANCH  14  17
ATOM     17  O   UNL A   1      43.857  31.327  27.418  1.00  0.00    -0.504 OA
ATOM     18  H   UNL A   1      42.957  31.447  27.188  1.00  0.00     0.293 HD
ENDBRANCH  14  17
ENDBRANCH   8   9
ENDBRANCH   5   7
ENDBRANCH   2   3
ENDBRANCH   1   2
BRANCH   1  19
ATOM     19  C   UNL A   1      44.898  19.631  24.152  1.00  0.00     0.023 C 
BRANCH  19  20
ATOM     20  C   UNL A   1      44.304  19.291  25.515  1.00  0.00     0.116 C 
BRANCH  20  21
ATOM     21  N   UNL A   1      42.885  18.980  25.459  1.00  0.00    -0.352 N 
ATOM     22  C   UNL A   1      41.814  19.691  25.944  1.00  0.00     0.251 C 
ATOM     23  H   UNL A   1      42.658  18.136  25.007  1.00  0.00     0.163 HD
ATOM     24  O   UNL A   1      40.688  19.199  25.919  1.00  0.00    -0.269 OA
BRANCH  22  25
ATOM     25  C   UNL A   1      42.008  21.037  26.533  1.00  0.00     0.039 A 
ATOM     26  C   UNL A   1      42.042  21.164  27.924  1.00  0.00     0.014 A 
ATOM     27  C   UNL A   1      42.150  22.170  25.727  1.00  0.00     0.014 A 
ATOM     28  C   UNL A   1      42.293  22.410  28.505  1.00  0.00     0.010 A 
ATOM     29  C   UNL A   1      42.476  23.396  26.304  1.00  0.00     0.010 A 
ATOM     30  C   UNL A   1      42.555  23.530  27.699  1.00  0.00    -0.014 A 
BRANCH  30  31
ATOM     31  C   UNL A   1      42.925  24.840  28.298  1.00  0.00     0.031 A 
ATOM     32  C   UNL A   1      41.881  25.900  28.520  1.00  0.00     0.074 A 
ATOM     33  C   UNL A   1      44.216  25.103  28.582  1.00  0.00     0.049 A 
ATOM     34  N   UNL A   1      42.022  27.123  28.966  1.00  0.00    -0.248 NA
ATOM     35  C   UNL A   1      40.496  25.547  28.171  1.00  0.00     0.031 C 
ATOM     36  C   UNL A   1      45.332  24.178  28.373  1.00  0.00     0.029 A 
ATOM     37  N   UNL A   1      44.811  26.229  29.096  1.00  0.00    -0.354 N 
ATOM     38  C   UNL A   1      40.754  27.687  28.939  1.00  0.00     0.074 A 
ATOM     39  C   UNL A   1      39.864  26.692  28.380  1.00  0.00     0.031 C 
ATOM     40  C   UNL A   1      46.470  24.764  28.778  1.00  0.00     0.029 A 
ATOM     41  C   UNL A   1      46.174  26.119  29.234  1.00  0.00     0.049 A 
ATOM     42  H   UNL A   1      44.309  27.039  29.344  1.00  0.00     0.167 HD
ATOM     43  C   UNL A   1      40.362  28.913  29.360  1.00  0.00     0.037 A 
ATOM     44  C   UNL A   1      47.085  27.012  29.666  1.00  0.00     0.037 A 
ATOM     45  C   UNL A   1      41.247  29.896  29.932  1.00  0.00     0.049 A 
ATOM     46  C   UNL A   1      46.626  28.377  30.108  1.00  0.00     0.074 A 
ATOM     47  C   UNL A   1      40.935  31.142  30.445  1.00  0.00     0.029 A 
ATOM     48  N   UNL A   1      42.620  29.745  30.059  1.00  0.00    -0.354 N 
ATOM     49  N   UNL A   1      45.413  28.871  30.144  1.00  0.00    -0.248 NA
ATOM     50  C   UNL A   1      47.666  29.305  30.573  1.00  0.00     0.031 C 
ATOM     51  C   UNL A   1      42.125  31.770  30.827  1.00  0.00     0.029 A 
ATOM     52  C   UNL A   1      43.172  30.890  30.614  1.00  0.00     0.049 A 
ATOM     53  H   UNL A   1      43.127  28.944  29.794  1.00  0.00     0.167 HD
ATOM     54  C   UNL A   1      45.539  30.152  30.665  1.00  0.00     0.074 A 
ATOM     55  C   UNL A   1      46.945  30.353  30.943  1.00  0.00     0.031 C 
ATOM     56  C   UNL A   1      44.574  31.077  30.893  1.00  0.00     0.037 A 
BRANCH  43  57
ATOM     57  C   UNL A   1      38.909  29.268  29.214  1.00  0.00     0.064 A 
ATOM     58  C   UNL A   1      38.335  29.531  27.960  1.00  0.00     0.173 A 
ATOM     59  C   UNL A   1      38.069  29.309  30.337  1.00  0.00     0.173 A 
ATOM     60  F   UNL A   1      39.093  29.514  26.852  1.00  0.00    -0.203 F 
ATOM     61  C   UNL A   1      36.986  29.855  27.840  1.00  0.00     0.198 A 
ATOM     62  C   UNL A   1      36.712  29.600  30.211  1.00  0.00     0.198 A 
ATOM     63  F   UNL A   1      38.561  29.058  31.559  1.00  0.00    -0.203 F 
ATOM     64  F   UNL A   1      36.474  30.156  26.639  1.00  0.00    -0.200 F 
ATOM     65  C   UNL A   1      36.174  29.881  28.965  1.00  0.00     0.200 A 
ATOM     66  F   UNL A   1      35.927  29.608  31.296  1.00  0.00    -0.200 F 
ATOM     67  F   UNL A   1      34.874  30.186  28.848  1.00  0.00    -0.200 F 
ENDBRANCH  43  57
BRANCH  44  68
ATOM     68  C   UNL A   1      48.524  26.638  29.723  1.00  0.00     0.064 A 
ATOM     69  C   UNL A   1      49.061  26.018  30.860  1.00  0.00     0.173 A 
ATOM     70  C   UNL A   1      49.391  26.902  28.653  1.00  0.00     0.173 A 
ATOM     71  F   UNL A   1      48.277  25.765  31.918  1.00  0.00    -0.203 F 
ATOM     72  C   UNL A   1      50.415  25.695  30.932  1.00  0.00     0.198 A 
ATOM     73  C   UNL A   1      50.737  26.549  28.713  1.00  0.00     0.198 A 
ATOM     74  F   UNL A   1      48.927  27.491  27.541  1.00  0.00    -0.203 F 
ATOM     75  F   UNL A   1      50.911  25.148  32.050  1.00  0.00    -0.200 F 
ATOM     76  C   UNL A   1      51.250  25.954  29.857  1.00  0.00     0.200 A 
ATOM     77  F   UNL A   1      51.538  26.788  27.666  1.00  0.00    -0.200 F 
ATOM     78  F   UNL A   1      52.551  25.640  29.925  1.00  0.00    -0.200 F 
ENDBRANCH  44  68
BRANCH  56  79
ATOM     79  C   UNL A   1      44.997  32.380  31.513  1.00  0.00     0.064 A 
ATOM     80  C   UNL A   1      45.040  32.559  32.904  1.00  0.00     0.173 A 
ATOM     81  C   UNL A   1      45.404  33.450  30.701  1.00  0.00     0.173 A 
ATOM     82  F   UNL A   1      44.648  31.572  33.724  1.00  0.00    -0.203 F 
ATOM     83  C   UNL A   1      45.446  33.771  33.457  1.00  0.00     0.198 A 
ATOM     84  C   UNL A   1      45.842  34.648  31.259  1.00  0.00     0.198 A 
ATOM     85  F   UNL A   1      45.390  33.330  29.365  1.00  0.00    -0.203 F 
ATOM     86  F   UNL A   1      45.428  33.937  34.788  1.00  0.00    -0.200 F 
ATOM     87  C   UNL A   1      45.855  34.811  32.636  1.00  0.00     0.200 A 
ATOM     88  F   UNL A   1      46.252  35.645  30.463  1.00  0.00    -0.200 F 
ATOM     89  F   UNL A   1      46.253  35.973  33.171  1.00  0.00    -0.200 F 
ENDBRANCH  56  79
ENDBRANCH  30  31
ENDBRANCH  22  25
ENDBRANCH  20  21
ENDBRANCH  19  20
ENDBRANCH   1  19
TORSDOF 14
ENDMDL
