MODEL 1
REMARK VINA RESULT:     -12.7      0.000      0.000
REMARK SMILES CC(C)c1ccc2c(c1)c(SC(C)(C)C)c(CC(C)(C)C(=O)NCCCCNC(=O)c1ccc(-c3c4nc(c(-c5c(F)c(F)c(F)c(F)c5F)c5ccc([nH]5)c(-c5c(F)c(F)c(F)c(F)c5F)c5nc(c(-c6c(F)c(F)c(F)c(F)c6F)c6ccc3[nH]6)C=C5)C=C4)cc1)n2Cc1ccc(Cl)cc1
REMARK SMILES IDX 24 1 23 2 21 3 22 4 18 6 19 7 20 8 17 9 16 10 4 11 5 12 9 13
REMARK SMILES IDX 6 14 8 15 7 16 10 17 94 18 2 19 1 20 3 21 11 22 12 23 13 24
REMARK SMILES IDX 14 25 15 26 95 27 96 28 97 29 102 30 98 31 101 32 99 33
REMARK SMILES IDX 100 34 25 35 26 36 27 37 28 38 29 39 30 41 31 42 32 43 93 44
REMARK SMILES IDX 33 45 92 46 34 47 35 48 36 49 86 50 37 51 91 52 85 53 87 54
REMARK SMILES IDX 38 55 90 56 84 57 83 58 39 60 71 61 51 62 70 63 52 64 55 65
REMARK SMILES IDX 69 66 88 67 53 68 54 69 68 71 89 72 56 73 40 74 41 75 49 76
REMARK SMILES IDX 42 77 43 78 47 79 50 80 44 81 45 82 48 83 46 84 72 85 73 86
REMARK SMILES IDX 81 87 74 88 75 89 79 90 82 91 76 92 77 93 80 94 78 95 57 96
REMARK SMILES IDX 58 97 66 98 59 99 60 100 64 101 67 102 61 103 62 104 65 105
REMARK SMILES IDX 63 106
REMARK H PARENT 23 5 28 40 87 59 55 70
REMARK Flexibility Score: inf
ROOT
ATOM      1  C   UNL A   1      38.485  23.084  26.136  1.00  0.00     0.116 C 
ENDROOT
BRANCH   1   2
ATOM      2  N   UNL A   1      37.712  21.869  25.915  1.00  0.00    -0.356 N 
ATOM      3  C   UNL A   1      36.447  21.771  25.396  1.00  0.00     0.226 C 
ATOM      4  O   UNL A   1      36.146  20.693  24.855  1.00  0.00    -0.275 OA
ATOM      5  H   UNL A   1      38.148  21.023  26.167  1.00  0.00     0.163 HD
BRANCH   3   6
ATOM      6  C   UNL A   1      35.605  23.038  25.299  1.00  0.00     0.049 C 
ATOM      7  C   UNL A   1      35.046  22.770  23.874  1.00  0.00     0.022 C 
ATOM      8  C   UNL A   1      36.556  24.237  25.627  1.00  0.00     0.022 C 
BRANCH   6   9
ATOM      9  C   UNL A   1      34.447  23.302  26.305  1.00  0.00     0.071 C 
BRANCH   9  10
ATOM     10  C   UNL A   1      33.324  24.118  25.840  1.00  0.00     0.034 A 
ATOM     11  C   UNL A   1      30.471  26.753  23.313  1.00  0.00    -0.045 A 
ATOM     12  C   UNL A   1      29.796  25.532  23.245  1.00  0.00     0.006 A 
ATOM     13  C   UNL A   1      31.600  26.850  24.157  1.00  0.00     0.015 A 
ATOM     14  C   UNL A   1      30.259  24.399  23.922  1.00  0.00     0.027 A 
ATOM     15  C   UNL A   1      32.103  25.720  24.859  1.00  0.00     0.014 A 
ATOM     16  C   UNL A   1      31.433  24.498  24.687  1.00  0.00     0.050 A 
ATOM     17  C   UNL A   1      33.233  25.499  25.737  1.00  0.00     0.037 A 
ATOM     18  N   UNL A   1      32.146  23.533  25.382  1.00  0.00    -0.339 N 
BRANCH  11  19
ATOM     19  C   UNL A   1      30.042  27.969  22.501  1.00  0.00     0.013 C 
ATOM     20  C   UNL A   1      28.711  28.603  22.934  1.00  0.00     0.012 C 
ATOM     21  C   UNL A   1      31.141  29.033  22.496  1.00  0.00     0.012 C 
ENDBRANCH  11  19
BRANCH  17  22
ATOM     22  S   UNL A   1      34.315  26.838  26.225  1.00  0.00    -0.118 SA
BRANCH  22  23
ATOM     23  C   UNL A   1      33.592  28.450  26.879  1.00  0.00     0.012 C 
ATOM     24  C   UNL A   1      32.235  28.197  27.543  1.00  0.00     0.023 C 
ATOM     25  C   UNL A   1      34.373  29.462  27.753  1.00  0.00     0.023 C 
ATOM     26  C   UNL A   1      33.392  29.281  25.580  1.00  0.00     0.023 C 
ENDBRANCH  22  23
ENDBRANCH  17  22
BRANCH  18  27
ATOM     27  C   UNL A   1      31.607  22.191  25.741  1.00  0.00     0.158 C 
BRANCH  27  28
ATOM     28  C   UNL A   1      32.199  20.968  25.053  1.00  0.00    -0.028 A 
ATOM     29  C   UNL A   1      32.120  20.806  23.654  1.00  0.00     0.007 A 
ATOM     30  C   UNL A   1      32.827  19.948  25.786  1.00  0.00     0.007 A 
ATOM     31  C   UNL A   1      32.442  19.591  23.041  1.00  0.00     0.021 A 
ATOM     32  C   UNL A   1      33.215  18.749  25.162  1.00  0.00     0.021 A 
ATOM     33  C   UNL A   1      32.963  18.555  23.806  1.00  0.00     0.041 A 
ATOM     34  Cl  UNL A   1      33.252  17.021  23.079  1.00  0.00    -0.084 Cl
ENDBRANCH  27  28
ENDBRANCH  18  27
ENDBRANCH   9  10
ENDBRANCH   6   9
ENDBRANCH   3   6
ENDBRANCH   1   2
BRANCH   1  35
ATOM     35  C   UNL A   1      39.572  22.909  27.161  1.00  0.00     0.023 C 
BRANCH  35  36
ATOM     36  C   UNL A   1      40.337  21.614  26.944  1.00  0.00     0.023 C 
BRANCH  36  37
ATOM     37  C   UNL A   1      41.852  21.748  27.171  1.00  0.00     0.116 C 
BRANCH  37  38
ATOM     38  N   UNL A   1      42.564  22.312  26.037  1.00  0.00    -0.352 N 
ATOM     39  C   UNL A   1      42.925  23.581  25.690  1.00  0.00     0.251 C 
ATOM     40  H   UNL A   1      42.847  21.636  25.380  1.00  0.00     0.163 HD
ATOM     41  O   UNL A   1      43.624  23.707  24.678  1.00  0.00    -0.269 OA
BRANCH  39  42
ATOM     42  C   UNL A   1      42.473  24.801  26.405  1.00  0.00     0.039 A 
ATOM     43  C   UNL A   1      41.527  25.700  25.920  1.00  0.00     0.014 A 
ATOM     44  C   UNL A   1      43.115  25.091  27.622  1.00  0.00     0.014 A 
ATOM     45  C   UNL A   1      41.332  26.917  26.538  1.00  0.00     0.010 A 
ATOM     46  C   UNL A   1      42.884  26.290  28.282  1.00  0.00     0.010 A 
ATOM     47  C   UNL A   1      42.032  27.221  27.702  1.00  0.00    -0.014 A 
BRANCH  47  48
ATOM     48  C   UNL A   1      41.723  28.503  28.312  1.00  0.00     0.031 A 
ATOM     49  C   UNL A   1      42.742  29.550  28.040  1.00  0.00     0.074 A 
ATOM     50  C   UNL A   1      40.615  28.728  29.042  1.00  0.00     0.049 A 
ATOM     51  N   UNL A   1      43.521  30.130  28.892  1.00  0.00    -0.248 NA
ATOM     52  C   UNL A   1      43.033  29.885  26.637  1.00  0.00     0.031 C 
ATOM     53  C   UNL A   1      39.436  27.868  29.162  1.00  0.00     0.029 A 
ATOM     54  N   UNL A   1      40.271  29.830  29.769  1.00  0.00    -0.354 N 
ATOM     55  C   UNL A   1      44.271  31.047  28.159  1.00  0.00     0.074 A 
ATOM     56  C   UNL A   1      44.036  30.756  26.770  1.00  0.00     0.031 C 
ATOM     57  C   UNL A   1      38.422  28.578  29.705  1.00  0.00     0.029 A 
ATOM     58  C   UNL A   1      38.929  29.876  30.117  1.00  0.00     0.049 A 
ATOM     59  H   UNL A   1      40.916  30.529  30.025  1.00  0.00     0.167 HD
ATOM     60  C   UNL A   1      44.810  32.139  28.765  1.00  0.00     0.037 A 
ATOM     61  C   UNL A   1      38.278  30.932  30.658  1.00  0.00     0.037 A 
ATOM     62  C   UNL A   1      44.851  31.980  30.192  1.00  0.00     0.049 A 
ATOM     63  C   UNL A   1      39.284  31.787  31.330  1.00  0.00     0.074 A 
ATOM     64  C   UNL A   1      45.673  31.376  31.117  1.00  0.00     0.029 A 
ATOM     65  N   UNL A   1      43.655  32.224  30.807  1.00  0.00    -0.354 N 
ATOM     66  N   UNL A   1      39.946  31.423  32.393  1.00  0.00    -0.248 NA
ATOM     67  C   UNL A   1      39.799  32.967  30.643  1.00  0.00     0.031 C 
ATOM     68  C   UNL A   1      44.871  31.144  32.276  1.00  0.00     0.029 A 
ATOM     69  C   UNL A   1      43.592  31.639  32.042  1.00  0.00     0.049 A 
ATOM     70  H   UNL A   1      42.928  32.756  30.409  1.00  0.00     0.167 HD
ATOM     71  C   UNL A   1      41.166  32.049  32.258  1.00  0.00     0.074 A 
ATOM     72  C   UNL A   1      40.957  33.116  31.293  1.00  0.00     0.031 C 
ATOM     73  C   UNL A   1      42.311  31.439  32.677  1.00  0.00     0.037 A 
BRANCH  60  74
ATOM     74  C   UNL A   1      44.837  33.516  28.139  1.00  0.00     0.064 A 
ATOM     75  C   UNL A   1      46.068  34.077  27.742  1.00  0.00     0.173 A 
ATOM     76  C   UNL A   1      43.754  34.419  28.215  1.00  0.00     0.173 A 
ATOM     77  F   UNL A   1      47.175  33.321  27.681  1.00  0.00    -0.203 F 
ATOM     78  C   UNL A   1      46.204  35.444  27.478  1.00  0.00     0.198 A 
ATOM     79  C   UNL A   1      43.883  35.771  27.902  1.00  0.00     0.198 A 
ATOM     80  F   UNL A   1      42.563  34.057  28.707  1.00  0.00    -0.203 F 
ATOM     81  F   UNL A   1      47.415  35.954  27.206  1.00  0.00    -0.200 F 
ATOM     82  C   UNL A   1      45.113  36.289  27.556  1.00  0.00     0.200 A 
ATOM     83  F   UNL A   1      42.818  36.577  28.018  1.00  0.00    -0.200 F 
ATOM     84  F   UNL A   1      45.250  37.606  27.351  1.00  0.00    -0.200 F 
ENDBRANCH  60  74
BRANCH  61  85
ATOM     85  C   UNL A   1      36.906  31.420  30.383  1.00  0.00     0.064 A 
ATOM     86  C   UNL A   1      36.009  31.648  31.440  1.00  0.00     0.173 A 
ATOM     87  C   UNL A   1      36.567  31.982  29.137  1.00  0.00     0.173 A 
ATOM     88  F   UNL A   1      36.272  31.164  32.663  1.00  0.00    -0.203 F 
ATOM     89  C   UNL A   1      34.880  32.454  31.281  1.00  0.00     0.198 A 
ATOM     90  C   UNL A   1      35.433  32.779  28.979  1.00  0.00     0.198 A 
ATOM     91  F   UNL A   1      37.381  31.858  28.080  1.00  0.00    -0.203 F 
ATOM     92  F   UNL A   1      34.100  32.726  32.337  1.00  0.00    -0.200 F 
ATOM     93  C   UNL A   1      34.605  33.036  30.055  1.00  0.00     0.200 A 
ATOM     94  F   UNL A   1      35.192  33.361  27.795  1.00  0.00    -0.200 F 
ATOM     95  F   UNL A   1      33.571  33.879  29.924  1.00  0.00    -0.200 F 
ENDBRANCH  61  85
BRANCH  73  96
ATOM     96  C   UNL A   1      42.185  30.388  33.731  1.00  0.00     0.064 A 
ATOM     97  C   UNL A   1      41.938  29.030  33.477  1.00  0.00     0.173 A 
ATOM     98  C   UNL A   1      42.379  30.775  35.064  1.00  0.00     0.173 A 
ATOM     99  F   UNL A   1      41.816  28.574  32.222  1.00  0.00    -0.203 F 
ATOM    100  C   UNL A   1      41.851  28.109  34.520  1.00  0.00     0.198 A 
ATOM    101  C   UNL A   1      42.327  29.849  36.099  1.00  0.00     0.198 A 
ATOM    102  F   UNL A   1      42.653  32.056  35.358  1.00  0.00    -0.203 F 
ATOM    103  F   UNL A   1      41.593  26.818  34.259  1.00  0.00    -0.200 F 
ATOM    104  C   UNL A   1      42.052  28.519  35.828  1.00  0.00     0.200 A 
ATOM    105  F   UNL A   1      42.562  30.245  37.357  1.00  0.00    -0.200 F 
ATOM    106  F   UNL A   1      42.001  27.628  36.829  1.00  0.00    -0.200 F 
ENDBRANCH  73  96
ENDBRANCH  47  48
ENDBRANCH  39  42
ENDBRANCH  37  38
ENDBRANCH  36  37
ENDBRANCH  35  36
ENDBRANCH   1  35
TORSDOF 18
ENDMDL
MODEL 2
REMARK VINA RESULT:     -11.9      6.206     10.575
REMARK SMILES CC(C)c1ccc2c(c1)c(SC(C)(C)C)c(CC(C)(C)C(=O)NCCCCNC(=O)c1ccc(-c3c4nc(c(-c5c(F)c(F)c(F)c(F)c5F)c5ccc([nH]5)c(-c5c(F)c(F)c(F)c(F)c5F)c5nc(c(-c6c(F)c(F)c(F)c(F)c6F)c6ccc3[nH]6)C=C5)C=C4)cc1)n2Cc1ccc(Cl)cc1
REMARK SMILES IDX 24 1 23 2 21 3 22 4 18 6 19 7 20 8 17 9 16 10 4 11 5 12 9 13
REMARK SMILES IDX 6 14 8 15 7 16 10 17 94 18 2 19 1 20 3 21 11 22 12 23 13 24
REMARK SMILES IDX 14 25 15 26 95 27 96 28 97 29 102 30 98 31 101 32 99 33
REMARK SMILES IDX 100 34 25 35 26 36 27 37 28 38 29 39 30 41 31 42 32 43 93 44
REMARK SMILES IDX 33 45 92 46 34 47 35 48 36 49 86 50 37 51 91 52 85 53 87 54
REMARK SMILES IDX 38 55 90 56 84 57 83 58 39 60 71 61 51 62 70 63 52 64 55 65
REMARK SMILES IDX 69 66 88 67 53 68 54 69 68 71 89 72 56 73 40 74 41 75 49 76
REMARK SMILES IDX 42 77 43 78 47 79 50 80 44 81 45 82 48 83 46 84 72 85 73 86
REMARK SMILES IDX 81 87 74 88 75 89 79 90 82 91 76 92 77 93 80 94 78 95 57 96
REMARK SMILES IDX 58 97 66 98 59 99 60 100 64 101 67 102 61 103 62 104 65 105
REMARK SMILES IDX 63 106
REMARK H PARENT 23 5 28 40 87 59 55 70
REMARK Flexibility Score: inf
ROOT
ATOM      1  C   UNL A   1      47.587  30.984  27.313  1.00  0.00     0.116 C 
ENDROOT
BRANCH   1   2
ATOM      2  N   UNL A   1      46.979  30.321  28.458  1.00  0.00    -0.356 N 
ATOM      3  C   UNL A   1      46.878  28.972  28.681  1.00  0.00     0.226 C 
ATOM      4  O   UNL A   1      46.774  28.607  29.865  1.00  0.00    -0.275 OA
ATOM      5  H   UNL A   1      46.598  30.908  29.151  1.00  0.00     0.163 HD
BRANCH   3   6
ATOM      6  C   UNL A   1      47.143  28.025  27.517  1.00  0.00     0.049 C 
ATOM      7  C   UNL A   1      46.730  26.720  28.253  1.00  0.00     0.022 C 
ATOM      8  C   UNL A   1      48.606  28.302  27.034  1.00  0.00     0.022 C 
BRANCH   6   9
ATOM      9  C   UNL A   1      46.362  28.174  26.178  1.00  0.00     0.071 C 
BRANCH   9  10
ATOM     10  C   UNL A   1      45.845  26.951  25.562  1.00  0.00     0.034 A 
ATOM     11  C   UNL A   1      44.629  22.566  24.688  1.00  0.00    -0.045 A 
ATOM     12  C   UNL A   1      43.380  23.104  25.005  1.00  0.00     0.006 A 
ATOM     13  C   UNL A   1      45.732  23.444  24.586  1.00  0.00     0.015 A 
ATOM     14  C   UNL A   1      43.220  24.462  25.302  1.00  0.00     0.027 A 
ATOM     15  C   UNL A   1      45.610  24.829  24.882  1.00  0.00     0.014 A 
ATOM     16  C   UNL A   1      44.348  25.299  25.278  1.00  0.00     0.050 A 
ATOM     17  C   UNL A   1      46.539  25.940  24.913  1.00  0.00     0.037 A 
ATOM     18  N   UNL A   1      44.487  26.640  25.601  1.00  0.00    -0.339 N 
BRANCH  11  19
ATOM     19  C   UNL A   1      44.842  21.073  24.466  1.00  0.00     0.013 C 
ATOM     20  C   UNL A   1      46.291  20.592  24.641  1.00  0.00     0.012 C 
ATOM     21  C   UNL A   1      43.915  20.253  25.364  1.00  0.00     0.012 C 
ENDBRANCH  11  19
BRANCH  17  22
ATOM     22  S   UNL A   1      48.251  25.741  24.434  1.00  0.00    -0.118 SA
BRANCH  22  23
ATOM     23  C   UNL A   1      48.981  26.805  23.062  1.00  0.00     0.012 C 
ATOM     24  C   UNL A   1      50.300  27.436  23.519  1.00  0.00     0.023 C 
ATOM     25  C   UNL A   1      49.157  26.335  21.597  1.00  0.00     0.023 C 
ATOM     26  C   UNL A   1      47.904  27.913  22.885  1.00  0.00     0.023 C 
ENDBRANCH  22  23
ENDBRANCH  17  22
BRANCH  18  27
ATOM     27  C   UNL A   1      43.348  27.591  25.738  1.00  0.00     0.158 C 
BRANCH  27  28
ATOM     28  C   UNL A   1      43.227  28.394  27.026  1.00  0.00    -0.028 A 
ATOM     29  C   UNL A   1      43.210  29.804  27.011  1.00  0.00     0.007 A 
ATOM     30  C   UNL A   1      43.148  27.761  28.278  1.00  0.00     0.007 A 
ATOM     31  C   UNL A   1      43.339  30.548  28.188  1.00  0.00     0.021 A 
ATOM     32  C   UNL A   1      43.209  28.510  29.466  1.00  0.00     0.021 A 
ATOM     33  C   UNL A   1      43.366  29.893  29.413  1.00  0.00     0.041 A 
ATOM     34  Cl  UNL A   1      43.641  30.793  30.855  1.00  0.00    -0.084 Cl
ENDBRANCH  27  28
ENDBRANCH  18  27
ENDBRANCH   9  10
ENDBRANCH   6   9
ENDBRANCH   3   6
ENDBRANCH   1   2
BRANCH   1  35
ATOM     35  C   UNL A   1      46.610  31.827  26.537  1.00  0.00     0.023 C 
BRANCH  35  36
ATOM     36  C   UNL A   1      46.553  33.247  27.073  1.00  0.00     0.023 C 
BRANCH  36  37
ATOM     37  C   UNL A   1      45.706  34.198  26.211  1.00  0.00     0.116 C 
BRANCH  37  38
ATOM     38  N   UNL A   1      45.862  35.599  26.563  1.00  0.00    -0.352 N 
ATOM     39  C   UNL A   1      45.416  36.363  27.601  1.00  0.00     0.251 C 
ATOM     40  H   UNL A   1      46.405  36.104  25.916  1.00  0.00     0.163 HD
ATOM     41  O   UNL A   1      45.818  37.531  27.649  1.00  0.00    -0.269 OA
BRANCH  39  42
ATOM     42  C   UNL A   1      44.436  35.900  28.616  1.00  0.00     0.039 A 
ATOM     43  C   UNL A   1      44.690  34.924  29.576  1.00  0.00     0.014 A 
ATOM     44  C   UNL A   1      43.142  36.444  28.535  1.00  0.00     0.014 A 
ATOM     45  C   UNL A   1      43.664  34.394  30.329  1.00  0.00     0.010 A 
ATOM     46  C   UNL A   1      42.113  35.955  29.329  1.00  0.00     0.010 A 
ATOM     47  C   UNL A   1      42.372  34.891  30.183  1.00  0.00    -0.014 A 
BRANCH  47  48
ATOM     48  C   UNL A   1      41.366  34.310  31.055  1.00  0.00     0.031 A 
ATOM     49  C   UNL A   1      41.859  34.041  32.431  1.00  0.00     0.074 A 
ATOM     50  C   UNL A   1      40.105  34.050  30.662  1.00  0.00     0.049 A 
ATOM     51  N   UNL A   1      42.004  32.893  33.005  1.00  0.00    -0.248 NA
ATOM     52  C   UNL A   1      42.393  35.172  33.208  1.00  0.00     0.031 C 
ATOM     53  C   UNL A   1      39.443  34.499  29.435  1.00  0.00     0.029 A 
ATOM     54  N   UNL A   1      39.112  33.395  31.330  1.00  0.00    -0.354 N 
ATOM     55  C   UNL A   1      42.467  33.166  34.290  1.00  0.00     0.074 A 
ATOM     56  C   UNL A   1      42.823  34.560  34.313  1.00  0.00     0.031 C 
ATOM     57  C   UNL A   1      38.109  34.318  29.560  1.00  0.00     0.029 A 
ATOM     58  C   UNL A   1      37.848  33.597  30.794  1.00  0.00     0.049 A 
ATOM     59  H   UNL A   1      39.277  32.831  32.120  1.00  0.00     0.167 HD
ATOM     60  C   UNL A   1      42.264  32.278  35.300  1.00  0.00     0.037 A 
ATOM     61  C   UNL A   1      36.673  33.237  31.360  1.00  0.00     0.037 A 
ATOM     62  C   UNL A   1      41.927  30.976  34.794  1.00  0.00     0.049 A 
ATOM     63  C   UNL A   1      36.947  32.133  32.309  1.00  0.00     0.074 A 
ATOM     64  C   UNL A   1      42.600  29.879  34.306  1.00  0.00     0.029 A 
ATOM     65  N   UNL A   1      40.619  30.855  34.417  1.00  0.00    -0.354 N 
ATOM     66  N   UNL A   1      37.337  30.945  31.940  1.00  0.00    -0.248 NA
ATOM     67  C   UNL A   1      37.083  32.426  33.732  1.00  0.00     0.031 C 
ATOM     68  C   UNL A   1      41.665  29.159  33.501  1.00  0.00     0.029 A 
ATOM     69  C   UNL A   1      40.439  29.817  33.544  1.00  0.00     0.049 A 
ATOM     70  H   UNL A   1      39.895  31.441  34.735  1.00  0.00     0.167 HD
ATOM     71  C   UNL A   1      38.141  30.520  32.976  1.00  0.00     0.074 A 
ATOM     72  C   UNL A   1      37.798  31.363  34.111  1.00  0.00     0.031 C 
ATOM     73  C   UNL A   1      39.245  29.760  32.734  1.00  0.00     0.037 A 
BRANCH  60  74
ATOM     74  C   UNL A   1      41.882  32.683  36.706  1.00  0.00     0.064 A 
ATOM     75  C   UNL A   1      40.670  33.367  36.930  1.00  0.00     0.173 A 
ATOM     76  C   UNL A   1      42.801  32.711  37.778  1.00  0.00     0.173 A 
ATOM     77  F   UNL A   1      39.742  33.445  35.964  1.00  0.00    -0.203 F 
ATOM     78  C   UNL A   1      40.419  34.054  38.122  1.00  0.00     0.198 A 
ATOM     79  C   UNL A   1      42.526  33.355  38.983  1.00  0.00     0.198 A 
ATOM     80  F   UNL A   1      44.042  32.224  37.660  1.00  0.00    -0.203 F 
ATOM     81  F   UNL A   1      39.297  34.779  38.252  1.00  0.00    -0.200 F 
ATOM     82  C   UNL A   1      41.346  34.046  39.148  1.00  0.00     0.200 A 
ATOM     83  F   UNL A   1      43.455  33.363  39.951  1.00  0.00    -0.200 F 
ATOM     84  F   UNL A   1      41.129  34.743  40.272  1.00  0.00    -0.200 F 
ENDBRANCH  60  74
BRANCH  61  85
ATOM     85  C   UNL A   1      35.385  33.969  31.373  1.00  0.00     0.064 A 
ATOM     86  C   UNL A   1      35.174  35.019  32.283  1.00  0.00     0.173 A 
ATOM     87  C   UNL A   1      34.484  33.881  30.295  1.00  0.00     0.173 A 
ATOM     88  F   UNL A   1      36.003  35.184  33.325  1.00  0.00    -0.203 F 
ATOM     89  C   UNL A   1      34.171  35.970  32.085  1.00  0.00     0.198 A 
ATOM     90  C   UNL A   1      33.476  34.827  30.104  1.00  0.00     0.198 A 
ATOM     91  F   UNL A   1      34.628  32.941  29.350  1.00  0.00    -0.203 F 
ATOM     92  F   UNL A   1      34.063  37.010  32.923  1.00  0.00    -0.200 F 
ATOM     93  C   UNL A   1      33.336  35.885  30.984  1.00  0.00     0.200 A 
ATOM     94  F   UNL A   1      32.691  34.751  29.019  1.00  0.00    -0.200 F 
ATOM     95  F   UNL A   1      32.430  36.844  30.746  1.00  0.00    -0.200 F 
ENDBRANCH  61  85
BRANCH  73  96
ATOM     96  C   UNL A   1      39.269  28.965  31.469  1.00  0.00     0.064 A 
ATOM     97  C   UNL A   1      38.831  27.636  31.355  1.00  0.00     0.173 A 
ATOM     98  C   UNL A   1      39.711  29.606  30.304  1.00  0.00     0.173 A 
ATOM     99  F   UNL A   1      38.327  26.983  32.411  1.00  0.00    -0.203 F 
ATOM    100  C   UNL A   1      38.872  26.969  30.132  1.00  0.00     0.198 A 
ATOM    101  C   UNL A   1      39.717  28.951  29.078  1.00  0.00     0.198 A 
ATOM    102  F   UNL A   1      40.108  30.887  30.352  1.00  0.00    -0.203 F 
ATOM    103  F   UNL A   1      38.468  25.693  30.046  1.00  0.00    -0.200 F 
ATOM    104  C   UNL A   1      39.309  27.630  28.994  1.00  0.00     0.200 A 
ATOM    105  F   UNL A   1      40.102  29.608  27.976  1.00  0.00    -0.200 F 
ATOM    106  F   UNL A   1      39.317  27.000  27.811  1.00  0.00    -0.200 F 
ENDBRANCH  73  96
ENDBRANCH  47  48
ENDBRANCH  39  42
ENDBRANCH  37  38
ENDBRANCH  36  37
ENDBRANCH  35  36
ENDBRANCH   1  35
TORSDOF 18
ENDMDL
MODEL 3
REMARK VINA RESULT:     -11.7      6.094     13.011
REMARK SMILES CC(C)c1ccc2c(c1)c(SC(C)(C)C)c(CC(C)(C)C(=O)NCCCCNC(=O)c1ccc(-c3c4nc(c(-c5c(F)c(F)c(F)c(F)c5F)c5ccc([nH]5)c(-c5c(F)c(F)c(F)c(F)c5F)c5nc(c(-c6c(F)c(F)c(F)c(F)c6F)c6ccc3[nH]6)C=C5)C=C4)cc1)n2Cc1ccc(Cl)cc1
REMARK SMILES IDX 24 1 23 2 21 3 22 4 18 6 19 7 20 8 17 9 16 10 4 11 5 12 9 13
REMARK SMILES IDX 6 14 8 15 7 16 10 17 94 18 2 19 1 20 3 21 11 22 12 23 13 24
REMARK SMILES IDX 14 25 15 26 95 27 96 28 97 29 102 30 98 31 101 32 99 33
REMARK SMILES IDX 100 34 25 35 26 36 27 37 28 38 29 39 30 41 31 42 32 43 93 44
REMARK SMILES IDX 33 45 92 46 34 47 35 48 36 49 86 50 37 51 91 52 85 53 87 54
REMARK SMILES IDX 38 55 90 56 84 57 83 58 39 60 71 61 51 62 70 63 52 64 55 65
REMARK SMILES IDX 69 66 88 67 53 68 54 69 68 71 89 72 56 73 40 74 41 75 49 76
REMARK SMILES IDX 42 77 43 78 47 79 50 80 44 81 45 82 48 83 46 84 72 85 73 86
REMARK SMILES IDX 81 87 74 88 75 89 79 90 82 91 76 92 77 93 80 94 78 95 57 96
REMARK SMILES IDX 58 97 66 98 59 99 60 100 64 101 67 102 61 103 62 104 65 105
REMARK SMILES IDX 63 106
REMARK H PARENT 23 5 28 40 87 59 55 70
REMARK Flexibility Score: inf
ROOT
ATOM      1  C   UNL A   1      37.425  32.465  34.214  1.00  0.00     0.116 C 
ENDROOT
BRANCH   1   2
ATOM      2  N   UNL A   1      37.817  31.407  35.135  1.00  0.00    -0.356 N 
ATOM      3  C   UNL A   1      38.134  31.535  36.462  1.00  0.00     0.226 C 
ATOM      4  O   UNL A   1      37.981  30.528  37.174  1.00  0.00    -0.275 OA
ATOM      5  H   UNL A   1      37.859  30.497  34.762  1.00  0.00     0.163 HD
BRANCH   3   6
ATOM      6  C   UNL A   1      38.408  32.932  37.008  1.00  0.00     0.049 C 
ATOM      7  C   UNL A   1      39.346  32.488  38.165  1.00  0.00     0.022 C 
ATOM      8  C   UNL A   1      37.014  33.601  37.254  1.00  0.00     0.022 C 
BRANCH   6   9
ATOM      9  C   UNL A   1      39.096  34.010  36.122  1.00  0.00     0.071 C 
BRANCH   9  10
ATOM     10  C   UNL A   1      40.552  34.134  36.223  1.00  0.00     0.034 A 
ATOM     11  C   UNL A   1      44.962  33.903  37.625  1.00  0.00    -0.045 A 
ATOM     12  C   UNL A   1      44.972  32.918  36.635  1.00  0.00     0.006 A 
ATOM     13  C   UNL A   1      43.798  34.690  37.779  1.00  0.00     0.015 A 
ATOM     14  C   UNL A   1      43.839  32.645  35.861  1.00  0.00     0.027 A 
ATOM     15  C   UNL A   1      42.626  34.440  37.014  1.00  0.00     0.014 A 
ATOM     16  C   UNL A   1      42.666  33.383  36.092  1.00  0.00     0.050 A 
ATOM     17  C   UNL A   1      41.302  35.026  36.976  1.00  0.00     0.037 A 
ATOM     18  N   UNL A   1      41.400  33.268  35.536  1.00  0.00    -0.339 N 
BRANCH  11  19
ATOM     19  C   UNL A   1      46.150  34.144  38.549  1.00  0.00     0.013 C 
ATOM     20  C   UNL A   1      47.065  32.928  38.760  1.00  0.00     0.012 C 
ATOM     21  C   UNL A   1      46.980  35.334  38.065  1.00  0.00     0.012 C 
ENDBRANCH  11  19
BRANCH  17  22
ATOM     22  S   UNL A   1      40.873  36.434  37.992  1.00  0.00    -0.118 SA
BRANCH  22  23
ATOM     23  C   UNL A   1      40.483  36.201  39.821  1.00  0.00     0.012 C 
ATOM     24  C   UNL A   1      41.203  34.964  40.367  1.00  0.00     0.023 C 
ATOM     25  C   UNL A   1      40.587  37.324  40.882  1.00  0.00     0.023 C 
ATOM     26  C   UNL A   1      38.948  35.951  39.810  1.00  0.00     0.023 C 
ENDBRANCH  22  23
ENDBRANCH  17  22
BRANCH  18  27
ATOM     27  C   UNL A   1      41.099  32.511  34.288  1.00  0.00     0.158 C 
BRANCH  27  28
ATOM     28  C   UNL A   1      41.396  33.175  32.951  1.00  0.00    -0.028 A 
ATOM     29  C   UNL A   1      40.795  32.721  31.759  1.00  0.00     0.007 A 
ATOM     30  C   UNL A   1      42.294  34.251  32.851  1.00  0.00     0.007 A 
ATOM     31  C   UNL A   1      41.234  33.160  30.506  1.00  0.00     0.021 A 
ATOM     32  C   UNL A   1      42.690  34.742  31.594  1.00  0.00     0.021 A 
ATOM     33  C   UNL A   1      42.204  34.152  30.430  1.00  0.00     0.041 A 
ATOM     34  Cl  UNL A   1      42.832  34.613  28.894  1.00  0.00    -0.084 Cl
ENDBRANCH  27  28
ENDBRANCH  18  27
ENDBRANCH   9  10
ENDBRANCH   6   9
ENDBRANCH   3   6
ENDBRANCH   1   2
BRANCH   1  35
ATOM     35  C   UNL A   1      37.111  31.954  32.833  1.00  0.00     0.023 C 
BRANCH  35  36
ATOM     36  C   UNL A   1      36.193  32.905  32.084  1.00  0.00     0.023 C 
BRANCH  36  37
ATOM     37  C   UNL A   1      34.827  32.293  31.732  1.00  0.00     0.116 C 
BRANCH  37  38
ATOM     38  N   UNL A   1      34.490  32.390  30.323  1.00  0.00    -0.352 N 
ATOM     39  C   UNL A   1      35.009  31.831  29.191  1.00  0.00     0.251 C 
ATOM     40  H   UNL A   1      33.725  32.983  30.145  1.00  0.00     0.163 HD
ATOM     41  O   UNL A   1      34.411  32.055  28.132  1.00  0.00    -0.269 OA
BRANCH  39  42
ATOM     42  C   UNL A   1      36.267  31.044  29.152  1.00  0.00     0.039 A 
ATOM     43  C   UNL A   1      36.347  29.667  29.344  1.00  0.00     0.014 A 
ATOM     44  C   UNL A   1      37.459  31.771  28.984  1.00  0.00     0.014 A 
ATOM     45  C   UNL A   1      37.568  29.051  29.516  1.00  0.00     0.010 A 
ATOM     46  C   UNL A   1      38.695  31.149  29.100  1.00  0.00     0.010 A 
ATOM     47  C   UNL A   1      38.739  29.799  29.422  1.00  0.00    -0.014 A 
BRANCH  47  48
ATOM     48  C   UNL A   1      39.980  29.056  29.564  1.00  0.00     0.031 A 
ATOM     49  C   UNL A   1      40.454  28.959  30.969  1.00  0.00     0.074 A 
ATOM     50  C   UNL A   1      40.631  28.497  28.528  1.00  0.00     0.049 A 
ATOM     51  N   UNL A   1      41.527  29.471  31.474  1.00  0.00    -0.248 NA
ATOM     52  C   UNL A   1      39.557  28.347  31.962  1.00  0.00     0.031 C 
ATOM     53  C   UNL A   1      40.139  28.309  27.162  1.00  0.00     0.029 A 
ATOM     54  N   UNL A   1      41.855  27.893  28.503  1.00  0.00    -0.354 N 
ATOM     55  C   UNL A   1      41.541  29.082  32.812  1.00  0.00     0.074 A 
ATOM     56  C   UNL A   1      40.247  28.520  33.092  1.00  0.00     0.031 C 
ATOM     57  C   UNL A   1      40.941  27.430  26.518  1.00  0.00     0.029 A 
ATOM     58  C   UNL A   1      42.081  27.130  27.368  1.00  0.00     0.049 A 
ATOM     59  H   UNL A   1      42.517  27.991  29.226  1.00  0.00     0.167 HD
ATOM     60  C   UNL A   1      42.713  29.014  33.499  1.00  0.00     0.037 A 
ATOM     61  C   UNL A   1      43.110  26.274  27.171  1.00  0.00     0.037 A 
ATOM     62  C   UNL A   1      43.755  29.745  32.832  1.00  0.00     0.049 A 
ATOM     63  C   UNL A   1      44.219  26.689  28.061  1.00  0.00     0.074 A 
ATOM     64  C   UNL A   1      44.173  31.054  32.749  1.00  0.00     0.029 A 
ATOM     65  N   UNL A   1      44.321  29.067  31.789  1.00  0.00    -0.354 N 
ATOM     66  N   UNL A   1      44.883  27.801  27.916  1.00  0.00    -0.248 NA
ATOM     67  C   UNL A   1      44.415  26.001  29.333  1.00  0.00     0.031 C 
ATOM     68  C   UNL A   1      44.909  31.164  31.529  1.00  0.00     0.029 A 
ATOM     69  C   UNL A   1      44.947  29.915  30.916  1.00  0.00     0.049 A 
ATOM     70  H   UNL A   1      44.283  28.090  31.680  1.00  0.00     0.167 HD
ATOM     71  C   UNL A   1      45.225  28.157  29.204  1.00  0.00     0.074 A 
ATOM     72  C   UNL A   1      45.089  26.944  29.996  1.00  0.00     0.031 C 
ATOM     73  C   UNL A   1      45.257  29.467  29.579  1.00  0.00     0.037 A 
BRANCH  60  74
ATOM     74  C   UNL A   1      43.048  27.909  34.475  1.00  0.00     0.064 A 
ATOM     75  C   UNL A   1      43.325  28.228  35.820  1.00  0.00     0.173 A 
ATOM     76  C   UNL A   1      43.418  26.608  34.071  1.00  0.00     0.173 A 
ATOM     77  F   UNL A   1      43.058  29.452  36.301  1.00  0.00    -0.203 F 
ATOM     78  C   UNL A   1      43.959  27.322  36.678  1.00  0.00     0.198 A 
ATOM     79  C   UNL A   1      44.003  25.691  34.943  1.00  0.00     0.198 A 
ATOM     80  F   UNL A   1      43.341  26.214  32.794  1.00  0.00    -0.203 F 
ATOM     81  F   UNL A   1      44.299  27.703  37.918  1.00  0.00    -0.200 F 
ATOM     82  C   UNL A   1      44.295  26.054  36.239  1.00  0.00     0.200 A 
ATOM     83  F   UNL A   1      44.351  24.479  34.486  1.00  0.00    -0.200 F 
ATOM     84  F   UNL A   1      44.944  25.202  37.043  1.00  0.00    -0.200 F 
ENDBRANCH  60  74
BRANCH  61  85
ATOM     85  C   UNL A   1      43.106  24.952  26.502  1.00  0.00     0.064 A 
ATOM     86  C   UNL A   1      43.876  24.739  25.346  1.00  0.00     0.173 A 
ATOM     87  C   UNL A   1      42.626  23.803  27.159  1.00  0.00     0.173 A 
ATOM     88  F   UNL A   1      44.388  25.782  24.676  1.00  0.00    -0.203 F 
ATOM     89  C   UNL A   1      44.212  23.453  24.916  1.00  0.00     0.198 A 
ATOM     90  C   UNL A   1      42.955  22.519  26.722  1.00  0.00     0.198 A 
ATOM     91  F   UNL A   1      41.920  23.902  28.294  1.00  0.00    -0.203 F 
ATOM     92  F   UNL A   1      45.027  23.293  23.865  1.00  0.00    -0.200 F 
ATOM     93  C   UNL A   1      43.767  22.345  25.618  1.00  0.00     0.200 A 
ATOM     94  F   UNL A   1      42.543  21.454  27.425  1.00  0.00    -0.200 F 
ATOM     95  F   UNL A   1      44.160  21.115  25.257  1.00  0.00    -0.200 F 
ENDBRANCH  61  85
BRANCH  73  96
ATOM     96  C   UNL A   1      45.454  30.486  28.504  1.00  0.00     0.064 A 
ATOM     97  C   UNL A   1      44.414  31.096  27.784  1.00  0.00     0.173 A 
ATOM     98  C   UNL A   1      46.764  30.900  28.232  1.00  0.00     0.173 A 
ATOM     99  F   UNL A   1      43.132  30.803  28.043  1.00  0.00    -0.203 F 
ATOM    100  C   UNL A   1      44.684  32.052  26.806  1.00  0.00     0.198 A 
ATOM    101  C   UNL A   1      47.028  31.880  27.281  1.00  0.00     0.198 A 
ATOM    102  F   UNL A   1      47.791  30.374  28.917  1.00  0.00    -0.203 F 
ATOM    103  F   UNL A   1      43.679  32.609  26.114  1.00  0.00    -0.200 F 
ATOM    104  C   UNL A   1      45.990  32.447  26.561  1.00  0.00     0.200 A 
ATOM    105  F   UNL A   1      48.288  32.286  27.077  1.00  0.00    -0.200 F 
ATOM    106  F   UNL A   1      46.247  33.390  25.644  1.00  0.00    -0.200 F 
ENDBRANCH  73  96
ENDBRANCH  47  48
ENDBRANCH  39  42
ENDBRANCH  37  38
ENDBRANCH  36  37
ENDBRANCH  35  36
ENDBRANCH   1  35
TORSDOF 18
ENDMDL
