MODEL 1
REMARK VINA RESULT:     -11.4      0.000      0.000
REMARK SMILES Cc1ccc(C)c(OCCNC(=O)CCC(=O)NCCCCNC(=O)c2ccc(-c3c4nc(c(-c5c(F)c(F)c(F)c(F)c5F)c5ccc([nH]5)c(-c5c(F)c(F)c(F)c(F)c5F)c5nc(c(-c6c(F)c(F)c(F)c(F)c6F)c6ccc3[nH]6)C=C5)C=C4)cc2)c1
REMARK SMILES IDX 16 1 17 2 18 3 15 5 14 6 12 7 11 8 13 10 10 11 9 12 8 13
REMARK SMILES IDX 7 14 1 15 2 16 3 17 89 18 4 19 5 20 6 21 19 22 20 23 21 24
REMARK SMILES IDX 22 25 23 26 24 27 25 29 26 30 27 31 88 32 28 33 87 34 29 35
REMARK SMILES IDX 30 36 31 37 81 38 32 39 86 40 80 41 82 42 33 43 85 44 79 45
REMARK SMILES IDX 78 46 34 48 66 49 46 50 65 51 47 52 50 53 64 54 83 55 48 56
REMARK SMILES IDX 49 57 63 59 84 60 51 61 35 62 36 63 44 64 37 65 38 66 42 67
REMARK SMILES IDX 45 68 39 69 40 70 43 71 41 72 67 73 68 74 76 75 69 76 70 77
REMARK SMILES IDX 74 78 77 79 71 80 72 81 75 82 73 83 52 84 53 85 61 86 54 87
REMARK SMILES IDX 55 88 59 89 62 90 56 91 57 92 60 93 58 94
REMARK H PARENT 18 4 11 9 23 28 82 47 50 58
REMARK Flexibility Score: inf
ROOT
ATOM      1  C   UNL A   1      37.424  22.449  24.815  1.00  0.00     0.220 C 
ATOM      2  O   UNL A   1      36.784  21.894  23.915  1.00  0.00    -0.275 OA
ATOM      3  N   UNL A   1      38.394  21.771  25.501  1.00  0.00    -0.356 N 
ATOM      4  H   UNL A   1      38.244  20.800  25.437  1.00  0.00     0.163 HD
ENDROOT
BRANCH   1   5
ATOM      5  C   UNL A   1      36.950  23.773  25.290  1.00  0.00     0.110 C 
BRANCH   5   6
ATOM      6  C   UNL A   1      35.575  23.591  25.929  1.00  0.00     0.110 C 
BRANCH   6   7
ATOM      7  C   UNL A   1      34.447  24.086  25.052  1.00  0.00     0.220 C 
ATOM      8  N   UNL A   1      33.146  23.756  25.311  1.00  0.00    -0.353 N 
ATOM      9  H   UNL A   1      32.500  24.170  24.693  1.00  0.00     0.163 HD
ATOM     10  O   UNL A   1      34.677  24.860  24.119  1.00  0.00    -0.275 OA
BRANCH   8  11
ATOM     11  C   UNL A   1      32.522  22.897  26.342  1.00  0.00     0.157 C 
BRANCH  11  12
ATOM     12  C   UNL A   1      32.774  21.377  26.130  1.00  0.00     0.250 C 
BRANCH  12  13
ATOM     13  O   UNL A   1      31.876  20.680  25.212  1.00  0.00    -0.491 OA
BRANCH  13  14
ATOM     14  C   UNL A   1      32.433  19.694  24.406  1.00  0.00     0.122 A 
ATOM     15  C   UNL A   1      33.378  15.969  25.062  1.00  0.00     0.044 C 
ATOM     16  C   UNL A   1      33.160  17.292  24.395  1.00  0.00    -0.047 A 
ATOM     17  C   UNL A   1      32.942  17.284  23.047  1.00  0.00     0.004 A 
ATOM     18  C   UNL A   1      32.956  18.514  25.063  1.00  0.00     0.050 A 
ATOM     19  C   UNL A   1      32.498  18.463  22.454  1.00  0.00     0.007 A 
ATOM     20  C   UNL A   1      32.305  19.706  23.047  1.00  0.00    -0.009 A 
ATOM     21  C   UNL A   1      32.003  20.943  22.256  1.00  0.00     0.048 C 
ENDBRANCH  13  14
ENDBRANCH  12  13
ENDBRANCH  11  12
ENDBRANCH   8  11
ENDBRANCH   6   7
ENDBRANCH   5   6
ENDBRANCH   1   5
BRANCH   3  22
ATOM     22  C   UNL A   1      39.588  22.051  26.302  1.00  0.00     0.116 C 
BRANCH  22  23
ATOM     23  C   UNL A   1      40.572  20.897  26.940  1.00  0.00     0.023 C 
BRANCH  23  24
ATOM     24  C   UNL A   1      41.600  19.883  26.255  1.00  0.00     0.023 C 
BRANCH  24  25
ATOM     25  C   UNL A   1      43.154  20.087  25.680  1.00  0.00     0.116 C 
BRANCH  25  26
ATOM     26  N   UNL A   1      44.207  21.118  26.060  1.00  0.00    -0.352 N 
ATOM     27  C   UNL A   1      44.219  22.560  25.995  1.00  0.00     0.251 C 
ATOM     28  H   UNL A   1      45.036  20.728  26.417  1.00  0.00     0.163 HD
ATOM     29  O   UNL A   1      45.195  23.105  25.450  1.00  0.00    -0.269 OA
BRANCH  27  30
ATOM     30  C   UNL A   1      43.239  23.506  26.691  1.00  0.00     0.039 A 
ATOM     31  C   UNL A   1      42.402  24.381  25.961  1.00  0.00     0.014 A 
ATOM     32  C   UNL A   1      43.200  23.641  28.070  1.00  0.00     0.014 A 
ATOM     33  C   UNL A   1      41.903  25.595  26.540  1.00  0.00     0.010 A 
ATOM     34  C   UNL A   1      42.689  24.840  28.639  1.00  0.00     0.010 A 
ATOM     35  C   UNL A   1      42.167  25.915  27.875  1.00  0.00    -0.014 A 
BRANCH  35  36
ATOM     36  C   UNL A   1      41.813  27.229  28.541  1.00  0.00     0.031 A 
ATOM     37  C   UNL A   1      42.710  28.331  28.166  1.00  0.00     0.074 A 
ATOM     38  C   UNL A   1      40.761  27.728  29.258  1.00  0.00     0.049 A 
ATOM     39  N   UNL A   1      43.745  28.727  28.824  1.00  0.00    -0.248 NA
ATOM     40  C   UNL A   1      42.478  29.015  26.891  1.00  0.00     0.031 C 
ATOM     41  C   UNL A   1      39.523  27.087  29.618  1.00  0.00     0.029 A 
ATOM     42  N   UNL A   1      40.535  29.007  29.749  1.00  0.00    -0.354 N 
ATOM     43  C   UNL A   1      44.232  29.798  28.104  1.00  0.00     0.074 A 
ATOM     44  C   UNL A   1      43.589  29.745  26.812  1.00  0.00     0.031 C 
ATOM     45  C   UNL A   1      38.572  27.979  29.989  1.00  0.00     0.029 A 
ATOM     46  C   UNL A   1      39.215  29.269  30.145  1.00  0.00     0.049 A 
ATOM     47  H   UNL A   1      41.249  29.681  29.814  1.00  0.00     0.167 HD
ATOM     48  C   UNL A   1      44.927  30.808  28.689  1.00  0.00     0.037 A 
ATOM     49  C   UNL A   1      38.691  30.423  30.645  1.00  0.00     0.037 A 
ATOM     50  C   UNL A   1      45.188  30.566  30.087  1.00  0.00     0.049 A 
ATOM     51  C   UNL A   1      39.814  31.196  31.211  1.00  0.00     0.074 A 
ATOM     52  C   UNL A   1      45.777  29.556  30.825  1.00  0.00     0.029 A 
ATOM     53  N   UNL A   1      44.495  31.322  31.002  1.00  0.00    -0.354 N 
ATOM     54  N   UNL A   1      40.429  30.894  32.319  1.00  0.00    -0.248 NA
ATOM     55  C   UNL A   1      40.465  32.199  30.386  1.00  0.00     0.031 C 
ATOM     56  C   UNL A   1      45.041  29.493  32.048  1.00  0.00     0.029 A 
ATOM     57  C   UNL A   1      44.057  30.477  31.990  1.00  0.00     0.049 A 
ATOM     58  H   UNL A   1      44.341  32.293  30.956  1.00  0.00     0.167 HD
ATOM     59  C   UNL A   1      41.730  31.301  32.102  1.00  0.00     0.074 A 
ATOM     60  C   UNL A   1      41.652  32.240  30.991  1.00  0.00     0.031 C 
ATOM     61  C   UNL A   1      42.769  30.596  32.633  1.00  0.00     0.037 A 
BRANCH  48  62
ATOM     62  C   UNL A   1      45.101  32.158  28.063  1.00  0.00     0.064 A 
ATOM     63  C   UNL A   1      46.393  32.594  27.728  1.00  0.00     0.173 A 
ATOM     64  C   UNL A   1      44.073  33.117  27.939  1.00  0.00     0.173 A 
ATOM     65  F   UNL A   1      47.447  31.777  27.877  1.00  0.00    -0.203 F 
ATOM     66  C   UNL A   1      46.636  33.898  27.296  1.00  0.00     0.198 A 
ATOM     67  C   UNL A   1      44.305  34.391  27.430  1.00  0.00     0.198 A 
ATOM     68  F   UNL A   1      42.835  32.892  28.399  1.00  0.00    -0.203 F 
ATOM     69  F   UNL A   1      47.895  34.302  27.084  1.00  0.00    -0.200 F 
ATOM     70  C   UNL A   1      45.591  34.789  27.127  1.00  0.00     0.200 A 
ATOM     71  F   UNL A   1      43.281  35.245  27.294  1.00  0.00    -0.200 F 
ATOM     72  F   UNL A   1      45.825  36.045  26.727  1.00  0.00    -0.200 F 
ENDBRANCH  48  62
BRANCH  49  73
ATOM     73  C   UNL A   1      37.316  30.995  30.677  1.00  0.00     0.064 A 
ATOM     74  C   UNL A   1      36.656  31.266  31.895  1.00  0.00     0.173 A 
ATOM     75  C   UNL A   1      36.763  31.590  29.531  1.00  0.00     0.173 A 
ATOM     76  F   UNL A   1      37.127  30.771  33.049  1.00  0.00    -0.203 F 
ATOM     77  C   UNL A   1      35.545  32.115  31.965  1.00  0.00     0.198 A 
ATOM     78  C   UNL A   1      35.649  32.436  29.603  1.00  0.00     0.198 A 
ATOM     79  F   UNL A   1      37.362  31.449  28.339  1.00  0.00    -0.203 F 
ATOM     80  F   UNL A   1      34.999  32.407  33.155  1.00  0.00    -0.200 F 
ATOM     81  C   UNL A   1      35.053  32.713  30.821  1.00  0.00     0.200 A 
ATOM     82  F   UNL A   1      35.202  33.046  28.494  1.00  0.00    -0.200 F 
ATOM     83  F   UNL A   1      34.040  33.589  30.896  1.00  0.00    -0.200 F 
ENDBRANCH  49  73
BRANCH  61  84
ATOM     84  C   UNL A   1      42.468  29.665  33.777  1.00  0.00     0.064 A 
ATOM     85  C   UNL A   1      41.938  28.370  33.633  1.00  0.00     0.173 A 
ATOM     86  C   UNL A   1      42.820  30.075  35.071  1.00  0.00     0.173 A 
ATOM     87  F   UNL A   1      41.667  27.863  32.423  1.00  0.00    -0.203 F 
ATOM     88  C   UNL A   1      41.723  27.549  34.738  1.00  0.00     0.198 A 
ATOM     89  C   UNL A   1      42.641  29.237  36.169  1.00  0.00     0.198 A 
ATOM     90  F   UNL A   1      43.371  31.282  35.267  1.00  0.00    -0.203 F 
ATOM     91  F   UNL A   1      41.195  26.326  34.576  1.00  0.00    -0.200 F 
ATOM     92  C   UNL A   1      42.082  27.980  36.004  1.00  0.00     0.200 A 
ATOM     93  F   UNL A   1      43.032  29.641  37.385  1.00  0.00    -0.200 F 
ATOM     94  F   UNL A   1      41.911  27.176  37.063  1.00  0.00    -0.200 F 
ENDBRANCH  61  84
ENDBRANCH  35  36
ENDBRANCH  27  30
ENDBRANCH  25  26
ENDBRANCH  24  25
ENDBRANCH  23  24
ENDBRANCH  22  23
ENDBRANCH   3  22
TORSDOF 17
ENDMDL
MODEL 2
REMARK VINA RESULT:     -11.4      1.766      3.175
REMARK SMILES Cc1ccc(C)c(OCCNC(=O)CCC(=O)NCCCCNC(=O)c2ccc(-c3c4nc(c(-c5c(F)c(F)c(F)c(F)c5F)c5ccc([nH]5)c(-c5c(F)c(F)c(F)c(F)c5F)c5nc(c(-c6c(F)c(F)c(F)c(F)c6F)c6ccc3[nH]6)C=C5)C=C4)cc2)c1
REMARK SMILES IDX 16 1 17 2 18 3 15 5 14 6 12 7 11 8 13 10 10 11 9 12 8 13
REMARK SMILES IDX 7 14 1 15 2 16 3 17 89 18 4 19 5 20 6 21 19 22 20 23 21 24
REMARK SMILES IDX 22 25 23 26 24 27 25 29 26 30 27 31 88 32 28 33 87 34 29 35
REMARK SMILES IDX 30 36 31 37 81 38 32 39 86 40 80 41 82 42 33 43 85 44 79 45
REMARK SMILES IDX 78 46 34 48 66 49 46 50 65 51 47 52 50 53 64 54 83 55 48 56
REMARK SMILES IDX 49 57 63 59 84 60 51 61 35 62 36 63 44 64 37 65 38 66 42 67
REMARK SMILES IDX 45 68 39 69 40 70 43 71 41 72 67 73 68 74 76 75 69 76 70 77
REMARK SMILES IDX 74 78 77 79 71 80 72 81 75 82 73 83 52 84 53 85 61 86 54 87
REMARK SMILES IDX 55 88 59 89 62 90 56 91 57 92 60 93 58 94
REMARK H PARENT 18 4 11 9 23 28 82 47 50 58
REMARK Flexibility Score: inf
ROOT
ATOM      1  C   UNL A   1      35.537  21.561  25.976  1.00  0.00     0.220 C 
ATOM      2  O   UNL A   1      34.778  21.711  26.941  1.00  0.00    -0.275 OA
ATOM      3  N   UNL A   1      36.878  21.805  26.098  1.00  0.00    -0.356 N 
ATOM      4  H   UNL A   1      37.049  22.409  26.856  1.00  0.00     0.163 HD
ENDROOT
BRANCH   1   5
ATOM      5  C   UNL A   1      34.926  21.352  24.639  1.00  0.00     0.110 C 
BRANCH   5   6
ATOM      6  C   UNL A   1      33.638  20.552  24.818  1.00  0.00     0.110 C 
BRANCH   6   7
ATOM      7  C   UNL A   1      32.439  21.213  24.176  1.00  0.00     0.220 C 
ATOM      8  N   UNL A   1      31.645  22.080  24.872  1.00  0.00    -0.353 N 
ATOM      9  H   UNL A   1      30.919  22.474  24.335  1.00  0.00     0.163 HD
ATOM     10  O   UNL A   1      32.195  21.032  22.980  1.00  0.00    -0.275 OA
BRANCH   8  11
ATOM     11  C   UNL A   1      31.666  22.540  26.279  1.00  0.00     0.157 C 
BRANCH  11  12
ATOM     12  C   UNL A   1      31.233  24.023  26.462  1.00  0.00     0.250 C 
BRANCH  12  13
ATOM     13  O   UNL A   1      31.159  24.844  25.255  1.00  0.00    -0.491 OA
BRANCH  13  14
ATOM     14  C   UNL A   1      31.228  26.222  25.420  1.00  0.00     0.122 A 
ATOM     15  C   UNL A   1      33.976  28.574  26.875  1.00  0.00     0.044 C 
ATOM     16  C   UNL A   1      32.716  28.068  26.245  1.00  0.00    -0.047 A 
ATOM     17  C   UNL A   1      32.063  28.908  25.389  1.00  0.00     0.004 A 
ATOM     18  C   UNL A   1      32.260  26.737  26.297  1.00  0.00     0.050 A 
ATOM     19  C   UNL A   1      31.037  28.377  24.613  1.00  0.00     0.007 A 
ATOM     20  C   UNL A   1      30.520  27.085  24.636  1.00  0.00    -0.009 A 
ATOM     21  C   UNL A   1      29.286  26.694  23.880  1.00  0.00     0.048 C 
ENDBRANCH  13  14
ENDBRANCH  12  13
ENDBRANCH  11  12
ENDBRANCH   8  11
ENDBRANCH   6   7
ENDBRANCH   5   6
ENDBRANCH   1   5
BRANCH   3  22
ATOM     22  C   UNL A   1      38.135  21.439  25.442  1.00  0.00     0.116 C 
BRANCH  22  23
ATOM     23  C   UNL A   1      39.558  21.194  26.231  1.00  0.00     0.023 C 
BRANCH  23  24
ATOM     24  C   UNL A   1      40.642  20.024  26.125  1.00  0.00     0.023 C 
BRANCH  24  25
ATOM     25  C   UNL A   1      42.304  20.052  25.973  1.00  0.00     0.116 C 
BRANCH  25  26
ATOM     26  N   UNL A   1      43.246  21.232  25.778  1.00  0.00    -0.352 N 
ATOM     27  C   UNL A   1      43.005  22.640  25.570  1.00  0.00     0.251 C 
ATOM     28  H   UNL A   1      44.199  20.989  25.798  1.00  0.00     0.163 HD
ATOM     29  O   UNL A   1      43.587  23.190  24.619  1.00  0.00    -0.269 OA
BRANCH  27  30
ATOM     30  C   UNL A   1      42.245  23.577  26.510  1.00  0.00     0.039 A 
ATOM     31  C   UNL A   1      41.125  24.322  26.075  1.00  0.00     0.014 A 
ATOM     32  C   UNL A   1      42.681  23.838  27.800  1.00  0.00     0.014 A 
ATOM     33  C   UNL A   1      40.747  25.548  26.718  1.00  0.00     0.010 A 
ATOM     34  C   UNL A   1      42.290  25.046  28.438  1.00  0.00     0.010 A 
ATOM     35  C   UNL A   1      41.431  26.008  27.846  1.00  0.00    -0.014 A 
BRANCH  35  36
ATOM     36  C   UNL A   1      41.208  27.351  28.512  1.00  0.00     0.031 A 
ATOM     37  C   UNL A   1      42.132  28.393  28.040  1.00  0.00     0.074 A 
ATOM     38  C   UNL A   1      40.250  27.922  29.302  1.00  0.00     0.049 A 
ATOM     39  N   UNL A   1      43.239  28.739  28.602  1.00  0.00    -0.248 NA
ATOM     40  C   UNL A   1      41.833  29.068  26.774  1.00  0.00     0.031 C 
ATOM     41  C   UNL A   1      39.012  27.360  29.776  1.00  0.00     0.029 A 
ATOM     42  N   UNL A   1      40.138  29.220  29.782  1.00  0.00    -0.354 N 
ATOM     43  C   UNL A   1      43.724  29.767  27.822  1.00  0.00     0.074 A 
ATOM     44  C   UNL A   1      42.973  29.731  26.588  1.00  0.00     0.031 C 
ATOM     45  C   UNL A   1      38.147  28.312  30.205  1.00  0.00     0.029 A 
ATOM     46  C   UNL A   1      38.873  29.565  30.280  1.00  0.00     0.049 A 
ATOM     47  H   UNL A   1      40.892  29.853  29.773  1.00  0.00     0.167 HD
ATOM     48  C   UNL A   1      44.522  30.745  28.326  1.00  0.00     0.037 A 
ATOM     49  C   UNL A   1      38.459  30.755  30.797  1.00  0.00     0.037 A 
ATOM     50  C   UNL A   1      44.884  30.511  29.703  1.00  0.00     0.049 A 
ATOM     51  C   UNL A   1      39.667  31.471  31.252  1.00  0.00     0.074 A 
ATOM     52  C   UNL A   1      45.475  29.482  30.411  1.00  0.00     0.029 A 
ATOM     53  N   UNL A   1      44.314  31.322  30.655  1.00  0.00    -0.354 N 
ATOM     54  N   UNL A   1      40.354  31.152  32.311  1.00  0.00    -0.248 NA
ATOM     55  C   UNL A   1      40.302  32.421  30.355  1.00  0.00     0.031 C 
ATOM     56  C   UNL A   1      44.841  29.482  31.691  1.00  0.00     0.029 A 
ATOM     57  C   UNL A   1      43.912  30.520  31.694  1.00  0.00     0.049 A 
ATOM     58  H   UNL A   1      44.211  32.299  30.602  1.00  0.00     0.167 HD
ATOM     59  C   UNL A   1      41.653  31.479  31.980  1.00  0.00     0.074 A 
ATOM     60  C   UNL A   1      41.536  32.403  30.859  1.00  0.00     0.031 C 
ATOM     61  C   UNL A   1      42.691  30.724  32.438  1.00  0.00     0.037 A 
BRANCH  48  62
ATOM     62  C   UNL A   1      44.719  32.073  27.659  1.00  0.00     0.064 A 
ATOM     63  C   UNL A   1      45.920  32.322  26.977  1.00  0.00     0.173 A 
ATOM     64  C   UNL A   1      43.852  33.176  27.811  1.00  0.00     0.173 A 
ATOM     65  F   UNL A   1      46.839  31.354  26.840  1.00  0.00    -0.203 F 
ATOM     66  C   UNL A   1      46.228  33.588  26.478  1.00  0.00     0.198 A 
ATOM     67  C   UNL A   1      44.125  34.416  27.241  1.00  0.00     0.198 A 
ATOM     68  F   UNL A   1      42.768  33.123  28.596  1.00  0.00    -0.203 F 
ATOM     69  F   UNL A   1      47.427  33.807  25.923  1.00  0.00    -0.200 F 
ATOM     70  C   UNL A   1      45.323  34.628  26.592  1.00  0.00     0.200 A 
ATOM     71  F   UNL A   1      43.243  35.415  27.381  1.00  0.00    -0.200 F 
ATOM     72  F   UNL A   1      45.625  35.847  26.126  1.00  0.00    -0.200 F 
ENDBRANCH  48  62
BRANCH  49  73
ATOM     73  C   UNL A   1      37.126  31.406  30.930  1.00  0.00     0.064 A 
ATOM     74  C   UNL A   1      36.514  31.588  32.189  1.00  0.00     0.173 A 
ATOM     75  C   UNL A   1      36.586  32.153  29.869  1.00  0.00     0.173 A 
ATOM     76  F   UNL A   1      36.979  30.946  33.270  1.00  0.00    -0.203 F 
ATOM     77  C   UNL A   1      35.463  32.494  32.381  1.00  0.00     0.198 A 
ATOM     78  C   UNL A   1      35.533  33.056  30.062  1.00  0.00     0.198 A 
ATOM     79  F   UNL A   1      37.146  32.101  28.652  1.00  0.00    -0.203 F 
ATOM     80  F   UNL A   1      34.966  32.693  33.611  1.00  0.00    -0.200 F 
ATOM     81  C   UNL A   1      34.985  33.240  31.320  1.00  0.00     0.200 A 
ATOM     82  F   UNL A   1      35.101  33.806  29.037  1.00  0.00    -0.200 F 
ATOM     83  F   UNL A   1      34.034  34.165  31.516  1.00  0.00    -0.200 F 
ENDBRANCH  49  73
BRANCH  61  84
ATOM     84  C   UNL A   1      42.435  29.831  33.622  1.00  0.00     0.064 A 
ATOM     85  C   UNL A   1      41.904  28.531  33.540  1.00  0.00     0.173 A 
ATOM     86  C   UNL A   1      42.832  30.284  34.888  1.00  0.00     0.173 A 
ATOM     87  F   UNL A   1      41.591  27.984  32.358  1.00  0.00    -0.203 F 
ATOM     88  C   UNL A   1      41.732  27.746  34.680  1.00  0.00     0.198 A 
ATOM     89  C   UNL A   1      42.696  29.483  36.019  1.00  0.00     0.198 A 
ATOM     90  F   UNL A   1      43.386  31.499  35.024  1.00  0.00    -0.203 F 
ATOM     91  F   UNL A   1      41.202  26.519  34.578  1.00  0.00    -0.200 F 
ATOM     92  C   UNL A   1      42.135  28.221  35.917  1.00  0.00     0.200 A 
ATOM     93  F   UNL A   1      43.130  29.928  37.207  1.00  0.00    -0.200 F 
ATOM     94  F   UNL A   1      42.005  27.452  37.007  1.00  0.00    -0.200 F 
ENDBRANCH  61  84
ENDBRANCH  35  36
ENDBRANCH  27  30
ENDBRANCH  25  26
ENDBRANCH  24  25
ENDBRANCH  23  24
ENDBRANCH  22  23
ENDBRANCH   3  22
TORSDOF 17
ENDMDL
MODEL 3
REMARK VINA RESULT:     -11.3      3.137      9.154
REMARK SMILES Cc1ccc(C)c(OCCNC(=O)CCC(=O)NCCCCNC(=O)c2ccc(-c3c4nc(c(-c5c(F)c(F)c(F)c(F)c5F)c5ccc([nH]5)c(-c5c(F)c(F)c(F)c(F)c5F)c5nc(c(-c6c(F)c(F)c(F)c(F)c6F)c6ccc3[nH]6)C=C5)C=C4)cc2)c1
REMARK SMILES IDX 16 1 17 2 18 3 15 5 14 6 12 7 11 8 13 10 10 11 9 12 8 13
REMARK SMILES IDX 7 14 1 15 2 16 3 17 89 18 4 19 5 20 6 21 19 22 20 23 21 24
REMARK SMILES IDX 22 25 23 26 24 27 25 29 26 30 27 31 88 32 28 33 87 34 29 35
REMARK SMILES IDX 30 36 31 37 81 38 32 39 86 40 80 41 82 42 33 43 85 44 79 45
REMARK SMILES IDX 78 46 34 48 66 49 46 50 65 51 47 52 50 53 64 54 83 55 48 56
REMARK SMILES IDX 49 57 63 59 84 60 51 61 35 62 36 63 44 64 37 65 38 66 42 67
REMARK SMILES IDX 45 68 39 69 40 70 43 71 41 72 67 73 68 74 76 75 69 76 70 77
REMARK SMILES IDX 74 78 77 79 71 80 72 81 75 82 73 83 52 84 53 85 61 86 54 87
REMARK SMILES IDX 55 88 59 89 62 90 56 91 57 92 60 93 58 94
REMARK H PARENT 18 4 11 9 23 28 82 47 50 58
REMARK Flexibility Score: inf
ROOT
ATOM      1  C   UNL A   1      33.401  25.125  24.583  1.00  0.00     0.220 C 
ATOM      2  O   UNL A   1      34.630  25.048  24.695  1.00  0.00    -0.275 OA
ATOM      3  N   UNL A   1      32.726  26.224  25.041  1.00  0.00    -0.356 N 
ATOM      4  H   UNL A   1      33.257  26.691  25.726  1.00  0.00     0.163 HD
ENDROOT
BRANCH   1   5
ATOM      5  C   UNL A   1      32.664  23.905  24.168  1.00  0.00     0.110 C 
BRANCH   5   6
ATOM      6  C   UNL A   1      32.714  22.899  25.316  1.00  0.00     0.110 C 
BRANCH   6   7
ATOM      7  C   UNL A   1      33.294  21.564  24.905  1.00  0.00     0.220 C 
ATOM      8  N   UNL A   1      34.535  21.168  25.317  1.00  0.00    -0.353 N 
ATOM      9  H   UNL A   1      34.785  20.264  25.016  1.00  0.00     0.163 HD
ATOM     10  O   UNL A   1      32.620  20.771  24.241  1.00  0.00    -0.275 OA
BRANCH   8  11
ATOM     11  C   UNL A   1      35.576  21.838  26.129  1.00  0.00     0.157 C 
BRANCH  11  12
ATOM     12  C   UNL A   1      36.829  22.268  25.313  1.00  0.00     0.250 C 
BRANCH  12  13
ATOM     13  O   UNL A   1      38.056  21.507  25.537  1.00  0.00    -0.491 OA
BRANCH  13  14
ATOM     14  C   UNL A   1      39.099  22.161  26.182  1.00  0.00     0.122 A 
ATOM     15  C   UNL A   1      39.309  25.556  28.088  1.00  0.00     0.044 C 
ATOM     16  C   UNL A   1      39.662  24.231  27.485  1.00  0.00    -0.047 A 
ATOM     17  C   UNL A   1      40.673  23.526  28.072  1.00  0.00     0.004 A 
ATOM     18  C   UNL A   1      38.910  23.562  26.502  1.00  0.00     0.050 A 
ATOM     19  C   UNL A   1      40.851  22.201  27.685  1.00  0.00     0.007 A 
ATOM     20  C   UNL A   1      40.167  21.490  26.704  1.00  0.00    -0.009 A 
ATOM     21  C   UNL A   1      40.584  20.123  26.256  1.00  0.00     0.048 C 
ENDBRANCH  13  14
ENDBRANCH  12  13
ENDBRANCH  11  12
ENDBRANCH   8  11
ENDBRANCH   6   7
ENDBRANCH   5   6
ENDBRANCH   1   5
BRANCH   3  22
ATOM     22  C   UNL A   1      31.455  26.916  24.820  1.00  0.00     0.116 C 
BRANCH  22  23
ATOM     23  C   UNL A   1      31.260  28.548  24.888  1.00  0.00     0.023 C 
BRANCH  23  24
ATOM     24  C   UNL A   1      31.733  29.628  25.965  1.00  0.00     0.023 C 
BRANCH  24  25
ATOM     25  C   UNL A   1      33.214  29.919  26.680  1.00  0.00     0.116 C 
BRANCH  25  26
ATOM     26  N   UNL A   1      33.981  31.224  26.839  1.00  0.00    -0.352 N 
ATOM     27  C   UNL A   1      34.752  31.768  27.931  1.00  0.00     0.251 C 
ATOM     28  H   UNL A   1      33.943  31.807  26.048  1.00  0.00     0.163 HD
ATOM     29  O   UNL A   1      34.501  32.931  28.292  1.00  0.00    -0.269 OA
BRANCH  27  30
ATOM     30  C   UNL A   1      35.981  31.126  28.579  1.00  0.00     0.039 A 
ATOM     31  C   UNL A   1      37.022  31.904  29.135  1.00  0.00     0.014 A 
ATOM     32  C   UNL A   1      36.197  29.757  28.552  1.00  0.00     0.014 A 
ATOM     33  C   UNL A   1      38.359  31.395  29.246  1.00  0.00     0.010 A 
ATOM     34  C   UNL A   1      37.521  29.257  28.679  1.00  0.00     0.010 A 
ATOM     35  C   UNL A   1      38.659  30.081  28.877  1.00  0.00    -0.014 A 
BRANCH  35  36
ATOM     36  C   UNL A   1      40.054  29.491  28.818  1.00  0.00     0.031 A 
ATOM     37  C   UNL A   1      40.593  29.144  30.141  1.00  0.00     0.074 A 
ATOM     38  C   UNL A   1      40.888  29.007  27.850  1.00  0.00     0.049 A 
ATOM     39  N   UNL A   1      41.361  29.883  30.867  1.00  0.00    -0.248 NA
ATOM     40  C   UNL A   1      40.178  27.880  30.754  1.00  0.00     0.031 C 
ATOM     41  C   UNL A   1      40.657  28.879  26.435  1.00  0.00     0.029 A 
ATOM     42  N   UNL A   1      42.137  28.409  27.956  1.00  0.00    -0.354 N 
ATOM     43  C   UNL A   1      41.627  29.122  31.986  1.00  0.00     0.074 A 
ATOM     44  C   UNL A   1      40.666  28.043  31.982  1.00  0.00     0.031 C 
ATOM     45  C   UNL A   1      41.530  28.024  25.847  1.00  0.00     0.029 A 
ATOM     46  C   UNL A   1      42.572  27.727  26.811  1.00  0.00     0.049 A 
ATOM     47  H   UNL A   1      42.678  28.461  28.777  1.00  0.00     0.167 HD
ATOM     48  C   UNL A   1      42.772  29.264  32.703  1.00  0.00     0.037 A 
ATOM     49  C   UNL A   1      43.731  27.037  26.621  1.00  0.00     0.037 A 
ATOM     50  C   UNL A   1      43.589  30.357  32.234  1.00  0.00     0.049 A 
ATOM     51  C   UNL A   1      44.705  27.553  27.605  1.00  0.00     0.074 A 
ATOM     52  C   UNL A   1      43.404  31.709  32.013  1.00  0.00     0.029 A 
ATOM     53  N   UNL A   1      44.754  30.041  31.576  1.00  0.00    -0.354 N 
ATOM     54  N   UNL A   1      45.283  28.717  27.524  1.00  0.00    -0.248 NA
ATOM     55  C   UNL A   1      44.852  26.865  28.876  1.00  0.00     0.031 C 
ATOM     56  C   UNL A   1      44.203  32.025  30.871  1.00  0.00     0.029 A 
ATOM     57  C   UNL A   1      44.839  30.851  30.472  1.00  0.00     0.049 A 
ATOM     58  H   UNL A   1      45.409  29.358  31.848  1.00  0.00     0.167 HD
ATOM     59  C   UNL A   1      45.449  29.100  28.840  1.00  0.00     0.074 A 
ATOM     60  C   UNL A   1      45.334  27.869  29.610  1.00  0.00     0.031 C 
ATOM     61  C   UNL A   1      45.345  30.412  29.193  1.00  0.00     0.037 A 
BRANCH  48  62
ATOM     62  C   UNL A   1      43.296  28.214  33.635  1.00  0.00     0.064 A 
ATOM     63  C   UNL A   1      43.562  28.557  34.970  1.00  0.00     0.173 A 
ATOM     64  C   UNL A   1      43.716  26.928  33.232  1.00  0.00     0.173 A 
ATOM     65  F   UNL A   1      43.262  29.781  35.430  1.00  0.00    -0.203 F 
ATOM     66  C   UNL A   1      44.200  27.673  35.840  1.00  0.00     0.198 A 
ATOM     67  C   UNL A   1      44.277  26.018  34.122  1.00  0.00     0.198 A 
ATOM     68  F   UNL A   1      43.692  26.546  31.948  1.00  0.00    -0.203 F 
ATOM     69  F   UNL A   1      44.525  28.077  37.075  1.00  0.00    -0.200 F 
ATOM     70  C   UNL A   1      44.538  26.398  35.422  1.00  0.00     0.200 A 
ATOM     71  F   UNL A   1      44.616  24.796  33.691  1.00  0.00    -0.200 F 
ATOM     72  F   UNL A   1      45.165  25.554  36.252  1.00  0.00    -0.200 F 
ENDBRANCH  48  62
BRANCH  49  73
ATOM     73  C   UNL A   1      44.129  25.933  25.704  1.00  0.00     0.064 A 
ATOM     74  C   UNL A   1      45.480  25.699  25.371  1.00  0.00     0.173 A 
ATOM     75  C   UNL A   1      43.232  24.893  25.407  1.00  0.00     0.173 A 
ATOM     76  F   UNL A   1      46.417  26.617  25.646  1.00  0.00    -0.203 F 
ATOM     77  C   UNL A   1      45.910  24.486  24.820  1.00  0.00     0.198 A 
ATOM     78  C   UNL A   1      43.664  23.681  24.853  1.00  0.00     0.198 A 
ATOM     79  F   UNL A   1      41.940  24.994  25.753  1.00  0.00    -0.203 F 
ATOM     80  F   UNL A   1      47.216  24.278  24.594  1.00  0.00    -0.200 F 
ATOM     81  C   UNL A   1      45.004  23.471  24.578  1.00  0.00     0.200 A 
ATOM     82  F   UNL A   1      42.785  22.686  24.660  1.00  0.00    -0.200 F 
ATOM     83  F   UNL A   1      45.424  22.280  24.127  1.00  0.00    -0.200 F 
ENDBRANCH  49  73
BRANCH  61  84
ATOM     84  C   UNL A   1      45.481  31.441  28.102  1.00  0.00     0.064 A 
ATOM     85  C   UNL A   1      44.456  31.792  27.206  1.00  0.00     0.173 A 
ATOM     86  C   UNL A   1      46.679  32.166  28.025  1.00  0.00     0.173 A 
ATOM     87  F   UNL A   1      43.247  31.219  27.276  1.00  0.00    -0.203 F 
ATOM     88  C   UNL A   1      44.643  32.786  26.246  1.00  0.00     0.198 A 
ATOM     89  C   UNL A   1      46.849  33.185  27.091  1.00  0.00     0.198 A 
ATOM     90  F   UNL A   1      47.678  31.907  28.882  1.00  0.00    -0.203 F 
ATOM     91  F   UNL A   1      43.657  33.086  25.387  1.00  0.00    -0.200 F 
ATOM     92  C   UNL A   1      45.837  33.486  26.194  1.00  0.00     0.200 A 
ATOM     93  F   UNL A   1      47.988  33.890  27.075  1.00  0.00    -0.200 F 
ATOM     94  F   UNL A   1      46.004  34.467  25.296  1.00  0.00    -0.200 F 
ENDBRANCH  61  84
ENDBRANCH  35  36
ENDBRANCH  27  30
ENDBRANCH  25  26
ENDBRANCH  24  25
ENDBRANCH  23  24
ENDBRANCH  22  23
ENDBRANCH   3  22
TORSDOF 17
ENDMDL
