MODEL 1
REMARK VINA RESULT:     -14.7      0.000      0.000
REMARK SMILES Cc1cccc(-c2cc(C[C@]3(C(=O)NCCCCNC(=O)c4ccc(-c5c6nc(c(-c7c(F)c(F)c(F)c(F)c7F)c7ccc([nH]7)c(-c7c(F)c(F)c(F)c(F)c7F)c7nc(c(-c8c(F)c(F)c(F)c(F)c8F)c8ccc5[nH]8)C=C7)C=C6)cc4)CCCN(C(=O)C(C)C)C3)on2)c1
REMARK SMILES IDX 16 1 15 2 14 3 12 4 13 5 11 7 85 8 94 9 86 10 88 11 87 12
REMARK SMILES IDX 10 13 9 14 7 15 8 16 96 17 95 18 6 19 1 20 2 21 3 22 97 23
REMARK SMILES IDX 4 24 5 25 89 26 90 27 91 28 92 29 93 30 17 31 18 32 19 33
REMARK SMILES IDX 20 34 21 36 22 37 23 38 84 39 24 40 83 41 25 42 26 43 27 44
REMARK SMILES IDX 77 45 28 46 82 47 76 48 78 49 29 50 81 51 75 52 74 53 30 55
REMARK SMILES IDX 62 56 42 57 61 58 43 59 46 60 60 61 79 62 44 63 45 64 59 66
REMARK SMILES IDX 80 67 47 68 31 69 32 70 40 71 33 72 34 73 38 74 41 75 35 76
REMARK SMILES IDX 36 77 39 78 37 79 63 80 64 81 72 82 65 83 66 84 70 85 73 86
REMARK SMILES IDX 67 87 68 88 71 89 69 90 48 91 49 92 57 93 50 94 51 95 55 96
REMARK SMILES IDX 58 97 52 98 53 99 56 100 54 101
REMARK H PARENT 14 6 19 35 78 54 46 65
REMARK Flexibility Score: inf
ROOT
ATOM      1  C   UNL A   1      31.865  29.316  26.453  1.00  0.00     0.023 C 
ENDROOT
BRANCH   1   2
ATOM      2  C   UNL A   1      32.099  27.951  27.119  1.00  0.00     0.116 C 
BRANCH   2   3
ATOM      3  N   UNL A   1      30.998  27.005  26.994  1.00  0.00    -0.356 N 
ATOM      4  C   UNL A   1      30.832  25.830  26.314  1.00  0.00     0.228 C 
ATOM      5  O   UNL A   1      29.783  25.228  26.569  1.00  0.00    -0.274 OA
ATOM      6  H   UNL A   1      30.202  27.268  27.509  1.00  0.00     0.163 HD
BRANCH   4   7
ATOM      7  C   UNL A   1      31.852  25.268  25.278  1.00  0.00     0.074 C 
ATOM      8  C   UNL A   1      33.107  26.187  25.305  1.00  0.00     0.021 C 
ATOM      9  C   UNL A   1      32.106  23.773  25.607  1.00  0.00     0.136 C 
ATOM     10  C   UNL A   1      34.462  25.506  25.116  1.00  0.00     0.023 C 
ATOM     11  N   UNL A   1      33.454  23.318  25.251  1.00  0.00    -0.341 N 
ATOM     12  C   UNL A   1      34.520  24.144  25.780  1.00  0.00     0.119 C 
BRANCH   7  13
ATOM     13  C   UNL A   1      31.153  25.370  23.872  1.00  0.00     0.097 C 
BRANCH  13  14
ATOM     14  C   UNL A   1      30.321  26.581  23.614  1.00  0.00     0.138 A 
ATOM     15  C   UNL A   1      29.342  28.516  23.148  1.00  0.00     0.114 A 
ATOM     16  C   UNL A   1      30.607  27.892  23.310  1.00  0.00     0.077 A 
ATOM     17  N   UNL A   1      28.355  27.623  23.324  1.00  0.00    -0.080 NA
ATOM     18  O   UNL A   1      28.971  26.412  23.587  1.00  0.00    -0.361 OA
BRANCH  15  19
ATOM     19  C   UNL A   1      29.070  29.921  22.879  1.00  0.00     0.004 A 
ATOM     20  C   UNL A   1      27.821  32.174  20.064  1.00  0.00     0.044 C 
ATOM     21  C   UNL A   1      28.353  31.705  21.386  1.00  0.00    -0.050 A 
ATOM     22  C   UNL A   1      28.616  32.645  22.392  1.00  0.00     0.003 A 
ATOM     23  C   UNL A   1      28.596  30.342  21.632  1.00  0.00     0.014 A 
ATOM     24  C   UNL A   1      29.083  32.233  23.635  1.00  0.00     0.001 A 
ATOM     25  C   UNL A   1      29.294  30.876  23.876  1.00  0.00     0.010 A 
ENDBRANCH  15  19
ENDBRANCH  13  14
ENDBRANCH   7  13
BRANCH  11  26
ATOM     26  C   UNL A   1      33.602  22.205  24.441  1.00  0.00     0.225 C 
ATOM     27  O   UNL A   1      34.719  21.879  24.021  1.00  0.00    -0.275 OA
BRANCH  26  28
ATOM     28  C   UNL A   1      32.396  21.368  23.991  1.00  0.00     0.072 C 
ATOM     29  C   UNL A   1      32.064  21.373  22.501  1.00  0.00     0.018 C 
ATOM     30  C   UNL A   1      32.447  19.960  24.567  1.00  0.00     0.018 C 
ENDBRANCH  26  28
ENDBRANCH  11  26
ENDBRANCH   4   7
ENDBRANCH   2   3
ENDBRANCH   1   2
BRANCH   1  31
ATOM     31  C   UNL A   1      32.544  30.507  27.130  1.00  0.00     0.023 C 
BRANCH  31  32
ATOM     32  C   UNL A   1      34.014  30.281  27.457  1.00  0.00     0.116 C 
BRANCH  32  33
ATOM     33  N   UNL A   1      34.587  31.222  28.414  1.00  0.00    -0.352 N 
ATOM     34  C   UNL A   1      35.729  31.086  29.193  1.00  0.00     0.251 C 
ATOM     35  H   UNL A   1      34.096  32.068  28.523  1.00  0.00     0.163 HD
ATOM     36  O   UNL A   1      36.045  31.953  29.990  1.00  0.00    -0.269 OA
BRANCH  34  37
ATOM     37  C   UNL A   1      36.632  29.931  28.951  1.00  0.00     0.039 A 
ATOM     38  C   UNL A   1      36.923  29.080  30.023  1.00  0.00     0.014 A 
ATOM     39  C   UNL A   1      37.339  29.821  27.759  1.00  0.00     0.014 A 
ATOM     40  C   UNL A   1      38.086  28.311  29.985  1.00  0.00     0.010 A 
ATOM     41  C   UNL A   1      38.547  29.152  27.763  1.00  0.00     0.010 A 
ATOM     42  C   UNL A   1      38.956  28.455  28.904  1.00  0.00    -0.014 A 
BRANCH  42  43
ATOM     43  C   UNL A   1      40.355  28.040  28.937  1.00  0.00     0.031 A 
ATOM     44  C   UNL A   1      40.778  26.719  28.429  1.00  0.00     0.074 A 
ATOM     45  C   UNL A   1      41.299  28.929  29.321  1.00  0.00     0.049 A 
ATOM     46  N   UNL A   1      41.895  26.150  28.741  1.00  0.00    -0.248 NA
ATOM     47  C   UNL A   1      39.956  25.919  27.530  1.00  0.00     0.031 C 
ATOM     48  C   UNL A   1      42.747  28.825  29.145  1.00  0.00     0.029 A 
ATOM     49  N   UNL A   1      41.136  30.043  30.162  1.00  0.00    -0.354 N 
ATOM     50  C   UNL A   1      42.065  25.076  27.904  1.00  0.00     0.074 A 
ATOM     51  C   UNL A   1      40.809  24.945  27.199  1.00  0.00     0.031 C 
ATOM     52  C   UNL A   1      43.349  29.582  30.075  1.00  0.00     0.029 A 
ATOM     53  C   UNL A   1      42.310  30.080  30.956  1.00  0.00     0.049 A 
ATOM     54  H   UNL A   1      40.372  30.664  30.193  1.00  0.00     0.167 HD
ATOM     55  C   UNL A   1      43.289  24.481  27.807  1.00  0.00     0.037 A 
ATOM     56  C   UNL A   1      42.248  29.871  32.303  1.00  0.00     0.037 A 
ATOM     57  C   UNL A   1      44.264  25.061  28.726  1.00  0.00     0.049 A 
ATOM     58  C   UNL A   1      43.040  28.680  32.804  1.00  0.00     0.074 A 
ATOM     59  C   UNL A   1      45.309  25.962  28.601  1.00  0.00     0.029 A 
ATOM     60  N   UNL A   1      44.044  24.928  30.086  1.00  0.00    -0.354 N 
ATOM     61  N   UNL A   1      43.683  27.842  32.040  1.00  0.00    -0.248 NA
ATOM     62  C   UNL A   1      43.063  28.279  34.212  1.00  0.00     0.031 C 
ATOM     63  C   UNL A   1      45.720  26.357  29.907  1.00  0.00     0.029 A 
ATOM     64  C   UNL A   1      44.919  25.701  30.822  1.00  0.00     0.049 A 
ATOM     65  H   UNL A   1      43.350  24.352  30.479  1.00  0.00     0.167 HD
ATOM     66  C   UNL A   1      44.141  26.798  32.800  1.00  0.00     0.074 A 
ATOM     67  C   UNL A   1      43.727  27.113  34.153  1.00  0.00     0.031 C 
ATOM     68  C   UNL A   1      44.786  25.722  32.266  1.00  0.00     0.037 A 
BRANCH  55  69
ATOM     69  C   UNL A   1      43.636  23.520  26.699  1.00  0.00     0.064 A 
ATOM     70  C   UNL A   1      43.200  22.180  26.732  1.00  0.00     0.173 A 
ATOM     71  C   UNL A   1      44.450  23.855  25.601  1.00  0.00     0.173 A 
ATOM     72  F   UNL A   1      42.337  21.747  27.660  1.00  0.00    -0.203 F 
ATOM     73  C   UNL A   1      43.647  21.226  25.816  1.00  0.00     0.198 A 
ATOM     74  C   UNL A   1      44.949  22.889  24.722  1.00  0.00     0.198 A 
ATOM     75  F   UNL A   1      44.756  25.132  25.334  1.00  0.00    -0.203 F 
ATOM     76  F   UNL A   1      43.205  19.964  25.901  1.00  0.00    -0.200 F 
ATOM     77  C   UNL A   1      44.559  21.571  24.838  1.00  0.00     0.200 A 
ATOM     78  F   UNL A   1      45.821  23.247  23.768  1.00  0.00    -0.200 F 
ATOM     79  F   UNL A   1      45.041  20.642  24.002  1.00  0.00    -0.200 F 
ENDBRANCH  55  69
BRANCH  56  80
ATOM     80  C   UNL A   1      40.973  30.354  32.902  1.00  0.00     0.064 A 
ATOM     81  C   UNL A   1      40.760  31.744  33.003  1.00  0.00     0.173 A 
ATOM     82  C   UNL A   1      39.860  29.518  33.029  1.00  0.00     0.173 A 
ATOM     83  F   UNL A   1      41.794  32.594  32.880  1.00  0.00    -0.203 F 
ATOM     84  C   UNL A   1      39.477  32.273  33.101  1.00  0.00     0.198 A 
ATOM     85  C   UNL A   1      38.577  30.053  33.153  1.00  0.00     0.198 A 
ATOM     86  F   UNL A   1      39.989  28.188  32.913  1.00  0.00    -0.203 F 
ATOM     87  F   UNL A   1      39.297  33.601  33.061  1.00  0.00    -0.200 F 
ATOM     88  C   UNL A   1      38.383  31.426  33.151  1.00  0.00     0.200 A 
ATOM     89  F   UNL A   1      37.516  29.232  33.170  1.00  0.00    -0.200 F 
ATOM     90  F   UNL A   1      37.142  31.930  33.149  1.00  0.00    -0.200 F 
ENDBRANCH  56  80
BRANCH  68  91
ATOM     91  C   UNL A   1      45.325  24.584  33.084  1.00  0.00     0.064 A 
ATOM     92  C   UNL A   1      44.545  23.466  33.422  1.00  0.00     0.173 A 
ATOM     93  C   UNL A   1      46.616  24.634  33.653  1.00  0.00     0.173 A 
ATOM     94  F   UNL A   1      43.278  23.359  32.998  1.00  0.00    -0.203 F 
ATOM     95  C   UNL A   1      45.046  22.437  34.224  1.00  0.00     0.198 A 
ATOM     96  C   UNL A   1      47.095  23.632  34.495  1.00  0.00     0.198 A 
ATOM     97  F   UNL A   1      47.458  25.643  33.387  1.00  0.00    -0.203 F 
ATOM     98  F   UNL A   1      44.288  21.361  34.473  1.00  0.00    -0.200 F 
ATOM     99  C   UNL A   1      46.316  22.525  34.767  1.00  0.00     0.200 A 
ATOM    100  F   UNL A   1      48.317  23.743  35.032  1.00  0.00    -0.200 F 
ATOM    101  F   UNL A   1      46.788  21.547  35.550  1.00  0.00    -0.200 F 
ENDBRANCH  68  91
ENDBRANCH  42  43
ENDBRANCH  34  37
ENDBRANCH  32  33
ENDBRANCH  31  32
ENDBRANCH   1  31
TORSDOF 16
ENDMDL
MODEL 2
REMARK VINA RESULT:     -14.7      3.609      9.548
REMARK SMILES Cc1cccc(-c2cc(C[C@]3(C(=O)NCCCCNC(=O)c4ccc(-c5c6nc(c(-c7c(F)c(F)c(F)c(F)c7F)c7ccc([nH]7)c(-c7c(F)c(F)c(F)c(F)c7F)c7nc(c(-c8c(F)c(F)c(F)c(F)c8F)c8ccc5[nH]8)C=C7)C=C6)cc4)CCCN(C(=O)C(C)C)C3)on2)c1
REMARK SMILES IDX 16 1 15 2 14 3 12 4 13 5 11 7 85 8 94 9 86 10 88 11 87 12
REMARK SMILES IDX 10 13 9 14 7 15 8 16 96 17 95 18 6 19 1 20 2 21 3 22 97 23
REMARK SMILES IDX 4 24 5 25 89 26 90 27 91 28 92 29 93 30 17 31 18 32 19 33
REMARK SMILES IDX 20 34 21 36 22 37 23 38 84 39 24 40 83 41 25 42 26 43 27 44
REMARK SMILES IDX 77 45 28 46 82 47 76 48 78 49 29 50 81 51 75 52 74 53 30 55
REMARK SMILES IDX 62 56 42 57 61 58 43 59 46 60 60 61 79 62 44 63 45 64 59 66
REMARK SMILES IDX 80 67 47 68 31 69 32 70 40 71 33 72 34 73 38 74 41 75 35 76
REMARK SMILES IDX 36 77 39 78 37 79 63 80 64 81 72 82 65 83 66 84 70 85 73 86
REMARK SMILES IDX 67 87 68 88 71 89 69 90 48 91 49 92 57 93 50 94 51 95 55 96
REMARK SMILES IDX 58 97 52 98 53 99 56 100 54 101
REMARK H PARENT 14 6 19 35 78 54 46 65
REMARK Flexibility Score: inf
ROOT
ATOM      1  C   UNL A   1      37.056  21.502  24.794  1.00  0.00     0.023 C 
ENDROOT
BRANCH   1   2
ATOM      2  C   UNL A   1      35.890  21.111  25.716  1.00  0.00     0.116 C 
BRANCH   2   3
ATOM      3  N   UNL A   1      34.755  20.489  25.047  1.00  0.00    -0.356 N 
ATOM      4  C   UNL A   1      33.613  20.975  24.472  1.00  0.00     0.228 C 
ATOM      5  O   UNL A   1      32.939  20.133  23.868  1.00  0.00    -0.274 OA
ATOM      6  H   UNL A   1      34.824  19.509  24.999  1.00  0.00     0.163 HD
BRANCH   4   7
ATOM      7  C   UNL A   1      33.153  22.461  24.562  1.00  0.00     0.074 C 
ATOM      8  C   UNL A   1      33.340  22.925  26.035  1.00  0.00     0.021 C 
ATOM      9  C   UNL A   1      33.931  23.277  23.496  1.00  0.00     0.136 C 
ATOM     10  C   UNL A   1      33.790  24.369  26.249  1.00  0.00     0.023 C 
ATOM     11  N   UNL A   1      34.167  24.671  23.885  1.00  0.00    -0.341 N 
ATOM     12  C   UNL A   1      34.773  24.830  25.192  1.00  0.00     0.119 C 
BRANCH   7  13
ATOM     13  C   UNL A   1      31.623  22.471  24.195  1.00  0.00     0.097 C 
BRANCH  13  14
ATOM     14  C   UNL A   1      30.912  23.780  24.287  1.00  0.00     0.138 A 
ATOM     15  C   UNL A   1      29.796  25.690  24.129  1.00  0.00     0.114 A 
ATOM     16  C   UNL A   1      30.355  24.634  23.363  1.00  0.00     0.077 A 
ATOM     17  N   UNL A   1      29.989  25.470  25.439  1.00  0.00    -0.080 NA
ATOM     18  O   UNL A   1      30.661  24.264  25.533  1.00  0.00    -0.361 OA
BRANCH  15  19
ATOM     19  C   UNL A   1      29.138  26.894  23.640  1.00  0.00     0.004 A 
ATOM     20  C   UNL A   1      29.948  30.124  21.778  1.00  0.00     0.044 C 
ATOM     21  C   UNL A   1      29.204  29.053  22.519  1.00  0.00    -0.050 A 
ATOM     22  C   UNL A   1      27.834  29.218  22.768  1.00  0.00     0.003 A 
ATOM     23  C   UNL A   1      29.854  27.892  22.971  1.00  0.00     0.014 A 
ATOM     24  C   UNL A   1      27.115  28.228  23.428  1.00  0.00     0.001 A 
ATOM     25  C   UNL A   1      27.766  27.069  23.847  1.00  0.00     0.010 A 
ENDBRANCH  15  19
ENDBRANCH  13  14
ENDBRANCH   7  13
BRANCH  11  26
ATOM     26  C   UNL A   1      33.775  25.689  23.031  1.00  0.00     0.225 C 
ATOM     27  O   UNL A   1      33.402  25.432  21.880  1.00  0.00    -0.275 OA
BRANCH  26  28
ATOM     28  C   UNL A   1      33.837  27.164  23.452  1.00  0.00     0.072 C 
ATOM     29  C   UNL A   1      33.741  28.207  22.343  1.00  0.00     0.018 C 
ATOM     30  C   UNL A   1      32.886  27.456  24.605  1.00  0.00     0.018 C 
ENDBRANCH  26  28
ENDBRANCH  11  26
ENDBRANCH   4   7
ENDBRANCH   2   3
ENDBRANCH   1   2
BRANCH   1  31
ATOM     31  C   UNL A   1      38.449  21.426  25.420  1.00  0.00     0.023 C 
BRANCH  31  32
ATOM     32  C   UNL A   1      38.881  22.701  26.132  1.00  0.00     0.116 C 
BRANCH  32  33
ATOM     33  N   UNL A   1      40.315  22.825  26.363  1.00  0.00    -0.352 N 
ATOM     34  C   UNL A   1      41.056  23.963  26.662  1.00  0.00     0.251 C 
ATOM     35  H   UNL A   1      40.831  21.989  26.297  1.00  0.00     0.163 HD
ATOM     36  O   UNL A   1      42.268  23.904  26.774  1.00  0.00    -0.269 OA
BRANCH  34  37
ATOM     37  C   UNL A   1      40.339  25.226  26.972  1.00  0.00     0.039 A 
ATOM     38  C   UNL A   1      40.706  26.385  26.278  1.00  0.00     0.014 A 
ATOM     39  C   UNL A   1      39.483  25.308  28.066  1.00  0.00     0.014 A 
ATOM     40  C   UNL A   1      40.429  27.631  26.840  1.00  0.00     0.010 A 
ATOM     41  C   UNL A   1      39.309  26.531  28.682  1.00  0.00     0.010 A 
ATOM     42  C   UNL A   1      39.845  27.687  28.105  1.00  0.00    -0.014 A 
BRANCH  42  43
ATOM     43  C   UNL A   1      39.882  28.872  28.957  1.00  0.00     0.031 A 
ATOM     44  C   UNL A   1      38.853  29.927  28.854  1.00  0.00     0.074 A 
ATOM     45  C   UNL A   1      40.801  28.946  29.946  1.00  0.00     0.049 A 
ATOM     46  N   UNL A   1      39.007  31.130  29.296  1.00  0.00    -0.248 NA
ATOM     47  C   UNL A   1      37.559  29.707  28.220  1.00  0.00     0.031 C 
ATOM     48  C   UNL A   1      40.825  29.875  31.075  1.00  0.00     0.029 A 
ATOM     49  N   UNL A   1      42.051  28.304  30.005  1.00  0.00    -0.354 N 
ATOM     50  C   UNL A   1      37.783  31.749  29.260  1.00  0.00     0.074 A 
ATOM     51  C   UNL A   1      36.922  30.838  28.538  1.00  0.00     0.031 C 
ATOM     52  C   UNL A   1      42.089  29.996  31.507  1.00  0.00     0.029 A 
ATOM     53  C   UNL A   1      42.928  29.258  30.581  1.00  0.00     0.049 A 
ATOM     54  H   UNL A   1      42.270  27.390  29.711  1.00  0.00     0.167 HD
ATOM     55  C   UNL A   1      37.592  32.913  29.946  1.00  0.00     0.037 A 
ATOM     56  C   UNL A   1      43.960  29.782  29.858  1.00  0.00     0.037 A 
ATOM     57  C   UNL A   1      38.817  33.391  30.580  1.00  0.00     0.049 A 
ATOM     58  C   UNL A   1      43.912  31.285  29.670  1.00  0.00     0.074 A 
ATOM     59  C   UNL A   1      39.325  33.364  31.869  1.00  0.00     0.029 A 
ATOM     60  N   UNL A   1      39.873  33.766  29.768  1.00  0.00    -0.354 N 
ATOM     61  N   UNL A   1      42.941  32.054  30.078  1.00  0.00    -0.248 NA
ATOM     62  C   UNL A   1      44.913  32.019  28.893  1.00  0.00     0.031 C 
ATOM     63  C   UNL A   1      40.698  33.740  31.818  1.00  0.00     0.029 A 
ATOM     64  C   UNL A   1      41.023  33.989  30.498  1.00  0.00     0.049 A 
ATOM     65  H   UNL A   1      39.811  33.864  28.790  1.00  0.00     0.167 HD
ATOM     66  C   UNL A   1      43.136  33.321  29.596  1.00  0.00     0.074 A 
ATOM     67  C   UNL A   1      44.381  33.251  28.857  1.00  0.00     0.031 C 
ATOM     68  C   UNL A   1      42.242  34.333  29.792  1.00  0.00     0.037 A 
BRANCH  55  69
ATOM     69  C   UNL A   1      36.222  33.478  30.214  1.00  0.00     0.064 A 
ATOM     70  C   UNL A   1      35.445  34.035  29.178  1.00  0.00     0.173 A 
ATOM     71  C   UNL A   1      35.643  33.549  31.495  1.00  0.00     0.173 A 
ATOM     72  F   UNL A   1      35.821  33.946  27.895  1.00  0.00    -0.203 F 
ATOM     73  C   UNL A   1      34.253  34.720  29.422  1.00  0.00     0.198 A 
ATOM     74  C   UNL A   1      34.485  34.289  31.750  1.00  0.00     0.198 A 
ATOM     75  F   UNL A   1      36.170  32.875  32.528  1.00  0.00    -0.203 F 
ATOM     76  F   UNL A   1      33.561  35.237  28.398  1.00  0.00    -0.200 F 
ATOM     77  C   UNL A   1      33.796  34.887  30.714  1.00  0.00     0.200 A 
ATOM     78  F   UNL A   1      34.047  34.424  33.010  1.00  0.00    -0.200 F 
ATOM     79  F   UNL A   1      32.690  35.602  30.956  1.00  0.00    -0.200 F 
ENDBRANCH  55  69
BRANCH  56  80
ATOM     80  C   UNL A   1      44.513  28.821  28.866  1.00  0.00     0.064 A 
ATOM     81  C   UNL A   1      45.320  27.763  29.331  1.00  0.00     0.173 A 
ATOM     82  C   UNL A   1      43.985  28.713  27.576  1.00  0.00     0.173 A 
ATOM     83  F   UNL A   1      45.847  27.811  30.566  1.00  0.00    -0.203 F 
ATOM     84  C   UNL A   1      45.486  26.598  28.586  1.00  0.00     0.198 A 
ATOM     85  C   UNL A   1      44.175  27.554  26.822  1.00  0.00     0.198 A 
ATOM     86  F   UNL A   1      43.185  29.670  27.085  1.00  0.00    -0.203 F 
ATOM     87  F   UNL A   1      46.149  25.558  29.110  1.00  0.00    -0.200 F 
ATOM     88  C   UNL A   1      44.891  26.486  27.341  1.00  0.00     0.200 A 
ATOM     89  F   UNL A   1      43.573  27.433  25.630  1.00  0.00    -0.200 F 
ATOM     90  F   UNL A   1      44.967  25.334  26.661  1.00  0.00    -0.200 F 
ENDBRANCH  56  80
BRANCH  68  91
ATOM     91  C   UNL A   1      42.452  35.736  29.301  1.00  0.00     0.064 A 
ATOM     92  C   UNL A   1      41.892  36.205  28.101  1.00  0.00     0.173 A 
ATOM     93  C   UNL A   1      43.320  36.627  29.970  1.00  0.00     0.173 A 
ATOM     94  F   UNL A   1      41.116  35.410  27.350  1.00  0.00    -0.203 F 
ATOM     95  C   UNL A   1      42.136  37.498  27.634  1.00  0.00     0.198 A 
ATOM     96  C   UNL A   1      43.602  37.899  29.474  1.00  0.00     0.198 A 
ATOM     97  F   UNL A   1      43.898  36.298  31.134  1.00  0.00    -0.203 F 
ATOM     98  F   UNL A   1      41.534  37.924  26.515  1.00  0.00    -0.200 F 
ATOM     99  C   UNL A   1      42.997  38.340  28.315  1.00  0.00     0.200 A 
ATOM    100  F   UNL A   1      44.457  38.693  30.132  1.00  0.00    -0.200 F 
ATOM    101  F   UNL A   1      43.242  39.574  27.856  1.00  0.00    -0.200 F 
ENDBRANCH  68  91
ENDBRANCH  42  43
ENDBRANCH  34  37
ENDBRANCH  32  33
ENDBRANCH  31  32
ENDBRANCH   1  31
TORSDOF 16
ENDMDL
MODEL 3
REMARK VINA RESULT:     -14.7      1.819      4.312
REMARK SMILES Cc1cccc(-c2cc(C[C@]3(C(=O)NCCCCNC(=O)c4ccc(-c5c6nc(c(-c7c(F)c(F)c(F)c(F)c7F)c7ccc([nH]7)c(-c7c(F)c(F)c(F)c(F)c7F)c7nc(c(-c8c(F)c(F)c(F)c(F)c8F)c8ccc5[nH]8)C=C7)C=C6)cc4)CCCN(C(=O)C(C)C)C3)on2)c1
REMARK SMILES IDX 16 1 15 2 14 3 12 4 13 5 11 7 85 8 94 9 86 10 88 11 87 12
REMARK SMILES IDX 10 13 9 14 7 15 8 16 96 17 95 18 6 19 1 20 2 21 3 22 97 23
REMARK SMILES IDX 4 24 5 25 89 26 90 27 91 28 92 29 93 30 17 31 18 32 19 33
REMARK SMILES IDX 20 34 21 36 22 37 23 38 84 39 24 40 83 41 25 42 26 43 27 44
REMARK SMILES IDX 77 45 28 46 82 47 76 48 78 49 29 50 81 51 75 52 74 53 30 55
REMARK SMILES IDX 62 56 42 57 61 58 43 59 46 60 60 61 79 62 44 63 45 64 59 66
REMARK SMILES IDX 80 67 47 68 31 69 32 70 40 71 33 72 34 73 38 74 41 75 35 76
REMARK SMILES IDX 36 77 39 78 37 79 63 80 64 81 72 82 65 83 66 84 70 85 73 86
REMARK SMILES IDX 67 87 68 88 71 89 69 90 48 91 49 92 57 93 50 94 51 95 55 96
REMARK SMILES IDX 58 97 52 98 53 99 56 100 54 101
REMARK H PARENT 14 6 19 35 78 54 46 65
REMARK Flexibility Score: inf
ROOT
ATOM      1  C   UNL A   1      31.763  29.273  27.248  1.00  0.00     0.023 C 
ENDROOT
BRANCH   1   2
ATOM      2  C   UNL A   1      32.151  27.804  27.012  1.00  0.00     0.116 C 
BRANCH   2   3
ATOM      3  N   UNL A   1      31.034  26.871  26.953  1.00  0.00    -0.356 N 
ATOM      4  C   UNL A   1      30.722  25.819  26.137  1.00  0.00     0.228 C 
ATOM      5  O   UNL A   1      29.735  25.164  26.492  1.00  0.00    -0.274 OA
ATOM      6  H   UNL A   1      30.358  27.032  27.650  1.00  0.00     0.163 HD
BRANCH   4   7
ATOM      7  C   UNL A   1      31.510  25.451  24.844  1.00  0.00     0.074 C 
ATOM      8  C   UNL A   1      31.503  26.700  23.916  1.00  0.00     0.021 C 
ATOM      9  C   UNL A   1      32.911  24.930  25.260  1.00  0.00     0.136 C 
ATOM     10  C   UNL A   1      32.769  26.957  23.100  1.00  0.00     0.023 C 
ATOM     11  N   UNL A   1      33.956  25.213  24.272  1.00  0.00    -0.341 N 
ATOM     12  C   UNL A   1      34.030  26.602  23.863  1.00  0.00     0.119 C 
BRANCH   7  13
ATOM     13  C   UNL A   1      30.712  24.281  24.160  1.00  0.00     0.097 C 
BRANCH  13  14
ATOM     14  C   UNL A   1      31.242  22.898  24.347  1.00  0.00     0.138 A 
ATOM     15  C   UNL A   1      32.135  20.868  24.343  1.00  0.00     0.114 A 
ATOM     16  C   UNL A   1      31.820  21.973  23.510  1.00  0.00     0.077 A 
ATOM     17  N   UNL A   1      31.784  21.127  25.613  1.00  0.00    -0.080 NA
ATOM     18  O   UNL A   1      31.253  22.405  25.615  1.00  0.00    -0.361 OA
BRANCH  15  19
ATOM     19  C   UNL A   1      32.709  19.589  23.949  1.00  0.00     0.004 A 
ATOM     20  C   UNL A   1      35.462  17.166  25.002  1.00  0.00     0.044 C 
ATOM     21  C   UNL A   1      34.330  17.799  24.248  1.00  0.00    -0.050 A 
ATOM     22  C   UNL A   1      33.816  17.151  23.115  1.00  0.00     0.003 A 
ATOM     23  C   UNL A   1      33.780  19.027  24.652  1.00  0.00     0.014 A 
ATOM     24  C   UNL A   1      32.750  17.703  22.414  1.00  0.00     0.001 A 
ATOM     25  C   UNL A   1      32.194  18.908  22.841  1.00  0.00     0.010 A 
ENDBRANCH  15  19
ENDBRANCH  13  14
ENDBRANCH   7  13
BRANCH  11  26
ATOM     26  C   UNL A   1      34.736  24.174  23.793  1.00  0.00     0.225 C 
ATOM     27  O   UNL A   1      34.609  23.780  22.627  1.00  0.00    -0.275 OA
BRANCH  26  28
ATOM     28  C   UNL A   1      35.742  23.439  24.691  1.00  0.00     0.072 C 
ATOM     29  C   UNL A   1      35.187  22.360  25.617  1.00  0.00     0.018 C 
ATOM     30  C   UNL A   1      36.949  22.957  23.898  1.00  0.00     0.018 C 
ENDBRANCH  26  28
ENDBRANCH  11  26
ENDBRANCH   4   7
ENDBRANCH   2   3
ENDBRANCH   1   2
BRANCH   1  31
ATOM     31  C   UNL A   1      32.827  30.306  26.877  1.00  0.00     0.023 C 
BRANCH  31  32
ATOM     32  C   UNL A   1      34.218  29.982  27.406  1.00  0.00     0.116 C 
BRANCH  32  33
ATOM     33  N   UNL A   1      34.818  31.014  28.244  1.00  0.00    -0.352 N 
ATOM     34  C   UNL A   1      36.011  30.976  28.955  1.00  0.00     0.251 C 
ATOM     35  H   UNL A   1      34.307  31.852  28.317  1.00  0.00     0.163 HD
ATOM     36  O   UNL A   1      36.346  31.914  29.658  1.00  0.00    -0.269 OA
BRANCH  34  37
ATOM     37  C   UNL A   1      36.935  29.831  28.748  1.00  0.00     0.039 A 
ATOM     38  C   UNL A   1      37.152  28.952  29.815  1.00  0.00     0.014 A 
ATOM     39  C   UNL A   1      37.728  29.756  27.608  1.00  0.00     0.014 A 
ATOM     40  C   UNL A   1      38.320  28.189  29.841  1.00  0.00     0.010 A 
ATOM     41  C   UNL A   1      38.936  29.092  27.682  1.00  0.00     0.010 A 
ATOM     42  C   UNL A   1      39.265  28.365  28.830  1.00  0.00    -0.014 A 
BRANCH  42  43
ATOM     43  C   UNL A   1      40.660  27.954  28.954  1.00  0.00     0.031 A 
ATOM     44  C   UNL A   1      41.132  26.661  28.418  1.00  0.00     0.074 A 
ATOM     45  C   UNL A   1      41.564  28.828  29.452  1.00  0.00     0.049 A 
ATOM     46  N   UNL A   1      42.225  26.082  28.790  1.00  0.00    -0.248 NA
ATOM     47  C   UNL A   1      40.389  25.902  27.421  1.00  0.00     0.031 C 
ATOM     48  C   UNL A   1      43.022  28.738  29.386  1.00  0.00     0.029 A 
ATOM     49  N   UNL A   1      41.327  29.900  30.330  1.00  0.00    -0.354 N 
ATOM     50  C   UNL A   1      42.469  25.050  27.920  1.00  0.00     0.074 A 
ATOM     51  C   UNL A   1      41.273  24.948  27.112  1.00  0.00     0.031 C 
ATOM     52  C   UNL A   1      43.544  29.452  30.395  1.00  0.00     0.029 A 
ATOM     53  C   UNL A   1      42.435  29.904  31.214  1.00  0.00     0.049 A 
ATOM     54  H   UNL A   1      40.558  30.515  30.330  1.00  0.00     0.167 HD
ATOM     55  C   UNL A   1      43.701  24.465  27.891  1.00  0.00     0.037 A 
ATOM     56  C   UNL A   1      42.269  29.630  32.541  1.00  0.00     0.037 A 
ATOM     57  C   UNL A   1      44.596  25.004  28.910  1.00  0.00     0.049 A 
ATOM     58  C   UNL A   1      43.029  28.420  33.045  1.00  0.00     0.074 A 
ATOM     59  C   UNL A   1      45.640  25.915  28.910  1.00  0.00     0.029 A 
ATOM     60  N   UNL A   1      44.271  24.805  30.240  1.00  0.00    -0.354 N 
ATOM     61  N   UNL A   1      43.736  27.621  32.295  1.00  0.00    -0.248 NA
ATOM     62  C   UNL A   1      42.944  27.952  34.430  1.00  0.00     0.031 C 
ATOM     63  C   UNL A   1      45.945  26.248  30.262  1.00  0.00     0.029 A 
ATOM     64  C   UNL A   1      45.080  25.545  31.079  1.00  0.00     0.049 A 
ATOM     65  H   UNL A   1      43.552  24.208  30.550  1.00  0.00     0.167 HD
ATOM     66  C   UNL A   1      44.141  26.544  33.039  1.00  0.00     0.074 A 
ATOM     67  C   UNL A   1      43.619  26.793  34.369  1.00  0.00     0.031 C 
ATOM     68  C   UNL A   1      44.833  25.497  32.507  1.00  0.00     0.037 A 
BRANCH  55  69
ATOM     69  C   UNL A   1      44.141  23.559  26.770  1.00  0.00     0.064 A 
ATOM     70  C   UNL A   1      43.645  22.245  26.656  1.00  0.00     0.173 A 
ATOM     71  C   UNL A   1      45.100  23.920  25.805  1.00  0.00     0.173 A 
ATOM     72  F   UNL A   1      42.654  21.799  27.439  1.00  0.00    -0.203 F 
ATOM     73  C   UNL A   1      44.161  21.329  25.737  1.00  0.00     0.198 A 
ATOM     74  C   UNL A   1      45.662  22.987  24.928  1.00  0.00     0.198 A 
ATOM     75  F   UNL A   1      45.493  25.194  25.666  1.00  0.00    -0.203 F 
ATOM     76  F   UNL A   1      43.657  20.088  25.680  1.00  0.00    -0.200 F 
ATOM     77  C   UNL A   1      45.202  21.686  24.904  1.00  0.00     0.200 A 
ATOM     78  F   UNL A   1      46.661  23.359  24.114  1.00  0.00    -0.200 F 
ATOM     79  F   UNL A   1      45.744  20.789  24.070  1.00  0.00    -0.200 F 
ENDBRANCH  55  69
BRANCH  56  80
ATOM     80  C   UNL A   1      40.948  30.079  33.060  1.00  0.00     0.064 A 
ATOM     81  C   UNL A   1      40.718  31.461  33.212  1.00  0.00     0.173 A 
ATOM     82  C   UNL A   1      39.833  29.234  33.057  1.00  0.00     0.173 A 
ATOM     83  F   UNL A   1      41.752  32.319  33.214  1.00  0.00    -0.203 F 
ATOM     84  C   UNL A   1      39.427  31.982  33.234  1.00  0.00     0.198 A 
ATOM     85  C   UNL A   1      38.541  29.758  33.105  1.00  0.00     0.198 A 
ATOM     86  F   UNL A   1      39.981  27.912  32.886  1.00  0.00    -0.203 F 
ATOM     87  F   UNL A   1      39.242  33.309  33.246  1.00  0.00    -0.200 F 
ATOM     88  C   UNL A   1      38.339  31.129  33.155  1.00  0.00     0.200 A 
ATOM     89  F   UNL A   1      37.488  28.935  32.997  1.00  0.00    -0.200 F 
ATOM     90  F   UNL A   1      37.098  31.629  33.079  1.00  0.00    -0.200 F 
ENDBRANCH  56  80
BRANCH  68  91
ATOM     91  C   UNL A   1      45.315  24.324  33.311  1.00  0.00     0.064 A 
ATOM     92  C   UNL A   1      44.499  23.215  33.586  1.00  0.00     0.173 A 
ATOM     93  C   UNL A   1      46.585  24.326  33.928  1.00  0.00     0.173 A 
ATOM     94  F   UNL A   1      43.246  23.151  33.111  1.00  0.00    -0.203 F 
ATOM     95  C   UNL A   1      44.945  22.152  34.375  1.00  0.00     0.198 A 
ATOM     96  C   UNL A   1      47.009  23.289  34.757  1.00  0.00     0.198 A 
ATOM     97  F   UNL A   1      47.459  25.322  33.725  1.00  0.00    -0.203 F 
ATOM     98  F   UNL A   1      44.155  21.087  34.563  1.00  0.00    -0.200 F 
ATOM     99  C   UNL A   1      46.195  22.194  34.967  1.00  0.00     0.200 A 
ATOM    100  F   UNL A   1      48.212  23.356  35.343  1.00  0.00    -0.200 F 
ATOM    101  F   UNL A   1      46.615  21.182  35.737  1.00  0.00    -0.200 F 
ENDBRANCH  68  91
ENDBRANCH  42  43
ENDBRANCH  34  37
ENDBRANCH  32  33
ENDBRANCH  31  32
ENDBRANCH   1  31
TORSDOF 16
ENDMDL
