MODEL 1
REMARK VINA RESULT:     -11.9      0.000      0.000
REMARK SMILES CN(C)C(=O)c1cc(N(CC(=O)NCCCCNC(=O)c2ccc(-c3c4nc(c(-c5c(F)c(F)c(F)c(F)c5F)c5ccc([nH]5)c(-c5c(F)c(F)c(F)c(F)c5F)c5nc(c(-c6c(F)c(F)c(F)c(F)c6F)c6ccc3[nH]6)C=C5)C=C4)cc2)CC(F)(F)F)ccn1
REMARK SMILES IDX 15 1 14 2 13 3 11 4 12 5 10 7 9 8 8 9 6 10 7 11 91 12 90 13
REMARK SMILES IDX 89 14 4 15 1 16 2 17 3 18 5 19 84 20 85 21 86 22 87 23 88 24
REMARK SMILES IDX 16 25 17 26 18 27 19 28 20 30 21 31 22 32 83 33 23 34 82 35
REMARK SMILES IDX 24 36 25 37 26 38 76 39 27 40 81 41 75 42 77 43 28 44 80 45
REMARK SMILES IDX 74 46 73 47 29 49 61 50 41 51 60 52 42 53 45 54 59 55 78 56
REMARK SMILES IDX 43 57 44 58 58 60 79 61 46 62 30 63 31 64 39 65 32 66 33 67
REMARK SMILES IDX 37 68 40 69 34 70 35 71 38 72 36 73 62 74 63 75 71 76 64 77
REMARK SMILES IDX 65 78 69 79 72 80 66 81 67 82 70 83 68 84 47 85 48 86 56 87
REMARK SMILES IDX 49 88 50 89 54 90 57 91 51 92 52 93 55 94 53 95
REMARK H PARENT 13 6 18 29 77 48 45 59
REMARK Flexibility Score: inf
ROOT
ATOM      1  C   UNL A   1      31.767  30.491  26.602  1.00  0.00     0.023 C 
ENDROOT
BRANCH   1   2
ATOM      2  C   UNL A   1      33.244  30.102  26.543  1.00  0.00     0.116 C 
BRANCH   2   3
ATOM      3  N   UNL A   1      33.646  29.682  25.216  1.00  0.00    -0.355 N 
ATOM      4  C   UNL A   1      33.695  28.415  24.703  1.00  0.00     0.239 C 
ATOM      5  O   UNL A   1      34.148  28.251  23.569  1.00  0.00    -0.273 OA
ATOM      6  H   UNL A   1      33.920  30.402  24.604  1.00  0.00     0.163 HD
BRANCH   4   7
ATOM      7  C   UNL A   1      33.182  27.228  25.529  1.00  0.00     0.216 C 
BRANCH   7   8
ATOM      8  N   UNL A   1      32.191  26.396  24.798  1.00  0.00    -0.353 N 
BRANCH   8   9
ATOM      9  C   UNL A   1      32.509  25.170  24.221  1.00  0.00     0.041 A 
ATOM     10  C   UNL A   1      34.079  23.390  23.702  1.00  0.00     0.130 A 
ATOM     11  C   UNL A   1      33.822  24.684  24.161  1.00  0.00     0.060 A 
ATOM     12  N   UNL A   1      33.120  22.555  23.239  1.00  0.00    -0.251 NA
ATOM     13  C   UNL A   1      31.876  23.046  23.215  1.00  0.00     0.114 A 
ATOM     14  C   UNL A   1      31.539  24.314  23.677  1.00  0.00     0.046 A 
BRANCH  10  15
ATOM     15  C   UNL A   1      35.478  22.868  23.634  1.00  0.00     0.272 C 
ATOM     16  C   UNL A   1      37.403  21.746  24.607  1.00  0.00     0.146 C 
ATOM     17  N   UNL A   1      36.017  22.162  24.717  1.00  0.00    -0.343 N 
ATOM     18  C   UNL A   1      35.283  21.692  25.881  1.00  0.00     0.146 C 
ATOM     19  O   UNL A   1      36.130  23.093  22.614  1.00  0.00    -0.267 OA
ENDBRANCH  10  15
ENDBRANCH   8   9
BRANCH   8  20
ATOM     20  C   UNL A   1      30.788  26.928  24.819  1.00  0.00     0.232 C 
BRANCH  20  21
ATOM     21  C   UNL A   1      30.348  27.823  23.643  1.00  0.00     0.405 C 
ATOM     22  F   UNL A   1      30.543  29.138  23.894  1.00  0.00    -0.169 F 
ATOM     23  F   UNL A   1      31.075  27.529  22.537  1.00  0.00    -0.169 F 
ATOM     24  F   UNL A   1      29.049  27.664  23.319  1.00  0.00    -0.169 F 
ENDBRANCH  20  21
ENDBRANCH   8  20
ENDBRANCH   7   8
ENDBRANCH   4   7
ENDBRANCH   2   3
ENDBRANCH   1   2
BRANCH   1  25
ATOM     25  C   UNL A   1      31.517  31.991  26.768  1.00  0.00     0.023 C 
BRANCH  25  26
ATOM     26  C   UNL A   1      32.715  32.777  27.286  1.00  0.00     0.116 C 
BRANCH  26  27
ATOM     27  N   UNL A   1      32.393  34.158  27.613  1.00  0.00    -0.352 N 
ATOM     28  C   UNL A   1      32.976  34.966  28.558  1.00  0.00     0.251 C 
ATOM     29  H   UNL A   1      31.665  34.564  27.089  1.00  0.00     0.163 HD
ATOM     30  O   UNL A   1      32.512  36.074  28.807  1.00  0.00    -0.269 OA
BRANCH  28  31
ATOM     31  C   UNL A   1      34.151  34.470  29.301  1.00  0.00     0.039 A 
ATOM     32  C   UNL A   1      33.958  33.819  30.521  1.00  0.00     0.014 A 
ATOM     33  C   UNL A   1      35.435  34.621  28.771  1.00  0.00     0.014 A 
ATOM     34  C   UNL A   1      35.052  33.261  31.185  1.00  0.00     0.010 A 
ATOM     35  C   UNL A   1      36.512  34.004  29.397  1.00  0.00     0.010 A 
ATOM     36  C   UNL A   1      36.332  33.325  30.612  1.00  0.00    -0.014 A 
BRANCH  36  37
ATOM     37  C   UNL A   1      37.514  32.720  31.273  1.00  0.00     0.031 A 
ATOM     38  C   UNL A   1      38.242  31.595  30.595  1.00  0.00     0.074 A 
ATOM     39  C   UNL A   1      37.872  33.117  32.509  1.00  0.00     0.049 A 
ATOM     40  N   UNL A   1      39.199  30.828  31.053  1.00  0.00    -0.248 NA
ATOM     41  C   UNL A   1      37.811  31.264  29.227  1.00  0.00     0.031 C 
ATOM     42  C   UNL A   1      37.220  34.172  33.284  1.00  0.00     0.029 A 
ATOM     43  N   UNL A   1      38.864  32.659  33.341  1.00  0.00    -0.354 N 
ATOM     44  C   UNL A   1      39.461  29.910  30.044  1.00  0.00     0.074 A 
ATOM     45  C   UNL A   1      38.531  30.183  28.969  1.00  0.00     0.031 C 
ATOM     46  C   UNL A   1      37.835  34.290  34.471  1.00  0.00     0.029 A 
ATOM     47  C   UNL A   1      38.898  33.293  34.559  1.00  0.00     0.049 A 
ATOM     48  H   UNL A   1      39.493  31.945  33.087  1.00  0.00     0.167 HD
ATOM     49  C   UNL A   1      40.404  28.941  30.011  1.00  0.00     0.037 A 
ATOM     50  C   UNL A   1      39.689  33.081  35.628  1.00  0.00     0.037 A 
ATOM     51  C   UNL A   1      41.352  28.703  31.066  1.00  0.00     0.049 A 
ATOM     52  C   UNL A   1      40.740  32.004  35.561  1.00  0.00     0.074 A 
ATOM     53  C   UNL A   1      42.384  27.784  31.109  1.00  0.00     0.029 A 
ATOM     54  N   UNL A   1      41.384  29.399  32.266  1.00  0.00    -0.354 N 
ATOM     55  N   UNL A   1      41.012  31.174  34.583  1.00  0.00    -0.248 NA
ATOM     56  C   UNL A   1      41.596  31.837  36.743  1.00  0.00     0.031 C 
ATOM     57  C   UNL A   1      43.019  27.898  32.349  1.00  0.00     0.029 A 
ATOM     58  C   UNL A   1      42.413  28.920  33.060  1.00  0.00     0.049 A 
ATOM     59  H   UNL A   1      40.767  30.123  32.517  1.00  0.00     0.167 HD
ATOM     60  C   UNL A   1      42.092  30.417  35.014  1.00  0.00     0.074 A 
ATOM     61  C   UNL A   1      42.428  30.886  36.342  1.00  0.00     0.031 C 
ATOM     62  C   UNL A   1      42.749  29.424  34.367  1.00  0.00     0.037 A 
BRANCH  49  63
ATOM     63  C   UNL A   1      40.462  28.070  28.791  1.00  0.00     0.064 A 
ATOM     64  C   UNL A   1      41.223  28.426  27.666  1.00  0.00     0.173 A 
ATOM     65  C   UNL A   1      39.771  26.849  28.754  1.00  0.00     0.173 A 
ATOM     66  F   UNL A   1      41.891  29.588  27.645  1.00  0.00    -0.203 F 
ATOM     67  C   UNL A   1      41.265  27.607  26.541  1.00  0.00     0.198 A 
ATOM     68  C   UNL A   1      39.841  26.018  27.639  1.00  0.00     0.198 A 
ATOM     69  F   UNL A   1      39.031  26.459  29.803  1.00  0.00    -0.203 F 
ATOM     70  F   UNL A   1      41.956  27.994  25.459  1.00  0.00    -0.200 F 
ATOM     71  C   UNL A   1      40.580  26.402  26.531  1.00  0.00     0.200 A 
ATOM     72  F   UNL A   1      39.188  24.848  27.635  1.00  0.00    -0.200 F 
ATOM     73  F   UNL A   1      40.627  25.613  25.448  1.00  0.00    -0.200 F 
ENDBRANCH  49  63
BRANCH  50  74
ATOM     74  C   UNL A   1      39.538  33.921  36.843  1.00  0.00     0.064 A 
ATOM     75  C   UNL A   1      38.767  33.481  37.928  1.00  0.00     0.173 A 
ATOM     76  C   UNL A   1      40.151  35.178  36.947  1.00  0.00     0.173 A 
ATOM     77  F   UNL A   1      38.144  32.294  37.868  1.00  0.00    -0.203 F 
ATOM     78  C   UNL A   1      38.596  34.274  39.061  1.00  0.00     0.198 A 
ATOM     79  C   UNL A   1      40.003  35.960  38.092  1.00  0.00     0.198 A 
ATOM     80  F   UNL A   1      40.904  35.644  35.940  1.00  0.00    -0.203 F 
ATOM     81  F   UNL A   1      37.816  33.847  40.064  1.00  0.00    -0.200 F 
ATOM     82  C   UNL A   1      39.219  35.511  39.144  1.00  0.00     0.200 A 
ATOM     83  F   UNL A   1      40.616  37.147  38.174  1.00  0.00    -0.200 F 
ATOM     84  F   UNL A   1      39.057  36.272  40.235  1.00  0.00    -0.200 F 
ENDBRANCH  50  74
BRANCH  62  85
ATOM     85  C   UNL A   1      43.937  28.817  35.053  1.00  0.00     0.064 A 
ATOM     86  C   UNL A   1      45.226  29.345  34.904  1.00  0.00     0.173 A 
ATOM     87  C   UNL A   1      43.765  27.732  35.927  1.00  0.00     0.173 A 
ATOM     88  F   UNL A   1      45.442  30.374  34.071  1.00  0.00    -0.203 F 
ATOM     89  C   UNL A   1      46.305  28.799  35.594  1.00  0.00     0.198 A 
ATOM     90  C   UNL A   1      44.841  27.205  36.635  1.00  0.00     0.198 A 
ATOM     91  F   UNL A   1      42.548  27.196  36.108  1.00  0.00    -0.203 F 
ATOM     92  F   UNL A   1      47.536  29.296  35.411  1.00  0.00    -0.200 F 
ATOM     93  C   UNL A   1      46.110  27.736  36.465  1.00  0.00     0.200 A 
ATOM     94  F   UNL A   1      44.649  26.188  37.486  1.00  0.00    -0.200 F 
ATOM     95  F   UNL A   1      47.148  27.221  37.138  1.00  0.00    -0.200 F 
ENDBRANCH  62  85
ENDBRANCH  36  37
ENDBRANCH  28  31
ENDBRANCH  26  27
ENDBRANCH  25  26
ENDBRANCH   1  25
TORSDOF 16
ENDMDL
MODEL 2
REMARK VINA RESULT:     -11.8      1.663      3.552
REMARK SMILES CN(C)C(=O)c1cc(N(CC(=O)NCCCCNC(=O)c2ccc(-c3c4nc(c(-c5c(F)c(F)c(F)c(F)c5F)c5ccc([nH]5)c(-c5c(F)c(F)c(F)c(F)c5F)c5nc(c(-c6c(F)c(F)c(F)c(F)c6F)c6ccc3[nH]6)C=C5)C=C4)cc2)CC(F)(F)F)ccn1
REMARK SMILES IDX 15 1 14 2 13 3 11 4 12 5 10 7 9 8 8 9 6 10 7 11 91 12 90 13
REMARK SMILES IDX 89 14 4 15 1 16 2 17 3 18 5 19 84 20 85 21 86 22 87 23 88 24
REMARK SMILES IDX 16 25 17 26 18 27 19 28 20 30 21 31 22 32 83 33 23 34 82 35
REMARK SMILES IDX 24 36 25 37 26 38 76 39 27 40 81 41 75 42 77 43 28 44 80 45
REMARK SMILES IDX 74 46 73 47 29 49 61 50 41 51 60 52 42 53 45 54 59 55 78 56
REMARK SMILES IDX 43 57 44 58 58 60 79 61 46 62 30 63 31 64 39 65 32 66 33 67
REMARK SMILES IDX 37 68 40 69 34 70 35 71 38 72 36 73 62 74 63 75 71 76 64 77
REMARK SMILES IDX 65 78 69 79 72 80 66 81 67 82 70 83 68 84 47 85 48 86 56 87
REMARK SMILES IDX 49 88 50 89 54 90 57 91 51 92 52 93 55 94 53 95
REMARK H PARENT 13 6 18 29 77 48 45 59
REMARK Flexibility Score: inf
ROOT
ATOM      1  C   UNL A   1      31.781  30.510  26.853  1.00  0.00     0.023 C 
ENDROOT
BRANCH   1   2
ATOM      2  C   UNL A   1      32.396  29.840  25.625  1.00  0.00     0.116 C 
BRANCH   2   3
ATOM      3  N   UNL A   1      33.059  28.596  25.956  1.00  0.00    -0.355 N 
ATOM      4  C   UNL A   1      33.544  27.638  25.109  1.00  0.00     0.239 C 
ATOM      5  O   UNL A   1      34.006  26.600  25.588  1.00  0.00    -0.273 OA
ATOM      6  H   UNL A   1      33.174  28.414  26.917  1.00  0.00     0.163 HD
BRANCH   4   7
ATOM      7  C   UNL A   1      33.524  27.868  23.592  1.00  0.00     0.216 C 
BRANCH   7   8
ATOM      8  N   UNL A   1      32.418  27.148  22.909  1.00  0.00    -0.353 N 
BRANCH   8   9
ATOM      9  C   UNL A   1      31.082  27.520  23.029  1.00  0.00     0.041 A 
ATOM     10  C   UNL A   1      29.207  28.970  22.495  1.00  0.00     0.130 A 
ATOM     11  C   UNL A   1      30.578  28.704  22.473  1.00  0.00     0.060 A 
ATOM     12  N   UNL A   1      28.297  28.163  23.087  1.00  0.00    -0.251 NA
ATOM     13  C   UNL A   1      28.784  27.074  23.692  1.00  0.00     0.114 A 
ATOM     14  C   UNL A   1      30.131  26.730  23.693  1.00  0.00     0.046 A 
BRANCH  10  15
ATOM     15  C   UNL A   1      28.665  30.232  21.906  1.00  0.00     0.272 C 
ATOM     16  C   UNL A   1      28.018  32.572  22.059  1.00  0.00     0.146 C 
ATOM     17  N   UNL A   1      28.621  31.403  22.674  1.00  0.00    -0.343 N 
ATOM     18  C   UNL A   1      29.239  31.594  23.977  1.00  0.00     0.146 C 
ATOM     19  O   UNL A   1      28.251  30.198  20.746  1.00  0.00    -0.267 OA
ENDBRANCH  10  15
ENDBRANCH   8   9
BRANCH   8  20
ATOM     20  C   UNL A   1      32.859  26.047  21.991  1.00  0.00     0.232 C 
BRANCH  20  21
ATOM     21  C   UNL A   1      33.265  24.704  22.630  1.00  0.00     0.405 C 
ATOM     22  F   UNL A   1      32.496  24.388  23.698  1.00  0.00    -0.169 F 
ATOM     23  F   UNL A   1      33.115  23.698  21.734  1.00  0.00    -0.169 F 
ATOM     24  F   UNL A   1      34.549  24.684  23.040  1.00  0.00    -0.169 F 
ENDBRANCH  20  21
ENDBRANCH   8  20
ENDBRANCH   7   8
ENDBRANCH   4   7
ENDBRANCH   2   3
ENDBRANCH   1   2
BRANCH   1  25
ATOM     25  C   UNL A   1      31.618  32.026  26.728  1.00  0.00     0.023 C 
BRANCH  25  26
ATOM     26  C   UNL A   1      32.798  32.833  27.254  1.00  0.00     0.116 C 
BRANCH  26  27
ATOM     27  N   UNL A   1      32.439  34.194  27.621  1.00  0.00    -0.352 N 
ATOM     28  C   UNL A   1      32.988  34.983  28.603  1.00  0.00     0.251 C 
ATOM     29  H   UNL A   1      31.710  34.602  27.100  1.00  0.00     0.163 HD
ATOM     30  O   UNL A   1      32.495  36.071  28.881  1.00  0.00    -0.269 OA
BRANCH  28  31
ATOM     31  C   UNL A   1      34.163  34.489  29.347  1.00  0.00     0.039 A 
ATOM     32  C   UNL A   1      33.969  33.851  30.575  1.00  0.00     0.014 A 
ATOM     33  C   UNL A   1      35.446  34.626  28.813  1.00  0.00     0.014 A 
ATOM     34  C   UNL A   1      35.062  33.295  31.242  1.00  0.00     0.010 A 
ATOM     35  C   UNL A   1      36.521  34.011  29.442  1.00  0.00     0.010 A 
ATOM     36  C   UNL A   1      36.341  33.346  30.666  1.00  0.00    -0.014 A 
BRANCH  36  37
ATOM     37  C   UNL A   1      37.522  32.741  31.330  1.00  0.00     0.031 A 
ATOM     38  C   UNL A   1      38.246  31.610  30.658  1.00  0.00     0.074 A 
ATOM     39  C   UNL A   1      37.881  33.145  32.563  1.00  0.00     0.049 A 
ATOM     40  N   UNL A   1      39.200  30.843  31.121  1.00  0.00    -0.248 NA
ATOM     41  C   UNL A   1      37.813  31.271  29.293  1.00  0.00     0.031 C 
ATOM     42  C   UNL A   1      37.233  34.207  33.331  1.00  0.00     0.029 A 
ATOM     43  N   UNL A   1      38.873  32.690  33.397  1.00  0.00    -0.354 N 
ATOM     44  C   UNL A   1      39.459  29.918  30.118  1.00  0.00     0.074 A 
ATOM     45  C   UNL A   1      38.529  30.187  29.042  1.00  0.00     0.031 C 
ATOM     46  C   UNL A   1      37.849  34.331  34.518  1.00  0.00     0.029 A 
ATOM     47  C   UNL A   1      38.909  33.331  34.611  1.00  0.00     0.049 A 
ATOM     48  H   UNL A   1      39.499  31.972  33.147  1.00  0.00     0.167 HD
ATOM     49  C   UNL A   1      40.400  28.946  30.090  1.00  0.00     0.037 A 
ATOM     50  C   UNL A   1      39.700  33.124  35.681  1.00  0.00     0.037 A 
ATOM     51  C   UNL A   1      41.346  28.712  31.146  1.00  0.00     0.049 A 
ATOM     52  C   UNL A   1      40.747  32.043  35.620  1.00  0.00     0.074 A 
ATOM     53  C   UNL A   1      42.376  27.789  31.194  1.00  0.00     0.029 A 
ATOM     54  N   UNL A   1      41.381  29.415  32.342  1.00  0.00    -0.354 N 
ATOM     55  N   UNL A   1      41.016  31.206  34.648  1.00  0.00    -0.248 NA
ATOM     56  C   UNL A   1      41.604  31.882  36.803  1.00  0.00     0.031 C 
ATOM     57  C   UNL A   1      43.013  27.910  32.433  1.00  0.00     0.029 A 
ATOM     58  C   UNL A   1      42.410  28.938  33.139  1.00  0.00     0.049 A 
ATOM     59  H   UNL A   1      40.767  30.143  32.588  1.00  0.00     0.167 HD
ATOM     60  C   UNL A   1      42.095  30.449  35.083  1.00  0.00     0.074 A 
ATOM     61  C   UNL A   1      42.433  30.925  36.407  1.00  0.00     0.031 C 
ATOM     62  C   UNL A   1      42.748  29.449  34.441  1.00  0.00     0.037 A 
BRANCH  49  63
ATOM     63  C   UNL A   1      40.454  28.066  28.875  1.00  0.00     0.064 A 
ATOM     64  C   UNL A   1      41.230  28.404  27.756  1.00  0.00     0.173 A 
ATOM     65  C   UNL A   1      39.744  26.856  28.840  1.00  0.00     0.173 A 
ATOM     66  F   UNL A   1      41.916  29.556  27.733  1.00  0.00    -0.203 F 
ATOM     67  C   UNL A   1      41.268  27.578  26.635  1.00  0.00     0.198 A 
ATOM     68  C   UNL A   1      39.810  26.018  27.731  1.00  0.00     0.198 A 
ATOM     69  F   UNL A   1      38.989  26.484  29.885  1.00  0.00    -0.203 F 
ATOM     70  F   UNL A   1      41.974  27.948  25.557  1.00  0.00    -0.200 F 
ATOM     71  C   UNL A   1      40.565  26.383  26.626  1.00  0.00     0.200 A 
ATOM     72  F   UNL A   1      39.139  24.858  27.727  1.00  0.00    -0.200 F 
ATOM     73  F   UNL A   1      40.608  25.587  25.548  1.00  0.00    -0.200 F 
ENDBRANCH  49  63
BRANCH  50  74
ATOM     74  C   UNL A   1      39.552  33.972  36.891  1.00  0.00     0.064 A 
ATOM     75  C   UNL A   1      40.190  35.218  36.976  1.00  0.00     0.173 A 
ATOM     76  C   UNL A   1      38.779  33.560  37.986  1.00  0.00     0.173 A 
ATOM     77  F   UNL A   1      40.956  35.648  35.963  1.00  0.00    -0.203 F 
ATOM     78  C   UNL A   1      40.079  36.008  38.118  1.00  0.00     0.198 A 
ATOM     79  C   UNL A   1      38.646  34.363  39.117  1.00  0.00     0.198 A 
ATOM     80  F   UNL A   1      38.143  32.379  37.953  1.00  0.00    -0.203 F 
ATOM     81  F   UNL A   1      40.737  37.174  38.190  1.00  0.00    -0.200 F 
ATOM     82  C   UNL A   1      39.303  35.582  39.186  1.00  0.00     0.200 A 
ATOM     83  F   UNL A   1      37.885  33.955  40.141  1.00  0.00    -0.200 F 
ATOM     84  F   UNL A   1      39.194  36.344  40.283  1.00  0.00    -0.200 F 
ENDBRANCH  50  74
BRANCH  62  85
ATOM     85  C   UNL A   1      43.935  28.843  35.131  1.00  0.00     0.064 A 
ATOM     86  C   UNL A   1      45.230  29.347  34.952  1.00  0.00     0.173 A 
ATOM     87  C   UNL A   1      43.756  27.786  36.037  1.00  0.00     0.173 A 
ATOM     88  F   UNL A   1      45.452  30.347  34.087  1.00  0.00    -0.203 F 
ATOM     89  C   UNL A   1      46.308  28.802  35.645  1.00  0.00     0.198 A 
ATOM     90  C   UNL A   1      44.832  27.263  36.748  1.00  0.00     0.198 A 
ATOM     91  F   UNL A   1      42.533  27.275  36.247  1.00  0.00    -0.203 F 
ATOM     92  F   UNL A   1      47.545  29.275  35.433  1.00  0.00    -0.200 F 
ATOM     93  C   UNL A   1      46.107  27.768  36.548  1.00  0.00     0.200 A 
ATOM     94  F   UNL A   1      44.634  26.274  37.630  1.00  0.00    -0.200 F 
ATOM     95  F   UNL A   1      47.145  27.256  37.223  1.00  0.00    -0.200 F 
ENDBRANCH  62  85
ENDBRANCH  36  37
ENDBRANCH  28  31
ENDBRANCH  26  27
ENDBRANCH  25  26
ENDBRANCH   1  25
TORSDOF 16
ENDMDL
MODEL 3
REMARK VINA RESULT:     -11.7      0.514      2.087
REMARK SMILES CN(C)C(=O)c1cc(N(CC(=O)NCCCCNC(=O)c2ccc(-c3c4nc(c(-c5c(F)c(F)c(F)c(F)c5F)c5ccc([nH]5)c(-c5c(F)c(F)c(F)c(F)c5F)c5nc(c(-c6c(F)c(F)c(F)c(F)c6F)c6ccc3[nH]6)C=C5)C=C4)cc2)CC(F)(F)F)ccn1
REMARK SMILES IDX 15 1 14 2 13 3 11 4 12 5 10 7 9 8 8 9 6 10 7 11 91 12 90 13
REMARK SMILES IDX 89 14 4 15 1 16 2 17 3 18 5 19 84 20 85 21 86 22 87 23 88 24
REMARK SMILES IDX 16 25 17 26 18 27 19 28 20 30 21 31 22 32 83 33 23 34 82 35
REMARK SMILES IDX 24 36 25 37 26 38 76 39 27 40 81 41 75 42 77 43 28 44 80 45
REMARK SMILES IDX 74 46 73 47 29 49 61 50 41 51 60 52 42 53 45 54 59 55 78 56
REMARK SMILES IDX 43 57 44 58 58 60 79 61 46 62 30 63 31 64 39 65 32 66 33 67
REMARK SMILES IDX 37 68 40 69 34 70 35 71 38 72 36 73 62 74 63 75 71 76 64 77
REMARK SMILES IDX 65 78 69 79 72 80 66 81 67 82 70 83 68 84 47 85 48 86 56 87
REMARK SMILES IDX 49 88 50 89 54 90 57 91 51 92 52 93 55 94 53 95
REMARK H PARENT 13 6 18 29 77 48 45 59
REMARK Flexibility Score: inf
ROOT
ATOM      1  C   UNL A   1      31.744  30.418  26.749  1.00  0.00     0.023 C 
ENDROOT
BRANCH   1   2
ATOM      2  C   UNL A   1      33.236  30.103  26.654  1.00  0.00     0.116 C 
BRANCH   2   3
ATOM      3  N   UNL A   1      33.623  29.685  25.323  1.00  0.00    -0.355 N 
ATOM      4  C   UNL A   1      33.655  28.419  24.803  1.00  0.00     0.239 C 
ATOM      5  O   UNL A   1      34.096  28.257  23.664  1.00  0.00    -0.273 OA
ATOM      6  H   UNL A   1      33.900  30.405  24.711  1.00  0.00     0.163 HD
BRANCH   4   7
ATOM      7  C   UNL A   1      33.136  27.234  25.627  1.00  0.00     0.216 C 
BRANCH   7   8
ATOM      8  N   UNL A   1      32.145  26.405  24.894  1.00  0.00    -0.353 N 
BRANCH   8   9
ATOM      9  C   UNL A   1      32.460  25.175  24.323  1.00  0.00     0.041 A 
ATOM     10  C   UNL A   1      34.025  23.386  23.817  1.00  0.00     0.130 A 
ATOM     11  C   UNL A   1      33.772  24.683  24.271  1.00  0.00     0.060 A 
ATOM     12  N   UNL A   1      33.066  22.554  23.352  1.00  0.00    -0.251 NA
ATOM     13  C   UNL A   1      31.824  23.051  23.321  1.00  0.00     0.114 A 
ATOM     14  C   UNL A   1      31.490  24.321  23.776  1.00  0.00     0.046 A 
BRANCH  10  15
ATOM     15  C   UNL A   1      35.423  22.858  23.758  1.00  0.00     0.272 C 
ATOM     16  C   UNL A   1      37.336  21.724  24.742  1.00  0.00     0.146 C 
ATOM     17  N   UNL A   1      35.950  22.146  24.843  1.00  0.00    -0.343 N 
ATOM     18  C   UNL A   1      35.205  21.676  26.000  1.00  0.00     0.146 C 
ATOM     19  O   UNL A   1      36.084  23.084  22.744  1.00  0.00    -0.267 OA
ENDBRANCH  10  15
ENDBRANCH   8   9
BRANCH   8  20
ATOM     20  C   UNL A   1      30.745  26.943  24.904  1.00  0.00     0.232 C 
BRANCH  20  21
ATOM     21  C   UNL A   1      30.332  27.878  23.750  1.00  0.00     0.405 C 
ATOM     22  F   UNL A   1      31.108  27.718  22.653  1.00  0.00    -0.169 F 
ATOM     23  F   UNL A   1      29.060  27.610  23.367  1.00  0.00    -0.169 F 
ATOM     24  F   UNL A   1      30.380  29.182  24.089  1.00  0.00    -0.169 F 
ENDBRANCH  20  21
ENDBRANCH   8  20
ENDBRANCH   7   8
ENDBRANCH   4   7
ENDBRANCH   2   3
ENDBRANCH   1   2
BRANCH   1  25
ATOM     25  C   UNL A   1      31.420  31.909  26.847  1.00  0.00     0.023 C 
BRANCH  25  26
ATOM     26  C   UNL A   1      32.641  32.818  26.902  1.00  0.00     0.116 C 
BRANCH  26  27
ATOM     27  N   UNL A   1      32.373  34.095  27.545  1.00  0.00    -0.352 N 
ATOM     28  C   UNL A   1      33.016  34.658  28.621  1.00  0.00     0.251 C 
ATOM     29  H   UNL A   1      31.637  34.624  27.159  1.00  0.00     0.163 HD
ATOM     30  O   UNL A   1      32.595  35.690  29.132  1.00  0.00    -0.269 OA
BRANCH  28  31
ATOM     31  C   UNL A   1      34.205  33.984  29.179  1.00  0.00     0.039 A 
ATOM     32  C   UNL A   1      35.474  34.454  28.835  1.00  0.00     0.014 A 
ATOM     33  C   UNL A   1      34.059  32.915  30.066  1.00  0.00     0.014 A 
ATOM     34  C   UNL A   1      36.603  33.887  29.430  1.00  0.00     0.010 A 
ATOM     35  C   UNL A   1      35.177  32.402  30.711  1.00  0.00     0.010 A 
ATOM     36  C   UNL A   1      36.460  32.877  30.395  1.00  0.00    -0.014 A 
BRANCH  36  37
ATOM     37  C   UNL A   1      37.633  32.271  31.070  1.00  0.00     0.031 A 
ATOM     38  C   UNL A   1      38.409  31.191  30.372  1.00  0.00     0.074 A 
ATOM     39  C   UNL A   1      37.939  32.622  32.334  1.00  0.00     0.049 A 
ATOM     40  N   UNL A   1      39.367  30.427  30.830  1.00  0.00    -0.248 NA
ATOM     41  C   UNL A   1      38.032  30.910  28.977  1.00  0.00     0.031 C 
ATOM     42  C   UNL A   1      37.237  33.629  33.129  1.00  0.00     0.029 A 
ATOM     43  N   UNL A   1      38.913  32.151  33.180  1.00  0.00    -0.354 N 
ATOM     44  C   UNL A   1      39.684  29.559  29.794  1.00  0.00     0.074 A 
ATOM     45  C   UNL A   1      38.785  29.857  28.700  1.00  0.00     0.031 C 
ATOM     46  C   UNL A   1      37.808  33.710  34.341  1.00  0.00     0.029 A 
ATOM     47  C   UNL A   1      38.890  32.733  34.424  1.00  0.00     0.049 A 
ATOM     48  H   UNL A   1      39.566  31.462  32.918  1.00  0.00     0.167 HD
ATOM     49  C   UNL A   1      40.650  28.613  29.753  1.00  0.00     0.037 A 
ATOM     50  C   UNL A   1      39.650  32.493  35.509  1.00  0.00     0.037 A 
ATOM     51  C   UNL A   1      41.566  28.351  30.829  1.00  0.00     0.049 A 
ATOM     52  C   UNL A   1      40.726  31.443  35.434  1.00  0.00     0.074 A 
ATOM     53  C   UNL A   1      42.618  27.453  30.870  1.00  0.00     0.029 A 
ATOM     54  N   UNL A   1      41.542  28.995  32.058  1.00  0.00    -0.354 N 
ATOM     55  N   UNL A   1      41.051  30.661  34.433  1.00  0.00    -0.248 NA
ATOM     56  C   UNL A   1      41.546  31.245  36.638  1.00  0.00     0.031 C 
ATOM     57  C   UNL A   1      43.208  27.528  32.135  1.00  0.00     0.029 A 
ATOM     58  C   UNL A   1      42.554  28.506  32.867  1.00  0.00     0.049 A 
ATOM     59  H   UNL A   1      40.900  29.695  32.317  1.00  0.00     0.167 HD
ATOM     60  C   UNL A   1      42.133  29.911  34.869  1.00  0.00     0.074 A 
ATOM     61  C   UNL A   1      42.413  30.330  36.226  1.00  0.00     0.031 C 
ATOM     62  C   UNL A   1      42.835  28.960  34.204  1.00  0.00     0.037 A 
BRANCH  49  63
ATOM     63  C   UNL A   1      40.770  27.795  28.500  1.00  0.00     0.064 A 
ATOM     64  C   UNL A   1      40.105  26.568  28.355  1.00  0.00     0.173 A 
ATOM     65  C   UNL A   1      41.536  28.257  27.418  1.00  0.00     0.173 A 
ATOM     66  F   UNL A   1      39.371  26.075  29.364  1.00  0.00    -0.203 F 
ATOM     67  C   UNL A   1      40.227  25.820  27.188  1.00  0.00     0.198 A 
ATOM     68  C   UNL A   1      41.630  27.521  26.241  1.00  0.00     0.198 A 
ATOM     69  F   UNL A   1      42.189  29.426  27.502  1.00  0.00    -0.203 F 
ATOM     70  F   UNL A   1      39.625  24.626  27.094  1.00  0.00    -0.200 F 
ATOM     71  C   UNL A   1      40.983  26.300  26.129  1.00  0.00     0.200 A 
ATOM     72  F   UNL A   1      42.351  27.991  25.214  1.00  0.00    -0.200 F 
ATOM     73  F   UNL A   1      41.094  25.580  25.004  1.00  0.00    -0.200 F 
ENDBRANCH  49  63
BRANCH  50  74
ATOM     74  C   UNL A   1      39.438  33.278  36.753  1.00  0.00     0.064 A 
ATOM     75  C   UNL A   1      40.112  34.489  36.960  1.00  0.00     0.173 A 
ATOM     76  C   UNL A   1      38.566  32.836  37.759  1.00  0.00     0.173 A 
ATOM     77  F   UNL A   1      40.972  34.943  36.036  1.00  0.00    -0.203 F 
ATOM     78  C   UNL A   1      39.941  35.217  38.136  1.00  0.00     0.198 A 
ATOM     79  C   UNL A   1      38.374  33.579  38.922  1.00  0.00     0.198 A 
ATOM     80  F   UNL A   1      37.892  31.687  37.608  1.00  0.00    -0.203 F 
ATOM     81  F   UNL A   1      40.634  36.349  38.327  1.00  0.00    -0.200 F 
ATOM     82  C   UNL A   1      39.068  34.765  39.113  1.00  0.00     0.200 A 
ATOM     83  F   UNL A   1      37.520  33.146  39.859  1.00  0.00    -0.200 F 
ATOM     84  F   UNL A   1      38.901  35.467  40.242  1.00  0.00    -0.200 F 
ENDBRANCH  50  74
BRANCH  62  85
ATOM     85  C   UNL A   1      44.012  28.351  34.906  1.00  0.00     0.064 A 
ATOM     86  C   UNL A   1      43.899  27.168  35.648  1.00  0.00     0.173 A 
ATOM     87  C   UNL A   1      45.285  28.928  34.773  1.00  0.00     0.173 A 
ATOM     88  F   UNL A   1      42.702  26.587  35.813  1.00  0.00    -0.203 F 
ATOM     89  C   UNL A   1      45.017  26.592  36.245  1.00  0.00     0.198 A 
ATOM     90  C   UNL A   1      46.404  28.335  35.349  1.00  0.00     0.198 A 
ATOM     91  F   UNL A   1      45.444  30.058  34.067  1.00  0.00    -0.203 F 
ATOM     92  F   UNL A   1      44.882  25.479  36.980  1.00  0.00    -0.200 F 
ATOM     93  C   UNL A   1      46.268  27.170  36.088  1.00  0.00     0.200 A 
ATOM     94  F   UNL A   1      47.614  28.887  35.185  1.00  0.00    -0.200 F 
ATOM     95  F   UNL A   1      47.345  26.606  36.653  1.00  0.00    -0.200 F 
ENDBRANCH  62  85
ENDBRANCH  36  37
ENDBRANCH  28  31
ENDBRANCH  26  27
ENDBRANCH  25  26
ENDBRANCH   1  25
TORSDOF 16
ENDMDL
