MODEL 1
REMARK VINA RESULT:     -11.4      0.000      0.000
REMARK SMILES C[C@](NC(=O)NCCC[NH3+])(C(=O)NCCCCNC(=O)c1ccc(-c2c3nc(c(-c4c(F)c(F)c(F)c(F)c4F)c4ccc([nH]4)c(-c4c(F)c(F)c(F)c(F)c4F)c4nc(c(-c5c(F)c(F)c(F)c(F)c5F)c5ccc2[nH]5)C=C4)C=C3)cc1)C(F)(F)F
REMARK SMILES IDX 14 1 13 2 11 3 12 4 2 6 1 7 84 8 85 9 86 10 87 11 3 12 4 13
REMARK SMILES IDX 5 15 6 16 7 18 8 19 9 20 10 21 15 25 16 26 17 27 18 28 19 29
REMARK SMILES IDX 20 31 21 32 22 33 83 34 23 35 82 36 24 37 25 38 26 39 76 40
REMARK SMILES IDX 27 41 81 42 75 43 77 44 28 45 80 46 74 47 73 48 29 50 61 51
REMARK SMILES IDX 41 52 60 53 42 54 45 55 59 56 78 57 43 58 44 59 58 61 79 62
REMARK SMILES IDX 46 63 30 64 31 65 39 66 32 67 33 68 37 69 40 70 34 71 35 72
REMARK SMILES IDX 38 73 36 74 62 75 63 76 71 77 64 78 65 79 69 80 72 81 66 82
REMARK SMILES IDX 67 83 70 84 68 85 47 86 48 87 56 88 49 89 50 90 54 91 57 92
REMARK SMILES IDX 51 93 52 94 55 95 53 96
REMARK H PARENT 13 5 3 14 6 17 10 22 10 23 10 24 18 30 77 49 45 60
REMARK Flexibility Score: inf
ROOT
ATOM      1  C   UNL A   1      31.455  30.003  25.241  1.00  0.00     0.116 C 
ENDROOT
BRANCH   1   2
ATOM      2  N   UNL A   1      32.697  29.610  24.605  1.00  0.00    -0.354 N 
ATOM      3  C   UNL A   1      33.218  28.409  24.247  1.00  0.00     0.255 C 
ATOM      4  O   UNL A   1      34.174  28.496  23.469  1.00  0.00    -0.272 OA
ATOM      5  H   UNL A   1      33.283  30.371  24.388  1.00  0.00     0.163 HD
BRANCH   3   6
ATOM      6  C   UNL A   1      32.506  27.071  24.530  1.00  0.00     0.213 C 
ATOM      7  C   UNL A   1      33.167  26.119  23.500  1.00  0.00     0.056 C 
BRANCH   6   8
ATOM      8  C   UNL A   1      32.829  26.841  26.037  1.00  0.00     0.420 C 
ATOM      9  F   UNL A   1      33.778  27.703  26.487  1.00  0.00    -0.168 F 
ATOM     10  F   UNL A   1      31.767  27.067  26.846  1.00  0.00    -0.168 F 
ATOM     11  F   UNL A   1      33.239  25.581  26.297  1.00  0.00    -0.168 F 
ENDBRANCH   6   8
BRANCH   6  12
ATOM     12  N   UNL A   1      31.034  27.108  24.303  1.00  0.00    -0.316 N 
ATOM     13  C   UNL A   1      30.064  26.183  24.366  1.00  0.00     0.315 C 
ATOM     14  H   UNL A   1      30.702  28.001  24.055  1.00  0.00     0.166 HD
ATOM     15  O   UNL A   1      28.904  26.582  24.227  1.00  0.00    -0.249 OA
ATOM     16  N   UNL A   1      30.251  24.870  24.562  1.00  0.00    -0.338 N 
ATOM     17  H   UNL A   1      29.398  24.390  24.667  1.00  0.00     0.165 HD
BRANCH  16  18
ATOM     18  C   UNL A   1      31.395  23.974  24.659  1.00  0.00     0.123 C 
BRANCH  18  19
ATOM     19  C   UNL A   1      31.190  22.765  25.568  1.00  0.00     0.082 C 
BRANCH  19  20
ATOM     20  C   UNL A   1      30.455  23.054  26.869  1.00  0.00     0.260 C 
BRANCH  20  21
ATOM     21  N   UNL A   1      29.190  22.332  26.953  1.00  0.00    -0.358 N 
ATOM     22  H   UNL A   1      29.216  21.691  27.746  1.00  0.00     0.344 HD
ATOM     23  H   UNL A   1      29.042  21.802  26.094  1.00  0.00     0.344 HD
ATOM     24  H   UNL A   1      28.426  22.996  27.078  1.00  0.00     0.344 HD
ENDBRANCH  20  21
ENDBRANCH  19  20
ENDBRANCH  18  19
ENDBRANCH  16  18
ENDBRANCH   6  12
ENDBRANCH   3   6
ENDBRANCH   1   2
BRANCH   1  25
ATOM     25  C   UNL A   1      31.736  30.553  26.637  1.00  0.00     0.023 C 
BRANCH  25  26
ATOM     26  C   UNL A   1      31.573  32.072  26.756  1.00  0.00     0.023 C 
BRANCH  26  27
ATOM     27  C   UNL A   1      32.771  32.791  27.363  1.00  0.00     0.116 C 
BRANCH  27  28
ATOM     28  N   UNL A   1      32.479  34.186  27.653  1.00  0.00    -0.352 N 
ATOM     29  C   UNL A   1      33.002  34.988  28.638  1.00  0.00     0.251 C 
ATOM     30  H   UNL A   1      31.816  34.613  27.064  1.00  0.00     0.163 HD
ATOM     31  O   UNL A   1      32.506  36.076  28.888  1.00  0.00    -0.269 OA
BRANCH  29  32
ATOM     32  C   UNL A   1      34.164  34.501  29.407  1.00  0.00     0.039 A 
ATOM     33  C   UNL A   1      33.951  33.910  30.653  1.00  0.00     0.014 A 
ATOM     34  C   UNL A   1      35.452  34.595  28.874  1.00  0.00     0.014 A 
ATOM     35  C   UNL A   1      35.030  33.352  31.338  1.00  0.00     0.010 A 
ATOM     36  C   UNL A   1      36.509  33.961  29.516  1.00  0.00     0.010 A 
ATOM     37  C   UNL A   1      36.310  33.338  30.758  1.00  0.00    -0.014 A 
BRANCH  37  38
ATOM     38  C   UNL A   1      37.453  32.678  31.436  1.00  0.00     0.031 A 
ATOM     39  C   UNL A   1      38.155  31.524  30.777  1.00  0.00     0.074 A 
ATOM     40  C   UNL A   1      37.821  33.080  32.668  1.00  0.00     0.049 A 
ATOM     41  N   UNL A   1      39.131  30.778  31.230  1.00  0.00    -0.248 NA
ATOM     42  C   UNL A   1      37.676  31.136  29.440  1.00  0.00     0.031 C 
ATOM     43  C   UNL A   1      37.185  34.154  33.433  1.00  0.00     0.029 A 
ATOM     44  N   UNL A   1      38.814  32.625  33.499  1.00  0.00    -0.354 N 
ATOM     45  C   UNL A   1      39.374  29.835  30.241  1.00  0.00     0.074 A 
ATOM     46  C   UNL A   1      38.402  30.056  29.194  1.00  0.00     0.031 C 
ATOM     47  C   UNL A   1      37.817  34.291  34.608  1.00  0.00     0.029 A 
ATOM     48  C   UNL A   1      38.874  33.289  34.700  1.00  0.00     0.049 A 
ATOM     49  H   UNL A   1      39.425  31.892  33.257  1.00  0.00     0.167 HD
ATOM     50  C   UNL A   1      40.340  28.887  30.198  1.00  0.00     0.037 A 
ATOM     51  C   UNL A   1      39.684  33.103  35.759  1.00  0.00     0.037 A 
ATOM     52  C   UNL A   1      41.314  28.680  31.237  1.00  0.00     0.049 A 
ATOM     53  C   UNL A   1      40.738  32.029  35.695  1.00  0.00     0.074 A 
ATOM     54  C   UNL A   1      42.365  27.780  31.268  1.00  0.00     0.029 A 
ATOM     55  N   UNL A   1      41.353  29.382  32.434  1.00  0.00    -0.354 N 
ATOM     56  N   UNL A   1      41.006  31.189  34.725  1.00  0.00    -0.248 NA
ATOM     57  C   UNL A   1      41.608  31.883  36.870  1.00  0.00     0.031 C 
ATOM     58  C   UNL A   1      43.004  27.898  32.507  1.00  0.00     0.029 A 
ATOM     59  C   UNL A   1      42.394  28.916  33.222  1.00  0.00     0.049 A 
ATOM     60  H   UNL A   1      40.733  30.103  32.686  1.00  0.00     0.167 HD
ATOM     61  C   UNL A   1      42.090  30.437  35.158  1.00  0.00     0.074 A 
ATOM     62  C   UNL A   1      42.442  30.933  36.472  1.00  0.00     0.031 C 
ATOM     63  C   UNL A   1      42.736  29.427  34.525  1.00  0.00     0.037 A 
BRANCH  50  64
ATOM     64  C   UNL A   1      40.392  28.003  28.985  1.00  0.00     0.064 A 
ATOM     65  C   UNL A   1      39.686  26.791  28.925  1.00  0.00     0.173 A 
ATOM     66  C   UNL A   1      41.132  28.385  27.855  1.00  0.00     0.173 A 
ATOM     67  F   UNL A   1      38.973  26.371  29.982  1.00  0.00    -0.203 F 
ATOM     68  C   UNL A   1      39.745  25.981  27.794  1.00  0.00     0.198 A 
ATOM     69  C   UNL A   1      41.159  27.589  26.712  1.00  0.00     0.198 A 
ATOM     70  F   UNL A   1      41.822  29.536  27.854  1.00  0.00    -0.203 F 
ATOM     71  F   UNL A   1      39.108  24.802  27.783  1.00  0.00    -0.200 F 
ATOM     72  C   UNL A   1      40.474  26.384  26.686  1.00  0.00     0.200 A 
ATOM     73  F   UNL A   1      41.852  27.988  25.637  1.00  0.00    -0.200 F 
ATOM     74  F   UNL A   1      40.522  25.608  25.595  1.00  0.00    -0.200 F 
ENDBRANCH  50  64
BRANCH  51  75
ATOM     75  C   UNL A   1      39.542  33.961  36.966  1.00  0.00     0.064 A 
ATOM     76  C   UNL A   1      38.792  33.535  38.072  1.00  0.00     0.173 A 
ATOM     77  C   UNL A   1      40.143  35.228  37.036  1.00  0.00     0.173 A 
ATOM     78  F   UNL A   1      38.183  32.341  38.047  1.00  0.00    -0.203 F 
ATOM     79  C   UNL A   1      38.627  34.353  39.189  1.00  0.00     0.198 A 
ATOM     80  C   UNL A   1      40.004  36.029  38.166  1.00  0.00     0.198 A 
ATOM     81  F   UNL A   1      40.876  35.681  36.008  1.00  0.00    -0.203 F 
ATOM     82  F   UNL A   1      37.862  33.941  40.208  1.00  0.00    -0.200 F 
ATOM     83  C   UNL A   1      39.238  35.596  39.237  1.00  0.00     0.200 A 
ATOM     84  F   UNL A   1      40.611  37.223  38.216  1.00  0.00    -0.200 F 
ATOM     85  F   UNL A   1      39.082  36.379  40.313  1.00  0.00    -0.200 F 
ENDBRANCH  51  75
BRANCH  63  86
ATOM     86  C   UNL A   1      43.917  28.816  35.227  1.00  0.00     0.064 A 
ATOM     87  C   UNL A   1      45.225  29.272  35.006  1.00  0.00     0.173 A 
ATOM     88  C   UNL A   1      43.729  27.788  36.163  1.00  0.00     0.173 A 
ATOM     89  F   UNL A   1      45.460  30.243  34.111  1.00  0.00    -0.203 F 
ATOM     90  C   UNL A   1      46.304  28.701  35.676  1.00  0.00     0.198 A 
ATOM     91  C   UNL A   1      44.805  27.244  36.857  1.00  0.00     0.198 A 
ATOM     92  F   UNL A   1      42.497  27.322  36.418  1.00  0.00    -0.203 F 
ATOM     93  F   UNL A   1      47.550  29.115  35.410  1.00  0.00    -0.200 F 
ATOM     94  C   UNL A   1      46.093  27.694  36.607  1.00  0.00     0.200 A 
ATOM     95  F   UNL A   1      44.597  26.284  37.769  1.00  0.00    -0.200 F 
ATOM     96  F   UNL A   1      47.132  27.153  37.258  1.00  0.00    -0.200 F 
ENDBRANCH  63  86
ENDBRANCH  37  38
ENDBRANCH  29  32
ENDBRANCH  27  28
ENDBRANCH  26  27
ENDBRANCH  25  26
ENDBRANCH   1  25
TORSDOF 17
ENDMDL
MODEL 2
REMARK VINA RESULT:     -11.4      0.151      2.016
REMARK SMILES C[C@](NC(=O)NCCC[NH3+])(C(=O)NCCCCNC(=O)c1ccc(-c2c3nc(c(-c4c(F)c(F)c(F)c(F)c4F)c4ccc([nH]4)c(-c4c(F)c(F)c(F)c(F)c4F)c4nc(c(-c5c(F)c(F)c(F)c(F)c5F)c5ccc2[nH]5)C=C4)C=C3)cc1)C(F)(F)F
REMARK SMILES IDX 14 1 13 2 11 3 12 4 2 6 1 7 84 8 85 9 86 10 87 11 3 12 4 13
REMARK SMILES IDX 5 15 6 16 7 18 8 19 9 20 10 21 15 25 16 26 17 27 18 28 19 29
REMARK SMILES IDX 20 31 21 32 22 33 83 34 23 35 82 36 24 37 25 38 26 39 76 40
REMARK SMILES IDX 27 41 81 42 75 43 77 44 28 45 80 46 74 47 73 48 29 50 61 51
REMARK SMILES IDX 41 52 60 53 42 54 45 55 59 56 78 57 43 58 44 59 58 61 79 62
REMARK SMILES IDX 46 63 30 64 31 65 39 66 32 67 33 68 37 69 40 70 34 71 35 72
REMARK SMILES IDX 38 73 36 74 62 75 63 76 71 77 64 78 65 79 69 80 72 81 66 82
REMARK SMILES IDX 67 83 70 84 68 85 47 86 48 87 56 88 49 89 50 90 54 91 57 92
REMARK SMILES IDX 51 93 52 94 55 95 53 96
REMARK H PARENT 13 5 3 14 6 17 10 22 10 23 10 24 18 30 77 49 45 60
REMARK Flexibility Score: inf
ROOT
ATOM      1  C   UNL A   1      31.393  29.951  25.197  1.00  0.00     0.116 C 
ENDROOT
BRANCH   1   2
ATOM      2  N   UNL A   1      32.649  29.567  24.582  1.00  0.00    -0.354 N 
ATOM      3  C   UNL A   1      33.201  28.368  24.269  1.00  0.00     0.255 C 
ATOM      4  O   UNL A   1      34.160  28.451  23.494  1.00  0.00    -0.272 OA
ATOM      5  H   UNL A   1      33.218  30.334  24.342  1.00  0.00     0.163 HD
BRANCH   3   6
ATOM      6  C   UNL A   1      32.519  27.023  24.594  1.00  0.00     0.213 C 
ATOM      7  C   UNL A   1      33.203  26.055  23.594  1.00  0.00     0.056 C 
BRANCH   6   8
ATOM      8  C   UNL A   1      32.846  26.848  26.107  1.00  0.00     0.420 C 
ATOM      9  F   UNL A   1      33.366  25.622  26.373  1.00  0.00    -0.168 F 
ATOM     10  F   UNL A   1      33.792  27.711  26.547  1.00  0.00    -0.168 F 
ATOM     11  F   UNL A   1      31.768  27.035  26.899  1.00  0.00    -0.168 F 
ENDBRANCH   6   8
BRANCH   6  12
ATOM     12  N   UNL A   1      31.047  27.019  24.365  1.00  0.00    -0.316 N 
ATOM     13  C   UNL A   1      30.100  26.071  24.443  1.00  0.00     0.315 C 
ATOM     14  H   UNL A   1      30.693  27.899  24.102  1.00  0.00     0.166 HD
ATOM     15  O   UNL A   1      28.931  26.438  24.297  1.00  0.00    -0.249 OA
ATOM     16  N   UNL A   1      30.320  24.767  24.661  1.00  0.00    -0.338 N 
ATOM     17  H   UNL A   1      29.480  24.267  24.773  1.00  0.00     0.165 HD
BRANCH  16  18
ATOM     18  C   UNL A   1      31.487  23.901  24.773  1.00  0.00     0.123 C 
BRANCH  18  19
ATOM     19  C   UNL A   1      31.305  22.693  25.687  1.00  0.00     0.082 C 
BRANCH  19  20
ATOM     20  C   UNL A   1      30.485  22.952  26.943  1.00  0.00     0.260 C 
BRANCH  20  21
ATOM     21  N   UNL A   1      29.148  22.376  26.850  1.00  0.00    -0.358 N 
ATOM     22  H   UNL A   1      28.879  22.298  25.869  1.00  0.00     0.344 HD
ATOM     23  H   UNL A   1      28.484  22.978  27.338  1.00  0.00     0.344 HD
ATOM     24  H   UNL A   1      29.145  21.450  27.277  1.00  0.00     0.344 HD
ENDBRANCH  20  21
ENDBRANCH  19  20
ENDBRANCH  18  19
ENDBRANCH  16  18
ENDBRANCH   6  12
ENDBRANCH   3   6
ENDBRANCH   1   2
BRANCH   1  25
ATOM     25  C   UNL A   1      31.648  30.530  26.585  1.00  0.00     0.023 C 
BRANCH  25  26
ATOM     26  C   UNL A   1      31.536  32.057  26.658  1.00  0.00     0.023 C 
BRANCH  26  27
ATOM     27  C   UNL A   1      32.704  32.744  27.355  1.00  0.00     0.116 C 
BRANCH  27  28
ATOM     28  N   UNL A   1      32.424  34.145  27.631  1.00  0.00    -0.352 N 
ATOM     29  C   UNL A   1      32.965  34.956  28.598  1.00  0.00     0.251 C 
ATOM     30  H   UNL A   1      31.756  34.569  27.045  1.00  0.00     0.163 HD
ATOM     31  O   UNL A   1      32.479  36.050  28.840  1.00  0.00    -0.269 OA
BRANCH  29  32
ATOM     32  C   UNL A   1      34.134  34.472  29.359  1.00  0.00     0.039 A 
ATOM     33  C   UNL A   1      33.931  33.871  30.601  1.00  0.00     0.014 A 
ATOM     34  C   UNL A   1      35.418  34.578  28.820  1.00  0.00     0.014 A 
ATOM     35  C   UNL A   1      35.017  33.315  31.277  1.00  0.00     0.010 A 
ATOM     36  C   UNL A   1      36.483  33.947  29.453  1.00  0.00     0.010 A 
ATOM     37  C   UNL A   1      36.294  33.314  30.691  1.00  0.00    -0.014 A 
BRANCH  37  38
ATOM     38  C   UNL A   1      37.445  32.658  31.358  1.00  0.00     0.031 A 
ATOM     39  C   UNL A   1      38.145  31.506  30.693  1.00  0.00     0.074 A 
ATOM     40  C   UNL A   1      37.822  33.059  32.588  1.00  0.00     0.049 A 
ATOM     41  N   UNL A   1      39.127  30.763  31.137  1.00  0.00    -0.248 NA
ATOM     42  C   UNL A   1      37.656  31.117  29.359  1.00  0.00     0.031 C 
ATOM     43  C   UNL A   1      37.189  34.131  33.359  1.00  0.00     0.029 A 
ATOM     44  N   UNL A   1      38.823  32.607  33.411  1.00  0.00    -0.354 N 
ATOM     45  C   UNL A   1      39.365  29.821  30.146  1.00  0.00     0.074 A 
ATOM     46  C   UNL A   1      38.383  30.040  29.107  1.00  0.00     0.031 C 
ATOM     47  C   UNL A   1      37.830  34.269  34.529  1.00  0.00     0.029 A 
ATOM     48  C   UNL A   1      38.891  33.270  34.611  1.00  0.00     0.049 A 
ATOM     49  H   UNL A   1      39.434  31.876  33.163  1.00  0.00     0.167 HD
ATOM     50  C   UNL A   1      40.333  28.876  30.094  1.00  0.00     0.037 A 
ATOM     51  C   UNL A   1      39.711  33.086  35.663  1.00  0.00     0.037 A 
ATOM     52  C   UNL A   1      41.317  28.672  31.125  1.00  0.00     0.049 A 
ATOM     53  C   UNL A   1      40.767  32.016  35.590  1.00  0.00     0.074 A 
ATOM     54  C   UNL A   1      42.370  27.775  31.146  1.00  0.00     0.029 A 
ATOM     55  N   UNL A   1      41.363  29.372  32.322  1.00  0.00    -0.354 N 
ATOM     56  N   UNL A   1      41.029  31.177  34.617  1.00  0.00    -0.248 NA
ATOM     57  C   UNL A   1      41.648  31.872  36.757  1.00  0.00     0.031 C 
ATOM     58  C   UNL A   1      43.019  27.894  32.380  1.00  0.00     0.029 A 
ATOM     59  C   UNL A   1      42.412  28.910  33.100  1.00  0.00     0.049 A 
ATOM     60  H   UNL A   1      40.743  30.092  32.580  1.00  0.00     0.167 HD
ATOM     61  C   UNL A   1      42.120  30.428  35.041  1.00  0.00     0.074 A 
ATOM     62  C   UNL A   1      42.481  30.925  36.351  1.00  0.00     0.031 C 
ATOM     63  C   UNL A   1      42.764  29.421  34.401  1.00  0.00     0.037 A 
BRANCH  50  64
ATOM     64  C   UNL A   1      40.378  27.993  28.879  1.00  0.00     0.064 A 
ATOM     65  C   UNL A   1      41.136  28.335  27.748  1.00  0.00     0.173 A 
ATOM     66  C   UNL A   1      39.680  26.776  28.856  1.00  0.00     0.173 A 
ATOM     67  F   UNL A   1      41.813  29.493  27.712  1.00  0.00    -0.203 F 
ATOM     68  C   UNL A   1      41.167  27.507  26.628  1.00  0.00     0.198 A 
ATOM     69  C   UNL A   1      39.743  25.934  27.747  1.00  0.00     0.198 A 
ATOM     70  F   UNL A   1      38.944  26.397  29.911  1.00  0.00    -0.203 F 
ATOM     71  F   UNL A   1      41.853  27.883  25.540  1.00  0.00    -0.200 F 
ATOM     72  C   UNL A   1      40.478  26.305  26.632  1.00  0.00     0.200 A 
ATOM     73  F   UNL A   1      39.088  24.765  27.759  1.00  0.00    -0.200 F 
ATOM     74  F   UNL A   1      40.516  25.506  25.557  1.00  0.00    -0.200 F 
ENDBRANCH  50  64
BRANCH  51  75
ATOM     75  C   UNL A   1      39.576  33.943  36.872  1.00  0.00     0.064 A 
ATOM     76  C   UNL A   1      40.224  35.184  36.953  1.00  0.00     0.173 A 
ATOM     77  C   UNL A   1      38.808  33.536  37.973  1.00  0.00     0.173 A 
ATOM     78  F   UNL A   1      40.985  35.610  35.935  1.00  0.00    -0.203 F 
ATOM     79  C   UNL A   1      40.130  35.973  38.099  1.00  0.00     0.198 A 
ATOM     80  C   UNL A   1      38.688  34.340  39.104  1.00  0.00     0.198 A 
ATOM     81  F   UNL A   1      38.163  32.361  37.945  1.00  0.00    -0.203 F 
ATOM     82  F   UNL A   1      40.801  37.130  38.169  1.00  0.00    -0.200 F 
ATOM     83  C   UNL A   1      39.356  35.553  39.171  1.00  0.00     0.200 A 
ATOM     84  F   UNL A   1      37.925  33.939  40.131  1.00  0.00    -0.200 F 
ATOM     85  F   UNL A   1      39.263  36.314  40.270  1.00  0.00    -0.200 F 
ENDBRANCH  51  75
BRANCH  63  86
ATOM     86  C   UNL A   1      43.952  28.813  35.092  1.00  0.00     0.064 A 
ATOM     87  C   UNL A   1      43.833  27.675  35.904  1.00  0.00     0.173 A 
ATOM     88  C   UNL A   1      45.233  29.355  34.905  1.00  0.00     0.173 A 
ATOM     89  F   UNL A   1      42.630  27.127  36.127  1.00  0.00    -0.203 F 
ATOM     90  C   UNL A   1      44.950  27.121  36.525  1.00  0.00     0.198 A 
ATOM     91  C   UNL A   1      46.351  28.777  35.498  1.00  0.00     0.198 A 
ATOM     92  F   UNL A   1      45.403  30.438  34.131  1.00  0.00    -0.203 F 
ATOM     93  F   UNL A   1      44.806  26.066  37.340  1.00  0.00    -0.200 F 
ATOM     94  C   UNL A   1      46.208  27.666  36.315  1.00  0.00     0.200 A 
ATOM     95  F   UNL A   1      47.568  29.295  35.280  1.00  0.00    -0.200 F 
ATOM     96  F   UNL A   1      47.282  27.124  36.906  1.00  0.00    -0.200 F 
ENDBRANCH  63  86
ENDBRANCH  37  38
ENDBRANCH  29  32
ENDBRANCH  27  28
ENDBRANCH  26  27
ENDBRANCH  25  26
ENDBRANCH   1  25
TORSDOF 17
ENDMDL
MODEL 3
REMARK VINA RESULT:     -11.1      0.544      7.429
REMARK SMILES C[C@](NC(=O)NCCC[NH3+])(C(=O)NCCCCNC(=O)c1ccc(-c2c3nc(c(-c4c(F)c(F)c(F)c(F)c4F)c4ccc([nH]4)c(-c4c(F)c(F)c(F)c(F)c4F)c4nc(c(-c5c(F)c(F)c(F)c(F)c5F)c5ccc2[nH]5)C=C4)C=C3)cc1)C(F)(F)F
REMARK SMILES IDX 14 1 13 2 11 3 12 4 2 6 1 7 84 8 85 9 86 10 87 11 3 12 4 13
REMARK SMILES IDX 5 15 6 16 7 18 8 19 9 20 10 21 15 25 16 26 17 27 18 28 19 29
REMARK SMILES IDX 20 31 21 32 22 33 83 34 23 35 82 36 24 37 25 38 26 39 76 40
REMARK SMILES IDX 27 41 81 42 75 43 77 44 28 45 80 46 74 47 73 48 29 50 61 51
REMARK SMILES IDX 41 52 60 53 42 54 45 55 59 56 78 57 43 58 44 59 58 61 79 62
REMARK SMILES IDX 46 63 30 64 31 65 39 66 32 67 33 68 37 69 40 70 34 71 35 72
REMARK SMILES IDX 38 73 36 74 62 75 63 76 71 77 64 78 65 79 69 80 72 81 66 82
REMARK SMILES IDX 67 83 70 84 68 85 47 86 48 87 56 88 49 89 50 90 54 91 57 92
REMARK SMILES IDX 51 93 52 94 55 95 53 96
REMARK H PARENT 13 5 3 14 6 17 10 22 10 23 10 24 18 30 77 49 45 60
REMARK Flexibility Score: inf
ROOT
ATOM      1  C   UNL A   1      31.386  29.952  25.380  1.00  0.00     0.116 C 
ENDROOT
BRANCH   1   2
ATOM      2  N   UNL A   1      32.611  29.598  24.690  1.00  0.00    -0.354 N 
ATOM      3  C   UNL A   1      33.150  28.415  24.303  1.00  0.00     0.255 C 
ATOM      4  O   UNL A   1      34.070  28.532  23.486  1.00  0.00    -0.272 OA
ATOM      5  H   UNL A   1      33.165  30.377  24.452  1.00  0.00     0.163 HD
BRANCH   3   6
ATOM      6  C   UNL A   1      32.490  27.055  24.609  1.00  0.00     0.213 C 
ATOM      7  C   UNL A   1      33.124  26.130  23.537  1.00  0.00     0.056 C 
BRANCH   6   8
ATOM      8  C   UNL A   1      32.894  26.822  26.096  1.00  0.00     0.420 C 
ATOM      9  F   UNL A   1      31.812  26.808  26.917  1.00  0.00    -0.168 F 
ATOM     10  F   UNL A   1      33.480  25.619  26.301  1.00  0.00    -0.168 F 
ATOM     11  F   UNL A   1      33.764  27.749  26.552  1.00  0.00    -0.168 F 
ENDBRANCH   6   8
BRANCH   6  12
ATOM     12  N   UNL A   1      31.008  27.053  24.456  1.00  0.00    -0.316 N 
ATOM     13  C   UNL A   1      30.075  26.089  24.481  1.00  0.00     0.315 C 
ATOM     14  H   UNL A   1      30.633  27.951  24.306  1.00  0.00     0.166 HD
ATOM     15  O   UNL A   1      28.897  26.452  24.434  1.00  0.00    -0.249 OA
ATOM     16  N   UNL A   1      30.318  24.772  24.548  1.00  0.00    -0.338 N 
ATOM     17  H   UNL A   1      29.489  24.251  24.650  1.00  0.00     0.165 HD
BRANCH  16  18
ATOM     18  C   UNL A   1      31.498  23.917  24.509  1.00  0.00     0.123 C 
BRANCH  18  19
ATOM     19  C   UNL A   1      31.686  23.027  25.734  1.00  0.00     0.082 C 
BRANCH  19  20
ATOM     20  C   UNL A   1      30.670  23.237  26.848  1.00  0.00     0.260 C 
BRANCH  20  21
ATOM     21  N   UNL A   1      29.518  22.354  26.710  1.00  0.00    -0.358 N 
ATOM     22  H   UNL A   1      29.363  22.148  25.723  1.00  0.00     0.344 HD
ATOM     23  H   UNL A   1      28.691  22.810  27.095  1.00  0.00     0.344 HD
ATOM     24  H   UNL A   1      29.692  21.485  27.214  1.00  0.00     0.344 HD
ENDBRANCH  20  21
ENDBRANCH  19  20
ENDBRANCH  18  19
ENDBRANCH  16  18
ENDBRANCH   6  12
ENDBRANCH   3   6
ENDBRANCH   1   2
BRANCH   1  25
ATOM     25  C   UNL A   1      31.713  30.572  26.736  1.00  0.00     0.023 C 
BRANCH  25  26
ATOM     26  C   UNL A   1      31.552  32.096  26.783  1.00  0.00     0.023 C 
BRANCH  26  27
ATOM     27  C   UNL A   1      32.805  32.850  27.212  1.00  0.00     0.116 C 
BRANCH  27  28
ATOM     28  N   UNL A   1      32.500  34.201  27.657  1.00  0.00    -0.352 N 
ATOM     29  C   UNL A   1      33.015  34.890  28.729  1.00  0.00     0.251 C 
ATOM     30  H   UNL A   1      31.835  34.686  27.119  1.00  0.00     0.163 HD
ATOM     31  O   UNL A   1      32.508  35.938  29.099  1.00  0.00    -0.269 OA
BRANCH  29  32
ATOM     32  C   UNL A   1      34.179  34.329  29.441  1.00  0.00     0.039 A 
ATOM     33  C   UNL A   1      33.964  33.503  30.545  1.00  0.00     0.014 A 
ATOM     34  C   UNL A   1      35.475  34.589  28.989  1.00  0.00     0.014 A 
ATOM     35  C   UNL A   1      35.052  32.883  31.158  1.00  0.00     0.010 A 
ATOM     36  C   UNL A   1      36.547  33.903  29.545  1.00  0.00     0.010 A 
ATOM     37  C   UNL A   1      36.347  33.047  30.639  1.00  0.00    -0.014 A 
BRANCH  37  38
ATOM     38  C   UNL A   1      37.507  32.333  31.229  1.00  0.00     0.031 A 
ATOM     39  C   UNL A   1      38.019  32.722  32.587  1.00  0.00     0.074 A 
ATOM     40  C   UNL A   1      38.134  31.376  30.518  1.00  0.00     0.049 A 
ATOM     41  N   UNL A   1      39.053  32.263  33.247  1.00  0.00    -0.248 NA
ATOM     42  C   UNL A   1      37.289  33.792  33.287  1.00  0.00     0.031 C 
ATOM     43  C   UNL A   1      37.763  30.944  29.168  1.00  0.00     0.029 A 
ATOM     44  N   UNL A   1      39.222  30.598  30.826  1.00  0.00    -0.354 N 
ATOM     45  C   UNL A   1      39.099  32.991  34.428  1.00  0.00     0.074 A 
ATOM     46  C   UNL A   1      38.034  33.967  34.368  1.00  0.00     0.031 C 
ATOM     47  C   UNL A   1      38.593  29.965  28.776  1.00  0.00     0.029 A 
ATOM     48  C   UNL A   1      39.579  29.728  29.825  1.00  0.00     0.049 A 
ATOM     49  H   UNL A   1      39.701  30.658  31.684  1.00  0.00     0.167 HD
ATOM     50  C   UNL A   1      39.937  32.840  35.481  1.00  0.00     0.037 A 
ATOM     51  C   UNL A   1      40.595  28.846  29.758  1.00  0.00     0.037 A 
ATOM     52  C   UNL A   1      40.987  31.857  35.541  1.00  0.00     0.049 A 
ATOM     53  C   UNL A   1      41.525  28.711  30.933  1.00  0.00     0.074 A 
ATOM     54  C   UNL A   1      41.859  31.589  36.581  1.00  0.00     0.029 A 
ATOM     55  N   UNL A   1      41.311  30.983  34.512  1.00  0.00    -0.354 N 
ATOM     56  N   UNL A   1      41.516  29.355  32.076  1.00  0.00    -0.248 NA
ATOM     57  C   UNL A   1      42.603  27.719  30.815  1.00  0.00     0.031 C 
ATOM     58  C   UNL A   1      42.746  30.593  36.162  1.00  0.00     0.029 A 
ATOM     59  C   UNL A   1      42.386  30.193  34.885  1.00  0.00     0.049 A 
ATOM     60  H   UNL A   1      40.845  30.932  33.647  1.00  0.00     0.167 HD
ATOM     61  C   UNL A   1      42.563  28.827  32.821  1.00  0.00     0.074 A 
ATOM     62  C   UNL A   1      43.175  27.798  32.008  1.00  0.00     0.031 C 
ATOM     63  C   UNL A   1      42.979  29.165  34.066  1.00  0.00     0.037 A 
BRANCH  50  64
ATOM     64  C   UNL A   1      39.750  33.757  36.655  1.00  0.00     0.064 A 
ATOM     65  C   UNL A   1      38.925  33.409  37.737  1.00  0.00     0.173 A 
ATOM     66  C   UNL A   1      40.425  34.985  36.716  1.00  0.00     0.173 A 
ATOM     67  F   UNL A   1      38.246  32.252  37.725  1.00  0.00    -0.203 F 
ATOM     68  C   UNL A   1      38.759  34.271  38.819  1.00  0.00     0.198 A 
ATOM     69  C   UNL A   1      40.284  35.828  37.817  1.00  0.00     0.198 A 
ATOM     70  F   UNL A   1      41.230  35.367  35.713  1.00  0.00    -0.203 F 
ATOM     71  F   UNL A   1      37.924  33.940  39.813  1.00  0.00    -0.200 F 
ATOM     72  C   UNL A   1      39.445  35.474  38.862  1.00  0.00     0.200 A 
ATOM     73  F   UNL A   1      40.960  36.984  37.863  1.00  0.00    -0.200 F 
ATOM     74  F   UNL A   1      39.291  36.298  39.908  1.00  0.00    -0.200 F 
ENDBRANCH  50  64
BRANCH  51  75
ATOM     75  C   UNL A   1      40.777  28.012  28.540  1.00  0.00     0.064 A 
ATOM     76  C   UNL A   1      41.546  28.469  27.459  1.00  0.00     0.173 A 
ATOM     77  C   UNL A   1      40.180  26.747  28.425  1.00  0.00     0.173 A 
ATOM     78  F   UNL A   1      42.123  29.678  27.512  1.00  0.00    -0.203 F 
ATOM     79  C   UNL A   1      41.689  27.705  26.302  1.00  0.00     0.198 A 
ATOM     80  C   UNL A   1      40.350  25.971  27.281  1.00  0.00     0.198 A 
ATOM     81  F   UNL A   1      39.439  26.261  29.432  1.00  0.00    -0.203 F 
ATOM     82  F   UNL A   1      42.386  28.189  25.266  1.00  0.00    -0.200 F 
ATOM     83  C   UNL A   1      41.096  26.454  26.217  1.00  0.00     0.200 A 
ATOM     84  F   UNL A   1      39.790  24.756  27.209  1.00  0.00    -0.200 F 
ATOM     85  F   UNL A   1      41.237  25.719  25.106  1.00  0.00    -0.200 F 
ENDBRANCH  51  75
BRANCH  63  86
ATOM     86  C   UNL A   1      44.128  28.388  34.644  1.00  0.00     0.064 A 
ATOM     87  C   UNL A   1      45.455  28.825  34.518  1.00  0.00     0.173 A 
ATOM     88  C   UNL A   1      43.891  27.210  35.370  1.00  0.00     0.173 A 
ATOM     89  F   UNL A   1      45.737  29.936  33.822  1.00  0.00    -0.203 F 
ATOM     90  C   UNL A   1      46.504  28.095  35.072  1.00  0.00     0.198 A 
ATOM     91  C   UNL A   1      44.938  26.503  35.953  1.00  0.00     0.198 A 
ATOM     92  F   UNL A   1      42.639  26.753  35.528  1.00  0.00    -0.203 F 
ATOM     93  F   UNL A   1      47.768  28.502  34.893  1.00  0.00    -0.200 F 
ATOM     94  C   UNL A   1      46.244  26.941  35.796  1.00  0.00     0.200 A 
ATOM     95  F   UNL A   1      44.683  25.398  36.667  1.00  0.00    -0.200 F 
ATOM     96  F   UNL A   1      47.255  26.246  36.337  1.00  0.00    -0.200 F 
ENDBRANCH  63  86
ENDBRANCH  37  38
ENDBRANCH  29  32
ENDBRANCH  27  28
ENDBRANCH  26  27
ENDBRANCH  25  26
ENDBRANCH   1  25
TORSDOF 17
ENDMDL
