MODEL 1
REMARK VINA RESULT:     -12.7      0.000      0.000
REMARK SMILES Cc1nn(C(C)C)cc1-c1cnccc1C(=O)NCCCCNC(=O)c1ccc(-c2c3nc(c(-c4c(F)c(F)c(F)c(F)c4F)c4ccc([nH]4)c(-c4c(F)c(F)c(F)c(F)c4F)c4nc(c(-c5c(F)c(F)c(F)c(F)c5F)c5ccc2[nH]5)C=C4)C=C3)cc1
REMARK SMILES IDX 20 1 19 2 18 3 16 4 17 5 15 7 10 8 11 9 12 10 14 11 13 12
REMARK SMILES IDX 9 13 1 14 2 15 3 16 4 17 8 18 5 19 6 20 7 21 21 22 22 23
REMARK SMILES IDX 23 24 24 25 25 27 26 28 27 29 88 30 28 31 87 32 29 33 30 34
REMARK SMILES IDX 31 35 81 36 32 37 86 38 80 39 82 40 33 41 85 42 79 43 78 44
REMARK SMILES IDX 34 46 66 47 46 48 65 49 47 50 50 51 64 52 83 53 48 54 49 55
REMARK SMILES IDX 63 57 84 58 51 59 35 60 36 61 44 62 37 63 38 64 42 65 45 66
REMARK SMILES IDX 39 67 40 68 43 69 41 70 67 71 68 72 76 73 69 74 70 75 74 76
REMARK SMILES IDX 77 77 71 78 72 79 75 80 73 81 52 82 53 83 61 84 54 85 55 86
REMARK SMILES IDX 59 87 62 88 56 89 57 90 60 91 58 92
REMARK H PARENT 18 6 23 26 82 45 50 56
REMARK Flexibility Score: inf
ROOT
ATOM      1  C   UNL A   1      32.649  28.906  26.786  1.00  0.00     0.023 C 
ENDROOT
BRANCH   1   2
ATOM      2  C   UNL A   1      32.381  27.405  26.857  1.00  0.00     0.116 C 
BRANCH   2   3
ATOM      3  N   UNL A   1      31.038  26.892  26.928  1.00  0.00    -0.352 N 
ATOM      4  C   UNL A   1      30.455  25.923  26.124  1.00  0.00     0.252 C 
ATOM      5  O   UNL A   1      29.372  25.466  26.501  1.00  0.00    -0.269 OA
ATOM      6  H   UNL A   1      30.463  27.275  27.631  1.00  0.00     0.163 HD
BRANCH   4   7
ATOM      7  C   UNL A   1      30.964  25.483  24.775  1.00  0.00     0.050 A 
ATOM      8  C   UNL A   1      30.967  26.165  23.545  1.00  0.00     0.016 A 
ATOM      9  C   UNL A   1      31.505  25.500  22.437  1.00  0.00     0.120 A 
ATOM     10  N   UNL A   1      32.042  24.260  22.453  1.00  0.00    -0.264 NA
ATOM     11  C   UNL A   1      31.558  24.203  24.805  1.00  0.00     0.034 A 
ATOM     12  C   UNL A   1      32.069  23.644  23.644  1.00  0.00     0.112 A 
BRANCH   8  13
ATOM     13  C   UNL A   1      30.456  27.489  23.277  1.00  0.00     0.025 A 
ATOM     14  C   UNL A   1      32.630  28.942  22.991  1.00  0.00     0.069 C 
ATOM     15  C   UNL A   1      31.161  28.712  23.068  1.00  0.00     0.067 A 
ATOM     16  N   UNL A   1      30.321  29.709  22.780  1.00  0.00    -0.177 NA
ATOM     17  N   UNL A   1      29.096  29.162  22.891  1.00  0.00    -0.269 N 
ATOM     18  C   UNL A   1      29.124  27.825  23.187  1.00  0.00     0.118 A 
BRANCH  17  19
ATOM     19  C   UNL A   1      27.909  29.941  22.558  1.00  0.00     0.101 C 
ATOM     20  C   UNL A   1      27.655  31.112  23.512  1.00  0.00     0.033 C 
ATOM     21  C   UNL A   1      28.024  30.454  21.134  1.00  0.00     0.033 C 
ENDBRANCH  17  19
ENDBRANCH   8  13
ENDBRANCH   4   7
ENDBRANCH   2   3
ENDBRANCH   1   2
BRANCH   1  22
ATOM     22  C   UNL A   1      33.944  29.486  27.338  1.00  0.00     0.023 C 
BRANCH  22  23
ATOM     23  C   UNL A   1      34.121  30.988  27.248  1.00  0.00     0.116 C 
BRANCH  23  24
ATOM     24  N   UNL A   1      34.110  31.804  28.447  1.00  0.00    -0.352 N 
ATOM     25  C   UNL A   1      34.980  31.754  29.535  1.00  0.00     0.251 C 
ATOM     26  H   UNL A   1      33.396  32.481  28.500  1.00  0.00     0.163 HD
ATOM     27  O   UNL A   1      34.713  32.421  30.537  1.00  0.00    -0.269 OA
BRANCH  25  28
ATOM     28  C   UNL A   1      36.292  31.020  29.491  1.00  0.00     0.039 A 
ATOM     29  C   UNL A   1      36.383  29.695  29.959  1.00  0.00     0.014 A 
ATOM     30  C   UNL A   1      37.479  31.662  29.167  1.00  0.00     0.014 A 
ATOM     31  C   UNL A   1      37.638  29.096  30.160  1.00  0.00     0.010 A 
ATOM     32  C   UNL A   1      38.690  31.184  29.596  1.00  0.00     0.010 A 
ATOM     33  C   UNL A   1      38.789  29.872  30.017  1.00  0.00    -0.014 A 
BRANCH  33  34
ATOM     34  C   UNL A   1      40.146  29.338  29.952  1.00  0.00     0.031 A 
ATOM     35  C   UNL A   1      40.759  29.126  31.308  1.00  0.00     0.074 A 
ATOM     36  C   UNL A   1      40.631  28.690  28.874  1.00  0.00     0.049 A 
ATOM     37  N   UNL A   1      41.799  29.704  31.816  1.00  0.00    -0.248 NA
ATOM     38  C   UNL A   1      40.043  28.271  32.282  1.00  0.00     0.031 C 
ATOM     39  C   UNL A   1      39.956  28.407  27.605  1.00  0.00     0.029 A 
ATOM     40  N   UNL A   1      41.813  28.024  28.747  1.00  0.00    -0.354 N 
ATOM     41  C   UNL A   1      41.946  29.158  33.093  1.00  0.00     0.074 A 
ATOM     42  C   UNL A   1      40.710  28.512  33.405  1.00  0.00     0.031 C 
ATOM     43  C   UNL A   1      40.664  27.477  26.920  1.00  0.00     0.029 A 
ATOM     44  C   UNL A   1      41.889  27.181  27.645  1.00  0.00     0.049 A 
ATOM     45  H   UNL A   1      42.554  28.132  29.386  1.00  0.00     0.167 HD
ATOM     46  C   UNL A   1      43.167  29.010  33.676  1.00  0.00     0.037 A 
ATOM     47  C   UNL A   1      42.865  26.270  27.394  1.00  0.00     0.037 A 
ATOM     48  C   UNL A   1      44.144  29.838  33.017  1.00  0.00     0.049 A 
ATOM     49  C   UNL A   1      44.021  26.601  28.265  1.00  0.00     0.074 A 
ATOM     50  C   UNL A   1      44.247  31.190  32.747  1.00  0.00     0.029 A 
ATOM     51  N   UNL A   1      45.043  29.226  32.179  1.00  0.00    -0.354 N 
ATOM     52  N   UNL A   1      44.765  27.662  28.127  1.00  0.00    -0.248 NA
ATOM     53  C   UNL A   1      44.099  25.949  29.564  1.00  0.00     0.031 C 
ATOM     54  C   UNL A   1      44.819  31.261  31.441  1.00  0.00     0.029 A 
ATOM     55  C   UNL A   1      45.085  29.957  31.022  1.00  0.00     0.049 A 
ATOM     56  H   UNL A   1      45.560  28.412  32.374  1.00  0.00     0.167 HD
ATOM     57  C   UNL A   1      45.056  28.057  29.423  1.00  0.00     0.074 A 
ATOM     58  C   UNL A   1      44.713  26.911  30.259  1.00  0.00     0.031 C 
ATOM     59  C   UNL A   1      45.274  29.371  29.718  1.00  0.00     0.037 A 
BRANCH  46  60
ATOM     60  C   UNL A   1      43.563  27.832  34.552  1.00  0.00     0.064 A 
ATOM     61  C   UNL A   1      43.400  26.533  34.030  1.00  0.00     0.173 A 
ATOM     62  C   UNL A   1      43.799  27.887  35.947  1.00  0.00     0.173 A 
ATOM     63  F   UNL A   1      43.183  26.345  32.719  1.00  0.00    -0.203 F 
ATOM     64  C   UNL A   1      43.347  25.402  34.850  1.00  0.00     0.198 A 
ATOM     65  C   UNL A   1      43.806  26.749  36.753  1.00  0.00     0.198 A 
ATOM     66  F   UNL A   1      43.929  29.032  36.622  1.00  0.00    -0.203 F 
ATOM     67  F   UNL A   1      43.033  24.214  34.319  1.00  0.00    -0.200 F 
ATOM     68  C   UNL A   1      43.536  25.513  36.213  1.00  0.00     0.200 A 
ATOM     69  F   UNL A   1      43.988  26.882  38.075  1.00  0.00    -0.200 F 
ATOM     70  F   UNL A   1      43.412  24.444  37.010  1.00  0.00    -0.200 F 
ENDBRANCH  46  60
BRANCH  47  71
ATOM     71  C   UNL A   1      42.800  24.982  26.663  1.00  0.00     0.064 A 
ATOM     72  C   UNL A   1      43.565  24.768  25.502  1.00  0.00     0.173 A 
ATOM     73  C   UNL A   1      42.216  23.840  27.241  1.00  0.00     0.173 A 
ATOM     74  F   UNL A   1      44.194  25.795  24.909  1.00  0.00    -0.203 F 
ATOM     75  C   UNL A   1      43.760  23.488  24.972  1.00  0.00     0.198 A 
ATOM     76  C   UNL A   1      42.404  22.563  26.708  1.00  0.00     0.198 A 
ATOM     77  F   UNL A   1      41.533  23.929  28.391  1.00  0.00    -0.203 F 
ATOM     78  F   UNL A   1      44.553  23.318  23.904  1.00  0.00    -0.200 F 
ATOM     79  C   UNL A   1      43.188  22.385  25.582  1.00  0.00     0.200 A 
ATOM     80  F   UNL A   1      41.875  21.499  27.329  1.00  0.00    -0.200 F 
ATOM     81  F   UNL A   1      43.427  21.152  25.116  1.00  0.00    -0.200 F 
ENDBRANCH  47  71
BRANCH  59  82
ATOM     82  C   UNL A   1      45.489  30.320  28.575  1.00  0.00     0.064 A 
ATOM     83  C   UNL A   1      44.454  30.989  27.896  1.00  0.00     0.173 A 
ATOM     84  C   UNL A   1      46.805  30.668  28.247  1.00  0.00     0.173 A 
ATOM     85  F   UNL A   1      43.171  30.790  28.221  1.00  0.00    -0.203 F 
ATOM     86  C   UNL A   1      44.730  31.926  26.903  1.00  0.00     0.198 A 
ATOM     87  C   UNL A   1      47.078  31.634  27.282  1.00  0.00     0.198 A 
ATOM     88  F   UNL A   1      47.833  30.101  28.898  1.00  0.00    -0.203 F 
ATOM     89  F   UNL A   1      43.725  32.539  26.260  1.00  0.00    -0.200 F 
ATOM     90  C   UNL A   1      46.042  32.254  26.603  1.00  0.00     0.200 A 
ATOM     91  F   UNL A   1      48.347  31.983  27.031  1.00  0.00    -0.200 F 
ATOM     92  F   UNL A   1      46.307  33.186  25.678  1.00  0.00    -0.200 F 
ENDBRANCH  59  82
ENDBRANCH  33  34
ENDBRANCH  25  28
ENDBRANCH  23  24
ENDBRANCH  22  23
ENDBRANCH   1  22
TORSDOF 13
ENDMDL
MODEL 2
REMARK VINA RESULT:     -12.6      3.494      8.600
REMARK SMILES Cc1nn(C(C)C)cc1-c1cnccc1C(=O)NCCCCNC(=O)c1ccc(-c2c3nc(c(-c4c(F)c(F)c(F)c(F)c4F)c4ccc([nH]4)c(-c4c(F)c(F)c(F)c(F)c4F)c4nc(c(-c5c(F)c(F)c(F)c(F)c5F)c5ccc2[nH]5)C=C4)C=C3)cc1
REMARK SMILES IDX 20 1 19 2 18 3 16 4 17 5 15 7 10 8 11 9 12 10 14 11 13 12
REMARK SMILES IDX 9 13 1 14 2 15 3 16 4 17 8 18 5 19 6 20 7 21 21 22 22 23
REMARK SMILES IDX 23 24 24 25 25 27 26 28 27 29 88 30 28 31 87 32 29 33 30 34
REMARK SMILES IDX 31 35 81 36 32 37 86 38 80 39 82 40 33 41 85 42 79 43 78 44
REMARK SMILES IDX 34 46 66 47 46 48 65 49 47 50 50 51 64 52 83 53 48 54 49 55
REMARK SMILES IDX 63 57 84 58 51 59 35 60 36 61 44 62 37 63 38 64 42 65 45 66
REMARK SMILES IDX 39 67 40 68 43 69 41 70 67 71 68 72 76 73 69 74 70 75 74 76
REMARK SMILES IDX 77 77 71 78 72 79 75 80 73 81 52 82 53 83 61 84 54 85 55 86
REMARK SMILES IDX 59 87 62 88 56 89 57 90 60 91 58 92
REMARK H PARENT 18 6 23 26 82 45 50 56
REMARK Flexibility Score: inf
ROOT
ATOM      1  C   UNL A   1      37.744  23.611  25.933  1.00  0.00     0.023 C 
ENDROOT
BRANCH   1   2
ATOM      2  C   UNL A   1      36.242  23.783  25.719  1.00  0.00     0.116 C 
BRANCH   2   3
ATOM      3  N   UNL A   1      35.699  23.999  24.404  1.00  0.00    -0.352 N 
ATOM      4  C   UNL A   1      34.399  24.347  24.069  1.00  0.00     0.252 C 
ATOM      5  O   UNL A   1      34.203  24.708  22.904  1.00  0.00    -0.269 OA
ATOM      6  H   UNL A   1      36.325  23.886  23.652  1.00  0.00     0.163 HD
BRANCH   4   7
ATOM      7  C   UNL A   1      33.193  24.195  24.962  1.00  0.00     0.050 A 
ATOM      8  C   UNL A   1      32.414  25.175  25.602  1.00  0.00     0.016 A 
ATOM      9  C   UNL A   1      31.341  24.737  26.388  1.00  0.00     0.120 A 
ATOM     10  N   UNL A   1      30.978  23.449  26.569  1.00  0.00    -0.264 NA
ATOM     11  C   UNL A   1      32.794  22.849  25.117  1.00  0.00     0.034 A 
ATOM     12  C   UNL A   1      31.707  22.532  25.915  1.00  0.00     0.112 A 
BRANCH   8  13
ATOM     13  C   UNL A   1      32.601  26.606  25.560  1.00  0.00     0.025 A 
ATOM     14  C   UNL A   1      30.716  27.424  23.918  1.00  0.00     0.069 C 
ATOM     15  C   UNL A   1      31.896  27.594  24.810  1.00  0.00     0.067 A 
ATOM     16  N   UNL A   1      32.329  28.822  25.104  1.00  0.00    -0.177 NA
ATOM     17  N   UNL A   1      33.352  28.624  25.957  1.00  0.00    -0.269 N 
ATOM     18  C   UNL A   1      33.555  27.305  26.264  1.00  0.00     0.118 A 
BRANCH  17  19
ATOM     19  C   UNL A   1      34.029  29.761  26.571  1.00  0.00     0.101 C 
ATOM     20  C   UNL A   1      33.082  30.724  27.293  1.00  0.00     0.033 C 
ATOM     21  C   UNL A   1      35.086  29.258  27.537  1.00  0.00     0.033 C 
ENDBRANCH  17  19
ENDBRANCH   8  13
ENDBRANCH   4   7
ENDBRANCH   2   3
ENDBRANCH   1   2
BRANCH   1  22
ATOM     22  C   UNL A   1      38.399  22.249  25.748  1.00  0.00     0.023 C 
BRANCH  22  23
ATOM     23  C   UNL A   1      39.625  21.952  26.588  1.00  0.00     0.116 C 
BRANCH  23  24
ATOM     24  N   UNL A   1      40.951  22.019  26.004  1.00  0.00    -0.352 N 
ATOM     25  C   UNL A   1      41.780  23.131  25.868  1.00  0.00     0.251 C 
ATOM     26  H   UNL A   1      41.312  21.170  25.660  1.00  0.00     0.163 HD
ATOM     27  O   UNL A   1      42.809  23.021  25.197  1.00  0.00    -0.269 OA
BRANCH  25  28
ATOM     28  C   UNL A   1      41.538  24.419  26.604  1.00  0.00     0.039 A 
ATOM     29  C   UNL A   1      40.929  25.508  25.952  1.00  0.00     0.014 A 
ATOM     30  C   UNL A   1      42.057  24.647  27.871  1.00  0.00     0.014 A 
ATOM     31  C   UNL A   1      40.932  26.783  26.543  1.00  0.00     0.010 A 
ATOM     32  C   UNL A   1      42.286  25.917  28.332  1.00  0.00     0.010 A 
ATOM     33  C   UNL A   1      41.658  26.983  27.718  1.00  0.00    -0.014 A 
BRANCH  33  34
ATOM     34  C   UNL A   1      41.554  28.167  28.566  1.00  0.00     0.031 A 
ATOM     35  C   UNL A   1      42.601  29.200  28.261  1.00  0.00     0.074 A 
ATOM     36  C   UNL A   1      40.423  28.510  29.215  1.00  0.00     0.049 A 
ATOM     37  N   UNL A   1      43.545  29.635  29.032  1.00  0.00    -0.248 NA
ATOM     38  C   UNL A   1      42.708  29.713  26.876  1.00  0.00     0.031 C 
ATOM     39  C   UNL A   1      39.136  27.813  29.226  1.00  0.00     0.029 A 
ATOM     40  N   UNL A   1      40.158  29.654  29.907  1.00  0.00    -0.354 N 
ATOM     41  C   UNL A   1      44.241  30.582  28.276  1.00  0.00     0.074 A 
ATOM     42  C   UNL A   1      43.856  30.380  26.915  1.00  0.00     0.031 C 
ATOM     43  C   UNL A   1      38.185  28.636  29.732  1.00  0.00     0.029 A 
ATOM     44  C   UNL A   1      38.812  29.870  30.177  1.00  0.00     0.049 A 
ATOM     45  H   UNL A   1      40.864  30.277  30.191  1.00  0.00     0.167 HD
ATOM     46  C   UNL A   1      44.845  31.658  28.851  1.00  0.00     0.037 A 
ATOM     47  C   UNL A   1      38.264  31.009  30.675  1.00  0.00     0.037 A 
ATOM     48  C   UNL A   1      45.018  31.444  30.264  1.00  0.00     0.049 A 
ATOM     49  C   UNL A   1      39.365  31.822  31.250  1.00  0.00     0.074 A 
ATOM     50  C   UNL A   1      45.636  30.472  31.030  1.00  0.00     0.029 A 
ATOM     51  N   UNL A   1      44.178  32.108  31.122  1.00  0.00    -0.354 N 
ATOM     52  N   UNL A   1      40.037  31.498  32.319  1.00  0.00    -0.248 NA
ATOM     53  C   UNL A   1      40.001  32.808  30.388  1.00  0.00     0.031 C 
ATOM     54  C   UNL A   1      44.776  30.288  32.154  1.00  0.00     0.029 A 
ATOM     55  C   UNL A   1      43.723  31.196  32.036  1.00  0.00     0.049 A 
ATOM     56  H   UNL A   1      43.944  33.063  31.085  1.00  0.00     0.167 HD
ATOM     57  C   UNL A   1      41.338  31.891  32.047  1.00  0.00     0.074 A 
ATOM     58  C   UNL A   1      41.236  32.783  30.896  1.00  0.00     0.031 C 
ATOM     59  C   UNL A   1      42.396  31.229  32.599  1.00  0.00     0.037 A 
BRANCH  46  60
ATOM     60  C   UNL A   1      44.900  33.045  28.230  1.00  0.00     0.064 A 
ATOM     61  C   UNL A   1      46.165  33.581  27.914  1.00  0.00     0.173 A 
ATOM     62  C   UNL A   1      43.837  33.980  28.209  1.00  0.00     0.173 A 
ATOM     63  F   UNL A   1      47.253  32.795  27.888  1.00  0.00    -0.203 F 
ATOM     64  C   UNL A   1      46.368  34.951  27.724  1.00  0.00     0.198 A 
ATOM     65  C   UNL A   1      44.035  35.338  27.958  1.00  0.00     0.198 A 
ATOM     66  F   UNL A   1      42.579  33.663  28.529  1.00  0.00    -0.203 F 
ATOM     67  F   UNL A   1      47.613  35.422  27.584  1.00  0.00    -0.200 F 
ATOM     68  C   UNL A   1      45.304  35.829  27.760  1.00  0.00     0.200 A 
ATOM     69  F   UNL A   1      42.986  36.173  28.002  1.00  0.00    -0.200 F 
ATOM     70  F   UNL A   1      45.503  37.149  27.653  1.00  0.00    -0.200 F 
ENDBRANCH  46  60
BRANCH  47  71
ATOM     71  C   UNL A   1      36.913  31.584  30.470  1.00  0.00     0.064 A 
ATOM     72  C   UNL A   1      36.055  31.827  31.558  1.00  0.00     0.173 A 
ATOM     73  C   UNL A   1      36.546  32.173  29.246  1.00  0.00     0.173 A 
ATOM     74  F   UNL A   1      36.351  31.339  32.772  1.00  0.00    -0.203 F 
ATOM     75  C   UNL A   1      34.920  32.635  31.437  1.00  0.00     0.198 A 
ATOM     76  C   UNL A   1      35.409  32.974  29.123  1.00  0.00     0.198 A 
ATOM     77  F   UNL A   1      37.338  32.065  28.170  1.00  0.00    -0.203 F 
ATOM     78  F   UNL A   1      34.166  32.898  32.514  1.00  0.00    -0.200 F 
ATOM     79  C   UNL A   1      34.604  33.218  30.222  1.00  0.00     0.200 A 
ATOM     80  F   UNL A   1      35.134  33.562  27.950  1.00  0.00    -0.200 F 
ATOM     81  F   UNL A   1      33.555  34.045  30.118  1.00  0.00    -0.200 F 
ENDBRANCH  47  71
BRANCH  59  82
ATOM     82  C   UNL A   1      42.116  30.278  33.727  1.00  0.00     0.064 A 
ATOM     83  C   UNL A   1      41.744  28.932  33.554  1.00  0.00     0.173 A 
ATOM     84  C   UNL A   1      42.368  30.713  35.033  1.00  0.00     0.173 A 
ATOM     85  F   UNL A   1      41.584  28.410  32.332  1.00  0.00    -0.203 F 
ATOM     86  C   UNL A   1      41.588  28.080  34.645  1.00  0.00     0.198 A 
ATOM     87  C   UNL A   1      42.250  29.850  36.118  1.00  0.00     0.198 A 
ATOM     88  F   UNL A   1      42.777  31.973  35.255  1.00  0.00    -0.203 F 
ATOM     89  F   UNL A   1      41.218  26.806  34.454  1.00  0.00    -0.200 F 
ATOM     90  C   UNL A   1      41.850  28.538  35.926  1.00  0.00     0.200 A 
ATOM     91  F   UNL A   1      42.553  30.284  37.350  1.00  0.00    -0.200 F 
ATOM     92  F   UNL A   1      41.741  27.708  36.971  1.00  0.00    -0.200 F 
ENDBRANCH  59  82
ENDBRANCH  33  34
ENDBRANCH  25  28
ENDBRANCH  23  24
ENDBRANCH  22  23
ENDBRANCH   1  22
TORSDOF 13
ENDMDL
MODEL 3
REMARK VINA RESULT:     -12.6      1.639      3.415
REMARK SMILES Cc1nn(C(C)C)cc1-c1cnccc1C(=O)NCCCCNC(=O)c1ccc(-c2c3nc(c(-c4c(F)c(F)c(F)c(F)c4F)c4ccc([nH]4)c(-c4c(F)c(F)c(F)c(F)c4F)c4nc(c(-c5c(F)c(F)c(F)c(F)c5F)c5ccc2[nH]5)C=C4)C=C3)cc1
REMARK SMILES IDX 20 1 19 2 18 3 16 4 17 5 15 7 10 8 11 9 12 10 14 11 13 12
REMARK SMILES IDX 9 13 1 14 2 15 3 16 4 17 8 18 5 19 6 20 7 21 21 22 22 23
REMARK SMILES IDX 23 24 24 25 25 27 26 28 27 29 88 30 28 31 87 32 29 33 30 34
REMARK SMILES IDX 31 35 81 36 32 37 86 38 80 39 82 40 33 41 85 42 79 43 78 44
REMARK SMILES IDX 34 46 66 47 46 48 65 49 47 50 50 51 64 52 83 53 48 54 49 55
REMARK SMILES IDX 63 57 84 58 51 59 35 60 36 61 44 62 37 63 38 64 42 65 45 66
REMARK SMILES IDX 39 67 40 68 43 69 41 70 67 71 68 72 76 73 69 74 70 75 74 76
REMARK SMILES IDX 77 77 71 78 72 79 75 80 73 81 52 82 53 83 61 84 54 85 55 86
REMARK SMILES IDX 59 87 62 88 56 89 57 90 60 91 58 92
REMARK H PARENT 18 6 23 26 82 45 50 56
REMARK Flexibility Score: inf
ROOT
ATOM      1  C   UNL A   1      34.911  30.421  27.756  1.00  0.00     0.023 C 
ENDROOT
BRANCH   1   2
ATOM      2  C   UNL A   1      34.342  29.082  27.295  1.00  0.00     0.116 C 
BRANCH   2   3
ATOM      3  N   UNL A   1      33.040  28.640  27.722  1.00  0.00    -0.352 N 
ATOM      4  C   UNL A   1      32.155  27.820  27.039  1.00  0.00     0.252 C 
ATOM      5  O   UNL A   1      31.197  27.379  27.681  1.00  0.00    -0.269 OA
ATOM      6  H   UNL A   1      32.743  28.958  28.606  1.00  0.00     0.163 HD
BRANCH   4   7
ATOM      7  C   UNL A   1      32.190  27.535  25.559  1.00  0.00     0.050 A 
ATOM      8  C   UNL A   1      32.712  26.429  24.864  1.00  0.00     0.016 A 
ATOM      9  C   UNL A   1      32.610  26.435  23.468  1.00  0.00     0.120 A 
ATOM     10  N   UNL A   1      32.034  27.407  22.729  1.00  0.00    -0.264 NA
ATOM     11  C   UNL A   1      31.552  28.536  24.794  1.00  0.00     0.034 A 
ATOM     12  C   UNL A   1      31.503  28.433  23.412  1.00  0.00     0.112 A 
BRANCH   8  13
ATOM     13  C   UNL A   1      33.369  25.272  25.428  1.00  0.00     0.025 A 
ATOM     14  C   UNL A   1      31.430  24.017  26.687  1.00  0.00     0.069 C 
ATOM     15  C   UNL A   1      32.837  24.234  26.248  1.00  0.00     0.067 A 
ATOM     16  N   UNL A   1      33.759  23.303  26.505  1.00  0.00    -0.177 NA
ATOM     17  N   UNL A   1      34.884  23.777  25.939  1.00  0.00    -0.269 N 
ATOM     18  C   UNL A   1      34.701  24.961  25.275  1.00  0.00     0.118 A 
BRANCH  17  19
ATOM     19  C   UNL A   1      36.103  22.976  25.940  1.00  0.00     0.101 C 
ATOM     20  C   UNL A   1      36.219  22.030  24.741  1.00  0.00     0.033 C 
ATOM     21  C   UNL A   1      37.311  23.894  25.989  1.00  0.00     0.033 C 
ENDBRANCH  17  19
ENDBRANCH   8  13
ENDBRANCH   4   7
ENDBRANCH   2   3
ENDBRANCH   1   2
BRANCH   1  22
ATOM     22  C   UNL A   1      34.044  31.672  27.748  1.00  0.00     0.023 C 
BRANCH  22  23
ATOM     23  C   UNL A   1      34.524  32.851  28.572  1.00  0.00     0.116 C 
BRANCH  23  24
ATOM     24  N   UNL A   1      34.134  32.984  29.962  1.00  0.00    -0.352 N 
ATOM     25  C   UNL A   1      34.764  32.460  31.090  1.00  0.00     0.251 C 
ATOM     26  H   UNL A   1      33.321  33.513  30.132  1.00  0.00     0.163 HD
ATOM     27  O   UNL A   1      34.191  32.545  32.179  1.00  0.00    -0.269 OA
BRANCH  25  28
ATOM     28  C   UNL A   1      36.162  31.908  31.056  1.00  0.00     0.039 A 
ATOM     29  C   UNL A   1      37.265  32.772  30.917  1.00  0.00     0.014 A 
ATOM     30  C   UNL A   1      36.409  30.545  30.974  1.00  0.00     0.014 A 
ATOM     31  C   UNL A   1      38.540  32.258  30.628  1.00  0.00     0.010 A 
ATOM     32  C   UNL A   1      37.578  30.061  30.448  1.00  0.00     0.010 A 
ATOM     33  C   UNL A   1      38.674  30.897  30.349  1.00  0.00    -0.014 A 
BRANCH  33  34
ATOM     34  C   UNL A   1      39.946  30.186  30.277  1.00  0.00     0.031 A 
ATOM     35  C   UNL A   1      40.541  29.909  31.629  1.00  0.00     0.074 A 
ATOM     36  C   UNL A   1      40.327  29.467  29.203  1.00  0.00     0.049 A 
ATOM     37  N   UNL A   1      41.655  30.348  32.119  1.00  0.00    -0.248 NA
ATOM     38  C   UNL A   1      39.729  29.169  32.622  1.00  0.00     0.031 C 
ATOM     39  C   UNL A   1      39.606  29.262  27.945  1.00  0.00     0.029 A 
ATOM     40  N   UNL A   1      41.408  28.647  29.072  1.00  0.00    -0.354 N 
ATOM     41  C   UNL A   1      41.743  29.802  33.401  1.00  0.00     0.074 A 
ATOM     42  C   UNL A   1      40.436  29.331  33.734  1.00  0.00     0.031 C 
ATOM     43  C   UNL A   1      40.175  28.238  27.264  1.00  0.00     0.029 A 
ATOM     44  C   UNL A   1      41.358  27.788  27.980  1.00  0.00     0.049 A 
ATOM     45  H   UNL A   1      42.164  28.661  29.702  1.00  0.00     0.167 HD
ATOM     46  C   UNL A   1      42.940  29.498  33.974  1.00  0.00     0.037 A 
ATOM     47  C   UNL A   1      42.200  26.752  27.731  1.00  0.00     0.037 A 
ATOM     48  C   UNL A   1      44.011  30.181  33.294  1.00  0.00     0.049 A 
ATOM     49  C   UNL A   1      43.400  26.936  28.586  1.00  0.00     0.074 A 
ATOM     50  C   UNL A   1      44.291  31.504  33.005  1.00  0.00     0.029 A 
ATOM     51  N   UNL A   1      44.810  29.445  32.455  1.00  0.00    -0.354 N 
ATOM     52  N   UNL A   1      44.278  27.885  28.426  1.00  0.00    -0.248 NA
ATOM     53  C   UNL A   1      43.406  26.294  29.893  1.00  0.00     0.031 C 
ATOM     54  C   UNL A   1      44.852  31.483  31.693  1.00  0.00     0.029 A 
ATOM     55  C   UNL A   1      44.937  30.150  31.288  1.00  0.00     0.049 A 
ATOM     56  H   UNL A   1      45.216  28.571  32.655  1.00  0.00     0.167 HD
ATOM     57  C   UNL A   1      44.635  28.253  29.714  1.00  0.00     0.074 A 
ATOM     58  C   UNL A   1      44.151  27.173  30.568  1.00  0.00     0.031 C 
ATOM     59  C   UNL A   1      45.029  29.529  29.991  1.00  0.00     0.037 A 
BRANCH  46  60
ATOM     60  C   UNL A   1      43.186  28.288  34.861  1.00  0.00     0.064 A 
ATOM     61  C   UNL A   1      43.796  28.498  36.115  1.00  0.00     0.173 A 
ATOM     62  C   UNL A   1      43.140  26.937  34.441  1.00  0.00     0.173 A 
ATOM     63  F   UNL A   1      43.892  29.732  36.630  1.00  0.00    -0.203 F 
ATOM     64  C   UNL A   1      44.421  27.465  36.820  1.00  0.00     0.198 A 
ATOM     65  C   UNL A   1      43.711  25.900  35.178  1.00  0.00     0.198 A 
ATOM     66  F   UNL A   1      42.643  26.556  33.260  1.00  0.00    -0.203 F 
ATOM     67  F   UNL A   1      45.120  27.748  37.926  1.00  0.00    -0.200 F 
ATOM     68  C   UNL A   1      44.389  26.169  36.344  1.00  0.00     0.200 A 
ATOM     69  F   UNL A   1      43.671  24.651  34.694  1.00  0.00    -0.200 F 
ATOM     70  F   UNL A   1      45.048  25.192  36.979  1.00  0.00    -0.200 F 
ENDBRANCH  46  60
BRANCH  47  71
ATOM     71  C   UNL A   1      41.955  25.476  27.017  1.00  0.00     0.064 A 
ATOM     72  C   UNL A   1      42.787  25.065  25.960  1.00  0.00     0.173 A 
ATOM     73  C   UNL A   1      41.085  24.501  27.538  1.00  0.00     0.173 A 
ATOM     74  F   UNL A   1      43.678  25.919  25.432  1.00  0.00    -0.203 F 
ATOM     75  C   UNL A   1      42.773  23.753  25.477  1.00  0.00     0.198 A 
ATOM     76  C   UNL A   1      41.065  23.193  27.051  1.00  0.00     0.198 A 
ATOM     77  F   UNL A   1      40.308  24.773  28.596  1.00  0.00    -0.203 F 
ATOM     78  F   UNL A   1      43.630  23.383  24.515  1.00  0.00    -0.200 F 
ATOM     79  C   UNL A   1      41.920  22.814  26.031  1.00  0.00     0.200 A 
ATOM     80  F   UNL A   1      40.261  22.284  27.620  1.00  0.00    -0.200 F 
ATOM     81  F   UNL A   1      41.950  21.540  25.616  1.00  0.00    -0.200 F 
ENDBRANCH  47  71
BRANCH  59  82
ATOM     82  C   UNL A   1      45.356  30.428  28.833  1.00  0.00     0.064 A 
ATOM     83  C   UNL A   1      44.414  31.233  28.165  1.00  0.00     0.173 A 
ATOM     84  C   UNL A   1      46.702  30.581  28.477  1.00  0.00     0.173 A 
ATOM     85  F   UNL A   1      43.123  31.222  28.516  1.00  0.00    -0.203 F 
ATOM     86  C   UNL A   1      44.802  32.112  27.157  1.00  0.00     0.198 A 
ATOM     87  C   UNL A   1      47.091  31.489  27.497  1.00  0.00     0.198 A 
ATOM     88  F   UNL A   1      47.650  29.878  29.117  1.00  0.00    -0.203 F 
ATOM     89  F   UNL A   1      43.883  32.856  26.525  1.00  0.00    -0.200 F 
ATOM     90  C   UNL A   1      46.142  32.246  26.830  1.00  0.00     0.200 A 
ATOM     91  F   UNL A   1      48.392  31.651  27.220  1.00  0.00    -0.200 F 
ATOM     92  F   UNL A   1      46.520  33.122  25.890  1.00  0.00    -0.200 F 
ENDBRANCH  59  82
ENDBRANCH  33  34
ENDBRANCH  25  28
ENDBRANCH  23  24
ENDBRANCH  22  23
ENDBRANCH   1  22
TORSDOF 13
ENDMDL
