MODEL 1
REMARK VINA RESULT:     -12.5      0.000      0.000
REMARK SMILES COC(=O)c1ccccc1-c1ccc(/C=C(\C#N)C(=O)NCCCCNC(=O)c2ccc(-c3c4nc(c(-c5c(F)c(F)c(F)c(F)c5F)c5ccc([nH]5)c(-c5c(F)c(F)c(F)c(F)c5F)c5nc(c(-c6c(F)c(F)c(F)c(F)c6F)c6ccc3[nH]6)C=C5)C=C4)cc2)o1
REMARK SMILES IDX 22 1 21 2 19 3 20 4 16 6 15 7 14 8 11 9 12 10 92 11 13 12
REMARK SMILES IDX 10 13 5 14 6 15 7 16 9 17 8 18 3 19 4 20 2 21 1 22 17 23
REMARK SMILES IDX 18 24 23 25 24 26 25 27 26 28 27 29 28 31 29 32 30 33 91 34
REMARK SMILES IDX 31 35 90 36 32 37 33 38 34 39 84 40 35 41 89 42 83 43 85 44
REMARK SMILES IDX 36 45 88 46 82 47 81 48 37 50 69 51 49 52 68 53 50 54 53 55
REMARK SMILES IDX 67 56 86 57 51 58 52 59 66 61 87 62 54 63 38 64 39 65 47 66
REMARK SMILES IDX 40 67 41 68 45 69 48 70 42 71 43 72 46 73 44 74 70 75 71 76
REMARK SMILES IDX 79 77 72 78 73 79 77 80 80 81 74 82 75 83 78 84 76 85 55 86
REMARK SMILES IDX 56 87 64 88 57 89 58 90 62 91 65 92 59 93 60 94 63 95 61 96
REMARK H PARENT 21 5 26 30 85 49 53 60
REMARK Flexibility Score: inf
ROOT
ATOM      1  C   UNL A   1      32.617  29.689  25.346  1.00  0.00     0.116 C 
ENDROOT
BRANCH   1   2
ATOM      2  N   UNL A   1      31.389  29.668  24.570  1.00  0.00    -0.351 N 
ATOM      3  C   UNL A   1      30.845  28.748  23.729  1.00  0.00     0.262 C 
ATOM      4  O   UNL A   1      29.755  29.042  23.226  1.00  0.00    -0.268 OA
ATOM      5  H   UNL A   1      30.842  30.480  24.675  1.00  0.00     0.163 HD
BRANCH   3   6
ATOM      6  C   UNL A   1      31.490  27.437  23.414  1.00  0.00     0.120 C 
ATOM      7  C   UNL A   1      30.975  26.338  24.003  1.00  0.00     0.072 C 
BRANCH   7   8
ATOM      8  C   UNL A   1      31.476  25.010  23.830  1.00  0.00     0.129 A 
ATOM      9  C   UNL A   1      32.900  23.291  23.793  1.00  0.00     0.135 A 
ATOM     10  C   UNL A   1      31.707  22.807  23.313  1.00  0.00     0.051 A 
ATOM     11  O   UNL A   1      32.757  24.601  24.129  1.00  0.00    -0.457 OA
ATOM     12  C   UNL A   1      30.802  23.896  23.338  1.00  0.00     0.051 A 
BRANCH   9  13
ATOM     13  C   UNL A   1      34.227  22.721  23.983  1.00  0.00     0.032 A 
ATOM     14  C   UNL A   1      34.511  21.769  24.980  1.00  0.00     0.071 A 
ATOM     15  C   UNL A   1      35.828  21.330  25.197  1.00  0.00     0.016 A 
ATOM     16  C   UNL A   1      36.868  21.812  24.404  1.00  0.00     0.001 A 
ATOM     17  C   UNL A   1      35.288  23.179  23.183  1.00  0.00     0.013 A 
ATOM     18  C   UNL A   1      36.596  22.730  23.393  1.00  0.00     0.001 A 
BRANCH  14  19
ATOM     19  C   UNL A   1      33.472  21.190  25.856  1.00  0.00     0.338 C 
ATOM     20  O   UNL A   1      32.654  20.362  25.475  1.00  0.00    -0.246 OA
BRANCH  19  21
ATOM     21  O   UNL A   1      33.526  21.765  27.080  1.00  0.00    -0.465 OA
ATOM     22  C   UNL A   1      32.555  22.789  27.286  1.00  0.00     0.282 C 
ENDBRANCH  19  21
ENDBRANCH  14  19
ENDBRANCH   9  13
ENDBRANCH   7   8
BRANCH   6  23
ATOM     23  C   UNL A   1      32.699  27.340  22.498  1.00  0.00     0.105 C 
ATOM     24  N   UNL A   1      33.703  27.258  21.738  1.00  0.00    -0.192 NA
ENDBRANCH   6  23
ENDBRANCH   3   6
ENDBRANCH   1   2
BRANCH   1  25
ATOM     25  C   UNL A   1      32.365  30.159  26.779  1.00  0.00     0.023 C 
BRANCH  25  26
ATOM     26  C   UNL A   1      31.936  31.625  26.874  1.00  0.00     0.023 C 
BRANCH  26  27
ATOM     27  C   UNL A   1      32.975  32.550  27.496  1.00  0.00     0.116 C 
BRANCH  27  28
ATOM     28  N   UNL A   1      32.513  33.917  27.684  1.00  0.00    -0.352 N 
ATOM     29  C   UNL A   1      33.014  34.847  28.566  1.00  0.00     0.251 C 
ATOM     30  H   UNL A   1      31.761  34.209  27.118  1.00  0.00     0.163 HD
ATOM     31  O   UNL A   1      32.491  35.944  28.713  1.00  0.00    -0.269 OA
BRANCH  29  32
ATOM     32  C   UNL A   1      34.186  34.463  29.375  1.00  0.00     0.039 A 
ATOM     33  C   UNL A   1      33.987  33.852  30.614  1.00  0.00     0.014 A 
ATOM     34  C   UNL A   1      35.469  34.604  28.840  1.00  0.00     0.014 A 
ATOM     35  C   UNL A   1      35.082  33.314  31.293  1.00  0.00     0.010 A 
ATOM     36  C   UNL A   1      36.542  33.998  29.478  1.00  0.00     0.010 A 
ATOM     37  C   UNL A   1      36.359  33.348  30.711  1.00  0.00    -0.014 A 
BRANCH  37  38
ATOM     38  C   UNL A   1      37.537  32.737  31.375  1.00  0.00     0.031 A 
ATOM     39  C   UNL A   1      38.262  31.611  30.695  1.00  0.00     0.074 A 
ATOM     40  C   UNL A   1      37.898  33.131  32.612  1.00  0.00     0.049 A 
ATOM     41  N   UNL A   1      39.217  30.841  31.150  1.00  0.00    -0.248 NA
ATOM     42  C   UNL A   1      37.827  31.282  29.327  1.00  0.00     0.031 C 
ATOM     43  C   UNL A   1      37.255  34.191  33.388  1.00  0.00     0.029 A 
ATOM     44  N   UNL A   1      38.891  32.670  33.441  1.00  0.00    -0.354 N 
ATOM     45  C   UNL A   1      39.481  29.931  30.136  1.00  0.00     0.074 A 
ATOM     46  C   UNL A   1      38.545  30.201  29.068  1.00  0.00     0.031 C 
ATOM     47  C   UNL A   1      37.880  34.313  34.571  1.00  0.00     0.029 A 
ATOM     48  C   UNL A   1      38.937  33.310  34.656  1.00  0.00     0.049 A 
ATOM     49  H   UNL A   1      39.511  31.948  33.189  1.00  0.00     0.167 HD
ATOM     50  C   UNL A   1      40.437  28.975  30.089  1.00  0.00     0.037 A 
ATOM     51  C   UNL A   1      39.735  33.098  35.721  1.00  0.00     0.037 A 
ATOM     52  C   UNL A   1      41.384  28.730  31.143  1.00  0.00     0.049 A 
ATOM     53  C   UNL A   1      40.775  32.009  35.652  1.00  0.00     0.074 A 
ATOM     54  C   UNL A   1      42.416  27.809  31.179  1.00  0.00     0.029 A 
ATOM     55  N   UNL A   1      41.414  29.416  32.349  1.00  0.00    -0.354 N 
ATOM     56  N   UNL A   1      41.048  31.184  34.670  1.00  0.00    -0.248 NA
ATOM     57  C   UNL A   1      41.621  31.824  36.840  1.00  0.00     0.031 C 
ATOM     58  C   UNL A   1      43.044  27.909  32.425  1.00  0.00     0.029 A 
ATOM     59  C   UNL A   1      42.440  28.930  33.141  1.00  0.00     0.049 A 
ATOM     60  H   UNL A   1      40.797  30.141  32.602  1.00  0.00     0.167 HD
ATOM     61  C   UNL A   1      42.121  30.417  35.102  1.00  0.00     0.074 A 
ATOM     62  C   UNL A   1      42.452  30.874  36.434  1.00  0.00     0.031 C 
ATOM     63  C   UNL A   1      42.775  29.423  34.452  1.00  0.00     0.037 A 
BRANCH  50  64
ATOM     64  C   UNL A   1      40.510  28.130  28.849  1.00  0.00     0.064 A 
ATOM     65  C   UNL A   1      39.805  26.922  28.741  1.00  0.00     0.173 A 
ATOM     66  C   UNL A   1      41.272  28.545  27.747  1.00  0.00     0.173 A 
ATOM     67  F   UNL A   1      39.072  26.473  29.772  1.00  0.00    -0.203 F 
ATOM     68  C   UNL A   1      39.887  26.144  27.591  1.00  0.00     0.198 A 
ATOM     69  C   UNL A   1      41.324  27.782  26.584  1.00  0.00     0.198 A 
ATOM     70  F   UNL A   1      41.963  29.694  27.795  1.00  0.00    -0.203 F 
ATOM     71  F   UNL A   1      39.250  24.966  27.533  1.00  0.00    -0.200 F 
ATOM     72  C   UNL A   1      40.638  26.578  26.510  1.00  0.00     0.200 A 
ATOM     73  F   UNL A   1      42.041  28.208  25.535  1.00  0.00    -0.200 F 
ATOM     74  F   UNL A   1      40.710  25.832  25.399  1.00  0.00    -0.200 F 
ENDBRANCH  50  64
BRANCH  51  75
ATOM     75  C   UNL A   1      39.605  33.944  36.937  1.00  0.00     0.064 A 
ATOM     76  C   UNL A   1      38.824  33.524  38.023  1.00  0.00     0.173 A 
ATOM     77  C   UNL A   1      40.230  35.196  37.032  1.00  0.00     0.173 A 
ATOM     78  F   UNL A   1      38.189  32.343  37.973  1.00  0.00    -0.203 F 
ATOM     79  C   UNL A   1      38.650  34.334  39.144  1.00  0.00     0.198 A 
ATOM     80  C   UNL A   1      40.081  35.992  38.166  1.00  0.00     0.198 A 
ATOM     81  F   UNL A   1      40.992  35.645  36.023  1.00  0.00    -0.203 F 
ATOM     82  F   UNL A   1      37.853  33.930  40.143  1.00  0.00    -0.200 F 
ATOM     83  C   UNL A   1      39.282  35.565  39.216  1.00  0.00     0.200 A 
ATOM     84  F   UNL A   1      40.705  37.176  38.238  1.00  0.00    -0.200 F 
ATOM     85  F   UNL A   1      39.113  36.345  40.292  1.00  0.00    -0.200 F 
ENDBRANCH  51  75
BRANCH  63  86
ATOM     86  C   UNL A   1      43.960  28.807  35.139  1.00  0.00     0.064 A 
ATOM     87  C   UNL A   1      45.257  29.311  34.975  1.00  0.00     0.173 A 
ATOM     88  C   UNL A   1      43.778  27.733  36.025  1.00  0.00     0.173 A 
ATOM     89  F   UNL A   1      45.485  30.327  34.129  1.00  0.00    -0.203 F 
ATOM     90  C   UNL A   1      46.333  28.750  35.658  1.00  0.00     0.198 A 
ATOM     91  C   UNL A   1      44.850  27.197  36.730  1.00  0.00     0.198 A 
ATOM     92  F   UNL A   1      42.554  27.220  36.223  1.00  0.00    -0.203 F 
ATOM     93  F   UNL A   1      47.572  29.222  35.456  1.00  0.00    -0.200 F 
ATOM     94  C   UNL A   1      46.128  27.701  36.543  1.00  0.00     0.200 A 
ATOM     95  F   UNL A   1      44.646  26.194  37.596  1.00  0.00    -0.200 F 
ATOM     96  F   UNL A   1      47.162  27.174  37.211  1.00  0.00    -0.200 F 
ENDBRANCH  63  86
ENDBRANCH  37  38
ENDBRANCH  29  32
ENDBRANCH  27  28
ENDBRANCH  26  27
ENDBRANCH  25  26
ENDBRANCH   1  25
TORSDOF 16
ENDMDL
MODEL 2
REMARK VINA RESULT:     -12.5      5.314      9.914
REMARK SMILES COC(=O)c1ccccc1-c1ccc(/C=C(\C#N)C(=O)NCCCCNC(=O)c2ccc(-c3c4nc(c(-c5c(F)c(F)c(F)c(F)c5F)c5ccc([nH]5)c(-c5c(F)c(F)c(F)c(F)c5F)c5nc(c(-c6c(F)c(F)c(F)c(F)c6F)c6ccc3[nH]6)C=C5)C=C4)cc2)o1
REMARK SMILES IDX 22 1 21 2 19 3 20 4 16 6 15 7 14 8 11 9 12 10 92 11 13 12
REMARK SMILES IDX 10 13 5 14 6 15 7 16 9 17 8 18 3 19 4 20 2 21 1 22 17 23
REMARK SMILES IDX 18 24 23 25 24 26 25 27 26 28 27 29 28 31 29 32 30 33 91 34
REMARK SMILES IDX 31 35 90 36 32 37 33 38 34 39 84 40 35 41 89 42 83 43 85 44
REMARK SMILES IDX 36 45 88 46 82 47 81 48 37 50 69 51 49 52 68 53 50 54 53 55
REMARK SMILES IDX 67 56 86 57 51 58 52 59 66 61 87 62 54 63 38 64 39 65 47 66
REMARK SMILES IDX 40 67 41 68 45 69 48 70 42 71 43 72 46 73 44 74 70 75 71 76
REMARK SMILES IDX 79 77 72 78 73 79 77 80 80 81 74 82 75 83 78 84 76 85 55 86
REMARK SMILES IDX 56 87 64 88 57 89 58 90 62 91 65 92 59 93 60 94 63 95 61 96
REMARK H PARENT 21 5 26 30 85 49 53 60
REMARK Flexibility Score: inf
ROOT
ATOM      1  C   UNL A   1      36.082  21.406  25.569  1.00  0.00     0.116 C 
ENDROOT
BRANCH   1   2
ATOM      2  N   UNL A   1      35.072  20.427  25.204  1.00  0.00    -0.351 N 
ATOM      3  C   UNL A   1      33.724  20.507  25.047  1.00  0.00     0.262 C 
ATOM      4  O   UNL A   1      33.148  19.466  24.713  1.00  0.00    -0.268 OA
ATOM      5  H   UNL A   1      35.438  19.527  25.038  1.00  0.00     0.163 HD
BRANCH   3   6
ATOM      6  C   UNL A   1      32.945  21.767  25.244  1.00  0.00     0.120 C 
ATOM      7  C   UNL A   1      32.580  22.448  24.137  1.00  0.00     0.072 C 
BRANCH   7   8
ATOM      8  C   UNL A   1      31.850  23.677  24.140  1.00  0.00     0.129 A 
ATOM      9  C   UNL A   1      31.270  25.774  24.641  1.00  0.00     0.135 A 
ATOM     10  C   UNL A   1      30.290  25.298  23.804  1.00  0.00     0.051 A 
ATOM     11  O   UNL A   1      32.220  24.816  24.821  1.00  0.00    -0.457 OA
ATOM     12  C   UNL A   1      30.658  23.968  23.484  1.00  0.00     0.051 A 
BRANCH   9  13
ATOM     13  C   UNL A   1      31.478  27.026  25.357  1.00  0.00     0.032 A 
ATOM     14  C   UNL A   1      31.914  28.203  24.721  1.00  0.00     0.071 A 
ATOM     15  C   UNL A   1      32.206  29.355  25.471  1.00  0.00     0.016 A 
ATOM     16  C   UNL A   1      32.037  29.354  26.854  1.00  0.00     0.001 A 
ATOM     17  C   UNL A   1      31.296  27.053  26.750  1.00  0.00     0.013 A 
ATOM     18  C   UNL A   1      31.576  28.206  27.492  1.00  0.00     0.001 A 
BRANCH  14  19
ATOM     19  C   UNL A   1      32.105  28.303  23.260  1.00  0.00     0.338 C 
ATOM     20  O   UNL A   1      31.218  28.638  22.486  1.00  0.00    -0.246 OA
BRANCH  19  21
ATOM     21  O   UNL A   1      33.354  27.901  22.929  1.00  0.00    -0.465 OA
ATOM     22  C   UNL A   1      33.392  26.805  22.016  1.00  0.00     0.282 C 
ENDBRANCH  19  21
ENDBRANCH  14  19
ENDBRANCH   9  13
ENDBRANCH   7   8
BRANCH   6  23
ATOM     23  C   UNL A   1      32.605  22.289  26.631  1.00  0.00     0.105 C 
ATOM     24  N   UNL A   1      32.324  22.723  27.781  1.00  0.00    -0.192 NA
ENDBRANCH   6  23
ENDBRANCH   3   6
ENDBRANCH   1   2
BRANCH   1  25
ATOM     25  C   UNL A   1      37.331  21.272  24.696  1.00  0.00     0.023 C 
BRANCH  25  26
ATOM     26  C   UNL A   1      38.156  20.019  24.999  1.00  0.00     0.023 C 
BRANCH  26  27
ATOM     27  C   UNL A   1      39.337  20.249  25.934  1.00  0.00     0.116 C 
BRANCH  27  28
ATOM     28  N   UNL A   1      40.292  19.151  25.961  1.00  0.00    -0.352 N 
ATOM     29  C   UNL A   1      41.654  19.242  26.133  1.00  0.00     0.251 C 
ATOM     30  H   UNL A   1      39.923  18.245  25.846  1.00  0.00     0.163 HD
ATOM     31  O   UNL A   1      42.382  18.262  26.046  1.00  0.00    -0.269 OA
BRANCH  29  32
ATOM     32  C   UNL A   1      42.226  20.579  26.382  1.00  0.00     0.039 A 
ATOM     33  C   UNL A   1      42.552  21.392  25.295  1.00  0.00     0.014 A 
ATOM     34  C   UNL A   1      42.320  21.057  27.691  1.00  0.00     0.014 A 
ATOM     35  C   UNL A   1      42.909  22.722  25.522  1.00  0.00     0.010 A 
ATOM     36  C   UNL A   1      42.596  22.399  27.907  1.00  0.00     0.010 A 
ATOM     37  C   UNL A   1      42.895  23.245  26.825  1.00  0.00    -0.014 A 
BRANCH  37  38
ATOM     38  C   UNL A   1      43.213  24.668  27.100  1.00  0.00     0.031 A 
ATOM     39  C   UNL A   1      44.611  25.166  26.865  1.00  0.00     0.074 A 
ATOM     40  C   UNL A   1      42.281  25.480  27.636  1.00  0.00     0.049 A 
ATOM     41  N   UNL A   1      45.143  26.322  27.170  1.00  0.00    -0.248 NA
ATOM     42  C   UNL A   1      45.546  24.222  26.233  1.00  0.00     0.031 C 
ATOM     43  C   UNL A   1      40.899  25.105  27.939  1.00  0.00     0.029 A 
ATOM     44  N   UNL A   1      42.364  26.791  28.036  1.00  0.00    -0.354 N 
ATOM     45  C   UNL A   1      46.474  26.234  26.785  1.00  0.00     0.074 A 
ATOM     46  C   UNL A   1      46.685  24.894  26.284  1.00  0.00     0.031 C 
ATOM     47  C   UNL A   1      40.259  26.166  28.458  1.00  0.00     0.029 A 
ATOM     48  C   UNL A   1      41.196  27.280  28.569  1.00  0.00     0.049 A 
ATOM     49  H   UNL A   1      43.183  27.329  27.950  1.00  0.00     0.167 HD
ATOM     50  C   UNL A   1      47.427  27.194  26.820  1.00  0.00     0.037 A 
ATOM     51  C   UNL A   1      40.920  28.488  29.099  1.00  0.00     0.037 A 
ATOM     52  C   UNL A   1      47.204  28.534  27.293  1.00  0.00     0.049 A 
ATOM     53  C   UNL A   1      42.007  29.531  29.149  1.00  0.00     0.074 A 
ATOM     54  C   UNL A   1      48.093  29.592  27.337  1.00  0.00     0.029 A 
ATOM     55  N   UNL A   1      46.000  28.998  27.802  1.00  0.00    -0.354 N 
ATOM     56  N   UNL A   1      43.250  29.453  28.740  1.00  0.00    -0.248 NA
ATOM     57  C   UNL A   1      41.650  30.832  29.734  1.00  0.00     0.031 C 
ATOM     58  C   UNL A   1      47.439  30.687  27.912  1.00  0.00     0.029 A 
ATOM     59  C   UNL A   1      46.127  30.325  28.174  1.00  0.00     0.049 A 
ATOM     60  H   UNL A   1      45.178  28.462  27.886  1.00  0.00     0.167 HD
ATOM     61  C   UNL A   1      43.808  30.703  28.974  1.00  0.00     0.074 A 
ATOM     62  C   UNL A   1      42.769  31.522  29.560  1.00  0.00     0.031 C 
ATOM     63  C   UNL A   1      45.069  31.134  28.724  1.00  0.00     0.037 A 
BRANCH  50  64
ATOM     64  C   UNL A   1      48.796  26.828  26.322  1.00  0.00     0.064 A 
ATOM     65  C   UNL A   1      49.169  27.030  24.984  1.00  0.00     0.173 A 
ATOM     66  C   UNL A   1      49.754  26.295  27.196  1.00  0.00     0.173 A 
ATOM     67  F   UNL A   1      48.286  27.524  24.103  1.00  0.00    -0.203 F 
ATOM     68  C   UNL A   1      50.438  26.679  24.533  1.00  0.00     0.198 A 
ATOM     69  C   UNL A   1      51.034  25.978  26.749  1.00  0.00     0.198 A 
ATOM     70  F   UNL A   1      49.451  26.085  28.486  1.00  0.00    -0.203 F 
ATOM     71  F   UNL A   1      50.752  26.828  23.238  1.00  0.00    -0.200 F 
ATOM     72  C   UNL A   1      51.372  26.162  25.417  1.00  0.00     0.200 A 
ATOM     73  F   UNL A   1      51.940  25.489  27.608  1.00  0.00    -0.200 F 
ATOM     74  F   UNL A   1      52.596  25.832  24.983  1.00  0.00    -0.200 F 
ENDBRANCH  50  64
BRANCH  51  75
ATOM     75  C   UNL A   1      39.555  28.792  29.604  1.00  0.00     0.064 A 
ATOM     76  C   UNL A   1      38.599  29.394  28.772  1.00  0.00     0.173 A 
ATOM     77  C   UNL A   1      39.183  28.518  30.928  1.00  0.00     0.173 A 
ATOM     78  F   UNL A   1      38.913  29.696  27.503  1.00  0.00    -0.203 F 
ATOM     79  C   UNL A   1      37.336  29.735  29.252  1.00  0.00     0.198 A 
ATOM     80  C   UNL A   1      37.909  28.831  31.399  1.00  0.00     0.198 A 
ATOM     81  F   UNL A   1      40.056  27.939  31.766  1.00  0.00    -0.203 F 
ATOM     82  F   UNL A   1      36.463  30.360  28.450  1.00  0.00    -0.200 F 
ATOM     83  C   UNL A   1      36.991  29.449  30.563  1.00  0.00     0.200 A 
ATOM     84  F   UNL A   1      37.574  28.541  32.663  1.00  0.00    -0.200 F 
ATOM     85  F   UNL A   1      35.777  29.780  31.026  1.00  0.00    -0.200 F 
ENDBRANCH  51  75
BRANCH  63  86
ATOM     86  C   UNL A   1      45.381  32.573  29.015  1.00  0.00     0.064 A 
ATOM     87  C   UNL A   1      45.951  32.978  30.230  1.00  0.00     0.173 A 
ATOM     88  C   UNL A   1      45.164  33.551  28.031  1.00  0.00     0.173 A 
ATOM     89  F   UNL A   1      46.164  32.083  31.207  1.00  0.00    -0.203 F 
ATOM     90  C   UNL A   1      46.272  34.313  30.458  1.00  0.00     0.198 A 
ATOM     91  C   UNL A   1      45.516  34.879  28.251  1.00  0.00     0.198 A 
ATOM     92  F   UNL A   1      44.629  33.214  26.848  1.00  0.00    -0.203 F 
ATOM     93  F   UNL A   1      46.778  34.685  31.643  1.00  0.00    -0.200 F 
ATOM     94  C   UNL A   1      46.065  35.260  29.466  1.00  0.00     0.200 A 
ATOM     95  F   UNL A   1      45.331  35.789  27.285  1.00  0.00    -0.200 F 
ATOM     96  F   UNL A   1      46.391  36.542  29.682  1.00  0.00    -0.200 F 
ENDBRANCH  63  86
ENDBRANCH  37  38
ENDBRANCH  29  32
ENDBRANCH  27  28
ENDBRANCH  26  27
ENDBRANCH  25  26
ENDBRANCH   1  25
TORSDOF 16
ENDMDL
MODEL 3
REMARK VINA RESULT:     -12.4      0.547      7.385
REMARK SMILES COC(=O)c1ccccc1-c1ccc(/C=C(\C#N)C(=O)NCCCCNC(=O)c2ccc(-c3c4nc(c(-c5c(F)c(F)c(F)c(F)c5F)c5ccc([nH]5)c(-c5c(F)c(F)c(F)c(F)c5F)c5nc(c(-c6c(F)c(F)c(F)c(F)c6F)c6ccc3[nH]6)C=C5)C=C4)cc2)o1
REMARK SMILES IDX 22 1 21 2 19 3 20 4 16 6 15 7 14 8 11 9 12 10 92 11 13 12
REMARK SMILES IDX 10 13 5 14 6 15 7 16 9 17 8 18 3 19 4 20 2 21 1 22 17 23
REMARK SMILES IDX 18 24 23 25 24 26 25 27 26 28 27 29 28 31 29 32 30 33 91 34
REMARK SMILES IDX 31 35 90 36 32 37 33 38 34 39 84 40 35 41 89 42 83 43 85 44
REMARK SMILES IDX 36 45 88 46 82 47 81 48 37 50 69 51 49 52 68 53 50 54 53 55
REMARK SMILES IDX 67 56 86 57 51 58 52 59 66 61 87 62 54 63 38 64 39 65 47 66
REMARK SMILES IDX 40 67 41 68 45 69 48 70 42 71 43 72 46 73 44 74 70 75 71 76
REMARK SMILES IDX 79 77 72 78 73 79 77 80 80 81 74 82 75 83 78 84 76 85 55 86
REMARK SMILES IDX 56 87 64 88 57 89 58 90 62 91 65 92 59 93 60 94 63 95 61 96
REMARK H PARENT 21 5 26 30 85 49 53 60
REMARK Flexibility Score: inf
ROOT
ATOM      1  C   UNL A   1      32.382  29.700  25.503  1.00  0.00     0.116 C 
ENDROOT
BRANCH   1   2
ATOM      2  N   UNL A   1      31.257  29.728  24.584  1.00  0.00    -0.351 N 
ATOM      3  C   UNL A   1      30.812  28.852  23.644  1.00  0.00     0.262 C 
ATOM      4  O   UNL A   1      29.794  29.181  23.026  1.00  0.00    -0.268 OA
ATOM      5  H   UNL A   1      30.708  30.543  24.657  1.00  0.00     0.163 HD
BRANCH   3   6
ATOM      6  C   UNL A   1      31.479  27.547  23.353  1.00  0.00     0.120 C 
ATOM      7  C   UNL A   1      30.955  26.443  23.927  1.00  0.00     0.072 C 
BRANCH   7   8
ATOM      8  C   UNL A   1      31.473  25.120  23.773  1.00  0.00     0.129 A 
ATOM      9  C   UNL A   1      32.921  23.420  23.761  1.00  0.00     0.135 A 
ATOM     10  C   UNL A   1      31.734  22.913  23.288  1.00  0.00     0.051 A 
ATOM     11  O   UNL A   1      32.760  24.733  24.078  1.00  0.00    -0.457 OA
ATOM     12  C   UNL A   1      30.815  23.990  23.298  1.00  0.00     0.051 A 
BRANCH   9  13
ATOM     13  C   UNL A   1      34.255  22.870  23.959  1.00  0.00     0.032 A 
ATOM     14  C   UNL A   1      34.574  22.012  25.028  1.00  0.00     0.071 A 
ATOM     15  C   UNL A   1      35.899  21.596  25.241  1.00  0.00     0.016 A 
ATOM     16  C   UNL A   1      36.911  22.006  24.377  1.00  0.00     0.001 A 
ATOM     17  C   UNL A   1      35.288  23.256  23.088  1.00  0.00     0.013 A 
ATOM     18  C   UNL A   1      36.604  22.830  23.296  1.00  0.00     0.001 A 
BRANCH  14  19
ATOM     19  C   UNL A   1      33.565  21.512  25.984  1.00  0.00     0.338 C 
ATOM     20  O   UNL A   1      32.858  20.537  25.770  1.00  0.00    -0.246 OA
BRANCH  19  21
ATOM     21  O   UNL A   1      33.504  22.331  27.061  1.00  0.00    -0.465 OA
ATOM     22  C   UNL A   1      32.238  22.964  27.241  1.00  0.00     0.282 C 
ENDBRANCH  19  21
ENDBRANCH  14  19
ENDBRANCH   9  13
ENDBRANCH   7   8
BRANCH   6  23
ATOM     23  C   UNL A   1      32.719  27.459  22.478  1.00  0.00     0.105 C 
ATOM     24  N   UNL A   1      33.748  27.386  21.754  1.00  0.00    -0.192 NA
ENDBRANCH   6  23
ENDBRANCH   3   6
ENDBRANCH   1   2
BRANCH   1  25
ATOM     25  C   UNL A   1      32.005  30.284  26.865  1.00  0.00     0.023 C 
BRANCH  25  26
ATOM     26  C   UNL A   1      31.718  31.787  26.827  1.00  0.00     0.023 C 
BRANCH  26  27
ATOM     27  C   UNL A   1      32.879  32.665  27.277  1.00  0.00     0.116 C 
BRANCH  27  28
ATOM     28  N   UNL A   1      32.495  34.029  27.608  1.00  0.00    -0.352 N 
ATOM     29  C   UNL A   1      33.036  34.827  28.591  1.00  0.00     0.251 C 
ATOM     30  H   UNL A   1      31.772  34.425  27.070  1.00  0.00     0.163 HD
ATOM     31  O   UNL A   1      32.576  35.931  28.851  1.00  0.00    -0.269 OA
BRANCH  29  32
ATOM     32  C   UNL A   1      34.169  34.287  29.365  1.00  0.00     0.039 A 
ATOM     33  C   UNL A   1      33.914  33.471  30.468  1.00  0.00     0.014 A 
ATOM     34  C   UNL A   1      35.475  34.500  28.915  1.00  0.00     0.014 A 
ATOM     35  C   UNL A   1      34.974  32.805  31.084  1.00  0.00     0.010 A 
ATOM     36  C   UNL A   1      36.515  33.774  29.478  1.00  0.00     0.010 A 
ATOM     37  C   UNL A   1      36.275  32.920  30.569  1.00  0.00    -0.014 A 
BRANCH  37  38
ATOM     38  C   UNL A   1      37.419  32.184  31.161  1.00  0.00     0.031 A 
ATOM     39  C   UNL A   1      37.925  32.581  32.518  1.00  0.00     0.074 A 
ATOM     40  C   UNL A   1      38.050  31.227  30.451  1.00  0.00     0.049 A 
ATOM     41  N   UNL A   1      38.990  32.175  33.160  1.00  0.00    -0.248 NA
ATOM     42  C   UNL A   1      37.143  33.601  33.236  1.00  0.00     0.031 C 
ATOM     43  C   UNL A   1      37.673  30.774  29.112  1.00  0.00     0.029 A 
ATOM     44  N   UNL A   1      39.156  30.473  30.757  1.00  0.00    -0.354 N 
ATOM     45  C   UNL A   1      39.015  32.902  34.342  1.00  0.00     0.074 A 
ATOM     46  C   UNL A   1      37.897  33.818  34.302  1.00  0.00     0.031 C 
ATOM     47  C   UNL A   1      38.521  29.808  28.719  1.00  0.00     0.029 A 
ATOM     48  C   UNL A   1      39.527  29.607  29.757  1.00  0.00     0.049 A 
ATOM     49  H   UNL A   1      39.638  30.547  31.612  1.00  0.00     0.167 HD
ATOM     50  C   UNL A   1      39.877  32.795  35.380  1.00  0.00     0.037 A 
ATOM     51  C   UNL A   1      40.570  28.757  29.685  1.00  0.00     0.037 A 
ATOM     52  C   UNL A   1      40.971  31.862  35.426  1.00  0.00     0.049 A 
ATOM     53  C   UNL A   1      41.530  28.676  30.845  1.00  0.00     0.074 A 
ATOM     54  C   UNL A   1      41.880  31.649  36.446  1.00  0.00     0.029 A 
ATOM     55  N   UNL A   1      41.299  30.984  34.403  1.00  0.00    -0.354 N 
ATOM     56  N   UNL A   1      41.518  29.335  31.978  1.00  0.00    -0.248 NA
ATOM     57  C   UNL A   1      42.648  27.730  30.715  1.00  0.00     0.031 C 
ATOM     58  C   UNL A   1      42.786  30.670  36.024  1.00  0.00     0.029 A 
ATOM     59  C   UNL A   1      42.405  30.235  34.764  1.00  0.00     0.049 A 
ATOM     60  H   UNL A   1      40.816  30.906  33.549  1.00  0.00     0.167 HD
ATOM     61  C   UNL A   1      42.594  28.852  32.711  1.00  0.00     0.074 A 
ATOM     62  C   UNL A   1      43.237  27.844  31.897  1.00  0.00     0.031 C 
ATOM     63  C   UNL A   1      43.010  29.211  33.951  1.00  0.00     0.037 A 
BRANCH  50  64
ATOM     64  C   UNL A   1      39.661  33.705  36.555  1.00  0.00     0.064 A 
ATOM     65  C   UNL A   1      40.253  34.976  36.618  1.00  0.00     0.173 A 
ATOM     66  C   UNL A   1      38.834  33.314  37.618  1.00  0.00     0.173 A 
ATOM     67  F   UNL A   1      41.065  35.393  35.633  1.00  0.00    -0.203 F 
ATOM     68  C   UNL A   1      40.052  35.808  37.715  1.00  0.00     0.198 A 
ATOM     69  C   UNL A   1      38.607  34.163  38.698  1.00  0.00     0.198 A 
ATOM     70  F   UNL A   1      38.240  32.112  37.608  1.00  0.00    -0.203 F 
ATOM     71  F   UNL A   1      40.674  36.993  37.778  1.00  0.00    -0.200 F 
ATOM     72  C   UNL A   1      39.223  35.404  38.750  1.00  0.00     0.200 A 
ATOM     73  F   UNL A   1      37.795  33.777  39.693  1.00  0.00    -0.200 F 
ATOM     74  F   UNL A   1      39.024  36.209  39.803  1.00  0.00    -0.200 F 
ENDBRANCH  50  64
BRANCH  51  75
ATOM     75  C   UNL A   1      40.756  27.896  28.487  1.00  0.00     0.064 A 
ATOM     76  C   UNL A   1      41.519  28.338  27.397  1.00  0.00     0.173 A 
ATOM     77  C   UNL A   1      40.157  26.631  28.391  1.00  0.00     0.173 A 
ATOM     78  F   UNL A   1      42.095  29.549  27.432  1.00  0.00    -0.203 F 
ATOM     79  C   UNL A   1      41.653  27.562  26.247  1.00  0.00     0.198 A 
ATOM     80  C   UNL A   1      40.317  25.843  27.253  1.00  0.00     0.198 A 
ATOM     81  F   UNL A   1      39.420  26.158  29.407  1.00  0.00    -0.203 F 
ATOM     82  F   UNL A   1      42.343  28.035  25.199  1.00  0.00    -0.200 F 
ATOM     83  C   UNL A   1      41.056  26.314  26.178  1.00  0.00     0.200 A 
ATOM     84  F   UNL A   1      39.749  24.631  27.195  1.00  0.00    -0.200 F 
ATOM     85  F   UNL A   1      41.182  25.569  25.071  1.00  0.00    -0.200 F 
ENDBRANCH  51  75
BRANCH  63  86
ATOM     86  C   UNL A   1      44.174  28.464  34.535  1.00  0.00     0.064 A 
ATOM     87  C   UNL A   1      44.006  27.268  35.248  1.00  0.00     0.173 A 
ATOM     88  C   UNL A   1      45.483  28.924  34.320  1.00  0.00     0.173 A 
ATOM     89  F   UNL A   1      42.775  26.795  35.491  1.00  0.00    -0.203 F 
ATOM     90  C   UNL A   1      45.106  26.570  35.741  1.00  0.00     0.198 A 
ATOM     91  C   UNL A   1      46.580  28.207  34.787  1.00  0.00     0.198 A 
ATOM     92  F   UNL A   1      45.698  30.058  33.638  1.00  0.00    -0.203 F 
ATOM     93  F   UNL A   1      44.920  25.450  36.455  1.00  0.00    -0.200 F 
ATOM     94  C   UNL A   1      46.391  27.034  35.502  1.00  0.00     0.200 A 
ATOM     95  F   UNL A   1      47.821  28.648  34.540  1.00  0.00    -0.200 F 
ATOM     96  F   UNL A   1      47.448  26.352  35.964  1.00  0.00    -0.200 F 
ENDBRANCH  63  86
ENDBRANCH  37  38
ENDBRANCH  29  32
ENDBRANCH  27  28
ENDBRANCH  26  27
ENDBRANCH  25  26
ENDBRANCH   1  25
TORSDOF 16
ENDMDL
