MODEL 1
REMARK VINA RESULT:     -12.9      0.000      0.000
REMARK SMILES CCOc1cc2c(cc1OCC)[C@@H](C(=O)NCCCCNC(=O)c1ccc(-c3c4nc(c(-c5c(F)c(F)c(F)c(F)c5F)c5ccc([nH]5)c(-c5c(F)c(F)c(F)c(F)c5F)c5nc(c(-c6c(F)c(F)c(F)c(F)c6F)c6ccc3[nH]6)C=C5)C=C4)cc1)[C@H](c1ccc(F)cc1Cl)N(C)C2=O
REMARK SMILES IDX 18 1 17 2 16 3 14 4 15 5 13 7 4 8 5 9 9 10 6 11 8 12 7 13
REMARK SMILES IDX 98 14 96 15 99 16 87 17 97 18 3 19 2 20 1 21 10 22 11 23
REMARK SMILES IDX 12 24 88 25 89 26 94 27 90 28 93 29 95 30 91 31 92 32 19 33
REMARK SMILES IDX 20 34 21 35 22 36 23 38 24 39 25 40 86 41 26 42 85 43 27 44
REMARK SMILES IDX 28 45 29 46 79 47 30 48 84 49 78 50 80 51 31 52 83 53 77 54
REMARK SMILES IDX 76 55 32 57 64 58 44 59 63 60 45 61 48 62 62 63 81 64 46 65
REMARK SMILES IDX 47 66 61 68 82 69 49 70 33 71 34 72 42 73 35 74 36 75 40 76
REMARK SMILES IDX 43 77 37 78 38 79 41 80 39 81 65 82 66 83 74 84 67 85 68 86
REMARK SMILES IDX 72 87 75 88 69 89 70 90 73 91 71 92 50 93 51 94 59 95 52 96
REMARK SMILES IDX 53 97 57 98 60 99 54 100 55 101 58 102 56 103
REMARK H PARENT 16 6 21 37 80 56 48 67
REMARK Flexibility Score: inf
ROOT
ATOM      1  C   UNL A   1      32.181  27.152  26.751  1.00  0.00     0.023 C 
ENDROOT
BRANCH   1   2
ATOM      2  C   UNL A   1      31.176  26.256  26.024  1.00  0.00     0.116 C 
BRANCH   2   3
ATOM      3  N   UNL A   1      31.093  24.955  26.661  1.00  0.00    -0.355 N 
ATOM      4  C   UNL A   1      31.752  23.785  26.488  1.00  0.00     0.230 C 
ATOM      5  O   UNL A   1      31.273  22.817  27.098  1.00  0.00    -0.274 OA
ATOM      6  H   UNL A   1      30.410  24.913  27.370  1.00  0.00     0.163 HD
BRANCH   4   7
ATOM      7  C   UNL A   1      32.972  23.543  25.605  1.00  0.00     0.136 C 
ATOM      8  C   UNL A   1      33.077  24.587  21.428  1.00  0.00     0.161 A 
ATOM      9  C   UNL A   1      32.857  23.262  21.832  1.00  0.00     0.064 A 
ATOM     10  C   UNL A   1      33.243  25.594  22.387  1.00  0.00     0.161 A 
ATOM     11  C   UNL A   1      32.766  22.936  23.182  1.00  0.00     0.048 A 
ATOM     12  C   UNL A   1      33.125  25.256  23.743  1.00  0.00     0.056 A 
ATOM     13  C   UNL A   1      32.903  23.932  24.152  1.00  0.00    -0.016 A 
ATOM     14  C   UNL A   1      32.501  21.529  23.588  1.00  0.00     0.254 C 
ATOM     15  N   UNL A   1      32.847  21.179  24.894  1.00  0.00    -0.333 N 
ATOM     16  O   UNL A   1      31.954  20.772  22.792  1.00  0.00    -0.269 OA
ATOM     17  C   UNL A   1      33.579  22.110  25.751  1.00  0.00     0.134 C 
ATOM     18  C   UNL A   1      32.588  19.834  25.393  1.00  0.00     0.147 C 
BRANCH   8  19
ATOM     19  O   UNL A   1      33.235  24.815  20.089  1.00  0.00    -0.490 OA
BRANCH  19  20
ATOM     20  C   UNL A   1      32.251  25.711  19.556  1.00  0.00     0.226 C 
ATOM     21  C   UNL A   1      31.745  25.247  18.201  1.00  0.00     0.049 C 
ENDBRANCH  19  20
ENDBRANCH   8  19
BRANCH  10  22
ATOM     22  O   UNL A   1      33.544  26.917  22.217  1.00  0.00    -0.490 OA
BRANCH  22  23
ATOM     23  C   UNL A   1      33.181  27.887  23.192  1.00  0.00     0.226 C 
ATOM     24  C   UNL A   1      31.927  28.650  22.804  1.00  0.00     0.049 C 
ENDBRANCH  22  23
ENDBRANCH  10  22
BRANCH  17  25
ATOM     25  C   UNL A   1      35.119  22.133  25.542  1.00  0.00    -0.005 A 
ATOM     26  C   UNL A   1      35.689  20.906  25.108  1.00  0.00     0.010 A 
ATOM     27  C   UNL A   1      36.023  23.197  25.776  1.00  0.00     0.049 A 
ATOM     28  C   UNL A   1      37.071  20.716  25.027  1.00  0.00     0.040 A 
ATOM     29  C   UNL A   1      37.408  22.998  25.687  1.00  0.00     0.060 A 
ATOM     30  Cl  UNL A   1      35.605  24.831  26.150  1.00  0.00    -0.084 Cl
ATOM     31  C   UNL A   1      37.919  21.761  25.337  1.00  0.00     0.124 A 
ATOM     32  F   UNL A   1      39.243  21.583  25.284  1.00  0.00    -0.207 F 
ENDBRANCH  17  25
ENDBRANCH   4   7
ENDBRANCH   2   3
ENDBRANCH   1   2
BRANCH   1  33
ATOM     33  C   UNL A   1      31.776  28.612  26.889  1.00  0.00     0.023 C 
BRANCH  33  34
ATOM     34  C   UNL A   1      32.783  29.596  26.317  1.00  0.00     0.116 C 
BRANCH  34  35
ATOM     35  N   UNL A   1      32.522  30.994  26.632  1.00  0.00    -0.352 N 
ATOM     36  C   UNL A   1      33.333  31.864  27.332  1.00  0.00     0.251 C 
ATOM     37  H   UNL A   1      31.668  31.360  26.308  1.00  0.00     0.163 HD
ATOM     38  O   UNL A   1      32.981  33.006  27.581  1.00  0.00    -0.269 OA
BRANCH  36  39
ATOM     39  C   UNL A   1      34.636  31.367  27.832  1.00  0.00     0.039 A 
ATOM     40  C   UNL A   1      35.697  32.264  27.966  1.00  0.00     0.014 A 
ATOM     41  C   UNL A   1      34.778  30.040  28.242  1.00  0.00     0.014 A 
ATOM     42  C   UNL A   1      36.876  31.847  28.588  1.00  0.00     0.010 A 
ATOM     43  C   UNL A   1      35.906  29.658  28.956  1.00  0.00     0.010 A 
ATOM     44  C   UNL A   1      36.972  30.552  29.124  1.00  0.00    -0.014 A 
BRANCH  44  45
ATOM     45  C   UNL A   1      38.195  30.097  29.833  1.00  0.00     0.031 A 
ATOM     46  C   UNL A   1      38.459  30.564  31.239  1.00  0.00     0.074 A 
ATOM     47  C   UNL A   1      39.098  29.324  29.196  1.00  0.00     0.049 A 
ATOM     48  N   UNL A   1      39.492  30.336  32.010  1.00  0.00    -0.248 NA
ATOM     49  C   UNL A   1      37.446  31.445  31.843  1.00  0.00     0.031 C 
ATOM     50  C   UNL A   1      38.997  28.868  27.808  1.00  0.00     0.029 A 
ATOM     51  N   UNL A   1      40.282  28.790  29.635  1.00  0.00    -0.354 N 
ATOM     52  C   UNL A   1      39.263  31.065  33.169  1.00  0.00     0.074 A 
ATOM     53  C   UNL A   1      38.033  31.797  32.976  1.00  0.00     0.031 C 
ATOM     54  C   UNL A   1      40.056  28.093  27.523  1.00  0.00     0.029 A 
ATOM     55  C   UNL A   1      40.921  28.017  28.696  1.00  0.00     0.049 A 
ATOM     56  H   UNL A   1      40.642  28.946  30.538  1.00  0.00     0.167 HD
ATOM     57  C   UNL A   1      39.992  31.092  34.311  1.00  0.00     0.037 A 
ATOM     58  C   UNL A   1      42.067  27.315  28.782  1.00  0.00     0.037 A 
ATOM     59  C   UNL A   1      41.186  30.320  34.521  1.00  0.00     0.049 A 
ATOM     60  C   UNL A   1      42.824  27.308  30.083  1.00  0.00     0.074 A 
ATOM     61  C   UNL A   1      41.966  30.224  35.659  1.00  0.00     0.029 A 
ATOM     62  N   UNL A   1      41.765  29.494  33.568  1.00  0.00    -0.354 N 
ATOM     63  N   UNL A   1      42.560  27.943  31.198  1.00  0.00    -0.248 NA
ATOM     64  C   UNL A   1      44.031  26.471  30.140  1.00  0.00     0.031 C 
ATOM     65  C   UNL A   1      43.032  29.360  35.387  1.00  0.00     0.029 A 
ATOM     66  C   UNL A   1      42.892  28.886  34.092  1.00  0.00     0.049 A 
ATOM     67  H   UNL A   1      41.423  29.361  32.654  1.00  0.00     0.167 HD
ATOM     68  C   UNL A   1      43.544  27.557  32.099  1.00  0.00     0.074 A 
ATOM     69  C   UNL A   1      44.402  26.622  31.403  1.00  0.00     0.031 C 
ATOM     70  C   UNL A   1      43.720  27.942  33.387  1.00  0.00     0.037 A 
BRANCH  57  71
ATOM     71  C   UNL A   1      39.498  31.974  35.421  1.00  0.00     0.064 A 
ATOM     72  C   UNL A   1      39.917  33.308  35.539  1.00  0.00     0.173 A 
ATOM     73  C   UNL A   1      38.593  31.483  36.373  1.00  0.00     0.173 A 
ATOM     74  F   UNL A   1      40.795  33.821  34.664  1.00  0.00    -0.203 F 
ATOM     75  C   UNL A   1      39.478  34.106  36.592  1.00  0.00     0.198 A 
ATOM     76  C   UNL A   1      38.130  32.295  37.406  1.00  0.00     0.198 A 
ATOM     77  F   UNL A   1      38.158  30.216  36.304  1.00  0.00    -0.203 F 
ATOM     78  F   UNL A   1      39.941  35.358  36.720  1.00  0.00    -0.200 F 
ATOM     79  C   UNL A   1      38.581  33.602  37.521  1.00  0.00     0.200 A 
ATOM     80  F   UNL A   1      37.255  31.810  38.297  1.00  0.00    -0.200 F 
ATOM     81  F   UNL A   1      38.158  34.372  38.533  1.00  0.00    -0.200 F 
ENDBRANCH  57  71
BRANCH  58  82
ATOM     82  C   UNL A   1      42.534  26.507  27.626  1.00  0.00     0.064 A 
ATOM     83  C   UNL A   1      42.013  25.226  27.391  1.00  0.00     0.173 A 
ATOM     84  C   UNL A   1      43.512  26.987  26.743  1.00  0.00     0.173 A 
ATOM     85  F   UNL A   1      41.090  24.717  28.220  1.00  0.00    -0.203 F 
ATOM     86  C   UNL A   1      42.470  24.446  26.331  1.00  0.00     0.198 A 
ATOM     87  C   UNL A   1      43.949  26.215  25.668  1.00  0.00     0.198 A 
ATOM     88  F   UNL A   1      44.037  28.208  26.920  1.00  0.00    -0.203 F 
ATOM     89  F   UNL A   1      41.989  23.207  26.158  1.00  0.00    -0.200 F 
ATOM     90  C   UNL A   1      43.435  24.942  25.468  1.00  0.00     0.200 A 
ATOM     91  F   UNL A   1      44.873  26.701  24.828  1.00  0.00    -0.200 F 
ATOM     92  F   UNL A   1      43.874  24.191  24.449  1.00  0.00    -0.200 F 
ENDBRANCH  58  82
BRANCH  70  93
ATOM     93  C   UNL A   1      44.857  27.315  34.138  1.00  0.00     0.064 A 
ATOM     94  C   UNL A   1      46.128  27.904  34.179  1.00  0.00     0.173 A 
ATOM     95  C   UNL A   1      44.659  26.124  34.852  1.00  0.00     0.173 A 
ATOM     96  F   UNL A   1      46.370  29.037  33.501  1.00  0.00    -0.203 F 
ATOM     97  C   UNL A   1      47.171  27.306  34.881  1.00  0.00     0.198 A 
ATOM     98  C   UNL A   1      45.695  25.544  35.577  1.00  0.00     0.198 A 
ATOM     99  F   UNL A   1      43.458  25.526  34.851  1.00  0.00    -0.203 F 
ATOM    100  F   UNL A   1      48.391  27.858  34.864  1.00  0.00    -0.200 F 
ATOM    101  C   UNL A   1      46.952  26.129  35.584  1.00  0.00     0.200 A 
ATOM    102  F   UNL A   1      45.479  24.414  36.266  1.00  0.00    -0.200 F 
ATOM    103  F   UNL A   1      47.956  25.557  36.262  1.00  0.00    -0.200 F 
ENDBRANCH  70  93
ENDBRANCH  44  45
ENDBRANCH  36  39
ENDBRANCH  34  35
ENDBRANCH  33  34
ENDBRANCH   1  33
TORSDOF 16
ENDMDL
MODEL 2
REMARK VINA RESULT:     -12.7      4.156      9.613
REMARK SMILES CCOc1cc2c(cc1OCC)[C@@H](C(=O)NCCCCNC(=O)c1ccc(-c3c4nc(c(-c5c(F)c(F)c(F)c(F)c5F)c5ccc([nH]5)c(-c5c(F)c(F)c(F)c(F)c5F)c5nc(c(-c6c(F)c(F)c(F)c(F)c6F)c6ccc3[nH]6)C=C5)C=C4)cc1)[C@H](c1ccc(F)cc1Cl)N(C)C2=O
REMARK SMILES IDX 18 1 17 2 16 3 14 4 15 5 13 7 4 8 5 9 9 10 6 11 8 12 7 13
REMARK SMILES IDX 98 14 96 15 99 16 87 17 97 18 3 19 2 20 1 21 10 22 11 23
REMARK SMILES IDX 12 24 88 25 89 26 94 27 90 28 93 29 95 30 91 31 92 32 19 33
REMARK SMILES IDX 20 34 21 35 22 36 23 38 24 39 25 40 86 41 26 42 85 43 27 44
REMARK SMILES IDX 28 45 29 46 79 47 30 48 84 49 78 50 80 51 31 52 83 53 77 54
REMARK SMILES IDX 76 55 32 57 64 58 44 59 63 60 45 61 48 62 62 63 81 64 46 65
REMARK SMILES IDX 47 66 61 68 82 69 49 70 33 71 34 72 42 73 35 74 36 75 40 76
REMARK SMILES IDX 43 77 37 78 38 79 41 80 39 81 65 82 66 83 74 84 67 85 68 86
REMARK SMILES IDX 72 87 75 88 69 89 70 90 73 91 71 92 50 93 51 94 59 95 52 96
REMARK SMILES IDX 53 97 57 98 60 99 54 100 55 101 58 102 56 103
REMARK H PARENT 16 6 21 37 80 56 48 67
REMARK Flexibility Score: inf
ROOT
ATOM      1  C   UNL A   1      35.733  23.469  23.774  1.00  0.00     0.023 C 
ENDROOT
BRANCH   1   2
ATOM      2  C   UNL A   1      34.317  23.478  23.194  1.00  0.00     0.116 C 
BRANCH   2   3
ATOM      3  N   UNL A   1      34.141  24.595  22.285  1.00  0.00    -0.355 N 
ATOM      4  C   UNL A   1      33.576  25.820  22.407  1.00  0.00     0.230 C 
ATOM      5  O   UNL A   1      33.443  26.445  21.343  1.00  0.00    -0.274 OA
ATOM      6  H   UNL A   1      34.509  24.427  21.387  1.00  0.00     0.163 HD
BRANCH   4   7
ATOM      7  C   UNL A   1      33.066  26.470  23.689  1.00  0.00     0.136 C 
ATOM      8  C   UNL A   1      30.388  24.479  26.411  1.00  0.00     0.161 A 
ATOM      9  C   UNL A   1      29.909  25.432  25.501  1.00  0.00     0.064 A 
ATOM     10  C   UNL A   1      31.749  24.147  26.429  1.00  0.00     0.161 A 
ATOM     11  C   UNL A   1      30.767  26.032  24.583  1.00  0.00     0.048 A 
ATOM     12  C   UNL A   1      32.597  24.742  25.482  1.00  0.00     0.056 A 
ATOM     13  C   UNL A   1      32.121  25.694  24.568  1.00  0.00    -0.016 A 
ATOM     14  C   UNL A   1      30.231  27.017  23.604  1.00  0.00     0.254 C 
ATOM     15  N   UNL A   1      31.154  27.889  23.026  1.00  0.00    -0.333 N 
ATOM     16  O   UNL A   1      29.039  26.984  23.317  1.00  0.00    -0.269 OA
ATOM     17  C   UNL A   1      32.541  27.928  23.488  1.00  0.00     0.134 C 
ATOM     18  C   UNL A   1      30.728  28.862  22.027  1.00  0.00     0.147 C 
BRANCH   8  19
ATOM     19  O   UNL A   1      29.503  23.995  27.334  1.00  0.00    -0.490 OA
BRANCH  19  20
ATOM     20  C   UNL A   1      29.394  22.566  27.306  1.00  0.00     0.226 C 
ATOM     21  C   UNL A   1      27.975  22.106  27.593  1.00  0.00     0.049 C 
ENDBRANCH  19  20
ENDBRANCH   8  19
BRANCH  10  22
ATOM     22  O   UNL A   1      32.433  23.319  27.274  1.00  0.00    -0.490 OA
BRANCH  22  23
ATOM     23  C   UNL A   1      33.766  22.913  26.990  1.00  0.00     0.226 C 
ATOM     24  C   UNL A   1      33.972  21.425  27.214  1.00  0.00     0.049 C 
ENDBRANCH  22  23
ENDBRANCH  10  22
BRANCH  17  25
ATOM     25  C   UNL A   1      32.793  28.791  24.756  1.00  0.00    -0.005 A 
ATOM     26  C   UNL A   1      34.009  28.522  25.439  1.00  0.00     0.010 A 
ATOM     27  C   UNL A   1      31.948  29.765  25.339  1.00  0.00     0.049 A 
ATOM     28  C   UNL A   1      34.309  29.095  26.678  1.00  0.00     0.040 A 
ATOM     29  C   UNL A   1      32.260  30.339  26.581  1.00  0.00     0.060 A 
ATOM     30  Cl  UNL A   1      30.498  30.406  24.652  1.00  0.00    -0.084 Cl
ATOM     31  C   UNL A   1      33.419  29.985  27.246  1.00  0.00     0.124 A 
ATOM     32  F   UNL A   1      33.687  30.523  28.441  1.00  0.00    -0.207 F 
ENDBRANCH  17  25
ENDBRANCH   4   7
ENDBRANCH   2   3
ENDBRANCH   1   2
BRANCH   1  33
ATOM     33  C   UNL A   1      36.257  22.106  24.199  1.00  0.00     0.023 C 
BRANCH  33  34
ATOM     34  C   UNL A   1      37.040  22.117  25.502  1.00  0.00     0.116 C 
BRANCH  34  35
ATOM     35  N   UNL A   1      38.041  21.066  25.625  1.00  0.00    -0.352 N 
ATOM     36  C   UNL A   1      39.317  21.176  26.141  1.00  0.00     0.251 C 
ATOM     37  H   UNL A   1      37.777  20.174  25.302  1.00  0.00     0.163 HD
ATOM     38  O   UNL A   1      40.089  20.231  26.143  1.00  0.00    -0.269 OA
BRANCH  36  39
ATOM     39  C   UNL A   1      39.760  22.494  26.652  1.00  0.00     0.039 A 
ATOM     40  C   UNL A   1      40.772  22.542  27.613  1.00  0.00     0.014 A 
ATOM     41  C   UNL A   1      39.235  23.673  26.120  1.00  0.00     0.014 A 
ATOM     42  C   UNL A   1      41.312  23.776  27.980  1.00  0.00     0.010 A 
ATOM     43  C   UNL A   1      39.846  24.887  26.404  1.00  0.00     0.010 A 
ATOM     44  C   UNL A   1      40.881  24.954  27.348  1.00  0.00    -0.014 A 
BRANCH  44  45
ATOM     45  C   UNL A   1      41.471  26.274  27.684  1.00  0.00     0.031 A 
ATOM     46  C   UNL A   1      42.867  26.604  27.228  1.00  0.00     0.074 A 
ATOM     47  C   UNL A   1      40.786  27.145  28.451  1.00  0.00     0.049 A 
ATOM     48  N   UNL A   1      43.588  27.670  27.467  1.00  0.00    -0.248 NA
ATOM     49  C   UNL A   1      43.563  25.577  26.436  1.00  0.00     0.031 C 
ATOM     50  C   UNL A   1      39.457  26.914  29.021  1.00  0.00     0.029 A 
ATOM     51  N   UNL A   1      41.119  28.403  28.887  1.00  0.00    -0.354 N 
ATOM     52  C   UNL A   1      44.823  27.427  26.880  1.00  0.00     0.074 A 
ATOM     53  C   UNL A   1      44.780  26.088  26.336  1.00  0.00     0.031 C 
ATOM     54  C   UNL A   1      39.073  28.007  29.700  1.00  0.00     0.029 A 
ATOM     55  C   UNL A   1      40.136  29.005  29.634  1.00  0.00     0.049 A 
ATOM     56  H   UNL A   1      41.981  28.833  28.686  1.00  0.00     0.167 HD
ATOM     57  C   UNL A   1      45.887  28.257  26.769  1.00  0.00     0.037 A 
ATOM     58  C   UNL A   1      40.095  30.233  30.188  1.00  0.00     0.037 A 
ATOM     59  C   UNL A   1      45.908  29.608  27.262  1.00  0.00     0.049 A 
ATOM     60  C   UNL A   1      41.262  31.162  29.993  1.00  0.00     0.074 A 
ATOM     61  C   UNL A   1      46.908  30.556  27.147  1.00  0.00     0.029 A 
ATOM     62  N   UNL A   1      44.865  30.206  27.954  1.00  0.00    -0.354 N 
ATOM     63  N   UNL A   1      42.398  30.948  29.374  1.00  0.00    -0.248 NA
ATOM     64  C   UNL A   1      41.135  32.511  30.562  1.00  0.00     0.031 C 
ATOM     65  C   UNL A   1      46.481  31.721  27.792  1.00  0.00     0.029 A 
ATOM     66  C   UNL A   1      45.198  31.511  28.273  1.00  0.00     0.049 A 
ATOM     67  H   UNL A   1      44.014  29.768  28.184  1.00  0.00     0.167 HD
ATOM     68  C   UNL A   1      43.103  32.141  29.446  1.00  0.00     0.074 A 
ATOM     69  C   UNL A   1      42.262  33.080  30.159  1.00  0.00     0.031 C 
ATOM     70  C   UNL A   1      44.337  32.434  28.966  1.00  0.00     0.037 A 
BRANCH  57  71
ATOM     71  C   UNL A   1      47.104  27.727  26.068  1.00  0.00     0.064 A 
ATOM     72  C   UNL A   1      48.194  27.207  26.783  1.00  0.00     0.173 A 
ATOM     73  C   UNL A   1      47.179  27.730  24.667  1.00  0.00     0.173 A 
ATOM     74  F   UNL A   1      48.179  27.197  28.125  1.00  0.00    -0.203 F 
ATOM     75  C   UNL A   1      49.331  26.748  26.123  1.00  0.00     0.198 A 
ATOM     76  C   UNL A   1      48.305  27.239  24.010  1.00  0.00     0.198 A 
ATOM     77  F   UNL A   1      46.163  28.212  23.936  1.00  0.00    -0.203 F 
ATOM     78  F   UNL A   1      50.385  26.317  26.830  1.00  0.00    -0.200 F 
ATOM     79  C   UNL A   1      49.383  26.759  24.738  1.00  0.00     0.200 A 
ATOM     80  F   UNL A   1      48.350  27.241  22.671  1.00  0.00    -0.200 F 
ATOM     81  F   UNL A   1      50.478  26.316  24.104  1.00  0.00    -0.200 F 
ENDBRANCH  57  71
BRANCH  58  82
ATOM     82  C   UNL A   1      38.882  30.679  30.922  1.00  0.00     0.064 A 
ATOM     83  C   UNL A   1      38.810  30.567  32.318  1.00  0.00     0.173 A 
ATOM     84  C   UNL A   1      37.772  31.211  30.251  1.00  0.00     0.173 A 
ATOM     85  F   UNL A   1      39.840  30.046  33.002  1.00  0.00    -0.203 F 
ATOM     86  C   UNL A   1      37.665  30.949  33.013  1.00  0.00     0.198 A 
ATOM     87  C   UNL A   1      36.637  31.616  30.951  1.00  0.00     0.198 A 
ATOM     88  F   UNL A   1      37.794  31.345  28.917  1.00  0.00    -0.203 F 
ATOM     89  F   UNL A   1      37.606  30.787  34.343  1.00  0.00    -0.200 F 
ATOM     90  C   UNL A   1      36.580  31.477  32.330  1.00  0.00     0.200 A 
ATOM     91  F   UNL A   1      35.595  32.137  30.289  1.00  0.00    -0.200 F 
ATOM     92  F   UNL A   1      35.478  31.842  32.999  1.00  0.00    -0.200 F 
ENDBRANCH  58  82
BRANCH  70  93
ATOM     93  C   UNL A   1      44.828  33.839  29.154  1.00  0.00     0.064 A 
ATOM     94  C   UNL A   1      45.585  34.212  30.273  1.00  0.00     0.173 A 
ATOM     95  C   UNL A   1      44.561  34.816  28.183  1.00  0.00     0.173 A 
ATOM     96  F   UNL A   1      45.854  33.316  31.235  1.00  0.00    -0.203 F 
ATOM     97  C   UNL A   1      46.031  35.521  30.430  1.00  0.00     0.198 A 
ATOM     98  C   UNL A   1      45.033  36.117  28.329  1.00  0.00     0.198 A 
ATOM     99  F   UNL A   1      43.848  34.507  27.090  1.00  0.00    -0.203 F 
ATOM    100  F   UNL A   1      46.709  35.868  31.532  1.00  0.00    -0.200 F 
ATOM    101  C   UNL A   1      45.759  36.471  29.455  1.00  0.00     0.200 A 
ATOM    102  F   UNL A   1      44.781  37.030  27.381  1.00  0.00    -0.200 F 
ATOM    103  F   UNL A   1      46.192  37.730  29.607  1.00  0.00    -0.200 F 
ENDBRANCH  70  93
ENDBRANCH  44  45
ENDBRANCH  36  39
ENDBRANCH  34  35
ENDBRANCH  33  34
ENDBRANCH   1  33
TORSDOF 16
ENDMDL
MODEL 3
REMARK VINA RESULT:     -12.6      3.901      8.876
REMARK SMILES CCOc1cc2c(cc1OCC)[C@@H](C(=O)NCCCCNC(=O)c1ccc(-c3c4nc(c(-c5c(F)c(F)c(F)c(F)c5F)c5ccc([nH]5)c(-c5c(F)c(F)c(F)c(F)c5F)c5nc(c(-c6c(F)c(F)c(F)c(F)c6F)c6ccc3[nH]6)C=C5)C=C4)cc1)[C@H](c1ccc(F)cc1Cl)N(C)C2=O
REMARK SMILES IDX 18 1 17 2 16 3 14 4 15 5 13 7 4 8 5 9 9 10 6 11 8 12 7 13
REMARK SMILES IDX 98 14 96 15 99 16 87 17 97 18 3 19 2 20 1 21 10 22 11 23
REMARK SMILES IDX 12 24 88 25 89 26 94 27 90 28 93 29 95 30 91 31 92 32 19 33
REMARK SMILES IDX 20 34 21 35 22 36 23 38 24 39 25 40 86 41 26 42 85 43 27 44
REMARK SMILES IDX 28 45 29 46 79 47 30 48 84 49 78 50 80 51 31 52 83 53 77 54
REMARK SMILES IDX 76 55 32 57 64 58 44 59 63 60 45 61 48 62 62 63 81 64 46 65
REMARK SMILES IDX 47 66 61 68 82 69 49 70 33 71 34 72 42 73 35 74 36 75 40 76
REMARK SMILES IDX 43 77 37 78 38 79 41 80 39 81 65 82 66 83 74 84 67 85 68 86
REMARK SMILES IDX 72 87 75 88 69 89 70 90 73 91 71 92 50 93 51 94 59 95 52 96
REMARK SMILES IDX 53 97 57 98 60 99 54 100 55 101 58 102 56 103
REMARK H PARENT 16 6 21 37 80 56 48 67
REMARK Flexibility Score: inf
ROOT
ATOM      1  C   UNL A   1      35.152  24.034  23.594  1.00  0.00     0.023 C 
ENDROOT
BRANCH   1   2
ATOM      2  C   UNL A   1      33.976  23.475  22.791  1.00  0.00     0.116 C 
BRANCH   2   3
ATOM      3  N   UNL A   1      33.374  24.510  21.972  1.00  0.00    -0.355 N 
ATOM      4  C   UNL A   1      32.630  25.607  22.249  1.00  0.00     0.230 C 
ATOM      5  O   UNL A   1      32.126  26.163  21.260  1.00  0.00    -0.274 OA
ATOM      6  H   UNL A   1      33.540  24.388  21.009  1.00  0.00     0.163 HD
BRANCH   4   7
ATOM      7  C   UNL A   1      32.330  26.187  23.627  1.00  0.00     0.136 C 
ATOM      8  C   UNL A   1      30.007  24.090  26.585  1.00  0.00     0.161 A 
ATOM      9  C   UNL A   1      29.433  25.109  25.812  1.00  0.00     0.064 A 
ATOM     10  C   UNL A   1      31.345  23.727  26.386  1.00  0.00     0.161 A 
ATOM     11  C   UNL A   1      30.169  25.746  24.817  1.00  0.00     0.048 A 
ATOM     12  C   UNL A   1      32.067  24.360  25.364  1.00  0.00     0.056 A 
ATOM     13  C   UNL A   1      31.496  25.379  24.586  1.00  0.00    -0.016 A 
ATOM     14  C   UNL A   1      29.531  26.803  23.986  1.00  0.00     0.254 C 
ATOM     15  N   UNL A   1      30.389  27.688  23.333  1.00  0.00    -0.333 N 
ATOM     16  O   UNL A   1      28.309  26.815  23.873  1.00  0.00    -0.269 OA
ATOM     17  C   UNL A   1      31.828  27.666  23.591  1.00  0.00     0.134 C 
ATOM     18  C   UNL A   1      29.856  28.732  22.465  1.00  0.00     0.147 C 
BRANCH   8  19
ATOM     19  O   UNL A   1      29.248  23.569  27.597  1.00  0.00    -0.490 OA
BRANCH  19  20
ATOM     20  C   UNL A   1      29.052  22.154  27.474  1.00  0.00     0.226 C 
ATOM     21  C   UNL A   1      27.584  21.779  27.584  1.00  0.00     0.049 C 
ENDBRANCH  19  20
ENDBRANCH   8  19
BRANCH  10  22
ATOM     22  O   UNL A   1      32.116  22.831  27.073  1.00  0.00    -0.490 OA
BRANCH  22  23
ATOM     23  C   UNL A   1      32.914  21.870  26.393  1.00  0.00     0.226 C 
ATOM     24  C   UNL A   1      34.297  21.735  27.006  1.00  0.00     0.049 C 
ENDBRANCH  22  23
ENDBRANCH  10  22
BRANCH  17  25
ATOM     25  C   UNL A   1      32.286  28.441  24.857  1.00  0.00    -0.005 A 
ATOM     26  C   UNL A   1      31.510  29.587  25.180  1.00  0.00     0.010 A 
ATOM     27  C   UNL A   1      33.398  28.182  25.694  1.00  0.00     0.049 A 
ATOM     28  C   UNL A   1      31.882  30.478  26.189  1.00  0.00     0.040 A 
ATOM     29  C   UNL A   1      33.762  29.080  26.708  1.00  0.00     0.060 A 
ATOM     30  Cl  UNL A   1      34.415  26.786  25.640  1.00  0.00    -0.084 Cl
ATOM     31  C   UNL A   1      33.019  30.224  26.931  1.00  0.00     0.124 A 
ATOM     32  F   UNL A   1      33.397  31.083  27.886  1.00  0.00    -0.207 F 
ENDBRANCH  17  25
ENDBRANCH   4   7
ENDBRANCH   2   3
ENDBRANCH   1   2
BRANCH   1  33
ATOM     33  C   UNL A   1      36.209  23.019  24.000  1.00  0.00     0.023 C 
BRANCH  33  34
ATOM     34  C   UNL A   1      37.165  23.509  25.075  1.00  0.00     0.116 C 
BRANCH  34  35
ATOM     35  N   UNL A   1      38.216  22.568  25.437  1.00  0.00    -0.352 N 
ATOM     36  C   UNL A   1      39.335  22.813  26.207  1.00  0.00     0.251 C 
ATOM     37  H   UNL A   1      38.116  21.651  25.093  1.00  0.00     0.163 HD
ATOM     38  O   UNL A   1      40.179  21.952  26.400  1.00  0.00    -0.269 OA
BRANCH  36  39
ATOM     39  C   UNL A   1      39.528  24.173  26.761  1.00  0.00     0.039 A 
ATOM     40  C   UNL A   1      39.139  24.430  28.076  1.00  0.00     0.014 A 
ATOM     41  C   UNL A   1      40.167  25.160  26.007  1.00  0.00     0.014 A 
ATOM     42  C   UNL A   1      39.464  25.655  28.662  1.00  0.00     0.010 A 
ATOM     43  C   UNL A   1      40.584  26.332  26.623  1.00  0.00     0.010 A 
ATOM     44  C   UNL A   1      40.226  26.599  27.952  1.00  0.00    -0.014 A 
BRANCH  44  45
ATOM     45  C   UNL A   1      40.627  27.890  28.567  1.00  0.00     0.031 A 
ATOM     46  C   UNL A   1      42.061  28.113  28.963  1.00  0.00     0.074 A 
ATOM     47  C   UNL A   1      39.698  28.830  28.830  1.00  0.00     0.049 A 
ATOM     48  N   UNL A   1      42.607  29.138  29.567  1.00  0.00    -0.248 NA
ATOM     49  C   UNL A   1      43.001  27.015  28.684  1.00  0.00     0.031 C 
ATOM     50  C   UNL A   1      38.263  28.705  28.567  1.00  0.00     0.029 A 
ATOM     51  N   UNL A   1      39.825  30.079  29.385  1.00  0.00    -0.354 N 
ATOM     52  C   UNL A   1      43.938  28.794  29.762  1.00  0.00     0.074 A 
ATOM     53  C   UNL A   1      44.104  27.443  29.278  1.00  0.00     0.031 C 
ATOM     54  C   UNL A   1      37.650  29.845  28.925  1.00  0.00     0.029 A 
ATOM     55  C   UNL A   1      38.641  30.770  29.464  1.00  0.00     0.049 A 
ATOM     56  H   UNL A   1      40.684  30.445  29.697  1.00  0.00     0.167 HD
ATOM     57  C   UNL A   1      44.943  29.551  30.263  1.00  0.00     0.037 A 
ATOM     58  C   UNL A   1      38.391  32.017  29.909  1.00  0.00     0.037 A 
ATOM     59  C   UNL A   1      44.787  30.914  30.692  1.00  0.00     0.049 A 
ATOM     60  C   UNL A   1      39.536  32.861  30.399  1.00  0.00     0.074 A 
ATOM     61  C   UNL A   1      45.751  31.791  31.156  1.00  0.00     0.029 A 
ATOM     62  N   UNL A   1      43.583  31.603  30.694  1.00  0.00    -0.354 N 
ATOM     63  N   UNL A   1      40.805  32.552  30.512  1.00  0.00    -0.248 NA
ATOM     64  C   UNL A   1      39.215  34.236  30.809  1.00  0.00     0.031 C 
ATOM     65  C   UNL A   1      45.125  33.004  31.463  1.00  0.00     0.029 A 
ATOM     66  C   UNL A   1      43.779  32.894  31.151  1.00  0.00     0.049 A 
ATOM     67  H   UNL A   1      42.717  31.228  30.411  1.00  0.00     0.167 HD
ATOM     68  C   UNL A   1      41.438  33.700  30.970  1.00  0.00     0.074 A 
ATOM     69  C   UNL A   1      40.415  34.716  31.102  1.00  0.00     0.031 C 
ATOM     70  C   UNL A   1      42.749  33.895  31.255  1.00  0.00     0.037 A 
BRANCH  57  71
ATOM     71  C   UNL A   1      46.301  28.918  30.351  1.00  0.00     0.064 A 
ATOM     72  C   UNL A   1      46.725  28.247  31.509  1.00  0.00     0.173 A 
ATOM     73  C   UNL A   1      47.188  28.975  29.265  1.00  0.00     0.173 A 
ATOM     74  F   UNL A   1      45.921  28.178  32.582  1.00  0.00    -0.203 F 
ATOM     75  C   UNL A   1      47.999  27.693  31.591  1.00  0.00     0.198 A 
ATOM     76  C   UNL A   1      48.450  28.390  29.339  1.00  0.00     0.198 A 
ATOM     77  F   UNL A   1      46.832  29.601  28.133  1.00  0.00    -0.203 F 
ATOM     78  F   UNL A   1      48.403  27.113  32.731  1.00  0.00    -0.200 F 
ATOM     79  C   UNL A   1      48.858  27.759  30.505  1.00  0.00     0.200 A 
ATOM     80  F   UNL A   1      49.275  28.446  28.286  1.00  0.00    -0.200 F 
ATOM     81  F   UNL A   1      50.084  27.224  30.585  1.00  0.00    -0.200 F 
ENDBRANCH  57  71
BRANCH  58  82
ATOM     82  C   UNL A   1      37.012  32.566  29.850  1.00  0.00     0.064 A 
ATOM     83  C   UNL A   1      36.560  33.245  28.709  1.00  0.00     0.173 A 
ATOM     84  C   UNL A   1      36.124  32.438  30.927  1.00  0.00     0.173 A 
ATOM     85  F   UNL A   1      37.380  33.409  27.660  1.00  0.00    -0.203 F 
ATOM     86  C   UNL A   1      35.282  33.795  28.656  1.00  0.00     0.198 A 
ATOM     87  C   UNL A   1      34.836  32.967  30.863  1.00  0.00     0.198 A 
ATOM     88  F   UNL A   1      36.505  31.792  32.039  1.00  0.00    -0.203 F 
ATOM     89  F   UNL A   1      34.893  34.479  27.571  1.00  0.00    -0.200 F 
ATOM     90  C   UNL A   1      34.419  33.652  29.732  1.00  0.00     0.200 A 
ATOM     91  F   UNL A   1      34.000  32.817  31.900  1.00  0.00    -0.200 F 
ATOM     92  F   UNL A   1      33.189  34.183  29.681  1.00  0.00    -0.200 F 
ENDBRANCH  58  82
BRANCH  70  93
ATOM     93  C   UNL A   1      43.156  35.271  31.691  1.00  0.00     0.064 A 
ATOM     94  C   UNL A   1      43.619  36.228  30.778  1.00  0.00     0.173 A 
ATOM     95  C   UNL A   1      43.050  35.645  33.039  1.00  0.00     0.173 A 
ATOM     96  F   UNL A   1      43.750  35.914  29.479  1.00  0.00    -0.203 F 
ATOM     97  C   UNL A   1      43.993  37.500  31.202  1.00  0.00     0.198 A 
ATOM     98  C   UNL A   1      43.397  36.926  33.456  1.00  0.00     0.198 A 
ATOM     99  F   UNL A   1      42.604  34.768  33.952  1.00  0.00    -0.203 F 
ATOM    100  F   UNL A   1      44.481  38.382  30.320  1.00  0.00    -0.200 F 
ATOM    101  C   UNL A   1      43.875  37.850  32.540  1.00  0.00     0.200 A 
ATOM    102  F   UNL A   1      43.272  37.267  34.747  1.00  0.00    -0.200 F 
ATOM    103  F   UNL A   1      44.233  39.076  32.946  1.00  0.00    -0.200 F 
ENDBRANCH  70  93
ENDBRANCH  44  45
ENDBRANCH  36  39
ENDBRANCH  34  35
ENDBRANCH  33  34
ENDBRANCH   1  33
TORSDOF 16
ENDMDL
