MODEL 1
REMARK VINA RESULT:     -13.0      0.000      0.000
REMARK SMILES O=C(NCCCCNC(=O)[C@@H]1CCC[N@@H+](Cc2ccc(F)cc2Cl)C1)c1ccc(-c2c3nc(c(-c4c(F)c(F)c(F)c(F)c4F)c4ccc([nH]4)c(-c4c(F)c(F)c(F)c(F)c4F)c4nc(c(-c5c(F)c(F)c(F)c(F)c5F)c5ccc2[nH]5)C=C4)C=C3)cc1
REMARK SMILES IDX 5 1 4 2 3 3 1 4 2 5 26 7 27 8 88 9 28 10 87 11 29 12 30 13
REMARK SMILES IDX 31 14 81 15 32 16 86 17 80 18 82 19 33 20 85 21 79 22 78 23
REMARK SMILES IDX 34 25 66 26 46 27 65 28 47 29 50 30 64 31 83 32 48 33 49 34
REMARK SMILES IDX 63 36 84 37 51 38 35 39 36 40 44 41 37 42 38 43 42 44 45 45
REMARK SMILES IDX 39 46 40 47 43 48 41 49 67 50 68 51 76 52 69 53 70 54 74 55
REMARK SMILES IDX 77 56 71 57 72 58 75 59 73 60 52 61 53 62 61 63 54 64 55 65
REMARK SMILES IDX 59 66 62 67 56 68 57 69 60 70 58 71 6 72 7 73 8 74 9 75
REMARK SMILES IDX 10 77 11 78 12 79 25 80 13 81 15 82 14 83 16 85 17 86 18 87
REMARK SMILES IDX 23 88 19 89 22 90 24 91 20 92 21 93
REMARK H PARENT 3 6 82 24 50 35 8 76 15 84
REMARK Flexibility Score: inf
ROOT
ATOM      1  C   UNL A   1      31.451  32.314  26.676  1.00  0.00     0.023 C 
ENDROOT
BRANCH   1   2
ATOM      2  C   UNL A   1      32.693  32.979  27.253  1.00  0.00     0.116 C 
BRANCH   2   3
ATOM      3  N   UNL A   1      32.450  34.345  27.685  1.00  0.00    -0.352 N 
ATOM      4  O   UNL A   1      32.646  36.143  29.038  1.00  0.00    -0.269 OA
ATOM      5  C   UNL A   1      33.060  35.040  28.699  1.00  0.00     0.251 C 
ATOM      6  H   UNL A   1      31.757  34.835  27.186  1.00  0.00     0.163 HD
BRANCH   5   7
ATOM      7  C   UNL A   1      34.214  34.435  29.392  1.00  0.00     0.039 A 
ATOM      8  C   UNL A   1      34.028  33.724  30.581  1.00  0.00     0.014 A 
ATOM      9  C   UNL A   1      35.490  34.578  28.842  1.00  0.00     0.014 A 
ATOM     10  C   UNL A   1      35.131  33.241  31.275  1.00  0.00     0.010 A 
ATOM     11  C   UNL A   1      36.590  34.027  29.502  1.00  0.00     0.010 A 
ATOM     12  C   UNL A   1      36.417  33.361  30.726  1.00  0.00    -0.014 A 
BRANCH  12  13
ATOM     13  C   UNL A   1      37.551  32.666  31.377  1.00  0.00     0.031 A 
ATOM     14  C   UNL A   1      38.241  31.507  30.721  1.00  0.00     0.074 A 
ATOM     15  C   UNL A   1      37.934  33.095  32.595  1.00  0.00     0.049 A 
ATOM     16  N   UNL A   1      39.216  30.765  31.184  1.00  0.00    -0.248 NA
ATOM     17  C   UNL A   1      37.776  31.121  29.381  1.00  0.00     0.031 C 
ATOM     18  C   UNL A   1      37.313  34.201  33.329  1.00  0.00     0.029 A 
ATOM     19  N   UNL A   1      38.925  32.656  33.436  1.00  0.00    -0.354 N 
ATOM     20  C   UNL A   1      39.468  29.814  30.205  1.00  0.00     0.074 A 
ATOM     21  C   UNL A   1      38.537  30.063  29.124  1.00  0.00     0.031 C 
ATOM     22  C   UNL A   1      37.944  34.364  34.500  1.00  0.00     0.029 A 
ATOM     23  C   UNL A   1      38.969  33.336  34.627  1.00  0.00     0.049 A 
ATOM     24  H   UNL A   1      39.544  31.927  33.206  1.00  0.00     0.167 HD
ATOM     25  C   UNL A   1      40.395  28.828  30.218  1.00  0.00     0.037 A 
ATOM     26  C   UNL A   1      39.723  33.129  35.722  1.00  0.00     0.037 A 
ATOM     27  C   UNL A   1      41.334  28.613  31.289  1.00  0.00     0.049 A 
ATOM     28  C   UNL A   1      40.719  32.007  35.712  1.00  0.00     0.074 A 
ATOM     29  C   UNL A   1      42.376  27.705  31.353  1.00  0.00     0.029 A 
ATOM     30  N   UNL A   1      41.333  29.305  32.492  1.00  0.00    -0.354 N 
ATOM     31  N   UNL A   1      41.000  31.162  34.749  1.00  0.00    -0.248 NA
ATOM     32  C   UNL A   1      41.495  31.799  36.941  1.00  0.00     0.031 C 
ATOM     33  C   UNL A   1      42.969  27.805  32.615  1.00  0.00     0.029 A 
ATOM     34  C   UNL A   1      42.327  28.809  33.322  1.00  0.00     0.049 A 
ATOM     35  H   UNL A   1      40.720  30.038  32.722  1.00  0.00     0.167 HD
ATOM     36  C   UNL A   1      41.986  30.328  35.253  1.00  0.00     0.074 A 
ATOM     37  C   UNL A   1      42.276  30.786  36.596  1.00  0.00     0.031 C 
ATOM     38  C   UNL A   1      42.590  29.270  34.660  1.00  0.00     0.037 A 
BRANCH  25  39
ATOM     39  C   UNL A   1      40.450  27.884  29.053  1.00  0.00     0.064 A 
ATOM     40  C   UNL A   1      39.664  26.724  29.004  1.00  0.00     0.173 A 
ATOM     41  C   UNL A   1      41.220  28.205  27.925  1.00  0.00     0.173 A 
ATOM     42  F   UNL A   1      38.914  26.371  30.059  1.00  0.00    -0.203 F 
ATOM     43  C   UNL A   1      39.650  25.917  27.868  1.00  0.00     0.198 A 
ATOM     44  C   UNL A   1      41.189  27.408  26.784  1.00  0.00     0.198 A 
ATOM     45  F   UNL A   1      41.984  29.308  27.919  1.00  0.00    -0.203 F 
ATOM     46  F   UNL A   1      38.904  24.805  27.847  1.00  0.00    -0.200 F 
ATOM     47  C   UNL A   1      40.403  26.266  26.756  1.00  0.00     0.200 A 
ATOM     48  F   UNL A   1      41.906  27.754  25.705  1.00  0.00    -0.200 F 
ATOM     49  F   UNL A   1      40.371  25.501  25.656  1.00  0.00    -0.200 F 
ENDBRANCH  25  39
BRANCH  26  50
ATOM     50  C   UNL A   1      39.525  33.973  36.928  1.00  0.00     0.064 A 
ATOM     51  C   UNL A   1      40.117  35.238  37.032  1.00  0.00     0.173 A 
ATOM     52  C   UNL A   1      38.739  33.527  38.002  1.00  0.00     0.173 A 
ATOM     53  F   UNL A   1      40.891  35.699  36.040  1.00  0.00    -0.203 F 
ATOM     54  C   UNL A   1      39.948  36.017  38.175  1.00  0.00     0.198 A 
ATOM     55  C   UNL A   1      38.545  34.321  39.130  1.00  0.00     0.198 A 
ATOM     56  F   UNL A   1      38.147  32.326  37.949  1.00  0.00    -0.203 F 
ATOM     57  F   UNL A   1      40.565  37.202  38.272  1.00  0.00    -0.200 F 
ATOM     58  C   UNL A   1      39.158  35.560  39.220  1.00  0.00     0.200 A 
ATOM     59  F   UNL A   1      37.766  33.882  40.128  1.00  0.00    -0.200 F 
ATOM     60  F   UNL A   1      38.993  36.312  40.317  1.00  0.00    -0.200 F 
ENDBRANCH  26  50
BRANCH  38  61
ATOM     61  C   UNL A   1      43.620  28.537  35.465  1.00  0.00     0.064 A 
ATOM     62  C   UNL A   1      43.256  27.502  36.338  1.00  0.00     0.173 A 
ATOM     63  C   UNL A   1      44.982  28.847  35.337  1.00  0.00     0.173 A 
ATOM     64  F   UNL A   1      41.964  27.184  36.509  1.00  0.00    -0.203 F 
ATOM     65  C   UNL A   1      44.220  26.814  37.070  1.00  0.00     0.198 A 
ATOM     66  C   UNL A   1      45.944  28.139  36.050  1.00  0.00     0.198 A 
ATOM     67  F   UNL A   1      45.378  29.828  34.513  1.00  0.00    -0.203 F 
ATOM     68  F   UNL A   1      43.848  25.858  37.931  1.00  0.00    -0.200 F 
ATOM     69  C   UNL A   1      45.563  27.128  36.919  1.00  0.00     0.200 A 
ATOM     70  F   UNL A   1      47.242  28.435  35.895  1.00  0.00    -0.200 F 
ATOM     71  F   UNL A   1      46.490  26.459  37.618  1.00  0.00    -0.200 F 
ENDBRANCH  38  61
ENDBRANCH  12  13
ENDBRANCH   5   7
ENDBRANCH   2   3
ENDBRANCH   1   2
BRANCH   1  72
ATOM     72  C   UNL A   1      31.592  30.820  26.387  1.00  0.00     0.023 C 
BRANCH  72  73
ATOM     73  C   UNL A   1      32.933  30.220  26.795  1.00  0.00     0.116 C 
BRANCH  73  74
ATOM     74  N   UNL A   1      33.645  29.667  25.659  1.00  0.00    -0.356 N 
ATOM     75  C   UNL A   1      33.653  28.402  25.146  1.00  0.00     0.228 C 
ATOM     76  H   UNL A   1      34.217  30.310  25.179  1.00  0.00     0.163 HD
ATOM     77  O   UNL A   1      34.352  28.201  24.154  1.00  0.00    -0.275 OA
BRANCH  75  78
ATOM     78  C   UNL A   1      32.837  27.316  25.831  1.00  0.00     0.133 C 
ATOM     79  C   UNL A   1      33.442  25.931  25.605  1.00  0.00     0.025 C 
ATOM     80  C   UNL A   1      31.354  27.391  25.459  1.00  0.00     0.276 C 
ATOM     81  C   UNL A   1      33.002  25.324  24.277  1.00  0.00     0.062 C 
ATOM     82  N   UNL A   1      30.979  26.731  24.211  1.00  0.00    -0.330 N 
ATOM     83  C   UNL A   1      31.482  25.363  24.111  1.00  0.00     0.262 C 
ATOM     84  H   UNL A   1      31.465  27.243  23.476  1.00  0.00     0.348 HD
BRANCH  82  85
ATOM     85  C   UNL A   1      29.552  26.874  23.872  1.00  0.00     0.300 C 
BRANCH  85  86
ATOM     86  C   UNL A   1      29.159  28.139  23.126  1.00  0.00     0.025 A 
ATOM     87  C   UNL A   1      30.151  28.857  22.424  1.00  0.00     0.014 A 
ATOM     88  C   UNL A   1      27.847  28.651  23.121  1.00  0.00     0.052 A 
ATOM     89  C   UNL A   1      29.864  30.078  21.815  1.00  0.00     0.040 A 
ATOM     90  C   UNL A   1      27.556  29.863  22.489  1.00  0.00     0.060 A 
ATOM     91  Cl  UNL A   1      26.529  27.828  23.876  1.00  0.00    -0.084 Cl
ATOM     92  C   UNL A   1      28.570  30.572  21.860  1.00  0.00     0.124 A 
ATOM     93  F   UNL A   1      28.294  31.747  21.284  1.00  0.00    -0.207 F 
ENDBRANCH  85  86
ENDBRANCH  82  85
ENDBRANCH  75  78
ENDBRANCH  73  74
ENDBRANCH  72  73
ENDBRANCH   1  72
TORSDOF 13
ENDMDL
MODEL 2
REMARK VINA RESULT:     -12.9      0.272      1.164
REMARK SMILES O=C(NCCCCNC(=O)[C@@H]1CCC[N@@H+](Cc2ccc(F)cc2Cl)C1)c1ccc(-c2c3nc(c(-c4c(F)c(F)c(F)c(F)c4F)c4ccc([nH]4)c(-c4c(F)c(F)c(F)c(F)c4F)c4nc(c(-c5c(F)c(F)c(F)c(F)c5F)c5ccc2[nH]5)C=C4)C=C3)cc1
REMARK SMILES IDX 5 1 4 2 3 3 1 4 2 5 26 7 27 8 88 9 28 10 87 11 29 12 30 13
REMARK SMILES IDX 31 14 81 15 32 16 86 17 80 18 82 19 33 20 85 21 79 22 78 23
REMARK SMILES IDX 34 25 66 26 46 27 65 28 47 29 50 30 64 31 83 32 48 33 49 34
REMARK SMILES IDX 63 36 84 37 51 38 35 39 36 40 44 41 37 42 38 43 42 44 45 45
REMARK SMILES IDX 39 46 40 47 43 48 41 49 67 50 68 51 76 52 69 53 70 54 74 55
REMARK SMILES IDX 77 56 71 57 72 58 75 59 73 60 52 61 53 62 61 63 54 64 55 65
REMARK SMILES IDX 59 66 62 67 56 68 57 69 60 70 58 71 6 72 7 73 8 74 9 75
REMARK SMILES IDX 10 77 11 78 12 79 25 80 13 81 15 82 14 83 16 85 17 86 18 87
REMARK SMILES IDX 23 88 19 89 22 90 24 91 20 92 21 93
REMARK H PARENT 3 6 82 24 50 35 8 76 15 84
REMARK Flexibility Score: inf
ROOT
ATOM      1  C   UNL A   1      31.415  32.279  26.798  1.00  0.00     0.023 C 
ENDROOT
BRANCH   1   2
ATOM      2  C   UNL A   1      32.682  33.039  27.169  1.00  0.00     0.116 C 
BRANCH   2   3
ATOM      3  N   UNL A   1      32.407  34.378  27.666  1.00  0.00    -0.352 N 
ATOM      4  O   UNL A   1      32.566  36.115  29.101  1.00  0.00    -0.269 OA
ATOM      5  C   UNL A   1      33.006  35.039  28.708  1.00  0.00     0.251 C 
ATOM      6  H   UNL A   1      31.700  34.874  27.194  1.00  0.00     0.163 HD
BRANCH   5   7
ATOM      7  C   UNL A   1      34.178  34.430  29.367  1.00  0.00     0.039 A 
ATOM      8  C   UNL A   1      34.013  33.641  30.508  1.00  0.00     0.014 A 
ATOM      9  C   UNL A   1      35.450  34.651  28.833  1.00  0.00     0.014 A 
ATOM     10  C   UNL A   1      35.130  33.153  31.176  1.00  0.00     0.010 A 
ATOM     11  C   UNL A   1      36.566  34.097  29.462  1.00  0.00     0.010 A 
ATOM     12  C   UNL A   1      36.413  33.350  30.641  1.00  0.00    -0.014 A 
BRANCH  12  13
ATOM     13  C   UNL A   1      37.568  32.654  31.252  1.00  0.00     0.031 A 
ATOM     14  C   UNL A   1      38.230  31.491  30.576  1.00  0.00     0.074 A 
ATOM     15  C   UNL A   1      37.997  33.085  32.454  1.00  0.00     0.049 A 
ATOM     16  N   UNL A   1      39.220  30.748  31.004  1.00  0.00    -0.248 NA
ATOM     17  C   UNL A   1      37.716  31.103  29.254  1.00  0.00     0.031 C 
ATOM     18  C   UNL A   1      37.406  34.195  33.207  1.00  0.00     0.029 A 
ATOM     19  N   UNL A   1      39.016  32.647  33.259  1.00  0.00    -0.354 N 
ATOM     20  C   UNL A   1      39.434  29.793  30.019  1.00  0.00     0.074 A 
ATOM     21  C   UNL A   1      38.465  30.042  28.973  1.00  0.00     0.031 C 
ATOM     22  C   UNL A   1      38.080  34.360  34.353  1.00  0.00     0.029 A 
ATOM     23  C   UNL A   1      39.106  33.330  34.446  1.00  0.00     0.049 A 
ATOM     24  H   UNL A   1      39.625  31.915  33.009  1.00  0.00     0.167 HD
ATOM     25  C   UNL A   1      40.358  28.805  30.002  1.00  0.00     0.037 A 
ATOM     26  C   UNL A   1      39.899  33.124  35.514  1.00  0.00     0.037 A 
ATOM     27  C   UNL A   1      41.335  28.590  31.039  1.00  0.00     0.049 A 
ATOM     28  C   UNL A   1      40.891  31.999  35.471  1.00  0.00     0.074 A 
ATOM     29  C   UNL A   1      42.377  27.680  31.067  1.00  0.00     0.029 A 
ATOM     30  N   UNL A   1      41.380  29.286  32.239  1.00  0.00    -0.354 N 
ATOM     31  N   UNL A   1      41.135  31.151  34.501  1.00  0.00    -0.248 NA
ATOM     32  C   UNL A   1      41.711  31.794  36.671  1.00  0.00     0.031 C 
ATOM     33  C   UNL A   1      43.015  27.782  32.306  1.00  0.00     0.029 A 
ATOM     34  C   UNL A   1      42.402  28.790  33.033  1.00  0.00     0.049 A 
ATOM     35  H   UNL A   1      40.777  30.022  32.489  1.00  0.00     0.167 HD
ATOM     36  C   UNL A   1      42.136  30.316  34.970  1.00  0.00     0.074 A 
ATOM     37  C   UNL A   1      42.477  30.778  36.301  1.00  0.00     0.031 C 
ATOM     38  C   UNL A   1      42.715  29.255  34.359  1.00  0.00     0.037 A 
BRANCH  25  39
ATOM     39  C   UNL A   1      40.368  27.857  28.839  1.00  0.00     0.064 A 
ATOM     40  C   UNL A   1      41.140  28.100  27.695  1.00  0.00     0.173 A 
ATOM     41  C   UNL A   1      39.678  26.638  28.920  1.00  0.00     0.173 A 
ATOM     42  F   UNL A   1      41.814  29.252  27.566  1.00  0.00    -0.203 F 
ATOM     43  C   UNL A   1      41.219  27.157  26.671  1.00  0.00     0.198 A 
ATOM     44  C   UNL A   1      39.775  25.689  27.906  1.00  0.00     0.198 A 
ATOM     45  F   UNL A   1      38.931  26.355  29.998  1.00  0.00    -0.203 F 
ATOM     46  F   UNL A   1      41.951  27.415  25.579  1.00  0.00    -0.200 F 
ATOM     47  C   UNL A   1      40.545  25.949  26.783  1.00  0.00     0.200 A 
ATOM     48  F   UNL A   1      39.134  24.517  28.022  1.00  0.00    -0.200 F 
ATOM     49  F   UNL A   1      40.640  25.034  25.808  1.00  0.00    -0.200 F 
ENDBRANCH  25  39
BRANCH  26  50
ATOM     50  C   UNL A   1      39.747  33.973  36.723  1.00  0.00     0.064 A 
ATOM     51  C   UNL A   1      40.428  35.190  36.844  1.00  0.00     0.173 A 
ATOM     52  C   UNL A   1      38.918  33.578  37.784  1.00  0.00     0.173 A 
ATOM     53  F   UNL A   1      41.247  35.601  35.865  1.00  0.00    -0.203 F 
ATOM     54  C   UNL A   1      40.302  35.972  37.991  1.00  0.00     0.198 A 
ATOM     55  C   UNL A   1      38.767  34.376  38.915  1.00  0.00     0.198 A 
ATOM     56  F   UNL A   1      38.240  32.423  37.714  1.00  0.00    -0.203 F 
ATOM     57  F   UNL A   1      41.002  37.108  38.104  1.00  0.00    -0.200 F 
ATOM     58  C   UNL A   1      39.467  35.567  39.022  1.00  0.00     0.200 A 
ATOM     59  F   UNL A   1      37.945  33.989  39.900  1.00  0.00    -0.200 F 
ATOM     60  F   UNL A   1      39.344  36.321  40.123  1.00  0.00    -0.200 F 
ENDBRANCH  26  50
BRANCH  38  61
ATOM     61  C   UNL A   1      43.772  28.521  35.129  1.00  0.00     0.064 A 
ATOM     62  C   UNL A   1      43.450  27.419  35.934  1.00  0.00     0.173 A 
ATOM     63  C   UNL A   1      45.119  28.900  35.033  1.00  0.00     0.173 A 
ATOM     64  F   UNL A   1      42.173  27.034  36.072  1.00  0.00    -0.203 F 
ATOM     65  C   UNL A   1      44.440  26.733  36.632  1.00  0.00     0.198 A 
ATOM     66  C   UNL A   1      46.108  28.194  35.711  1.00  0.00     0.198 A 
ATOM     67  F   UNL A   1      45.476  29.946  34.274  1.00  0.00    -0.203 F 
ATOM     68  F   UNL A   1      44.106  25.709  37.430  1.00  0.00    -0.200 F 
ATOM     69  C   UNL A   1      45.768  27.115  36.513  1.00  0.00     0.200 A 
ATOM     70  F   UNL A   1      47.392  28.558  35.586  1.00  0.00    -0.200 F 
ATOM     71  F   UNL A   1      46.719  26.449  37.179  1.00  0.00    -0.200 F 
ENDBRANCH  38  61
ENDBRANCH  12  13
ENDBRANCH   5   7
ENDBRANCH   2   3
ENDBRANCH   1   2
BRANCH   1  72
ATOM     72  C   UNL A   1      31.619  30.795  26.495  1.00  0.00     0.023 C 
BRANCH  72  73
ATOM     73  C   UNL A   1      33.012  30.267  26.819  1.00  0.00     0.116 C 
BRANCH  73  74
ATOM     74  N   UNL A   1      33.660  29.700  25.651  1.00  0.00    -0.356 N 
ATOM     75  C   UNL A   1      33.594  28.444  25.121  1.00  0.00     0.228 C 
ATOM     76  H   UNL A   1      34.242  30.324  25.159  1.00  0.00     0.163 HD
ATOM     77  O   UNL A   1      34.249  28.226  24.103  1.00  0.00    -0.275 OA
BRANCH  75  78
ATOM     78  C   UNL A   1      32.755  27.384  25.820  1.00  0.00     0.133 C 
ATOM     79  C   UNL A   1      33.352  25.989  25.647  1.00  0.00     0.025 C 
ATOM     80  C   UNL A   1      31.281  27.461  25.417  1.00  0.00     0.276 C 
ATOM     81  C   UNL A   1      32.933  25.347  24.327  1.00  0.00     0.062 C 
ATOM     82  N   UNL A   1      30.925  26.769  24.180  1.00  0.00    -0.330 N 
ATOM     83  C   UNL A   1      31.418  25.394  24.129  1.00  0.00     0.262 C 
ATOM     84  H   UNL A   1      31.430  27.256  23.441  1.00  0.00     0.348 HD
BRANCH  82  85
ATOM     85  C   UNL A   1      29.506  26.914  23.808  1.00  0.00     0.300 C 
BRANCH  85  86
ATOM     86  C   UNL A   1      29.133  28.176  23.047  1.00  0.00     0.025 A 
ATOM     87  C   UNL A   1      30.135  28.861  22.325  1.00  0.00     0.014 A 
ATOM     88  C   UNL A   1      27.834  28.716  23.046  1.00  0.00     0.052 A 
ATOM     89  C   UNL A   1      29.869  30.079  21.701  1.00  0.00     0.040 A 
ATOM     90  C   UNL A   1      27.563  29.925  22.399  1.00  0.00     0.060 A 
ATOM     91  Cl  UNL A   1      26.505  27.934  23.825  1.00  0.00    -0.084 Cl
ATOM     92  C   UNL A   1      28.586  30.602  21.750  1.00  0.00     0.124 A 
ATOM     93  F   UNL A   1      28.330  31.775  21.159  1.00  0.00    -0.207 F 
ENDBRANCH  85  86
ENDBRANCH  82  85
ENDBRANCH  75  78
ENDBRANCH  73  74
ENDBRANCH  72  73
ENDBRANCH   1  72
TORSDOF 13
ENDMDL
MODEL 3
REMARK VINA RESULT:     -12.7      0.588      7.458
REMARK SMILES O=C(NCCCCNC(=O)[C@@H]1CCC[N@@H+](Cc2ccc(F)cc2Cl)C1)c1ccc(-c2c3nc(c(-c4c(F)c(F)c(F)c(F)c4F)c4ccc([nH]4)c(-c4c(F)c(F)c(F)c(F)c4F)c4nc(c(-c5c(F)c(F)c(F)c(F)c5F)c5ccc2[nH]5)C=C4)C=C3)cc1
REMARK SMILES IDX 5 1 4 2 3 3 1 4 2 5 26 7 27 8 88 9 28 10 87 11 29 12 30 13
REMARK SMILES IDX 31 14 81 15 32 16 86 17 80 18 82 19 33 20 85 21 79 22 78 23
REMARK SMILES IDX 34 25 66 26 46 27 65 28 47 29 50 30 64 31 83 32 48 33 49 34
REMARK SMILES IDX 63 36 84 37 51 38 35 39 36 40 44 41 37 42 38 43 42 44 45 45
REMARK SMILES IDX 39 46 40 47 43 48 41 49 67 50 68 51 76 52 69 53 70 54 74 55
REMARK SMILES IDX 77 56 71 57 72 58 75 59 73 60 52 61 53 62 61 63 54 64 55 65
REMARK SMILES IDX 59 66 62 67 56 68 57 69 60 70 58 71 6 72 7 73 8 74 9 75
REMARK SMILES IDX 10 77 11 78 12 79 25 80 13 81 15 82 14 83 16 85 17 86 18 87
REMARK SMILES IDX 23 88 19 89 22 90 24 91 20 92 21 93
REMARK H PARENT 3 6 82 24 50 35 8 76 15 84
REMARK Flexibility Score: inf
ROOT
ATOM      1  C   UNL A   1      31.484  32.355  26.856  1.00  0.00     0.023 C 
ENDROOT
BRANCH   1   2
ATOM      2  C   UNL A   1      32.759  33.099  27.231  1.00  0.00     0.116 C 
BRANCH   2   3
ATOM      3  N   UNL A   1      32.497  34.428  27.761  1.00  0.00    -0.352 N 
ATOM      4  O   UNL A   1      32.645  36.116  29.254  1.00  0.00    -0.269 OA
ATOM      5  C   UNL A   1      33.073  35.042  28.843  1.00  0.00     0.251 C 
ATOM      6  H   UNL A   1      31.819  34.955  27.280  1.00  0.00     0.163 HD
BRANCH   5   7
ATOM      7  C   UNL A   1      34.207  34.386  29.523  1.00  0.00     0.039 A 
ATOM      8  C   UNL A   1      33.990  33.608  30.664  1.00  0.00     0.014 A 
ATOM      9  C   UNL A   1      35.496  34.550  29.010  1.00  0.00     0.014 A 
ATOM     10  C   UNL A   1      35.073  33.075  31.351  1.00  0.00     0.010 A 
ATOM     11  C   UNL A   1      36.577  33.950  29.658  1.00  0.00     0.010 A 
ATOM     12  C   UNL A   1      36.372  33.214  30.837  1.00  0.00    -0.014 A 
BRANCH  12  13
ATOM     13  C   UNL A   1      37.486  32.471  31.469  1.00  0.00     0.031 A 
ATOM     14  C   UNL A   1      38.013  32.849  32.821  1.00  0.00     0.074 A 
ATOM     15  C   UNL A   1      38.033  31.452  30.778  1.00  0.00     0.049 A 
ATOM     16  N   UNL A   1      39.013  32.329  33.486  1.00  0.00    -0.248 NA
ATOM     17  C   UNL A   1      37.342  33.957  33.517  1.00  0.00     0.031 C 
ATOM     18  C   UNL A   1      37.608  31.019  29.444  1.00  0.00     0.029 A 
ATOM     19  N   UNL A   1      39.061  30.601  31.089  1.00  0.00    -0.354 N 
ATOM     20  C   UNL A   1      39.106  33.054  34.666  1.00  0.00     0.074 A 
ATOM     21  C   UNL A   1      38.068  34.062  34.624  1.00  0.00     0.031 C 
ATOM     22  C   UNL A   1      38.356  29.977  29.059  1.00  0.00     0.029 A 
ATOM     23  C   UNL A   1      39.354  29.710  30.087  1.00  0.00     0.049 A 
ATOM     24  H   UNL A   1      39.542  30.626  31.948  1.00  0.00     0.167 HD
ATOM     25  C   UNL A   1      39.983  32.886  35.683  1.00  0.00     0.037 A 
ATOM     26  C   UNL A   1      40.344  28.805  29.985  1.00  0.00     0.037 A 
ATOM     27  C   UNL A   1      40.992  31.858  35.721  1.00  0.00     0.049 A 
ATOM     28  C   UNL A   1      41.316  28.667  31.120  1.00  0.00     0.074 A 
ATOM     29  C   UNL A   1      41.862  31.542  36.750  1.00  0.00     0.029 A 
ATOM     30  N   UNL A   1      41.276  30.989  34.677  1.00  0.00    -0.354 N 
ATOM     31  N   UNL A   1      41.346  29.308  32.263  1.00  0.00    -0.248 NA
ATOM     32  C   UNL A   1      42.398  27.689  30.949  1.00  0.00     0.031 C 
ATOM     33  C   UNL A   1      42.711  30.523  36.308  1.00  0.00     0.029 A 
ATOM     34  C   UNL A   1      42.340  30.170  35.021  1.00  0.00     0.049 A 
ATOM     35  H   UNL A   1      40.793  30.958  33.820  1.00  0.00     0.167 HD
ATOM     36  C   UNL A   1      42.443  28.811  32.948  1.00  0.00     0.074 A 
ATOM     37  C   UNL A   1      43.036  27.792  32.106  1.00  0.00     0.031 C 
ATOM     38  C   UNL A   1      42.923  29.172  34.162  1.00  0.00     0.037 A 
BRANCH  25  39
ATOM     39  C   UNL A   1      39.918  33.831  36.845  1.00  0.00     0.064 A 
ATOM     40  C   UNL A   1      40.615  35.048  36.848  1.00  0.00     0.173 A 
ATOM     41  C   UNL A   1      39.060  33.563  37.922  1.00  0.00     0.173 A 
ATOM     42  F   UNL A   1      41.452  35.349  35.845  1.00  0.00    -0.203 F 
ATOM     43  C   UNL A   1      40.458  35.960  37.890  1.00  0.00     0.198 A 
ATOM     44  C   UNL A   1      38.889  34.485  38.951  1.00  0.00     0.198 A 
ATOM     45  F   UNL A   1      38.364  32.416  37.963  1.00  0.00    -0.203 F 
ATOM     46  F   UNL A   1      41.145  37.110  37.882  1.00  0.00    -0.200 F 
ATOM     47  C   UNL A   1      39.586  35.682  38.934  1.00  0.00     0.200 A 
ATOM     48  F   UNL A   1      38.036  34.221  39.952  1.00  0.00    -0.200 F 
ATOM     49  F   UNL A   1      39.420  36.571  39.924  1.00  0.00    -0.200 F 
ENDBRANCH  25  39
BRANCH  26  50
ATOM     50  C   UNL A   1      40.487  28.000  28.745  1.00  0.00     0.064 A 
ATOM     51  C   UNL A   1      41.263  28.454  27.672  1.00  0.00     0.173 A 
ATOM     52  C   UNL A   1      39.844  26.760  28.610  1.00  0.00     0.173 A 
ATOM     53  F   UNL A   1      41.881  29.641  27.746  1.00  0.00    -0.203 F 
ATOM     54  C   UNL A   1      41.374  27.707  26.501  1.00  0.00     0.198 A 
ATOM     55  C   UNL A   1      39.983  25.999  27.452  1.00  0.00     0.198 A 
ATOM     56  F   UNL A   1      39.093  26.279  29.611  1.00  0.00    -0.203 F 
ATOM     57  F   UNL A   1      42.083  28.186  25.469  1.00  0.00    -0.200 F 
ATOM     58  C   UNL A   1      40.739  26.478  26.394  1.00  0.00     0.200 A 
ATOM     59  F   UNL A   1      39.382  24.805  27.362  1.00  0.00    -0.200 F 
ATOM     60  F   UNL A   1      40.850  25.759  25.269  1.00  0.00    -0.200 F 
ENDBRANCH  26  50
BRANCH  38  61
ATOM     61  C   UNL A   1      44.152  28.462  34.646  1.00  0.00     0.064 A 
ATOM     62  C   UNL A   1      45.431  28.989  34.417  1.00  0.00     0.173 A 
ATOM     63  C   UNL A   1      44.048  27.267  35.372  1.00  0.00     0.173 A 
ATOM     64  F   UNL A   1      45.580  30.119  33.710  1.00  0.00    -0.203 F 
ATOM     65  C   UNL A   1      46.566  28.333  34.884  1.00  0.00     0.198 A 
ATOM     66  C   UNL A   1      45.184  26.629  35.860  1.00  0.00     0.198 A 
ATOM     67  F   UNL A   1      42.846  26.726  35.617  1.00  0.00    -0.203 F 
ATOM     68  F   UNL A   1      47.782  28.830  34.618  1.00  0.00    -0.200 F 
ATOM     69  C   UNL A   1      46.442  27.158  35.611  1.00  0.00     0.200 A 
ATOM     70  F   UNL A   1      45.061  25.501  36.573  1.00  0.00    -0.200 F 
ATOM     71  F   UNL A   1      47.535  26.533  36.067  1.00  0.00    -0.200 F 
ENDBRANCH  38  61
ENDBRANCH  12  13
ENDBRANCH   5   7
ENDBRANCH   2   3
ENDBRANCH   1   2
BRANCH   1  72
ATOM     72  C   UNL A   1      31.688  30.905  26.420  1.00  0.00     0.023 C 
BRANCH  72  73
ATOM     73  C   UNL A   1      33.051  30.321  26.777  1.00  0.00     0.116 C 
BRANCH  73  74
ATOM     74  N   UNL A   1      33.672  29.665  25.643  1.00  0.00    -0.356 N 
ATOM     75  C   UNL A   1      33.544  28.388  25.175  1.00  0.00     0.228 C 
ATOM     76  H   UNL A   1      34.287  30.233  25.124  1.00  0.00     0.163 HD
ATOM     77  O   UNL A   1      34.190  28.088  24.172  1.00  0.00    -0.275 OA
BRANCH  75  78
ATOM     78  C   UNL A   1      32.650  27.409  25.921  1.00  0.00     0.133 C 
ATOM     79  C   UNL A   1      33.216  25.991  25.886  1.00  0.00     0.025 C 
ATOM     80  C   UNL A   1      31.195  27.486  25.450  1.00  0.00     0.276 C 
ATOM     81  C   UNL A   1      32.835  25.253  24.606  1.00  0.00     0.062 C 
ATOM     82  N   UNL A   1      30.872  26.703  24.260  1.00  0.00    -0.330 N 
ATOM     83  C   UNL A   1      31.330  25.318  24.340  1.00  0.00     0.262 C 
ATOM     84  H   UNL A   1      31.419  27.117  23.506  1.00  0.00     0.348 HD
BRANCH  82  85
ATOM     85  C   UNL A   1      29.473  26.850  23.818  1.00  0.00     0.300 C 
BRANCH  85  86
ATOM     86  C   UNL A   1      29.134  28.127  23.065  1.00  0.00     0.025 A 
ATOM     87  C   UNL A   1      30.154  28.797  22.358  1.00  0.00     0.014 A 
ATOM     88  C   UNL A   1      27.846  28.695  23.060  1.00  0.00     0.052 A 
ATOM     89  C   UNL A   1      29.919  30.026  21.743  1.00  0.00     0.040 A 
ATOM     90  C   UNL A   1      27.606  29.914  22.421  1.00  0.00     0.060 A 
ATOM     91  Cl  UNL A   1      26.494  27.934  23.822  1.00  0.00    -0.084 Cl
ATOM     92  C   UNL A   1      28.647  30.576  21.787  1.00  0.00     0.124 A 
ATOM     93  F   UNL A   1      28.421  31.759  21.205  1.00  0.00    -0.207 F 
ENDBRANCH  85  86
ENDBRANCH  82  85
ENDBRANCH  75  78
ENDBRANCH  73  74
ENDBRANCH  72  73
ENDBRANCH   1  72
TORSDOF 13
ENDMDL
