MODEL 1
REMARK VINA RESULT:     -13.0      0.000      0.000
REMARK SMILES N#Cc1cc(F)ccc1N1[C@@H]2CC[C@H]1C[C@H](CC(=O)NCCCCNC(=O)c1ccc(-c3c4nc(c(-c5c(F)c(F)c(F)c(F)c5F)c5ccc([nH]5)c(-c5c(F)c(F)c(F)c(F)c5F)c5nc(c(-c6c(F)c(F)c(F)c(F)c6F)c6ccc3[nH]6)C=C5)C=C4)cc1)C2
REMARK SMILES IDX 22 1 21 2 20 3 18 4 19 5 17 7 16 8 10 9 11 10 14 11 12 12
REMARK SMILES IDX 91 13 13 14 15 15 9 16 3 17 4 18 5 19 8 20 6 21 7 22 2 23
REMARK SMILES IDX 1 24 23 25 24 26 25 27 26 28 27 30 28 31 29 32 90 33 30 34
REMARK SMILES IDX 89 35 31 36 32 37 33 38 83 39 34 40 88 41 82 42 84 43 35 44
REMARK SMILES IDX 87 45 81 46 80 47 36 49 68 50 48 51 67 52 49 53 52 54 66 55
REMARK SMILES IDX 85 56 50 57 51 58 65 60 86 61 53 62 37 63 38 64 46 65 39 66
REMARK SMILES IDX 40 67 44 68 47 69 41 70 42 71 45 72 43 73 69 74 70 75 78 76
REMARK SMILES IDX 71 77 72 78 76 79 79 80 73 81 74 82 77 83 75 84 54 85 55 86
REMARK SMILES IDX 63 87 56 88 57 89 61 90 64 91 58 92 59 93 62 94 60 95
REMARK H PARENT 20 6 25 29 84 48 52 59
REMARK Flexibility Score: inf
ROOT
ATOM      1  C   UNL A   1      32.437  30.296  26.719  1.00  0.00     0.023 C 
ENDROOT
BRANCH   1   2
ATOM      2  C   UNL A   1      31.710  29.477  25.644  1.00  0.00     0.116 C 
BRANCH   2   3
ATOM      3  N   UNL A   1      32.409  29.548  24.373  1.00  0.00    -0.356 N 
ATOM      4  C   UNL A   1      33.385  28.763  23.836  1.00  0.00     0.220 C 
ATOM      5  O   UNL A   1      33.835  29.090  22.734  1.00  0.00    -0.275 OA
ATOM      6  H   UNL A   1      32.128  30.297  23.796  1.00  0.00     0.163 HD
BRANCH   4   7
ATOM      7  C   UNL A   1      33.923  27.527  24.549  1.00  0.00     0.103 C 
BRANCH   7   8
ATOM      8  C   UNL A   1      32.994  26.296  24.450  1.00  0.00     0.002 C 
ATOM      9  N   UNL A   1      33.388  23.430  24.395  1.00  0.00    -0.364 N 
ATOM     10  C   UNL A   1      32.531  23.972  25.444  1.00  0.00     0.083 C 
ATOM     11  C   UNL A   1      32.946  24.016  23.152  1.00  0.00     0.083 C 
ATOM     12  C   UNL A   1      31.142  23.938  24.769  1.00  0.00     0.027 C 
ATOM     13  C   UNL A   1      33.047  25.404  25.712  1.00  0.00     0.029 C 
ATOM     14  C   UNL A   1      31.421  23.879  23.259  1.00  0.00     0.027 C 
ATOM     15  C   UNL A   1      33.292  25.498  23.170  1.00  0.00     0.029 C 
BRANCH   9  16
ATOM     16  C   UNL A   1      34.454  22.624  24.675  1.00  0.00     0.055 A 
ATOM     17  C   UNL A   1      34.409  21.228  24.870  1.00  0.00     0.078 A 
ATOM     18  C   UNL A   1      35.596  20.475  24.912  1.00  0.00     0.060 A 
ATOM     19  C   UNL A   1      36.825  21.106  24.818  1.00  0.00     0.124 A 
ATOM     20  C   UNL A   1      35.728  23.228  24.647  1.00  0.00     0.030 A 
ATOM     21  F   UNL A   1      37.945  20.373  24.819  1.00  0.00    -0.207 F 
ATOM     22  C   UNL A   1      36.905  22.483  24.721  1.00  0.00     0.041 A 
BRANCH  17  23
ATOM     23  C   UNL A   1      33.199  20.479  24.991  1.00  0.00     0.101 C 
ATOM     24  N   UNL A   1      32.266  19.786  25.108  1.00  0.00    -0.192 NA
ENDBRANCH  17  23
ENDBRANCH   9  16
ENDBRANCH   7   8
ENDBRANCH   4   7
ENDBRANCH   2   3
ENDBRANCH   1   2
BRANCH   1  25
ATOM     25  C   UNL A   1      31.974  31.724  26.906  1.00  0.00     0.023 C 
BRANCH  25  26
ATOM     26  C   UNL A   1      33.018  32.633  27.503  1.00  0.00     0.116 C 
BRANCH  26  27
ATOM     27  N   UNL A   1      32.575  34.012  27.669  1.00  0.00    -0.352 N 
ATOM     28  C   UNL A   1      33.046  34.946  28.565  1.00  0.00     0.251 C 
ATOM     29  H   UNL A   1      31.853  34.311  27.070  1.00  0.00     0.163 HD
ATOM     30  O   UNL A   1      32.514  36.043  28.682  1.00  0.00    -0.269 OA
BRANCH  28  31
ATOM     31  C   UNL A   1      34.186  34.566  29.423  1.00  0.00     0.039 A 
ATOM     32  C   UNL A   1      33.940  34.008  30.677  1.00  0.00     0.014 A 
ATOM     33  C   UNL A   1      35.484  34.633  28.913  1.00  0.00     0.014 A 
ATOM     34  C   UNL A   1      34.996  33.437  31.384  1.00  0.00     0.010 A 
ATOM     35  C   UNL A   1      36.500  33.940  29.551  1.00  0.00     0.010 A 
ATOM     36  C   UNL A   1      36.274  33.353  30.804  1.00  0.00    -0.014 A 
BRANCH  36  37
ATOM     37  C   UNL A   1      37.402  32.690  31.500  1.00  0.00     0.031 A 
ATOM     38  C   UNL A   1      38.091  31.523  30.847  1.00  0.00     0.074 A 
ATOM     39  C   UNL A   1      37.757  33.085  32.738  1.00  0.00     0.049 A 
ATOM     40  N   UNL A   1      39.050  30.762  31.307  1.00  0.00    -0.248 NA
ATOM     41  C   UNL A   1      37.609  31.132  29.511  1.00  0.00     0.031 C 
ATOM     42  C   UNL A   1      37.116  34.157  33.503  1.00  0.00     0.029 A 
ATOM     43  N   UNL A   1      38.741  32.625  33.575  1.00  0.00    -0.354 N 
ATOM     44  C   UNL A   1      39.266  29.801  30.330  1.00  0.00     0.074 A 
ATOM     45  C   UNL A   1      38.288  30.020  29.290  1.00  0.00     0.031 C 
ATOM     46  C   UNL A   1      37.745  34.294  34.682  1.00  0.00     0.029 A 
ATOM     47  C   UNL A   1      38.804  33.294  34.774  1.00  0.00     0.049 A 
ATOM     48  H   UNL A   1      39.346  31.885  33.340  1.00  0.00     0.167 HD
ATOM     49  C   UNL A   1      40.220  28.841  30.285  1.00  0.00     0.037 A 
ATOM     50  C   UNL A   1      39.621  33.113  35.830  1.00  0.00     0.037 A 
ATOM     51  C   UNL A   1      41.209  28.650  31.310  1.00  0.00     0.049 A 
ATOM     52  C   UNL A   1      40.677  32.042  35.756  1.00  0.00     0.074 A 
ATOM     53  C   UNL A   1      42.264  27.757  31.335  1.00  0.00     0.029 A 
ATOM     54  N   UNL A   1      41.258  29.364  32.500  1.00  0.00    -0.354 N 
ATOM     55  N   UNL A   1      40.932  31.195  34.787  1.00  0.00    -0.248 NA
ATOM     56  C   UNL A   1      41.565  31.907  36.918  1.00  0.00     0.031 C 
ATOM     57  C   UNL A   1      42.916  27.889  32.565  1.00  0.00     0.029 A 
ATOM     58  C   UNL A   1      42.308  28.910  33.279  1.00  0.00     0.049 A 
ATOM     59  H   UNL A   1      40.638  30.087  32.751  1.00  0.00     0.167 HD
ATOM     60  C   UNL A   1      42.023  30.447  35.209  1.00  0.00     0.074 A 
ATOM     61  C   UNL A   1      42.394  30.955  36.514  1.00  0.00     0.031 C 
ATOM     62  C   UNL A   1      42.662  29.432  34.575  1.00  0.00     0.037 A 
BRANCH  49  63
ATOM     63  C   UNL A   1      40.234  27.934  29.088  1.00  0.00     0.064 A 
ATOM     64  C   UNL A   1      40.956  28.250  27.925  1.00  0.00     0.173 A 
ATOM     65  C   UNL A   1      39.525  26.723  29.107  1.00  0.00     0.173 A 
ATOM     66  F   UNL A   1      41.639  29.402  27.847  1.00  0.00    -0.203 F 
ATOM     67  C   UNL A   1      40.934  27.410  26.816  1.00  0.00     0.198 A 
ATOM     68  C   UNL A   1      39.537  25.867  28.008  1.00  0.00     0.198 A 
ATOM     69  F   UNL A   1      38.820  26.368  30.191  1.00  0.00    -0.203 F 
ATOM     70  F   UNL A   1      41.576  27.768  25.695  1.00  0.00    -0.200 F 
ATOM     71  C   UNL A   1      40.232  26.216  26.861  1.00  0.00     0.200 A 
ATOM     72  F   UNL A   1      38.870  24.706  28.059  1.00  0.00    -0.200 F 
ATOM     73  F   UNL A   1      40.216  25.406  25.793  1.00  0.00    -0.200 F 
ENDBRANCH  49  63
BRANCH  50  74
ATOM     74  C   UNL A   1      39.488  33.978  37.032  1.00  0.00     0.064 A 
ATOM     75  C   UNL A   1      40.120  35.228  37.098  1.00  0.00     0.173 A 
ATOM     76  C   UNL A   1      38.728  33.575  38.140  1.00  0.00     0.173 A 
ATOM     77  F   UNL A   1      40.872  35.653  36.073  1.00  0.00    -0.203 F 
ATOM     78  C   UNL A   1      40.018  36.029  38.234  1.00  0.00     0.198 A 
ATOM     79  C   UNL A   1      38.600  34.390  39.263  1.00  0.00     0.198 A 
ATOM     80  F   UNL A   1      38.097  32.391  38.126  1.00  0.00    -0.203 F 
ATOM     81  F   UNL A   1      40.673  37.196  38.290  1.00  0.00    -0.200 F 
ATOM     82  C   UNL A   1      39.253  35.612  39.313  1.00  0.00     0.200 A 
ATOM     83  F   UNL A   1      37.844  33.991  40.295  1.00  0.00    -0.200 F 
ATOM     84  F   UNL A   1      39.150  36.384  40.403  1.00  0.00    -0.200 F 
ENDBRANCH  50  74
BRANCH  62  85
ATOM     85  C   UNL A   1      43.850  28.827  35.267  1.00  0.00     0.064 A 
ATOM     86  C   UNL A   1      43.716  27.760  36.167  1.00  0.00     0.173 A 
ATOM     87  C   UNL A   1      45.144  29.293  34.988  1.00  0.00     0.173 A 
ATOM     88  F   UNL A   1      42.499  27.287  36.478  1.00  0.00    -0.203 F 
ATOM     89  C   UNL A   1      44.832  27.203  36.785  1.00  0.00     0.198 A 
ATOM     90  C   UNL A   1      46.259  28.709  35.579  1.00  0.00     0.198 A 
ATOM     91  F   UNL A   1      45.328  30.305  34.126  1.00  0.00    -0.203 F 
ATOM     92  F   UNL A   1      44.676  26.221  37.684  1.00  0.00    -0.200 F 
ATOM     93  C   UNL A   1      46.102  27.671  36.485  1.00  0.00     0.200 A 
ATOM     94  F   UNL A   1      47.487  29.150  35.273  1.00  0.00    -0.200 F 
ATOM     95  F   UNL A   1      47.175  27.125  37.074  1.00  0.00    -0.200 F 
ENDBRANCH  62  85
ENDBRANCH  36  37
ENDBRANCH  28  31
ENDBRANCH  26  27
ENDBRANCH  25  26
ENDBRANCH   1  25
TORSDOF 14
ENDMDL
MODEL 2
REMARK VINA RESULT:     -13.0      0.667      7.351
REMARK SMILES N#Cc1cc(F)ccc1N1[C@@H]2CC[C@H]1C[C@H](CC(=O)NCCCCNC(=O)c1ccc(-c3c4nc(c(-c5c(F)c(F)c(F)c(F)c5F)c5ccc([nH]5)c(-c5c(F)c(F)c(F)c(F)c5F)c5nc(c(-c6c(F)c(F)c(F)c(F)c6F)c6ccc3[nH]6)C=C5)C=C4)cc1)C2
REMARK SMILES IDX 22 1 21 2 20 3 18 4 19 5 17 7 16 8 10 9 11 10 14 11 12 12
REMARK SMILES IDX 91 13 13 14 15 15 9 16 3 17 4 18 5 19 8 20 6 21 7 22 2 23
REMARK SMILES IDX 1 24 23 25 24 26 25 27 26 28 27 30 28 31 29 32 90 33 30 34
REMARK SMILES IDX 89 35 31 36 32 37 33 38 83 39 34 40 88 41 82 42 84 43 35 44
REMARK SMILES IDX 87 45 81 46 80 47 36 49 68 50 48 51 67 52 49 53 52 54 66 55
REMARK SMILES IDX 85 56 50 57 51 58 65 60 86 61 53 62 37 63 38 64 46 65 39 66
REMARK SMILES IDX 40 67 44 68 47 69 41 70 42 71 45 72 43 73 69 74 70 75 78 76
REMARK SMILES IDX 71 77 72 78 76 79 79 80 73 81 74 82 77 83 75 84 54 85 55 86
REMARK SMILES IDX 63 87 56 88 57 89 61 90 64 91 58 92 59 93 62 94 60 95
REMARK H PARENT 20 6 25 29 84 48 52 59
REMARK Flexibility Score: inf
ROOT
ATOM      1  C   UNL A   1      32.177  30.373  26.524  1.00  0.00     0.023 C 
ENDROOT
BRANCH   1   2
ATOM      2  C   UNL A   1      31.429  29.671  25.383  1.00  0.00     0.116 C 
BRANCH   2   3
ATOM      3  N   UNL A   1      32.248  29.607  24.184  1.00  0.00    -0.356 N 
ATOM      4  C   UNL A   1      33.254  28.760  23.824  1.00  0.00     0.220 C 
ATOM      5  O   UNL A   1      33.814  28.971  22.745  1.00  0.00    -0.275 OA
ATOM      6  H   UNL A   1      32.040  30.298  23.513  1.00  0.00     0.163 HD
BRANCH   4   7
ATOM      7  C   UNL A   1      33.693  27.594  24.703  1.00  0.00     0.103 C 
BRANCH   7   8
ATOM      8  C   UNL A   1      32.804  26.339  24.565  1.00  0.00     0.002 C 
ATOM      9  N   UNL A   1      33.284  23.487  24.454  1.00  0.00    -0.364 N 
ATOM     10  C   UNL A   1      32.397  23.980  25.502  1.00  0.00     0.083 C 
ATOM     11  C   UNL A   1      32.841  24.087  23.217  1.00  0.00     0.083 C 
ATOM     12  C   UNL A   1      31.019  23.920  24.807  1.00  0.00     0.027 C 
ATOM     13  C   UNL A   1      32.867  25.420  25.808  1.00  0.00     0.029 C 
ATOM     14  C   UNL A   1      31.320  23.902  23.300  1.00  0.00     0.027 C 
ATOM     15  C   UNL A   1      33.142  25.578  23.272  1.00  0.00     0.029 C 
BRANCH   9  16
ATOM     16  C   UNL A   1      34.371  22.707  24.731  1.00  0.00     0.055 A 
ATOM     17  C   UNL A   1      34.366  21.305  24.889  1.00  0.00     0.078 A 
ATOM     18  C   UNL A   1      35.575  20.589  24.932  1.00  0.00     0.060 A 
ATOM     19  C   UNL A   1      36.785  21.261  24.876  1.00  0.00     0.124 A 
ATOM     20  C   UNL A   1      35.625  23.351  24.741  1.00  0.00     0.030 A 
ATOM     21  F   UNL A   1      37.928  20.563  24.876  1.00  0.00    -0.207 F 
ATOM     22  C   UNL A   1      36.823  22.641  24.816  1.00  0.00     0.041 A 
BRANCH  17  23
ATOM     23  C   UNL A   1      33.178  20.517  24.969  1.00  0.00     0.101 C 
ATOM     24  N   UNL A   1      32.158  19.949  24.994  1.00  0.00    -0.192 NA
ENDBRANCH  17  23
ENDBRANCH   9  16
ENDBRANCH   7   8
ENDBRANCH   4   7
ENDBRANCH   2   3
ENDBRANCH   1   2
BRANCH   1  25
ATOM     25  C   UNL A   1      31.767  31.798  26.822  1.00  0.00     0.023 C 
BRANCH  25  26
ATOM     26  C   UNL A   1      32.895  32.671  27.311  1.00  0.00     0.116 C 
BRANCH  26  27
ATOM     27  N   UNL A   1      32.494  34.039  27.615  1.00  0.00    -0.352 N 
ATOM     28  C   UNL A   1      33.010  34.873  28.581  1.00  0.00     0.251 C 
ATOM     29  H   UNL A   1      31.767  34.411  27.064  1.00  0.00     0.163 HD
ATOM     30  O   UNL A   1      32.512  35.968  28.813  1.00  0.00    -0.269 OA
BRANCH  28  31
ATOM     31  C   UNL A   1      34.157  34.386  29.372  1.00  0.00     0.039 A 
ATOM     32  C   UNL A   1      33.925  33.583  30.489  1.00  0.00     0.014 A 
ATOM     33  C   UNL A   1      35.456  34.611  28.912  1.00  0.00     0.014 A 
ATOM     34  C   UNL A   1      35.001  32.934  31.093  1.00  0.00     0.010 A 
ATOM     35  C   UNL A   1      36.498  33.855  29.424  1.00  0.00     0.010 A 
ATOM     36  C   UNL A   1      36.287  33.025  30.534  1.00  0.00    -0.014 A 
BRANCH  36  37
ATOM     37  C   UNL A   1      37.438  32.291  31.111  1.00  0.00     0.031 A 
ATOM     38  C   UNL A   1      37.939  32.661  32.481  1.00  0.00     0.074 A 
ATOM     39  C   UNL A   1      38.074  31.352  30.384  1.00  0.00     0.049 A 
ATOM     40  N   UNL A   1      38.966  32.194  33.143  1.00  0.00    -0.248 NA
ATOM     41  C   UNL A   1      37.211  33.728  33.186  1.00  0.00     0.031 C 
ATOM     42  C   UNL A   1      37.726  30.957  29.017  1.00  0.00     0.029 A 
ATOM     43  N   UNL A   1      39.152  30.561  30.691  1.00  0.00    -0.354 N 
ATOM     44  C   UNL A   1      39.013  32.923  34.323  1.00  0.00     0.074 A 
ATOM     45  C   UNL A   1      37.967  33.917  34.254  1.00  0.00     0.031 C 
ATOM     46  C   UNL A   1      38.553  29.977  28.617  1.00  0.00     0.029 A 
ATOM     47  C   UNL A   1      39.514  29.704  29.680  1.00  0.00     0.049 A 
ATOM     48  H   UNL A   1      39.623  30.604  31.555  1.00  0.00     0.167 HD
ATOM     49  C   UNL A   1      39.833  32.755  35.387  1.00  0.00     0.037 A 
ATOM     50  C   UNL A   1      40.515  28.804  29.619  1.00  0.00     0.037 A 
ATOM     51  C   UNL A   1      40.852  31.744  35.459  1.00  0.00     0.049 A 
ATOM     52  C   UNL A   1      41.412  28.632  30.816  1.00  0.00     0.074 A 
ATOM     53  C   UNL A   1      41.691  31.439  36.514  1.00  0.00     0.029 A 
ATOM     54  N   UNL A   1      41.173  30.875  34.425  1.00  0.00    -0.354 N 
ATOM     55  N   UNL A   1      41.391  29.267  31.965  1.00  0.00    -0.248 NA
ATOM     56  C   UNL A   1      42.466  27.615  30.713  1.00  0.00     0.031 C 
ATOM     57  C   UNL A   1      42.560  30.426  36.099  1.00  0.00     0.029 A 
ATOM     58  C   UNL A   1      42.219  30.054  34.807  1.00  0.00     0.049 A 
ATOM     59  H   UNL A   1      40.722  30.847  33.550  1.00  0.00     0.167 HD
ATOM     60  C   UNL A   1      42.407  28.708  32.729  1.00  0.00     0.074 A 
ATOM     61  C   UNL A   1      43.011  27.670  31.919  1.00  0.00     0.031 C 
ATOM     62  C   UNL A   1      42.805  29.023  33.987  1.00  0.00     0.037 A 
BRANCH  49  63
ATOM     63  C   UNL A   1      39.655  33.687  36.552  1.00  0.00     0.064 A 
ATOM     64  C   UNL A   1      38.850  33.352  37.653  1.00  0.00     0.173 A 
ATOM     65  C   UNL A   1      40.307  34.929  36.574  1.00  0.00     0.173 A 
ATOM     66  F   UNL A   1      38.189  32.185  37.677  1.00  0.00    -0.203 F 
ATOM     67  C   UNL A   1      38.674  34.240  38.710  1.00  0.00     0.198 A 
ATOM     68  C   UNL A   1      40.160  35.798  37.652  1.00  0.00     0.198 A 
ATOM     69  F   UNL A   1      41.092  35.301  35.551  1.00  0.00    -0.203 F 
ATOM     70  F   UNL A   1      37.847  33.924  39.717  1.00  0.00    -0.200 F 
ATOM     71  C   UNL A   1      39.335  35.458  38.713  1.00  0.00     0.200 A 
ATOM     72  F   UNL A   1      40.811  36.969  37.660  1.00  0.00    -0.200 F 
ATOM     73  F   UNL A   1      39.169  36.310  39.735  1.00  0.00    -0.200 F 
ENDBRANCH  49  63
BRANCH  50  74
ATOM     74  C   UNL A   1      40.705  27.983  28.393  1.00  0.00     0.064 A 
ATOM     75  C   UNL A   1      41.487  28.448  27.326  1.00  0.00     0.173 A 
ATOM     76  C   UNL A   1      40.110  26.720  28.261  1.00  0.00     0.173 A 
ATOM     77  F   UNL A   1      42.064  29.656  27.395  1.00  0.00    -0.203 F 
ATOM     78  C   UNL A   1      41.646  27.692  26.166  1.00  0.00     0.198 A 
ATOM     79  C   UNL A   1      40.295  25.951  27.113  1.00  0.00     0.198 A 
ATOM     80  F   UNL A   1      39.357  26.225  29.255  1.00  0.00    -0.203 F 
ATOM     81  F   UNL A   1      42.357  28.182  25.142  1.00  0.00    -0.200 F 
ATOM     82  C   UNL A   1      41.055  26.442  26.062  1.00  0.00     0.200 A 
ATOM     83  F   UNL A   1      39.737  24.736  27.027  1.00  0.00    -0.200 F 
ATOM     84  F   UNL A   1      41.212  25.713  24.950  1.00  0.00    -0.200 F 
ENDBRANCH  50  74
BRANCH  62  85
ATOM     85  C   UNL A   1      43.923  28.215  34.579  1.00  0.00     0.064 A 
ATOM     86  C   UNL A   1      45.256  28.643  34.519  1.00  0.00     0.173 A 
ATOM     87  C   UNL A   1      43.647  27.017  35.257  1.00  0.00     0.173 A 
ATOM     88  F   UNL A   1      45.575  29.774  33.871  1.00  0.00    -0.203 F 
ATOM     89  C   UNL A   1      46.276  27.886  35.090  1.00  0.00     0.198 A 
ATOM     90  C   UNL A   1      44.664  26.283  35.858  1.00  0.00     0.198 A 
ATOM     91  F   UNL A   1      42.386  26.568  35.353  1.00  0.00    -0.203 F 
ATOM     92  F   UNL A   1      47.550  28.286  34.972  1.00  0.00    -0.200 F 
ATOM     93  C   UNL A   1      45.979  26.712  35.765  1.00  0.00     0.200 A 
ATOM     94  F   UNL A   1      44.372  25.158  36.527  1.00  0.00    -0.200 F 
ATOM     95  F   UNL A   1      46.962  25.991  36.322  1.00  0.00    -0.200 F 
ENDBRANCH  62  85
ENDBRANCH  36  37
ENDBRANCH  28  31
ENDBRANCH  26  27
ENDBRANCH  25  26
ENDBRANCH   1  25
TORSDOF 14
ENDMDL
MODEL 3
REMARK VINA RESULT:     -12.9      5.741     11.285
REMARK SMILES N#Cc1cc(F)ccc1N1[C@@H]2CC[C@H]1C[C@H](CC(=O)NCCCCNC(=O)c1ccc(-c3c4nc(c(-c5c(F)c(F)c(F)c(F)c5F)c5ccc([nH]5)c(-c5c(F)c(F)c(F)c(F)c5F)c5nc(c(-c6c(F)c(F)c(F)c(F)c6F)c6ccc3[nH]6)C=C5)C=C4)cc1)C2
REMARK SMILES IDX 22 1 21 2 20 3 18 4 19 5 17 7 16 8 10 9 11 10 14 11 12 12
REMARK SMILES IDX 91 13 13 14 15 15 9 16 3 17 4 18 5 19 8 20 6 21 7 22 2 23
REMARK SMILES IDX 1 24 23 25 24 26 25 27 26 28 27 30 28 31 29 32 90 33 30 34
REMARK SMILES IDX 89 35 31 36 32 37 33 38 83 39 34 40 88 41 82 42 84 43 35 44
REMARK SMILES IDX 87 45 81 46 80 47 36 49 68 50 48 51 67 52 49 53 52 54 66 55
REMARK SMILES IDX 85 56 50 57 51 58 65 60 86 61 53 62 37 63 38 64 46 65 39 66
REMARK SMILES IDX 40 67 44 68 47 69 41 70 42 71 45 72 43 73 69 74 70 75 78 76
REMARK SMILES IDX 71 77 72 78 76 79 79 80 73 81 74 82 77 83 75 84 54 85 55 86
REMARK SMILES IDX 63 87 56 88 57 89 61 90 64 91 58 92 59 93 62 94 60 95
REMARK H PARENT 20 6 25 29 84 48 52 59
REMARK Flexibility Score: inf
ROOT
ATOM      1  C   UNL A   1      37.106  21.467  25.292  1.00  0.00     0.023 C 
ENDROOT
BRANCH   1   2
ATOM      2  C   UNL A   1      35.661  21.068  24.964  1.00  0.00     0.116 C 
BRANCH   2   3
ATOM      3  N   UNL A   1      34.838  21.058  26.161  1.00  0.00    -0.356 N 
ATOM      4  C   UNL A   1      34.330  22.075  26.912  1.00  0.00     0.220 C 
ATOM      5  O   UNL A   1      33.689  21.769  27.922  1.00  0.00    -0.275 OA
ATOM      6  H   UNL A   1      34.607  20.158  26.487  1.00  0.00     0.163 HD
BRANCH   4   7
ATOM      7  C   UNL A   1      34.533  23.542  26.547  1.00  0.00     0.103 C 
BRANCH   7   8
ATOM      8  C   UNL A   1      33.457  24.101  25.589  1.00  0.00     0.002 C 
ATOM      9  N   UNL A   1      32.202  26.678  25.197  1.00  0.00    -0.364 N 
ATOM     10  C   UNL A   1      32.886  26.082  24.054  1.00  0.00     0.083 C 
ATOM     11  C   UNL A   1      31.349  25.654  25.753  1.00  0.00     0.083 C 
ATOM     12  C   UNL A   1      31.750  25.268  23.394  1.00  0.00     0.027 C 
ATOM     13  C   UNL A   1      34.006  25.199  24.649  1.00  0.00     0.029 C 
ATOM     14  C   UNL A   1      30.698  25.063  24.495  1.00  0.00     0.027 C 
ATOM     15  C   UNL A   1      32.230  24.584  26.380  1.00  0.00     0.029 C 
BRANCH   9  16
ATOM     16  C   UNL A   1      32.490  27.939  25.637  1.00  0.00     0.055 A 
ATOM     17  C   UNL A   1      31.809  29.119  25.272  1.00  0.00     0.078 A 
ATOM     18  C   UNL A   1      32.038  30.318  25.970  1.00  0.00     0.060 A 
ATOM     19  C   UNL A   1      32.977  30.364  26.987  1.00  0.00     0.124 A 
ATOM     20  C   UNL A   1      33.480  28.050  26.634  1.00  0.00     0.030 A 
ATOM     21  F   UNL A   1      33.156  31.502  27.670  1.00  0.00    -0.207 F 
ATOM     22  C   UNL A   1      33.728  29.248  27.304  1.00  0.00     0.041 A 
BRANCH  17  23
ATOM     23  C   UNL A   1      30.831  29.187  24.234  1.00  0.00     0.101 C 
ATOM     24  N   UNL A   1      30.056  29.338  23.374  1.00  0.00    -0.192 NA
ENDBRANCH  17  23
ENDBRANCH   9  16
ENDBRANCH   7   8
ENDBRANCH   4   7
ENDBRANCH   2   3
ENDBRANCH   1   2
BRANCH   1  25
ATOM     25  C   UNL A   1      38.173  20.433  25.008  1.00  0.00     0.023 C 
BRANCH  25  26
ATOM     26  C   UNL A   1      39.384  20.542  25.899  1.00  0.00     0.116 C 
BRANCH  26  27
ATOM     27  N   UNL A   1      40.191  19.328  25.949  1.00  0.00    -0.352 N 
ATOM     28  C   UNL A   1      41.552  19.229  26.137  1.00  0.00     0.251 C 
ATOM     29  H   UNL A   1      39.705  18.479  25.835  1.00  0.00     0.163 HD
ATOM     30  O   UNL A   1      42.131  18.154  26.049  1.00  0.00    -0.269 OA
BRANCH  28  31
ATOM     31  C   UNL A   1      42.305  20.471  26.396  1.00  0.00     0.039 A 
ATOM     32  C   UNL A   1      42.815  21.198  25.320  1.00  0.00     0.014 A 
ATOM     33  C   UNL A   1      42.371  20.978  27.696  1.00  0.00     0.014 A 
ATOM     34  C   UNL A   1      43.316  22.479  25.545  1.00  0.00     0.010 A 
ATOM     35  C   UNL A   1      42.736  22.300  27.892  1.00  0.00     0.010 A 
ATOM     36  C   UNL A   1      43.234  23.059  26.823  1.00  0.00    -0.014 A 
BRANCH  36  37
ATOM     37  C   UNL A   1      43.694  24.444  27.079  1.00  0.00     0.031 A 
ATOM     38  C   UNL A   1      42.709  25.473  27.565  1.00  0.00     0.074 A 
ATOM     39  C   UNL A   1      44.967  24.793  26.809  1.00  0.00     0.049 A 
ATOM     40  N   UNL A   1      42.885  26.749  27.788  1.00  0.00    -0.248 NA
ATOM     41  C   UNL A   1      41.329  25.013  27.793  1.00  0.00     0.031 C 
ATOM     42  C   UNL A   1      45.995  23.902  26.266  1.00  0.00     0.029 A 
ATOM     43  N   UNL A   1      45.613  25.996  26.948  1.00  0.00    -0.354 N 
ATOM     44  C   UNL A   1      41.641  27.239  28.159  1.00  0.00     0.074 A 
ATOM     45  C   UNL A   1      40.702  26.147  28.053  1.00  0.00     0.031 C 
ATOM     46  C   UNL A   1      47.149  24.580  26.151  1.00  0.00     0.029 A 
ATOM     47  C   UNL A   1      46.933  25.960  26.569  1.00  0.00     0.049 A 
ATOM     48  H   UNL A   1      45.172  26.808  27.287  1.00  0.00     0.167 HD
ATOM     49  C   UNL A   1      41.316  28.482  28.586  1.00  0.00     0.037 A 
ATOM     50  C   UNL A   1      47.861  26.937  26.556  1.00  0.00     0.037 A 
ATOM     51  C   UNL A   1      42.262  29.555  28.717  1.00  0.00     0.049 A 
ATOM     52  C   UNL A   1      47.477  28.310  27.039  1.00  0.00     0.074 A 
ATOM     53  C   UNL A   1      42.057  30.831  29.207  1.00  0.00     0.029 A 
ATOM     54  N   UNL A   1      43.599  29.475  28.349  1.00  0.00    -0.354 N 
ATOM     55  N   UNL A   1      46.316  28.742  27.474  1.00  0.00    -0.248 NA
ATOM     56  C   UNL A   1      48.532  29.332  27.038  1.00  0.00     0.031 C 
ATOM     57  C   UNL A   1      43.253  31.543  29.078  1.00  0.00     0.029 A 
ATOM     58  C   UNL A   1      44.222  30.690  28.571  1.00  0.00     0.049 A 
ATOM     59  H   UNL A   1      44.037  28.672  27.984  1.00  0.00     0.167 HD
ATOM     60  C   UNL A   1      46.508  30.072  27.824  1.00  0.00     0.074 A 
ATOM     61  C   UNL A   1      47.902  30.370  27.567  1.00  0.00     0.031 C 
ATOM     62  C   UNL A   1      45.613  30.966  28.312  1.00  0.00     0.037 A 
BRANCH  49  63
ATOM     63  C   UNL A   1      39.879  28.738  28.941  1.00  0.00     0.064 A 
ATOM     64  C   UNL A   1      39.383  28.514  30.236  1.00  0.00     0.173 A 
ATOM     65  C   UNL A   1      38.985  29.225  27.975  1.00  0.00     0.173 A 
ATOM     66  F   UNL A   1      40.189  28.033  31.194  1.00  0.00    -0.203 F 
ATOM     67  C   UNL A   1      38.041  28.730  30.539  1.00  0.00     0.198 A 
ATOM     68  C   UNL A   1      37.652  29.477  28.292  1.00  0.00     0.198 A 
ATOM     69  F   UNL A   1      39.403  29.460  26.723  1.00  0.00    -0.203 F 
ATOM     70  F   UNL A   1      37.579  28.444  31.764  1.00  0.00    -0.200 F 
ATOM     71  C   UNL A   1      37.179  29.219  29.570  1.00  0.00     0.200 A 
ATOM     72  F   UNL A   1      36.824  29.964  27.358  1.00  0.00    -0.200 F 
ATOM     73  F   UNL A   1      35.889  29.432  29.864  1.00  0.00    -0.200 F 
ENDBRANCH  49  63
BRANCH  50  74
ATOM     74  C   UNL A   1      49.244  26.645  26.092  1.00  0.00     0.064 A 
ATOM     75  C   UNL A   1      49.645  26.944  24.782  1.00  0.00     0.173 A 
ATOM     76  C   UNL A   1      50.192  26.062  26.946  1.00  0.00     0.173 A 
ATOM     77  F   UNL A   1      48.772  27.486  23.921  1.00  0.00    -0.203 F 
ATOM     78  C   UNL A   1      50.932  26.647  24.337  1.00  0.00     0.198 A 
ATOM     79  C   UNL A   1      51.488  25.795  26.510  1.00  0.00     0.198 A 
ATOM     80  F   UNL A   1      49.862  25.763  28.211  1.00  0.00    -0.203 F 
ATOM     81  F   UNL A   1      51.273  26.897  23.066  1.00  0.00    -0.200 F 
ATOM     82  C   UNL A   1      51.855  26.079  25.203  1.00  0.00     0.200 A 
ATOM     83  F   UNL A   1      52.381  25.263  27.356  1.00  0.00    -0.200 F 
ATOM     84  F   UNL A   1      53.094  25.799  24.777  1.00  0.00    -0.200 F 
ENDBRANCH  50  74
BRANCH  62  85
ATOM     85  C   UNL A   1      46.121  32.342  28.636  1.00  0.00     0.064 A 
ATOM     86  C   UNL A   1      46.652  32.657  29.894  1.00  0.00     0.173 A 
ATOM     87  C   UNL A   1      46.116  33.346  27.654  1.00  0.00     0.173 A 
ATOM     88  F   UNL A   1      46.667  31.737  30.871  1.00  0.00    -0.203 F 
ATOM     89  C   UNL A   1      47.132  33.934  30.168  1.00  0.00     0.198 A 
ATOM     90  C   UNL A   1      46.631  34.610  27.921  1.00  0.00     0.198 A 
ATOM     91  F   UNL A   1      45.629  33.094  26.430  1.00  0.00    -0.203 F 
ATOM     92  F   UNL A   1      47.584  34.229  31.395  1.00  0.00    -0.200 F 
ATOM     93  C   UNL A   1      47.129  34.907  29.180  1.00  0.00     0.200 A 
ATOM     94  F   UNL A   1      46.645  35.543  26.958  1.00  0.00    -0.200 F 
ATOM     95  F   UNL A   1      47.602  36.133  29.443  1.00  0.00    -0.200 F 
ENDBRANCH  62  85
ENDBRANCH  36  37
ENDBRANCH  28  31
ENDBRANCH  26  27
ENDBRANCH  25  26
ENDBRANCH   1  25
TORSDOF 14
ENDMDL
