MODEL 1
REMARK VINA RESULT:     -13.2      0.000      0.000
REMARK SMILES Cc1c(C(=O)NCCCCNC(=O)c2ccc(-c3c4nc(c(-c5c(F)c(F)c(F)c(F)c5F)c5ccc([nH]5)c(-c5c(F)c(F)c(F)c(F)c5F)c5nc(c(-c6c(F)c(F)c(F)c(F)c6F)c6ccc3[nH]6)C=C5)C=C4)cc2)sc2ncnc(NCc3cn4c(n3)SCC4)c12
REMARK SMILES IDX 8 1 7 2 6 3 4 4 5 5 3 7 1 8 2 9 93 10 77 11 78 12 82 13
REMARK SMILES IDX 79 14 81 15 80 16 83 17 84 19 85 20 86 21 89 22 87 23 88 24
REMARK SMILES IDX 92 25 90 26 91 27 9 28 10 29 11 30 12 31 13 33 14 34 15 35
REMARK SMILES IDX 76 36 16 37 75 38 17 39 18 40 19 41 69 42 20 43 74 44 68 45
REMARK SMILES IDX 70 46 21 47 73 48 67 49 66 50 22 52 54 53 34 54 53 55 35 56
REMARK SMILES IDX 38 57 52 58 71 59 36 60 37 61 51 63 72 64 39 65 23 66 24 67
REMARK SMILES IDX 32 68 25 69 26 70 30 71 33 72 27 73 28 74 31 75 29 76 55 77
REMARK SMILES IDX 56 78 64 79 57 80 58 81 62 82 65 83 59 84 60 85 63 86 61 87
REMARK SMILES IDX 40 88 41 89 49 90 42 91 43 92 47 93 50 94 44 95 45 96 48 97
REMARK SMILES IDX 46 98
REMARK H PARENT 6 6 83 18 11 32 70 51 38 62
REMARK Flexibility Score: inf
ROOT
ATOM      1  C   UNL A   1      38.252  22.365  25.893  1.00  0.00     0.023 C 
ENDROOT
BRANCH   1   2
ATOM      2  C   UNL A   1      36.927  21.796  25.378  1.00  0.00     0.116 C 
BRANCH   2   3
ATOM      3  N   UNL A   1      36.563  22.376  24.103  1.00  0.00    -0.351 N 
ATOM      4  C   UNL A   1      35.375  22.827  23.585  1.00  0.00     0.261 C 
ATOM      5  O   UNL A   1      35.451  23.190  22.405  1.00  0.00    -0.268 OA
ATOM      6  H   UNL A   1      37.322  22.466  23.482  1.00  0.00     0.163 HD
BRANCH   4   7
ATOM      7  C   UNL A   1      34.130  22.928  24.352  1.00  0.00     0.098 A 
ATOM      8  C   UNL A   1      34.736  25.094  25.504  1.00  0.00     0.047 C 
ATOM      9  C   UNL A   1      33.769  23.980  25.207  1.00  0.00    -0.014 A 
ATOM     10  C   UNL A   1      32.414  23.810  25.770  1.00  0.00     0.057 A 
ATOM     11  S   UNL A   1      32.875  21.791  24.236  1.00  0.00    -0.110 S 
ATOM     12  C   UNL A   1      31.950  22.546  25.426  1.00  0.00     0.129 A 
ATOM     13  C   UNL A   1      31.497  24.563  26.568  1.00  0.00     0.138 A 
ATOM     14  N   UNL A   1      30.856  21.917  25.874  1.00  0.00    -0.225 NA
ATOM     15  N   UNL A   1      30.412  23.922  27.070  1.00  0.00    -0.219 NA
ATOM     16  C   UNL A   1      30.167  22.654  26.733  1.00  0.00     0.225 A 
BRANCH  13  17
ATOM     17  N   UNL A   1      31.488  25.897  26.887  1.00  0.00    -0.364 N 
ATOM     18  H   UNL A   1      31.196  26.128  27.797  1.00  0.00     0.162 HD
BRANCH  17  19
ATOM     19  C   UNL A   1      31.858  26.987  26.036  1.00  0.00     0.172 C 
BRANCH  19  20
ATOM     20  C   UNL A   1      31.230  27.174  24.692  1.00  0.00     0.079 A 
ATOM     21  C   UNL A   1      31.766  27.890  23.626  1.00  0.00     0.113 A 
ATOM     22  N   UNL A   1      29.861  27.000  24.541  1.00  0.00    -0.226 NA
ATOM     23  N   UNL A   1      30.675  28.263  22.914  1.00  0.00    -0.325 N 
ATOM     24  C   UNL A   1      29.575  27.699  23.479  1.00  0.00     0.168 A 
ATOM     25  C   UNL A   1      30.445  29.393  22.034  1.00  0.00     0.135 C 
ATOM     26  S   UNL A   1      28.111  28.470  22.990  1.00  0.00    -0.086 SA
ATOM     27  C   UNL A   1      29.064  29.935  22.414  1.00  0.00     0.100 C 
ENDBRANCH  19  20
ENDBRANCH  17  19
ENDBRANCH  13  17
ENDBRANCH   4   7
ENDBRANCH   2   3
ENDBRANCH   1   2
BRANCH   1  28
ATOM     28  C   UNL A   1      39.345  21.323  26.177  1.00  0.00     0.023 C 
BRANCH  28  29
ATOM     29  C   UNL A   1      40.441  21.778  27.134  1.00  0.00     0.116 C 
BRANCH  29  30
ATOM     30  N   UNL A   1      41.734  21.998  26.481  1.00  0.00    -0.352 N 
ATOM     31  C   UNL A   1      42.333  23.208  26.179  1.00  0.00     0.251 C 
ATOM     32  H   UNL A   1      42.236  21.190  26.227  1.00  0.00     0.163 HD
ATOM     33  O   UNL A   1      43.196  23.301  25.310  1.00  0.00    -0.269 OA
BRANCH  31  34
ATOM     34  C   UNL A   1      41.922  24.391  26.948  1.00  0.00     0.039 A 
ATOM     35  C   UNL A   1      42.479  24.720  28.181  1.00  0.00     0.014 A 
ATOM     36  C   UNL A   1      41.003  25.232  26.336  1.00  0.00     0.014 A 
ATOM     37  C   UNL A   1      42.171  25.963  28.733  1.00  0.00     0.010 A 
ATOM     38  C   UNL A   1      40.869  26.524  26.772  1.00  0.00     0.010 A 
ATOM     39  C   UNL A   1      41.391  26.884  28.004  1.00  0.00    -0.014 A 
BRANCH  39  40
ATOM     40  C   UNL A   1      41.177  28.247  28.489  1.00  0.00     0.031 A 
ATOM     41  C   UNL A   1      42.213  29.227  28.065  1.00  0.00     0.074 A 
ATOM     42  C   UNL A   1      40.084  28.650  29.178  1.00  0.00     0.049 A 
ATOM     43  N   UNL A   1      43.129  29.750  28.810  1.00  0.00    -0.248 NA
ATOM     44  C   UNL A   1      42.345  29.562  26.639  1.00  0.00     0.031 C 
ATOM     45  C   UNL A   1      38.845  27.918  29.480  1.00  0.00     0.029 A 
ATOM     46  N   UNL A   1      39.837  29.872  29.729  1.00  0.00    -0.354 N 
ATOM     47  C   UNL A   1      43.855  30.611  27.997  1.00  0.00     0.074 A 
ATOM     48  C   UNL A   1      43.420  30.357  26.648  1.00  0.00     0.031 C 
ATOM     49  C   UNL A   1      37.906  28.767  29.955  1.00  0.00     0.029 A 
ATOM     50  C   UNL A   1      38.537  30.049  30.191  1.00  0.00     0.049 A 
ATOM     51  H   UNL A   1      40.524  30.574  29.794  1.00  0.00     0.167 HD
ATOM     52  C   UNL A   1      44.605  31.611  28.539  1.00  0.00     0.037 A 
ATOM     53  C   UNL A   1      38.028  31.159  30.775  1.00  0.00     0.037 A 
ATOM     54  C   UNL A   1      44.803  31.400  29.950  1.00  0.00     0.049 A 
ATOM     55  C   UNL A   1      39.177  31.915  31.317  1.00  0.00     0.074 A 
ATOM     56  C   UNL A   1      45.468  30.472  30.723  1.00  0.00     0.029 A 
ATOM     57  N   UNL A   1      43.923  32.032  30.789  1.00  0.00    -0.354 N 
ATOM     58  N   UNL A   1      39.906  31.511  32.317  1.00  0.00    -0.248 NA
ATOM     59  C   UNL A   1      39.766  32.949  30.483  1.00  0.00     0.031 C 
ATOM     60  C   UNL A   1      44.651  30.294  31.883  1.00  0.00     0.029 A 
ATOM     61  C   UNL A   1      43.566  31.165  31.787  1.00  0.00     0.049 A 
ATOM     62  H   UNL A   1      43.602  32.959  30.691  1.00  0.00     0.167 HD
ATOM     63  C   UNL A   1      41.192  31.902  31.986  1.00  0.00     0.074 A 
ATOM     64  C   UNL A   1      41.024  32.891  30.924  1.00  0.00     0.031 C 
ATOM     65  C   UNL A   1      42.265  31.178  32.418  1.00  0.00     0.037 A 
BRANCH  52  66
ATOM     66  C   UNL A   1      44.810  32.968  27.909  1.00  0.00     0.064 A 
ATOM     67  C   UNL A   1      46.091  33.325  27.439  1.00  0.00     0.173 A 
ATOM     68  C   UNL A   1      43.892  34.030  28.042  1.00  0.00     0.173 A 
ATOM     69  F   UNL A   1      47.050  32.397  27.301  1.00  0.00    -0.203 F 
ATOM     70  C   UNL A   1      46.443  34.655  27.190  1.00  0.00     0.198 A 
ATOM     71  C   UNL A   1      44.231  35.349  27.745  1.00  0.00     0.198 A 
ATOM     72  F   UNL A   1      42.677  33.854  28.574  1.00  0.00    -0.203 F 
ATOM     73  F   UNL A   1      47.706  34.961  26.863  1.00  0.00    -0.200 F 
ATOM     74  C   UNL A   1      45.513  35.666  27.349  1.00  0.00     0.200 A 
ATOM     75  F   UNL A   1      43.325  36.319  27.931  1.00  0.00    -0.200 F 
ATOM     76  F   UNL A   1      45.863  36.948  27.173  1.00  0.00    -0.200 F 
ENDBRANCH  52  66
BRANCH  53  77
ATOM     77  C   UNL A   1      36.696  31.787  30.628  1.00  0.00     0.064 A 
ATOM     78  C   UNL A   1      35.854  31.923  31.746  1.00  0.00     0.173 A 
ATOM     79  C   UNL A   1      36.391  32.577  29.507  1.00  0.00     0.173 A 
ATOM     80  F   UNL A   1      36.097  31.220  32.862  1.00  0.00    -0.203 F 
ATOM     81  C   UNL A   1      34.816  32.857  31.770  1.00  0.00     0.198 A 
ATOM     82  C   UNL A   1      35.350  33.507  29.531  1.00  0.00     0.198 A 
ATOM     83  F   UNL A   1      37.168  32.544  28.414  1.00  0.00    -0.203 F 
ATOM     84  F   UNL A   1      34.097  33.029  32.889  1.00  0.00    -0.200 F 
ATOM     85  C   UNL A   1      34.579  33.664  30.670  1.00  0.00     0.200 A 
ATOM     86  F   UNL A   1      35.150  34.310  28.476  1.00  0.00    -0.200 F 
ATOM     87  F   UNL A   1      33.644  34.624  30.726  1.00  0.00    -0.200 F 
ENDBRANCH  53  77
BRANCH  65  88
ATOM     88  C   UNL A   1      42.020  30.184  33.520  1.00  0.00     0.064 A 
ATOM     89  C   UNL A   1      41.651  28.841  33.324  1.00  0.00     0.173 A 
ATOM     90  C   UNL A   1      42.250  30.600  34.838  1.00  0.00     0.173 A 
ATOM     91  F   UNL A   1      41.495  28.341  32.092  1.00  0.00    -0.203 F 
ATOM     92  C   UNL A   1      41.476  27.974  34.403  1.00  0.00     0.198 A 
ATOM     93  C   UNL A   1      42.111  29.723  35.909  1.00  0.00     0.198 A 
ATOM     94  F   UNL A   1      42.647  31.859  35.084  1.00  0.00    -0.203 F 
ATOM     95  F   UNL A   1      41.101  26.703  34.191  1.00  0.00    -0.200 F 
ATOM     96  C   UNL A   1      41.711  28.415  35.693  1.00  0.00     0.200 A 
ATOM     97  F   UNL A   1      42.382  30.145  37.152  1.00  0.00    -0.200 F 
ATOM     98  F   UNL A   1      41.574  27.576  36.729  1.00  0.00    -0.200 F 
ENDBRANCH  65  88
ENDBRANCH  39  40
ENDBRANCH  31  34
ENDBRANCH  29  30
ENDBRANCH  28  29
ENDBRANCH   1  28
TORSDOF 14
ENDMDL
MODEL 2
REMARK VINA RESULT:     -13.1      1.541      1.824
REMARK SMILES Cc1c(C(=O)NCCCCNC(=O)c2ccc(-c3c4nc(c(-c5c(F)c(F)c(F)c(F)c5F)c5ccc([nH]5)c(-c5c(F)c(F)c(F)c(F)c5F)c5nc(c(-c6c(F)c(F)c(F)c(F)c6F)c6ccc3[nH]6)C=C5)C=C4)cc2)sc2ncnc(NCc3cn4c(n3)SCC4)c12
REMARK SMILES IDX 8 1 7 2 6 3 4 4 5 5 3 7 1 8 2 9 93 10 77 11 78 12 82 13
REMARK SMILES IDX 79 14 81 15 80 16 83 17 84 19 85 20 86 21 89 22 87 23 88 24
REMARK SMILES IDX 92 25 90 26 91 27 9 28 10 29 11 30 12 31 13 33 14 34 15 35
REMARK SMILES IDX 76 36 16 37 75 38 17 39 18 40 19 41 69 42 20 43 74 44 68 45
REMARK SMILES IDX 70 46 21 47 73 48 67 49 66 50 22 52 54 53 34 54 53 55 35 56
REMARK SMILES IDX 38 57 52 58 71 59 36 60 37 61 51 63 72 64 39 65 23 66 24 67
REMARK SMILES IDX 32 68 25 69 26 70 30 71 33 72 27 73 28 74 31 75 29 76 55 77
REMARK SMILES IDX 56 78 64 79 57 80 58 81 62 82 65 83 59 84 60 85 63 86 61 87
REMARK SMILES IDX 40 88 41 89 49 90 42 91 43 92 47 93 50 94 44 95 45 96 48 97
REMARK SMILES IDX 46 98
REMARK H PARENT 6 6 83 18 11 32 70 51 38 62
REMARK Flexibility Score: inf
ROOT
ATOM      1  C   UNL A   1      38.691  23.057  26.482  1.00  0.00     0.023 C 
ENDROOT
BRANCH   1   2
ATOM      2  C   UNL A   1      37.466  23.108  25.565  1.00  0.00     0.116 C 
BRANCH   2   3
ATOM      3  N   UNL A   1      36.242  22.899  26.308  1.00  0.00    -0.351 N 
ATOM      4  C   UNL A   1      34.934  23.241  26.072  1.00  0.00     0.261 C 
ATOM      5  O   UNL A   1      34.167  22.950  26.997  1.00  0.00    -0.268 OA
ATOM      6  H   UNL A   1      36.373  22.412  27.153  1.00  0.00     0.163 HD
BRANCH   4   7
ATOM      7  C   UNL A   1      34.455  23.847  24.826  1.00  0.00     0.098 A 
ATOM      8  C   UNL A   1      34.027  26.131  25.822  1.00  0.00     0.047 C 
ATOM      9  C   UNL A   1      34.077  25.187  24.651  1.00  0.00    -0.014 A 
ATOM     10  C   UNL A   1      33.712  25.493  23.253  1.00  0.00     0.057 A 
ATOM     11  S   UNL A   1      34.376  23.004  23.355  1.00  0.00    -0.110 S 
ATOM     12  C   UNL A   1      33.675  24.302  22.538  1.00  0.00     0.129 A 
ATOM     13  C   UNL A   1      33.374  26.643  22.474  1.00  0.00     0.138 A 
ATOM     14  N   UNL A   1      33.220  24.097  21.294  1.00  0.00    -0.225 NA
ATOM     15  N   UNL A   1      32.863  26.446  21.232  1.00  0.00    -0.219 NA
ATOM     16  C   UNL A   1      32.784  25.212  20.728  1.00  0.00     0.225 A 
BRANCH  13  17
ATOM     17  N   UNL A   1      33.533  27.977  22.748  1.00  0.00    -0.364 N 
ATOM     18  H   UNL A   1      34.264  28.438  22.277  1.00  0.00     0.162 HD
BRANCH  17  19
ATOM     19  C   UNL A   1      32.749  28.770  23.646  1.00  0.00     0.172 C 
BRANCH  19  20
ATOM     20  C   UNL A   1      31.300  29.032  23.391  1.00  0.00     0.079 A 
ATOM     21  C   UNL A   1      30.651  28.936  22.163  1.00  0.00     0.113 A 
ATOM     22  N   UNL A   1      30.572  29.806  24.283  1.00  0.00    -0.226 NA
ATOM     23  N   UNL A   1      29.600  29.782  22.293  1.00  0.00    -0.325 N 
ATOM     24  C   UNL A   1      29.581  30.257  23.567  1.00  0.00     0.168 A 
ATOM     25  C   UNL A   1      28.850  30.537  21.308  1.00  0.00     0.135 C 
ATOM     26  S   UNL A   1      28.624  31.683  23.726  1.00  0.00    -0.086 SA
ATOM     27  C   UNL A   1      28.682  31.937  21.904  1.00  0.00     0.100 C 
ENDBRANCH  19  20
ENDBRANCH  17  19
ENDBRANCH  13  17
ENDBRANCH   4   7
ENDBRANCH   2   3
ENDBRANCH   1   2
BRANCH   1  28
ATOM     28  C   UNL A   1      39.590  21.823  26.305  1.00  0.00     0.023 C 
BRANCH  28  29
ATOM     29  C   UNL A   1      40.833  21.795  27.187  1.00  0.00     0.116 C 
BRANCH  29  30
ATOM     30  N   UNL A   1      42.072  22.087  26.461  1.00  0.00    -0.352 N 
ATOM     31  C   UNL A   1      42.573  23.327  26.109  1.00  0.00     0.251 C 
ATOM     32  H   UNL A   1      42.612  21.308  26.193  1.00  0.00     0.163 HD
ATOM     33  O   UNL A   1      43.381  23.459  25.193  1.00  0.00    -0.269 OA
BRANCH  31  34
ATOM     34  C   UNL A   1      42.127  24.494  26.883  1.00  0.00     0.039 A 
ATOM     35  C   UNL A   1      42.648  24.815  28.134  1.00  0.00     0.014 A 
ATOM     36  C   UNL A   1      41.214  25.332  26.257  1.00  0.00     0.014 A 
ATOM     37  C   UNL A   1      42.309  26.046  28.693  1.00  0.00     0.010 A 
ATOM     38  C   UNL A   1      41.053  26.616  26.705  1.00  0.00     0.010 A 
ATOM     39  C   UNL A   1      41.537  26.967  27.955  1.00  0.00    -0.014 A 
BRANCH  39  40
ATOM     40  C   UNL A   1      41.293  28.321  28.452  1.00  0.00     0.031 A 
ATOM     41  C   UNL A   1      42.319  29.322  28.054  1.00  0.00     0.074 A 
ATOM     42  C   UNL A   1      40.183  28.698  29.129  1.00  0.00     0.049 A 
ATOM     43  N   UNL A   1      43.215  29.852  28.819  1.00  0.00    -0.248 NA
ATOM     44  C   UNL A   1      42.466  29.675  26.633  1.00  0.00     0.031 C 
ATOM     45  C   UNL A   1      38.952  27.942  29.404  1.00  0.00     0.029 A 
ATOM     46  N   UNL A   1      39.908  29.909  29.689  1.00  0.00    -0.354 N 
ATOM     47  C   UNL A   1      43.938  30.735  28.025  1.00  0.00     0.074 A 
ATOM     48  C   UNL A   1      43.527  30.488  26.667  1.00  0.00     0.031 C 
ATOM     49  C   UNL A   1      37.992  28.770  29.873  1.00  0.00     0.029 A 
ATOM     50  C   UNL A   1      38.599  30.060  30.133  1.00  0.00     0.049 A 
ATOM     51  H   UNL A   1      40.582  30.622  29.772  1.00  0.00     0.167 HD
ATOM     52  C   UNL A   1      44.663  31.740  28.590  1.00  0.00     0.037 A 
ATOM     53  C   UNL A   1      38.062  31.155  30.721  1.00  0.00     0.037 A 
ATOM     54  C   UNL A   1      44.844  31.518  30.001  1.00  0.00     0.049 A 
ATOM     55  C   UNL A   1      39.190  31.924  31.289  1.00  0.00     0.074 A 
ATOM     56  C   UNL A   1      45.512  30.592  30.774  1.00  0.00     0.029 A 
ATOM     57  N   UNL A   1      43.941  32.126  30.834  1.00  0.00    -0.354 N 
ATOM     58  N   UNL A   1      39.910  31.521  32.295  1.00  0.00    -0.248 NA
ATOM     59  C   UNL A   1      39.774  32.976  30.475  1.00  0.00     0.031 C 
ATOM     60  C   UNL A   1      44.682  30.388  31.919  1.00  0.00     0.029 A 
ATOM     61  C   UNL A   1      43.583  31.242  31.816  1.00  0.00     0.049 A 
ATOM     62  H   UNL A   1      43.606  33.047  30.741  1.00  0.00     0.167 HD
ATOM     63  C   UNL A   1      41.194  31.937  31.987  1.00  0.00     0.074 A 
ATOM     64  C   UNL A   1      41.027  32.934  30.934  1.00  0.00     0.031 C 
ATOM     65  C   UNL A   1      42.274  31.226  32.428  1.00  0.00     0.037 A 
BRANCH  52  66
ATOM     66  C   UNL A   1      44.855  33.107  27.977  1.00  0.00     0.064 A 
ATOM     67  C   UNL A   1      46.139  33.497  27.546  1.00  0.00     0.173 A 
ATOM     68  C   UNL A   1      43.910  34.148  28.094  1.00  0.00     0.173 A 
ATOM     69  F   UNL A   1      47.123  32.593  27.426  1.00  0.00    -0.203 F 
ATOM     70  C   UNL A   1      46.468  34.837  27.318  1.00  0.00     0.198 A 
ATOM     71  C   UNL A   1      44.227  35.477  27.818  1.00  0.00     0.198 A 
ATOM     72  F   UNL A   1      42.684  33.940  28.590  1.00  0.00    -0.203 F 
ATOM     73  F   UNL A   1      47.732  35.174  27.030  1.00  0.00    -0.200 F 
ATOM     74  C   UNL A   1      45.512  35.826  27.461  1.00  0.00     0.200 A 
ATOM     75  F   UNL A   1      43.294  36.425  27.988  1.00  0.00    -0.200 F 
ATOM     76  F   UNL A   1      45.837  37.116  27.305  1.00  0.00    -0.200 F 
ENDBRANCH  52  66
BRANCH  53  77
ATOM     77  C   UNL A   1      36.722  31.762  30.561  1.00  0.00     0.064 A 
ATOM     78  C   UNL A   1      35.875  31.903  31.674  1.00  0.00     0.173 A 
ATOM     79  C   UNL A   1      36.410  32.532  29.428  1.00  0.00     0.173 A 
ATOM     80  F   UNL A   1      36.123  31.219  32.801  1.00  0.00    -0.203 F 
ATOM     81  C   UNL A   1      34.823  32.822  31.682  1.00  0.00     0.198 A 
ATOM     82  C   UNL A   1      35.356  33.448  29.435  1.00  0.00     0.198 A 
ATOM     83  F   UNL A   1      37.191  32.494  28.338  1.00  0.00    -0.203 F 
ATOM     84  F   UNL A   1      34.099  33.000  32.796  1.00  0.00    -0.200 F 
ATOM     85  C   UNL A   1      34.579  33.610  30.569  1.00  0.00     0.200 A 
ATOM     86  F   UNL A   1      35.149  34.232  28.368  1.00  0.00    -0.200 F 
ATOM     87  F   UNL A   1      33.631  34.558  30.608  1.00  0.00    -0.200 F 
ENDBRANCH  53  77
BRANCH  65  88
ATOM     88  C   UNL A   1      42.028  30.216  33.516  1.00  0.00     0.064 A 
ATOM     89  C   UNL A   1      41.690  28.868  33.299  1.00  0.00     0.173 A 
ATOM     90  C   UNL A   1      42.226  30.623  34.841  1.00  0.00     0.173 A 
ATOM     91  F   UNL A   1      41.567  28.378  32.060  1.00  0.00    -0.203 F 
ATOM     92  C   UNL A   1      41.513  27.987  34.366  1.00  0.00     0.198 A 
ATOM     93  C   UNL A   1      42.086  29.733  35.901  1.00  0.00     0.198 A 
ATOM     94  F   UNL A   1      42.594  31.887  35.107  1.00  0.00    -0.203 F 
ATOM     95  F   UNL A   1      41.168  26.711  34.135  1.00  0.00    -0.200 F 
ATOM     96  C   UNL A   1      41.716  28.419  35.665  1.00  0.00     0.200 A 
ATOM     97  F   UNL A   1      42.326  30.147  37.153  1.00  0.00    -0.200 F 
ATOM     98  F   UNL A   1      41.577  27.566  36.690  1.00  0.00    -0.200 F 
ENDBRANCH  65  88
ENDBRANCH  39  40
ENDBRANCH  31  34
ENDBRANCH  29  30
ENDBRANCH  28  29
ENDBRANCH   1  28
TORSDOF 14
ENDMDL
MODEL 3
REMARK VINA RESULT:     -13.0      3.573      9.162
REMARK SMILES Cc1c(C(=O)NCCCCNC(=O)c2ccc(-c3c4nc(c(-c5c(F)c(F)c(F)c(F)c5F)c5ccc([nH]5)c(-c5c(F)c(F)c(F)c(F)c5F)c5nc(c(-c6c(F)c(F)c(F)c(F)c6F)c6ccc3[nH]6)C=C5)C=C4)cc2)sc2ncnc(NCc3cn4c(n3)SCC4)c12
REMARK SMILES IDX 8 1 7 2 6 3 4 4 5 5 3 7 1 8 2 9 93 10 77 11 78 12 82 13
REMARK SMILES IDX 79 14 81 15 80 16 83 17 84 19 85 20 86 21 89 22 87 23 88 24
REMARK SMILES IDX 92 25 90 26 91 27 9 28 10 29 11 30 12 31 13 33 14 34 15 35
REMARK SMILES IDX 76 36 16 37 75 38 17 39 18 40 19 41 69 42 20 43 74 44 68 45
REMARK SMILES IDX 70 46 21 47 73 48 67 49 66 50 22 52 54 53 34 54 53 55 35 56
REMARK SMILES IDX 38 57 52 58 71 59 36 60 37 61 51 63 72 64 39 65 23 66 24 67
REMARK SMILES IDX 32 68 25 69 26 70 30 71 33 72 27 73 28 74 31 75 29 76 55 77
REMARK SMILES IDX 56 78 64 79 57 80 58 81 62 82 65 83 59 84 60 85 63 86 61 87
REMARK SMILES IDX 40 88 41 89 49 90 42 91 43 92 47 93 50 94 44 95 45 96 48 97
REMARK SMILES IDX 46 98
REMARK H PARENT 6 6 83 18 11 32 70 51 38 62
REMARK Flexibility Score: inf
ROOT
ATOM      1  C   UNL A   1      34.939  30.348  27.251  1.00  0.00     0.023 C 
ENDROOT
BRANCH   1   2
ATOM      2  C   UNL A   1      34.045  29.147  26.932  1.00  0.00     0.116 C 
BRANCH   2   3
ATOM      3  N   UNL A   1      34.033  28.859  25.514  1.00  0.00    -0.351 N 
ATOM      4  C   UNL A   1      33.556  27.804  24.777  1.00  0.00     0.261 C 
ATOM      5  O   UNL A   1      33.807  27.885  23.569  1.00  0.00    -0.268 OA
ATOM      6  H   UNL A   1      34.452  29.562  24.967  1.00  0.00     0.163 HD
BRANCH   4   7
ATOM      7  C   UNL A   1      32.773  26.698  25.336  1.00  0.00     0.098 A 
ATOM      8  C   UNL A   1      34.660  25.018  25.280  1.00  0.00     0.047 C 
ATOM      9  C   UNL A   1      33.252  25.414  25.634  1.00  0.00    -0.014 A 
ATOM     10  C   UNL A   1      32.221  24.557  26.255  1.00  0.00     0.057 A 
ATOM     11  S   UNL A   1      31.147  26.855  25.797  1.00  0.00    -0.110 S 
ATOM     12  C   UNL A   1      31.004  25.224  26.200  1.00  0.00     0.129 A 
ATOM     13  C   UNL A   1      32.142  23.261  26.854  1.00  0.00     0.138 A 
ATOM     14  N   UNL A   1      29.785  24.746  26.484  1.00  0.00    -0.225 NA
ATOM     15  N   UNL A   1      30.911  22.745  27.097  1.00  0.00    -0.219 NA
ATOM     16  C   UNL A   1      29.820  23.481  26.877  1.00  0.00     0.225 A 
BRANCH  13  17
ATOM     17  N   UNL A   1      33.136  22.428  27.299  1.00  0.00    -0.364 N 
ATOM     18  H   UNL A   1      33.163  22.254  28.267  1.00  0.00     0.162 HD
BRANCH  17  19
ATOM     19  C   UNL A   1      34.139  21.785  26.505  1.00  0.00     0.172 C 
BRANCH  19  20
ATOM     20  C   UNL A   1      33.788  20.703  25.534  1.00  0.00     0.079 A 
ATOM     21  C   UNL A   1      32.549  20.083  25.407  1.00  0.00     0.113 A 
ATOM     22  N   UNL A   1      34.794  19.933  24.967  1.00  0.00    -0.226 NA
ATOM     23  N   UNL A   1      32.853  18.870  24.886  1.00  0.00    -0.325 N 
ATOM     24  C   UNL A   1      34.186  18.833  24.623  1.00  0.00     0.168 A 
ATOM     25  C   UNL A   1      32.174  17.592  24.972  1.00  0.00     0.135 C 
ATOM     26  S   UNL A   1      34.778  17.224  24.430  1.00  0.00    -0.086 SA
ATOM     27  C   UNL A   1      33.271  16.561  25.252  1.00  0.00     0.100 C 
ENDBRANCH  19  20
ENDBRANCH  17  19
ENDBRANCH  13  17
ENDBRANCH   4   7
ENDBRANCH   2   3
ENDBRANCH   1   2
BRANCH   1  28
ATOM     28  C   UNL A   1      34.195  31.624  27.674  1.00  0.00     0.023 C 
BRANCH  28  29
ATOM     29  C   UNL A   1      35.088  32.786  28.095  1.00  0.00     0.116 C 
BRANCH  29  30
ATOM     30  N   UNL A   1      35.041  33.068  29.532  1.00  0.00    -0.352 N 
ATOM     31  C   UNL A   1      35.626  32.345  30.555  1.00  0.00     0.251 C 
ATOM     32  H   UNL A   1      34.532  33.867  29.801  1.00  0.00     0.163 HD
ATOM     33  O   UNL A   1      35.223  32.422  31.713  1.00  0.00    -0.269 OA
BRANCH  31  34
ATOM     34  C   UNL A   1      36.773  31.488  30.223  1.00  0.00     0.039 A 
ATOM     35  C   UNL A   1      38.050  31.992  29.987  1.00  0.00     0.014 A 
ATOM     36  C   UNL A   1      36.543  30.119  30.248  1.00  0.00     0.014 A 
ATOM     37  C   UNL A   1      39.106  31.089  29.882  1.00  0.00     0.010 A 
ATOM     38  C   UNL A   1      37.600  29.254  30.354  1.00  0.00     0.010 A 
ATOM     39  C   UNL A   1      38.883  29.714  30.105  1.00  0.00    -0.014 A 
BRANCH  39  40
ATOM     40  C   UNL A   1      39.994  28.764  30.150  1.00  0.00     0.031 A 
ATOM     41  C   UNL A   1      40.532  28.501  31.512  1.00  0.00     0.074 A 
ATOM     42  C   UNL A   1      40.455  28.076  29.079  1.00  0.00     0.049 A 
ATOM     43  N   UNL A   1      41.658  28.915  31.989  1.00  0.00    -0.248 NA
ATOM     44  C   UNL A   1      39.678  27.828  32.504  1.00  0.00     0.031 C 
ATOM     45  C   UNL A   1      39.915  27.997  27.714  1.00  0.00     0.029 A 
ATOM     46  N   UNL A   1      41.524  27.233  29.014  1.00  0.00    -0.354 N 
ATOM     47  C   UNL A   1      41.743  28.420  33.285  1.00  0.00     0.074 A 
ATOM     48  C   UNL A   1      40.447  27.875  33.596  1.00  0.00     0.031 C 
ATOM     49  C   UNL A   1      40.517  26.996  27.032  1.00  0.00     0.029 A 
ATOM     50  C   UNL A   1      41.623  26.510  27.831  1.00  0.00     0.049 A 
ATOM     51  H   UNL A   1      42.175  27.143  29.748  1.00  0.00     0.167 HD
ATOM     52  C   UNL A   1      42.949  28.318  33.910  1.00  0.00     0.037 A 
ATOM     53  C   UNL A   1      42.580  25.608  27.509  1.00  0.00     0.037 A 
ATOM     54  C   UNL A   1      43.955  29.087  33.222  1.00  0.00     0.049 A 
ATOM     55  C   UNL A   1      43.752  25.915  28.355  1.00  0.00     0.074 A 
ATOM     56  C   UNL A   1      44.181  30.427  32.989  1.00  0.00     0.029 A 
ATOM     57  N   UNL A   1      44.723  28.408  32.312  1.00  0.00    -0.354 N 
ATOM     58  N   UNL A   1      44.476  26.989  28.229  1.00  0.00    -0.248 NA
ATOM     59  C   UNL A   1      43.885  25.207  29.616  1.00  0.00     0.031 C 
ATOM     60  C   UNL A   1      44.735  30.491  31.673  1.00  0.00     0.029 A 
ATOM     61  C   UNL A   1      44.875  29.188  31.197  1.00  0.00     0.049 A 
ATOM     62  H   UNL A   1      45.104  27.509  32.441  1.00  0.00     0.167 HD
ATOM     63  C   UNL A   1      44.807  27.336  29.528  1.00  0.00     0.074 A 
ATOM     64  C   UNL A   1      44.533  26.139  30.319  1.00  0.00     0.031 C 
ATOM     65  C   UNL A   1      45.006  28.644  29.864  1.00  0.00     0.037 A 
BRANCH  52  66
ATOM     66  C   UNL A   1      43.322  27.222  34.879  1.00  0.00     0.064 A 
ATOM     67  C   UNL A   1      43.688  27.560  36.198  1.00  0.00     0.173 A 
ATOM     68  C   UNL A   1      43.641  25.908  34.477  1.00  0.00     0.173 A 
ATOM     69  F   UNL A   1      43.456  28.793  36.676  1.00  0.00    -0.203 F 
ATOM     70  C   UNL A   1      44.383  26.672  37.024  1.00  0.00     0.198 A 
ATOM     71  C   UNL A   1      44.290  25.008  35.320  1.00  0.00     0.198 A 
ATOM     72  F   UNL A   1      43.447  25.484  33.223  1.00  0.00    -0.203 F 
ATOM     73  F   UNL A   1      44.818  27.079  38.224  1.00  0.00    -0.200 F 
ATOM     74  C   UNL A   1      44.689  25.398  36.581  1.00  0.00     0.200 A 
ATOM     75  F   UNL A   1      44.602  23.786  34.864  1.00  0.00    -0.200 F 
ATOM     76  F   UNL A   1      45.409  24.566  37.345  1.00  0.00    -0.200 F 
ENDBRANCH  52  66
BRANCH  53  77
ATOM     77  C   UNL A   1      42.470  24.320  26.787  1.00  0.00     0.064 A 
ATOM     78  C   UNL A   1      43.105  24.153  25.544  1.00  0.00     0.173 A 
ATOM     79  C   UNL A   1      42.073  23.150  27.456  1.00  0.00     0.173 A 
ATOM     80  F   UNL A   1      43.536  25.222  24.858  1.00  0.00    -0.203 F 
ATOM     81  C   UNL A   1      43.399  22.885  25.037  1.00  0.00     0.198 A 
ATOM     82  C   UNL A   1      42.364  21.883  26.946  1.00  0.00     0.198 A 
ATOM     83  F   UNL A   1      41.501  23.215  28.668  1.00  0.00    -0.203 F 
ATOM     84  F   UNL A   1      44.094  22.766  23.896  1.00  0.00    -0.200 F 
ATOM     85  C   UNL A   1      43.048  21.751  25.750  1.00  0.00     0.200 A 
ATOM     86  F   UNL A   1      42.053  20.791  27.659  1.00  0.00    -0.200 F 
ATOM     87  F   UNL A   1      43.412  20.538  25.311  1.00  0.00    -0.200 F 
ENDBRANCH  53  77
BRANCH  65  88
ATOM     88  C   UNL A   1      45.194  29.618  28.733  1.00  0.00     0.064 A 
ATOM     89  C   UNL A   1      44.152  30.284  28.065  1.00  0.00     0.173 A 
ATOM     90  C   UNL A   1      46.506  29.948  28.368  1.00  0.00     0.173 A 
ATOM     91  F   UNL A   1      42.874  30.090  28.411  1.00  0.00    -0.203 F 
ATOM     92  C   UNL A   1      44.415  31.201  27.046  1.00  0.00     0.198 A 
ATOM     93  C   UNL A   1      46.766  30.891  27.378  1.00  0.00     0.198 A 
ATOM     94  F   UNL A   1      47.543  29.378  29.001  1.00  0.00    -0.203 F 
ATOM     95  F   UNL A   1      43.403  31.807  26.407  1.00  0.00    -0.200 F 
ATOM     96  C   UNL A   1      45.722  31.507  26.708  1.00  0.00     0.200 A 
ATOM     97  F   UNL A   1      48.033  31.214  27.085  1.00  0.00    -0.200 F 
ATOM     98  F   UNL A   1      45.978  32.410  25.751  1.00  0.00    -0.200 F 
ENDBRANCH  65  88
ENDBRANCH  39  40
ENDBRANCH  31  34
ENDBRANCH  29  30
ENDBRANCH  28  29
ENDBRANCH   1  28
TORSDOF 14
ENDMDL
