MODEL 1
REMARK VINA RESULT:     -12.6      0.000      0.000
REMARK SMILES O=C(NCCCCNC(=O)[C@@H]1[C@@H](C(=O)NCCn2cc(Cl)cn2)[C@H]2CC[C@@H]1O2)c1ccc(-c2c3nc(c(-c4c(F)c(F)c(F)c(F)c4F)c4ccc([nH]4)c(-c4c(F)c(F)c(F)c(F)c4F)c4nc(c(-c5c(F)c(F)c(F)c(F)c5F)c5ccc2[nH]5)C=C4)C=C3)cc1
REMARK SMILES IDX 6 1 5 2 4 3 3 4 1 5 2 6 29 8 30 9 91 10 31 11 90 12 32 13
REMARK SMILES IDX 33 14 34 15 84 16 35 17 89 18 83 19 85 20 36 21 88 22 82 23
REMARK SMILES IDX 81 24 37 26 69 27 49 28 68 29 50 30 53 31 67 32 86 33 51 34
REMARK SMILES IDX 52 35 66 37 87 38 54 39 38 40 39 41 47 42 40 43 41 44 45 45
REMARK SMILES IDX 48 46 42 47 43 48 46 49 44 50 70 51 71 52 79 53 72 54 73 55
REMARK SMILES IDX 77 56 80 57 74 58 75 59 78 60 76 61 55 62 56 63 64 64 57 65
REMARK SMILES IDX 58 66 62 67 65 68 59 69 60 70 63 71 61 72 7 73 8 74 9 75
REMARK SMILES IDX 10 77 11 78 12 79 27 80 24 81 26 82 28 83 25 84 13 85 14 86
REMARK SMILES IDX 15 87 16 89 17 90 18 91 19 92 23 93 20 94 22 95 21 96
REMARK H PARENT 3 7 85 25 53 36 8 76 15 88
REMARK Flexibility Score: inf
ROOT
ATOM      1  C   UNL A   1      38.817  22.232  26.203  1.00  0.00     0.023 C 
ENDROOT
BRANCH   1   2
ATOM      2  C   UNL A   1      40.048  22.612  27.021  1.00  0.00     0.023 C 
BRANCH   2   3
ATOM      3  C   UNL A   1      41.322  21.833  26.693  1.00  0.00     0.116 C 
BRANCH   3   4
ATOM      4  N   UNL A   1      42.119  22.383  25.613  1.00  0.00    -0.352 N 
ATOM      5  O   UNL A   1      43.489  23.624  24.404  1.00  0.00    -0.269 OA
ATOM      6  C   UNL A   1      42.755  23.574  25.394  1.00  0.00     0.251 C 
ATOM      7  H   UNL A   1      42.226  21.754  24.865  1.00  0.00     0.163 HD
BRANCH   6   8
ATOM      8  C   UNL A   1      42.572  24.805  26.209  1.00  0.00     0.039 A 
ATOM      9  C   UNL A   1      43.222  25.089  27.409  1.00  0.00     0.014 A 
ATOM     10  C   UNL A   1      41.643  25.739  25.710  1.00  0.00     0.014 A 
ATOM     11  C   UNL A   1      42.883  26.223  28.142  1.00  0.00     0.010 A 
ATOM     12  C   UNL A   1      41.316  26.886  26.426  1.00  0.00     0.010 A 
ATOM     13  C   UNL A   1      41.914  27.108  27.660  1.00  0.00    -0.014 A 
BRANCH  13  14
ATOM     14  C   UNL A   1      41.697  28.351  28.399  1.00  0.00     0.031 A 
ATOM     15  C   UNL A   1      42.758  29.384  28.187  1.00  0.00     0.074 A 
ATOM     16  C   UNL A   1      40.574  28.626  29.092  1.00  0.00     0.049 A 
ATOM     17  N   UNL A   1      43.495  29.980  29.069  1.00  0.00    -0.248 NA
ATOM     18  C   UNL A   1      43.104  29.724  26.795  1.00  0.00     0.031 C 
ATOM     19  C   UNL A   1      39.333  27.851  29.148  1.00  0.00     0.029 A 
ATOM     20  N   UNL A   1      40.276  29.730  29.835  1.00  0.00    -0.354 N 
ATOM     21  C   UNL A   1      44.291  30.881  28.363  1.00  0.00     0.074 A 
ATOM     22  C   UNL A   1      44.096  30.599  26.965  1.00  0.00     0.031 C 
ATOM     23  C   UNL A   1      38.355  28.609  29.698  1.00  0.00     0.029 A 
ATOM     24  C   UNL A   1      38.929  29.867  30.148  1.00  0.00     0.049 A 
ATOM     25  H   UNL A   1      40.958  30.378  30.126  1.00  0.00     0.167 HD
ATOM     26  C   UNL A   1      44.910  31.929  28.974  1.00  0.00     0.037 A 
ATOM     27  C   UNL A   1      38.325  30.960  30.681  1.00  0.00     0.037 A 
ATOM     28  C   UNL A   1      45.060  31.707  30.384  1.00  0.00     0.049 A 
ATOM     29  C   UNL A   1      39.380  31.807  31.290  1.00  0.00     0.074 A 
ATOM     30  C   UNL A   1      45.729  30.770  31.149  1.00  0.00     0.029 A 
ATOM     31  N   UNL A   1      44.182  32.317  31.243  1.00  0.00    -0.354 N 
ATOM     32  N   UNL A   1      40.055  31.478  32.354  1.00  0.00    -0.248 NA
ATOM     33  C   UNL A   1      39.986  32.828  30.451  1.00  0.00     0.031 C 
ATOM     34  C   UNL A   1      44.867  30.517  32.257  1.00  0.00     0.029 A 
ATOM     35  C   UNL A   1      43.762  31.358  32.130  1.00  0.00     0.049 A 
ATOM     36  H   UNL A   1      43.905  33.260  31.225  1.00  0.00     0.167 HD
ATOM     37  C   UNL A   1      41.345  31.914  32.096  1.00  0.00     0.074 A 
ATOM     38  C   UNL A   1      41.225  32.808  30.948  1.00  0.00     0.031 C 
ATOM     39  C   UNL A   1      42.422  31.295  32.658  1.00  0.00     0.037 A 
BRANCH  26  40
ATOM     40  C   UNL A   1      45.081  33.288  28.342  1.00  0.00     0.064 A 
ATOM     41  C   UNL A   1      46.374  33.800  28.122  1.00  0.00     0.173 A 
ATOM     42  C   UNL A   1      44.028  34.222  28.222  1.00  0.00     0.173 A 
ATOM     43  F   UNL A   1      47.452  33.010  28.239  1.00  0.00    -0.203 F 
ATOM     44  C   UNL A   1      46.598  35.157  27.865  1.00  0.00     0.198 A 
ATOM     45  C   UNL A   1      44.250  35.563  27.915  1.00  0.00     0.198 A 
ATOM     46  F   UNL A   1      42.760  33.903  28.509  1.00  0.00    -0.203 F 
ATOM     47  F   UNL A   1      47.852  35.622  27.780  1.00  0.00    -0.200 F 
ATOM     48  C   UNL A   1      45.536  36.037  27.765  1.00  0.00     0.200 A 
ATOM     49  F   UNL A   1      43.208  36.404  27.846  1.00  0.00    -0.200 F 
ATOM     50  F   UNL A   1      45.750  37.347  27.579  1.00  0.00    -0.200 F 
ENDBRANCH  26  40
BRANCH  27  51
ATOM     51  C   UNL A   1      36.962  31.486  30.418  1.00  0.00     0.064 A 
ATOM     52  C   UNL A   1      36.071  31.763  31.470  1.00  0.00     0.173 A 
ATOM     53  C   UNL A   1      36.615  32.001  29.155  1.00  0.00     0.173 A 
ATOM     54  F   UNL A   1      36.350  31.354  32.716  1.00  0.00    -0.203 F 
ATOM     55  C   UNL A   1      34.916  32.530  31.272  1.00  0.00     0.198 A 
ATOM     56  C   UNL A   1      35.460  32.760  28.957  1.00  0.00     0.198 A 
ATOM     57  F   UNL A   1      37.441  31.864  28.107  1.00  0.00    -0.203 F 
ATOM     58  F   UNL A   1      34.124  32.827  32.312  1.00  0.00    -0.200 F 
ATOM     59  C   UNL A   1      34.618  33.035  30.018  1.00  0.00     0.200 A 
ATOM     60  F   UNL A   1      35.204  33.276  27.747  1.00  0.00    -0.200 F 
ATOM     61  F   UNL A   1      33.547  33.822  29.840  1.00  0.00    -0.200 F 
ENDBRANCH  27  51
BRANCH  39  62
ATOM     62  C   UNL A   1      42.163  30.291  33.746  1.00  0.00     0.064 A 
ATOM     63  C   UNL A   1      41.790  28.955  33.513  1.00  0.00     0.173 A 
ATOM     64  C   UNL A   1      42.434  30.660  35.070  1.00  0.00     0.173 A 
ATOM     65  F   UNL A   1      41.616  28.494  32.268  1.00  0.00    -0.203 F 
ATOM     66  C   UNL A   1      41.649  28.048  34.563  1.00  0.00     0.198 A 
ATOM     67  C   UNL A   1      42.329  29.742  36.113  1.00  0.00     0.198 A 
ATOM     68  F   UNL A   1      42.848  31.905  35.350  1.00  0.00    -0.203 F 
ATOM     69  F   UNL A   1      41.279  26.782  34.313  1.00  0.00    -0.200 F 
ATOM     70  C   UNL A   1      41.926  28.441  35.860  1.00  0.00     0.200 A 
ATOM     71  F   UNL A   1      42.648  30.114  37.360  1.00  0.00    -0.200 F 
ATOM     72  F   UNL A   1      41.831  27.560  36.865  1.00  0.00    -0.200 F 
ENDBRANCH  39  62
ENDBRANCH  13  14
ENDBRANCH   6   8
ENDBRANCH   3   4
ENDBRANCH   2   3
ENDBRANCH   1   2
BRANCH   1  73
ATOM     73  C   UNL A   1      37.959  23.385  25.706  1.00  0.00     0.116 C 
BRANCH  73  74
ATOM     74  N   UNL A   1      37.427  23.214  24.365  1.00  0.00    -0.356 N 
ATOM     75  C   UNL A   1      36.164  23.266  23.860  1.00  0.00     0.226 C 
ATOM     76  H   UNL A   1      38.116  23.022  23.687  1.00  0.00     0.163 HD
ATOM     77  O   UNL A   1      36.077  23.197  22.628  1.00  0.00    -0.275 OA
BRANCH  75  78
ATOM     78  C   UNL A   1      34.879  23.297  24.688  1.00  0.00     0.122 C 
ATOM     79  C   UNL A   1      33.667  22.507  24.171  1.00  0.00     0.122 C 
ATOM     80  C   UNL A   1      34.351  24.735  24.715  1.00  0.00     0.132 C 
ATOM     81  C   UNL A   1      32.667  23.650  23.895  1.00  0.00     0.132 C 
ATOM     82  C   UNL A   1      33.275  24.920  25.792  1.00  0.00     0.035 C 
ATOM     83  O   UNL A   1      33.536  24.749  23.522  1.00  0.00    -0.373 OA
ATOM     84  C   UNL A   1      32.064  24.226  25.170  1.00  0.00     0.035 C 
BRANCH  79  85
ATOM     85  C   UNL A   1      33.119  21.449  25.108  1.00  0.00     0.226 C 
ATOM     86  O   UNL A   1      33.231  21.509  26.323  1.00  0.00    -0.275 OA
ATOM     87  N   UNL A   1      32.513  20.353  24.551  1.00  0.00    -0.354 N 
ATOM     88  H   UNL A   1      32.260  19.646  25.187  1.00  0.00     0.163 HD
BRANCH  87  89
ATOM     89  C   UNL A   1      32.184  20.077  23.154  1.00  0.00     0.139 C 
BRANCH  89  90
ATOM     90  C   UNL A   1      32.265  18.608  22.762  1.00  0.00     0.165 C 
BRANCH  90  91
ATOM     91  N   UNL A   1      32.890  17.795  23.780  1.00  0.00    -0.269 N 
ATOM     92  C   UNL A   1      34.145  17.265  23.736  1.00  0.00     0.129 A 
ATOM     93  N   UNL A   1      32.222  17.516  24.915  1.00  0.00    -0.180 NA
ATOM     94  C   UNL A   1      34.300  16.581  24.915  1.00  0.00     0.079 A 
ATOM     95  C   UNL A   1      33.088  16.762  25.604  1.00  0.00     0.155 A 
ATOM     96  Cl  UNL A   1      35.646  15.708  25.445  1.00  0.00    -0.081 Cl
ENDBRANCH  90  91
ENDBRANCH  89  90
ENDBRANCH  87  89
ENDBRANCH  79  85
ENDBRANCH  75  78
ENDBRANCH  73  74
ENDBRANCH   1  73
TORSDOF 15
ENDMDL
MODEL 2
REMARK VINA RESULT:     -12.5      3.794      9.049
REMARK SMILES O=C(NCCCCNC(=O)[C@@H]1[C@@H](C(=O)NCCn2cc(Cl)cn2)[C@H]2CC[C@@H]1O2)c1ccc(-c2c3nc(c(-c4c(F)c(F)c(F)c(F)c4F)c4ccc([nH]4)c(-c4c(F)c(F)c(F)c(F)c4F)c4nc(c(-c5c(F)c(F)c(F)c(F)c5F)c5ccc2[nH]5)C=C4)C=C3)cc1
REMARK SMILES IDX 6 1 5 2 4 3 3 4 1 5 2 6 29 8 30 9 91 10 31 11 90 12 32 13
REMARK SMILES IDX 33 14 34 15 84 16 35 17 89 18 83 19 85 20 36 21 88 22 82 23
REMARK SMILES IDX 81 24 37 26 69 27 49 28 68 29 50 30 53 31 67 32 86 33 51 34
REMARK SMILES IDX 52 35 66 37 87 38 54 39 38 40 39 41 47 42 40 43 41 44 45 45
REMARK SMILES IDX 48 46 42 47 43 48 46 49 44 50 70 51 71 52 79 53 72 54 73 55
REMARK SMILES IDX 77 56 80 57 74 58 75 59 78 60 76 61 55 62 56 63 64 64 57 65
REMARK SMILES IDX 58 66 62 67 65 68 59 69 60 70 63 71 61 72 7 73 8 74 9 75
REMARK SMILES IDX 10 77 11 78 12 79 27 80 24 81 26 82 28 83 25 84 13 85 14 86
REMARK SMILES IDX 15 87 16 89 17 90 18 91 19 92 23 93 20 94 22 95 21 96
REMARK H PARENT 3 7 85 25 53 36 8 76 15 88
REMARK Flexibility Score: inf
ROOT
ATOM      1  C   UNL A   1      31.875  28.044  27.515  1.00  0.00     0.023 C 
ENDROOT
BRANCH   1   2
ATOM      2  C   UNL A   1      32.008  29.448  26.931  1.00  0.00     0.023 C 
BRANCH   2   3
ATOM      3  C   UNL A   1      33.433  29.993  26.848  1.00  0.00     0.116 C 
BRANCH   3   4
ATOM      4  N   UNL A   1      33.700  31.150  27.680  1.00  0.00    -0.352 N 
ATOM      5  O   UNL A   1      34.690  32.772  28.808  1.00  0.00    -0.269 OA
ATOM      6  C   UNL A   1      34.807  31.649  28.312  1.00  0.00     0.251 C 
ATOM      7  H   UNL A   1      32.901  31.706  27.823  1.00  0.00     0.163 HD
BRANCH   6   8
ATOM      8  C   UNL A   1      36.089  30.917  28.498  1.00  0.00     0.039 A 
ATOM      9  C   UNL A   1      36.261  29.539  28.383  1.00  0.00     0.014 A 
ATOM     10  C   UNL A   1      37.204  31.708  28.837  1.00  0.00     0.014 A 
ATOM     11  C   UNL A   1      37.485  28.953  28.694  1.00  0.00     0.010 A 
ATOM     12  C   UNL A   1      38.436  31.132  29.126  1.00  0.00     0.010 A 
ATOM     13  C   UNL A   1      38.565  29.749  29.087  1.00  0.00    -0.014 A 
BRANCH  13  14
ATOM     14  C   UNL A   1      39.863  29.099  29.267  1.00  0.00     0.031 A 
ATOM     15  C   UNL A   1      40.243  28.874  30.696  1.00  0.00     0.074 A 
ATOM     16  C   UNL A   1      40.598  28.600  28.253  1.00  0.00     0.049 A 
ATOM     17  N   UNL A   1      41.305  29.270  31.322  1.00  0.00    -0.248 NA
ATOM     18  C   UNL A   1      39.260  28.196  31.560  1.00  0.00     0.031 C 
ATOM     19  C   UNL A   1      40.227  28.475  26.842  1.00  0.00     0.029 A 
ATOM     20  N   UNL A   1      41.823  28.003  28.298  1.00  0.00    -0.354 N 
ATOM     21  C   UNL A   1      41.201  28.764  32.617  1.00  0.00     0.074 A 
ATOM     22  C   UNL A   1      39.876  28.216  32.742  1.00  0.00     0.031 C 
ATOM     23  C   UNL A   1      41.105  27.654  26.219  1.00  0.00     0.029 A 
ATOM     24  C   UNL A   1      42.166  27.302  27.148  1.00  0.00     0.049 A 
ATOM     25  H   UNL A   1      42.418  28.064  29.081  1.00  0.00     0.167 HD
ATOM     26  C   UNL A   1      42.282  28.656  33.439  1.00  0.00     0.037 A 
ATOM     27  C   UNL A   1      43.210  26.448  26.998  1.00  0.00     0.037 A 
ATOM     28  C   UNL A   1      43.343  29.536  33.036  1.00  0.00     0.049 A 
ATOM     29  C   UNL A   1      44.178  26.722  28.088  1.00  0.00     0.074 A 
ATOM     30  C   UNL A   1      43.471  30.907  32.924  1.00  0.00     0.029 A 
ATOM     31  N   UNL A   1      44.399  29.013  32.333  1.00  0.00    -0.354 N 
ATOM     32  N   UNL A   1      44.888  27.810  28.176  1.00  0.00    -0.248 NA
ATOM     33  C   UNL A   1      44.029  25.966  29.321  1.00  0.00     0.031 C 
ATOM     34  C   UNL A   1      44.265  31.108  31.757  1.00  0.00     0.029 A 
ATOM     35  C   UNL A   1      44.622  29.851  31.270  1.00  0.00     0.049 A 
ATOM     36  H   UNL A   1      44.899  28.194  32.550  1.00  0.00     0.167 HD
ATOM     37  C   UNL A   1      44.905  28.106  29.530  1.00  0.00     0.074 A 
ATOM     38  C   UNL A   1      44.430  26.895  30.193  1.00  0.00     0.031 C 
ATOM     39  C   UNL A   1      45.034  29.391  29.967  1.00  0.00     0.037 A 
BRANCH  26  40
ATOM     40  C   UNL A   1      42.493  27.517  34.406  1.00  0.00     0.064 A 
ATOM     41  C   UNL A   1      43.041  26.304  33.949  1.00  0.00     0.173 A 
ATOM     42  C   UNL A   1      41.903  27.474  35.689  1.00  0.00     0.173 A 
ATOM     43  F   UNL A   1      43.600  26.220  32.732  1.00  0.00    -0.203 F 
ATOM     44  C   UNL A   1      42.948  25.123  34.695  1.00  0.00     0.198 A 
ATOM     45  C   UNL A   1      41.858  26.309  36.451  1.00  0.00     0.198 A 
ATOM     46  F   UNL A   1      41.249  28.523  36.205  1.00  0.00    -0.203 F 
ATOM     47  F   UNL A   1      43.378  23.968  34.170  1.00  0.00    -0.200 F 
ATOM     48  C   UNL A   1      42.354  25.127  35.943  1.00  0.00     0.200 A 
ATOM     49  F   UNL A   1      41.256  26.329  37.649  1.00  0.00    -0.200 F 
ATOM     50  F   UNL A   1      42.210  23.988  36.634  1.00  0.00    -0.200 F 
ENDBRANCH  26  40
BRANCH  27  51
ATOM     51  C   UNL A   1      43.282  25.205  26.190  1.00  0.00     0.064 A 
ATOM     52  C   UNL A   1      44.345  24.973  25.300  1.00  0.00     0.173 A 
ATOM     53  C   UNL A   1      42.467  24.097  26.490  1.00  0.00     0.173 A 
ATOM     54  F   UNL A   1      45.201  25.961  24.999  1.00  0.00    -0.203 F 
ATOM     55  C   UNL A   1      44.591  23.703  24.764  1.00  0.00     0.198 A 
ATOM     56  C   UNL A   1      42.709  22.833  25.950  1.00  0.00     0.198 A 
ATOM     57  F   UNL A   1      41.479  24.195  27.392  1.00  0.00    -0.203 F 
ATOM     58  F   UNL A   1      45.653  23.506  23.970  1.00  0.00    -0.200 F 
ATOM     59  C   UNL A   1      43.778  22.633  25.098  1.00  0.00     0.200 A 
ATOM     60  F   UNL A   1      41.939  21.798  26.313  1.00  0.00    -0.200 F 
ATOM     61  F   UNL A   1      44.050  21.404  24.636  1.00  0.00    -0.200 F 
ENDBRANCH  27  51
BRANCH  39  62
ATOM     62  C   UNL A   1      45.401  30.441  28.956  1.00  0.00     0.064 A 
ATOM     63  C   UNL A   1      46.723  30.762  28.598  1.00  0.00     0.173 A 
ATOM     64  C   UNL A   1      44.372  31.048  28.224  1.00  0.00     0.173 A 
ATOM     65  F   UNL A   1      47.763  30.148  29.175  1.00  0.00    -0.203 F 
ATOM     66  C   UNL A   1      46.996  31.684  27.589  1.00  0.00     0.198 A 
ATOM     67  C   UNL A   1      44.649  31.940  27.191  1.00  0.00     0.198 A 
ATOM     68  F   UNL A   1      43.092  30.739  28.481  1.00  0.00    -0.203 F 
ATOM     69  F   UNL A   1      48.267  31.982  27.276  1.00  0.00    -0.200 F 
ATOM     70  C   UNL A   1      45.959  32.266  26.881  1.00  0.00     0.200 A 
ATOM     71  F   UNL A   1      43.642  32.461  26.475  1.00  0.00    -0.200 F 
ATOM     72  F   UNL A   1      46.221  33.121  25.883  1.00  0.00    -0.200 F 
ENDBRANCH  39  62
ENDBRANCH  13  14
ENDBRANCH   6   8
ENDBRANCH   3   4
ENDBRANCH   2   3
ENDBRANCH   1   2
BRANCH   1  73
ATOM     73  C   UNL A   1      32.048  26.891  26.538  1.00  0.00     0.116 C 
BRANCH  73  74
ATOM     74  N   UNL A   1      31.231  25.725  26.821  1.00  0.00    -0.356 N 
ATOM     75  C   UNL A   1      31.502  24.391  26.839  1.00  0.00     0.226 C 
ATOM     76  H   UNL A   1      30.295  25.942  27.042  1.00  0.00     0.163 HD
ATOM     77  O   UNL A   1      30.588  23.665  27.251  1.00  0.00    -0.275 OA
BRANCH  75  78
ATOM     78  C   UNL A   1      32.777  23.737  26.305  1.00  0.00     0.122 C 
ATOM     79  C   UNL A   1      32.916  23.559  24.785  1.00  0.00     0.122 C 
ATOM     80  C   UNL A   1      32.835  22.294  26.816  1.00  0.00     0.132 C 
ATOM     81  C   UNL A   1      32.935  22.019  24.671  1.00  0.00     0.132 C 
ATOM     82  C   UNL A   1      34.228  21.683  26.620  1.00  0.00     0.035 C 
ATOM     83  O   UNL A   1      32.097  21.608  25.781  1.00  0.00    -0.373 OA
ATOM     84  C   UNL A   1      34.259  21.412  25.116  1.00  0.00     0.035 C 
BRANCH  79  85
ATOM     85  C   UNL A   1      34.124  24.218  24.151  1.00  0.00     0.226 C 
ATOM     86  O   UNL A   1      35.151  24.463  24.764  1.00  0.00    -0.275 OA
ATOM     87  N   UNL A   1      34.028  24.598  22.837  1.00  0.00    -0.354 N 
ATOM     88  H   UNL A   1      34.795  25.110  22.493  1.00  0.00     0.163 HD
BRANCH  87  89
ATOM     89  C   UNL A   1      32.958  24.357  21.871  1.00  0.00     0.139 C 
BRANCH  89  90
ATOM     90  C   UNL A   1      32.528  25.587  21.081  1.00  0.00     0.165 C 
BRANCH  90  91
ATOM     91  N   UNL A   1      32.300  26.737  21.925  1.00  0.00    -0.269 N 
ATOM     92  C   UNL A   1      31.089  27.233  22.309  1.00  0.00     0.129 A 
ATOM     93  N   UNL A   1      33.348  27.416  22.426  1.00  0.00    -0.180 NA
ATOM     94  C   UNL A   1      31.367  28.317  23.102  1.00  0.00     0.079 A 
ATOM     95  C   UNL A   1      32.770  28.391  23.140  1.00  0.00     0.155 A 
ATOM     96  Cl  UNL A   1      30.277  29.349  23.876  1.00  0.00    -0.081 Cl
ENDBRANCH  90  91
ENDBRANCH  89  90
ENDBRANCH  87  89
ENDBRANCH  79  85
ENDBRANCH  75  78
ENDBRANCH  73  74
ENDBRANCH   1  73
TORSDOF 15
ENDMDL
MODEL 3
REMARK VINA RESULT:     -12.5      3.178      8.474
REMARK SMILES O=C(NCCCCNC(=O)[C@@H]1[C@@H](C(=O)NCCn2cc(Cl)cn2)[C@H]2CC[C@@H]1O2)c1ccc(-c2c3nc(c(-c4c(F)c(F)c(F)c(F)c4F)c4ccc([nH]4)c(-c4c(F)c(F)c(F)c(F)c4F)c4nc(c(-c5c(F)c(F)c(F)c(F)c5F)c5ccc2[nH]5)C=C4)C=C3)cc1
REMARK SMILES IDX 6 1 5 2 4 3 3 4 1 5 2 6 29 8 30 9 91 10 31 11 90 12 32 13
REMARK SMILES IDX 33 14 34 15 84 16 35 17 89 18 83 19 85 20 36 21 88 22 82 23
REMARK SMILES IDX 81 24 37 26 69 27 49 28 68 29 50 30 53 31 67 32 86 33 51 34
REMARK SMILES IDX 52 35 66 37 87 38 54 39 38 40 39 41 47 42 40 43 41 44 45 45
REMARK SMILES IDX 48 46 42 47 43 48 46 49 44 50 70 51 71 52 79 53 72 54 73 55
REMARK SMILES IDX 77 56 80 57 74 58 75 59 78 60 76 61 55 62 56 63 64 64 57 65
REMARK SMILES IDX 58 66 62 67 65 68 59 69 60 70 63 71 61 72 7 73 8 74 9 75
REMARK SMILES IDX 10 77 11 78 12 79 27 80 24 81 26 82 28 83 25 84 13 85 14 86
REMARK SMILES IDX 15 87 16 89 17 90 18 91 19 92 23 93 20 94 22 95 21 96
REMARK H PARENT 3 7 85 25 53 36 8 76 15 88
REMARK Flexibility Score: inf
ROOT
ATOM      1  C   UNL A   1      32.045  28.324  27.131  1.00  0.00     0.023 C 
ENDROOT
BRANCH   1   2
ATOM      2  C   UNL A   1      32.365  29.726  26.620  1.00  0.00     0.023 C 
BRANCH   2   3
ATOM      3  C   UNL A   1      33.762  30.246  26.955  1.00  0.00     0.116 C 
BRANCH   3   4
ATOM      4  N   UNL A   1      33.810  31.259  27.992  1.00  0.00    -0.352 N 
ATOM      5  O   UNL A   1      34.488  32.759  29.466  1.00  0.00    -0.269 OA
ATOM      6  C   UNL A   1      34.791  31.765  28.800  1.00  0.00     0.251 C 
ATOM      7  H   UNL A   1      32.935  31.679  28.151  1.00  0.00     0.163 HD
BRANCH   6   8
ATOM      8  C   UNL A   1      36.143  31.171  28.980  1.00  0.00     0.039 A 
ATOM      9  C   UNL A   1      37.290  31.865  29.363  1.00  0.00     0.014 A 
ATOM     10  C   UNL A   1      36.248  29.792  28.718  1.00  0.00     0.014 A 
ATOM     11  C   UNL A   1      38.526  31.224  29.387  1.00  0.00     0.010 A 
ATOM     12  C   UNL A   1      37.475  29.139  28.762  1.00  0.00     0.010 A 
ATOM     13  C   UNL A   1      38.620  29.867  29.064  1.00  0.00    -0.014 A 
BRANCH  13  14
ATOM     14  C   UNL A   1      39.915  29.211  29.240  1.00  0.00     0.031 A 
ATOM     15  C   UNL A   1      40.295  28.976  30.668  1.00  0.00     0.074 A 
ATOM     16  C   UNL A   1      40.649  28.715  28.223  1.00  0.00     0.049 A 
ATOM     17  N   UNL A   1      41.357  29.364  31.296  1.00  0.00    -0.248 NA
ATOM     18  C   UNL A   1      39.309  28.296  31.528  1.00  0.00     0.031 C 
ATOM     19  C   UNL A   1      40.279  28.600  26.812  1.00  0.00     0.029 A 
ATOM     20  N   UNL A   1      41.873  28.114  28.266  1.00  0.00    -0.354 N 
ATOM     21  C   UNL A   1      41.252  28.851  32.589  1.00  0.00     0.074 A 
ATOM     22  C   UNL A   1      39.925  28.307  32.710  1.00  0.00     0.031 C 
ATOM     23  C   UNL A   1      41.153  27.780  26.184  1.00  0.00     0.029 A 
ATOM     24  C   UNL A   1      42.213  27.419  27.112  1.00  0.00     0.049 A 
ATOM     25  H   UNL A   1      42.467  28.168  29.049  1.00  0.00     0.167 HD
ATOM     26  C   UNL A   1      42.332  28.734  33.410  1.00  0.00     0.037 A 
ATOM     27  C   UNL A   1      43.254  26.562  26.956  1.00  0.00     0.037 A 
ATOM     28  C   UNL A   1      43.396  29.613  33.013  1.00  0.00     0.049 A 
ATOM     29  C   UNL A   1      44.223  26.826  28.048  1.00  0.00     0.074 A 
ATOM     30  C   UNL A   1      43.529  30.985  32.909  1.00  0.00     0.029 A 
ATOM     31  N   UNL A   1      44.450  29.091  32.307  1.00  0.00    -0.354 N 
ATOM     32  N   UNL A   1      44.937  27.911  28.143  1.00  0.00    -0.248 NA
ATOM     33  C   UNL A   1      44.071  26.063  29.277  1.00  0.00     0.031 C 
ATOM     34  C   UNL A   1      44.324  31.190  31.743  1.00  0.00     0.029 A 
ATOM     35  C   UNL A   1      44.677  29.934  31.249  1.00  0.00     0.049 A 
ATOM     36  H   UNL A   1      44.947  28.269  32.519  1.00  0.00     0.167 HD
ATOM     37  C   UNL A   1      44.954  28.198  29.499  1.00  0.00     0.074 A 
ATOM     38  C   UNL A   1      44.475  26.985  30.155  1.00  0.00     0.031 C 
ATOM     39  C   UNL A   1      45.088  29.480  29.944  1.00  0.00     0.037 A 
BRANCH  26  40
ATOM     40  C   UNL A   1      42.538  27.589  34.370  1.00  0.00     0.064 A 
ATOM     41  C   UNL A   1      43.070  26.372  33.904  1.00  0.00     0.173 A 
ATOM     42  C   UNL A   1      41.959  27.547  35.658  1.00  0.00     0.173 A 
ATOM     43  F   UNL A   1      43.617  26.288  32.681  1.00  0.00    -0.203 F 
ATOM     44  C   UNL A   1      42.970  25.190  34.645  1.00  0.00     0.198 A 
ATOM     45  C   UNL A   1      41.908  26.379  36.416  1.00  0.00     0.198 A 
ATOM     46  F   UNL A   1      41.321  28.600  36.184  1.00  0.00    -0.203 F 
ATOM     47  F   UNL A   1      43.383  24.032  34.112  1.00  0.00    -0.200 F 
ATOM     48  C   UNL A   1      42.386  25.194  35.899  1.00  0.00     0.200 A 
ATOM     49  F   UNL A   1      41.316  26.400  37.619  1.00  0.00    -0.200 F 
ATOM     50  F   UNL A   1      42.236  24.054  36.586  1.00  0.00    -0.200 F 
ENDBRANCH  26  40
BRANCH  27  51
ATOM     51  C   UNL A   1      43.322  25.324  26.141  1.00  0.00     0.064 A 
ATOM     52  C   UNL A   1      44.383  25.095  25.247  1.00  0.00     0.173 A 
ATOM     53  C   UNL A   1      42.505  24.216  26.436  1.00  0.00     0.173 A 
ATOM     54  F   UNL A   1      45.240  26.082  24.951  1.00  0.00    -0.203 F 
ATOM     55  C   UNL A   1      44.626  23.827  24.704  1.00  0.00     0.198 A 
ATOM     56  C   UNL A   1      42.744  22.954  25.888  1.00  0.00     0.198 A 
ATOM     57  F   UNL A   1      41.520  24.310  27.341  1.00  0.00    -0.203 F 
ATOM     58  F   UNL A   1      45.685  23.633  23.906  1.00  0.00    -0.200 F 
ATOM     59  C   UNL A   1      43.811  22.757  25.033  1.00  0.00     0.200 A 
ATOM     60  F   UNL A   1      41.972  21.919  26.246  1.00  0.00    -0.200 F 
ATOM     61  F   UNL A   1      44.080  21.530  24.564  1.00  0.00    -0.200 F 
ENDBRANCH  27  51
BRANCH  39  62
ATOM     62  C   UNL A   1      45.459  30.535  28.939  1.00  0.00     0.064 A 
ATOM     63  C   UNL A   1      46.782  30.846  28.575  1.00  0.00     0.173 A 
ATOM     64  C   UNL A   1      44.431  31.159  28.219  1.00  0.00     0.173 A 
ATOM     65  F   UNL A   1      47.819  30.216  29.140  1.00  0.00    -0.203 F 
ATOM     66  C   UNL A   1      47.058  31.774  27.572  1.00  0.00     0.198 A 
ATOM     67  C   UNL A   1      44.710  32.056  27.191  1.00  0.00     0.198 A 
ATOM     68  F   UNL A   1      43.149  30.860  28.482  1.00  0.00    -0.203 F 
ATOM     69  F   UNL A   1      48.329  32.062  27.253  1.00  0.00    -0.200 F 
ATOM     70  C   UNL A   1      46.022  32.372  26.876  1.00  0.00     0.200 A 
ATOM     71  F   UNL A   1      43.704  32.594  26.487  1.00  0.00    -0.200 F 
ATOM     72  F   UNL A   1      46.286  33.233  25.883  1.00  0.00    -0.200 F 
ENDBRANCH  39  62
ENDBRANCH  13  14
ENDBRANCH   6   8
ENDBRANCH   3   4
ENDBRANCH   2   3
ENDBRANCH   1   2
BRANCH   1  73
ATOM     73  C   UNL A   1      31.314  27.406  26.163  1.00  0.00     0.116 C 
BRANCH  73  74
ATOM     74  N   UNL A   1      30.970  26.103  26.703  1.00  0.00    -0.356 N 
ATOM     75  C   UNL A   1      31.510  24.864  26.537  1.00  0.00     0.226 C 
ATOM     76  H   UNL A   1      30.192  26.117  27.307  1.00  0.00     0.163 HD
ATOM     77  O   UNL A   1      31.039  23.974  27.256  1.00  0.00    -0.275 OA
BRANCH  75  78
ATOM     78  C   UNL A   1      32.552  24.484  25.484  1.00  0.00     0.122 C 
ATOM     79  C   UNL A   1      32.645  23.011  25.058  1.00  0.00     0.122 C 
ATOM     80  C   UNL A   1      33.947  24.752  26.060  1.00  0.00     0.132 C 
ATOM     81  C   UNL A   1      34.062  22.651  25.553  1.00  0.00     0.132 C 
ATOM     82  C   UNL A   1      35.022  24.729  24.967  1.00  0.00     0.035 C 
ATOM     83  O   UNL A   1      34.214  23.496  26.721  1.00  0.00    -0.373 OA
ATOM     84  C   UNL A   1      35.160  23.235  24.674  1.00  0.00     0.035 C 
BRANCH  79  85
ATOM     85  C   UNL A   1      32.443  22.738  23.580  1.00  0.00     0.226 C 
ATOM     86  O   UNL A   1      32.484  23.610  22.727  1.00  0.00    -0.275 OA
ATOM     87  N   UNL A   1      32.151  21.453  23.203  1.00  0.00    -0.354 N 
ATOM     88  H   UNL A   1      31.930  21.336  22.251  1.00  0.00     0.163 HD
BRANCH  87  89
ATOM     89  C   UNL A   1      32.120  20.228  24.001  1.00  0.00     0.139 C 
BRANCH  89  90
ATOM     90  C   UNL A   1      32.486  18.963  23.237  1.00  0.00     0.165 C 
BRANCH  90  91
ATOM     91  N   UNL A   1      33.062  17.948  24.087  1.00  0.00    -0.269 N 
ATOM     92  C   UNL A   1      34.313  17.415  23.979  1.00  0.00     0.129 A 
ATOM     93  N   UNL A   1      32.348  17.453  25.115  1.00  0.00    -0.180 NA
ATOM     94  C   UNL A   1      34.415  16.501  24.997  1.00  0.00     0.079 A 
ATOM     95  C   UNL A   1      33.179  16.558  25.664  1.00  0.00     0.155 A 
ATOM     96  Cl  UNL A   1      35.729  15.513  25.383  1.00  0.00    -0.081 Cl
ENDBRANCH  90  91
ENDBRANCH  89  90
ENDBRANCH  87  89
ENDBRANCH  79  85
ENDBRANCH  75  78
ENDBRANCH  73  74
ENDBRANCH   1  73
TORSDOF 15
ENDMDL
