MODEL 1
REMARK VINA RESULT:     -12.8      0.000      0.000
REMARK SMILES COc1cc(C(=O)N[C@H]2CCCC[C@H]2C(=O)NCCCCNC(=O)c2ccc(-c3c4nc(c(-c5c(F)c(F)c(F)c(F)c5F)c5ccc([nH]5)c(-c5c(F)c(F)c(F)c(F)c5F)c5nc(c(-c6c(F)c(F)c(F)c(F)c6F)c6ccc3[nH]6)C=C5)C=C4)cc2)cc(Cl)c1OC
REMARK SMILES IDX 19 1 18 2 17 3 15 4 16 5 14 7 9 8 10 9 11 10 13 11 12 12
REMARK SMILES IDX 8 13 6 14 7 15 5 17 3 18 4 19 91 20 89 21 88 22 90 23 2 24
REMARK SMILES IDX 1 25 92 26 93 27 20 28 21 29 22 30 23 31 24 33 25 34 26 35
REMARK SMILES IDX 87 36 27 37 86 38 28 39 29 40 30 41 80 42 31 43 85 44 79 45
REMARK SMILES IDX 81 46 32 47 84 48 78 49 77 50 33 52 65 53 45 54 64 55 46 56
REMARK SMILES IDX 49 57 63 58 82 59 47 60 48 61 62 63 83 64 50 65 34 66 35 67
REMARK SMILES IDX 43 68 36 69 37 70 41 71 44 72 38 73 39 74 42 75 40 76 66 77
REMARK SMILES IDX 67 78 75 79 68 80 69 81 73 82 76 83 70 84 71 85 74 86 72 87
REMARK SMILES IDX 51 88 52 89 60 90 53 91 54 92 58 93 61 94 55 95 56 96 59 97
REMARK SMILES IDX 57 98
REMARK H PARENT 17 6 8 16 22 32 81 51 49 62
REMARK Flexibility Score: inf
ROOT
ATOM      1  C   UNL A   1      31.849  30.589  26.433  1.00  0.00     0.023 C 
ENDROOT
BRANCH   1   2
ATOM      2  C   UNL A   1      31.405  30.086  25.064  1.00  0.00     0.116 C 
BRANCH   2   3
ATOM      3  N   UNL A   1      32.492  29.422  24.369  1.00  0.00    -0.356 N 
ATOM      4  C   UNL A   1      32.826  28.106  24.290  1.00  0.00     0.225 C 
ATOM      5  O   UNL A   1      33.903  27.831  23.753  1.00  0.00    -0.275 OA
ATOM      6  H   UNL A   1      33.088  30.026  23.870  1.00  0.00     0.163 HD
BRANCH   4   7
ATOM      7  C   UNL A   1      31.925  26.984  24.801  1.00  0.00     0.101 C 
ATOM      8  C   UNL A   1      31.104  26.211  23.732  1.00  0.00     0.094 C 
ATOM      9  C   UNL A   1      30.428  24.948  24.307  1.00  0.00     0.026 C 
ATOM     10  C   UNL A   1      31.327  24.140  25.233  1.00  0.00     0.002 C 
ATOM     11  C   UNL A   1      32.616  26.167  25.908  1.00  0.00     0.015 C 
ATOM     12  C   UNL A   1      31.778  25.000  26.401  1.00  0.00     0.001 C 
BRANCH   8  13
ATOM     13  N   UNL A   1      31.789  25.846  22.496  1.00  0.00    -0.349 N 
ATOM     14  C   UNL A   1      32.942  25.154  22.203  1.00  0.00     0.251 C 
ATOM     15  O   UNL A   1      33.359  25.292  21.048  1.00  0.00    -0.269 OA
ATOM     16  H   UNL A   1      31.322  26.166  21.691  1.00  0.00     0.164 HD
BRANCH  14  17
ATOM     17  C   UNL A   1      33.667  24.196  23.103  1.00  0.00     0.045 A 
ATOM     18  C   UNL A   1      33.769  21.882  23.937  1.00  0.00     0.163 A 
ATOM     19  C   UNL A   1      33.193  22.866  23.118  1.00  0.00     0.064 A 
ATOM     20  C   UNL A   1      34.869  22.215  24.749  1.00  0.00     0.179 A 
ATOM     21  C   UNL A   1      35.317  23.539  24.771  1.00  0.00     0.087 A 
ATOM     22  C   UNL A   1      34.723  24.510  23.952  1.00  0.00     0.038 A 
ATOM     23  Cl  UNL A   1      36.567  24.102  25.828  1.00  0.00    -0.080 Cl
BRANCH  18  24
ATOM     24  O   UNL A   1      33.339  20.581  24.012  1.00  0.00    -0.493 OA
ATOM     25  C   UNL A   1      32.253  20.279  24.878  1.00  0.00     0.278 C 
ENDBRANCH  18  24
BRANCH  20  26
ATOM     26  O   UNL A   1      35.361  21.218  25.556  1.00  0.00    -0.491 OA
ATOM     27  C   UNL A   1      36.544  20.584  25.074  1.00  0.00     0.278 C 
ENDBRANCH  20  26
ENDBRANCH  14  17
ENDBRANCH   8  13
ENDBRANCH   4   7
ENDBRANCH   2   3
ENDBRANCH   1   2
BRANCH   1  28
ATOM     28  C   UNL A   1      31.576  32.052  26.723  1.00  0.00     0.023 C 
BRANCH  28  29
ATOM     29  C   UNL A   1      32.763  32.825  27.258  1.00  0.00     0.116 C 
BRANCH  29  30
ATOM     30  N   UNL A   1      32.444  34.193  27.649  1.00  0.00    -0.352 N 
ATOM     31  C   UNL A   1      33.014  34.974  28.627  1.00  0.00     0.251 C 
ATOM     32  H   UNL A   1      31.717  34.618  27.141  1.00  0.00     0.163 HD
ATOM     33  O   UNL A   1      32.557  36.082  28.890  1.00  0.00    -0.269 OA
BRANCH  31  34
ATOM     34  C   UNL A   1      34.158  34.443  29.393  1.00  0.00     0.039 A 
ATOM     35  C   UNL A   1      33.918  33.700  30.550  1.00  0.00     0.014 A 
ATOM     36  C   UNL A   1      35.459  34.605  28.913  1.00  0.00     0.014 A 
ATOM     37  C   UNL A   1      34.977  33.038  31.171  1.00  0.00     0.010 A 
ATOM     38  C   UNL A   1      36.487  33.852  29.461  1.00  0.00     0.010 A 
ATOM     39  C   UNL A   1      36.260  33.065  30.601  1.00  0.00    -0.014 A 
BRANCH  39  40
ATOM     40  C   UNL A   1      37.390  32.296  31.180  1.00  0.00     0.031 A 
ATOM     41  C   UNL A   1      37.899  32.647  32.551  1.00  0.00     0.074 A 
ATOM     42  C   UNL A   1      38.016  31.359  30.442  1.00  0.00     0.049 A 
ATOM     43  N   UNL A   1      38.944  32.188  33.191  1.00  0.00    -0.248 NA
ATOM     44  C   UNL A   1      37.162  33.690  33.285  1.00  0.00     0.031 C 
ATOM     45  C   UNL A   1      37.667  30.984  29.069  1.00  0.00     0.029 A 
ATOM     46  N   UNL A   1      39.095  30.562  30.737  1.00  0.00    -0.354 N 
ATOM     47  C   UNL A   1      39.009  32.912  34.374  1.00  0.00     0.074 A 
ATOM     48  C   UNL A   1      37.935  33.879  34.342  1.00  0.00     0.031 C 
ATOM     49  C   UNL A   1      38.498  30.014  28.653  1.00  0.00     0.029 A 
ATOM     50  C   UNL A   1      39.461  29.724  29.711  1.00  0.00     0.049 A 
ATOM     51  H   UNL A   1      39.561  30.588  31.603  1.00  0.00     0.167 HD
ATOM     52  C   UNL A   1      39.870  32.764  35.407  1.00  0.00     0.037 A 
ATOM     53  C   UNL A   1      40.465  28.831  29.633  1.00  0.00     0.037 A 
ATOM     54  C   UNL A   1      40.890  31.754  35.463  1.00  0.00     0.049 A 
ATOM     55  C   UNL A   1      41.371  28.646  30.821  1.00  0.00     0.074 A 
ATOM     56  C   UNL A   1      41.741  31.446  36.509  1.00  0.00     0.029 A 
ATOM     57  N   UNL A   1      41.190  30.880  34.428  1.00  0.00    -0.354 N 
ATOM     58  N   UNL A   1      41.364  29.273  31.972  1.00  0.00    -0.248 NA
ATOM     59  C   UNL A   1      42.420  27.623  30.702  1.00  0.00     0.031 C 
ATOM     60  C   UNL A   1      42.585  30.411  36.093  1.00  0.00     0.029 A 
ATOM     61  C   UNL A   1      42.229  30.045  34.804  1.00  0.00     0.049 A 
ATOM     62  H   UNL A   1      40.734  30.858  33.557  1.00  0.00     0.167 HD
ATOM     63  C   UNL A   1      42.384  28.704  32.723  1.00  0.00     0.074 A 
ATOM     64  C   UNL A   1      42.980  27.671  31.902  1.00  0.00     0.031 C 
ATOM     65  C   UNL A   1      42.796  29.012  33.977  1.00  0.00     0.037 A 
BRANCH  52  66
ATOM     66  C   UNL A   1      39.735  33.704  36.569  1.00  0.00     0.064 A 
ATOM     67  C   UNL A   1      40.402  34.938  36.602  1.00  0.00     0.173 A 
ATOM     68  C   UNL A   1      38.893  33.382  37.645  1.00  0.00     0.173 A 
ATOM     69  F   UNL A   1      41.228  35.285  35.604  1.00  0.00    -0.203 F 
ATOM     70  C   UNL A   1      40.254  35.803  37.683  1.00  0.00     0.198 A 
ATOM     71  C   UNL A   1      38.723  34.264  38.709  1.00  0.00     0.198 A 
ATOM     72  F   UNL A   1      38.229  32.217  37.661  1.00  0.00    -0.203 F 
ATOM     73  F   UNL A   1      40.939  36.954  37.715  1.00  0.00    -0.200 F 
ATOM     74  C   UNL A   1      39.408  35.470  38.731  1.00  0.00     0.200 A 
ATOM     75  F   UNL A   1      37.897  33.947  39.716  1.00  0.00    -0.200 F 
ATOM     76  F   UNL A   1      39.259  36.309  39.765  1.00  0.00    -0.200 F 
ENDBRANCH  52  66
BRANCH  53  77
ATOM     77  C   UNL A   1      40.653  28.022  28.400  1.00  0.00     0.064 A 
ATOM     78  C   UNL A   1      40.049  26.763  28.266  1.00  0.00     0.173 A 
ATOM     79  C   UNL A   1      41.452  28.477  27.341  1.00  0.00     0.173 A 
ATOM     80  F   UNL A   1      39.292  26.276  29.260  1.00  0.00    -0.203 F 
ATOM     81  C   UNL A   1      40.257  25.980  27.133  1.00  0.00     0.198 A 
ATOM     82  C   UNL A   1      41.638  27.704  26.196  1.00  0.00     0.198 A 
ATOM     83  F   UNL A   1      42.048  29.676  27.416  1.00  0.00    -0.203 F 
ATOM     84  F   UNL A   1      39.710  24.760  27.054  1.00  0.00    -0.200 F 
ATOM     85  C   UNL A   1      41.049  26.453  26.096  1.00  0.00     0.200 A 
ATOM     86  F   UNL A   1      42.392  28.171  25.191  1.00  0.00    -0.200 F 
ATOM     87  F   UNL A   1      41.251  25.699  25.008  1.00  0.00    -0.200 F 
ENDBRANCH  53  77
BRANCH  65  88
ATOM     88  C   UNL A   1      43.917  28.200  34.552  1.00  0.00     0.064 A 
ATOM     89  C   UNL A   1      45.251  28.620  34.457  1.00  0.00     0.173 A 
ATOM     90  C   UNL A   1      43.646  27.016  35.253  1.00  0.00     0.173 A 
ATOM     91  F   UNL A   1      45.561  29.739  33.784  1.00  0.00    -0.203 F 
ATOM     92  C   UNL A   1      46.277  27.869  35.023  1.00  0.00     0.198 A 
ATOM     93  C   UNL A   1      44.671  26.283  35.842  1.00  0.00     0.198 A 
ATOM     94  F   UNL A   1      42.384  26.577  35.379  1.00  0.00    -0.203 F 
ATOM     95  F   UNL A   1      47.550  28.265  34.882  1.00  0.00    -0.200 F 
ATOM     96  C   UNL A   1      45.987  26.707  35.721  1.00  0.00     0.200 A 
ATOM     97  F   UNL A   1      44.388  25.168  36.529  1.00  0.00    -0.200 F 
ATOM     98  F   UNL A   1      46.976  25.991  36.274  1.00  0.00    -0.200 F 
ENDBRANCH  65  88
ENDBRANCH  39  40
ENDBRANCH  31  34
ENDBRANCH  29  30
ENDBRANCH  28  29
ENDBRANCH   1  28
TORSDOF 15
ENDMDL
MODEL 2
REMARK VINA RESULT:     -12.7      0.708      7.350
REMARK SMILES COc1cc(C(=O)N[C@H]2CCCC[C@H]2C(=O)NCCCCNC(=O)c2ccc(-c3c4nc(c(-c5c(F)c(F)c(F)c(F)c5F)c5ccc([nH]5)c(-c5c(F)c(F)c(F)c(F)c5F)c5nc(c(-c6c(F)c(F)c(F)c(F)c6F)c6ccc3[nH]6)C=C5)C=C4)cc2)cc(Cl)c1OC
REMARK SMILES IDX 19 1 18 2 17 3 15 4 16 5 14 7 9 8 10 9 11 10 13 11 12 12
REMARK SMILES IDX 8 13 6 14 7 15 5 17 3 18 4 19 91 20 89 21 88 22 90 23 2 24
REMARK SMILES IDX 1 25 92 26 93 27 20 28 21 29 22 30 23 31 24 33 25 34 26 35
REMARK SMILES IDX 87 36 27 37 86 38 28 39 29 40 30 41 80 42 31 43 85 44 79 45
REMARK SMILES IDX 81 46 32 47 84 48 78 49 77 50 33 52 65 53 45 54 64 55 46 56
REMARK SMILES IDX 49 57 63 58 82 59 47 60 48 61 62 63 83 64 50 65 34 66 35 67
REMARK SMILES IDX 43 68 36 69 37 70 41 71 44 72 38 73 39 74 42 75 40 76 66 77
REMARK SMILES IDX 67 78 75 79 68 80 69 81 73 82 76 83 70 84 71 85 74 86 72 87
REMARK SMILES IDX 51 88 52 89 60 90 53 91 54 92 58 93 61 94 55 95 56 96 59 97
REMARK SMILES IDX 57 98
REMARK H PARENT 17 6 8 16 22 32 81 51 49 62
REMARK Flexibility Score: inf
ROOT
ATOM      1  C   UNL A   1      32.175  30.444  26.445  1.00  0.00     0.023 C 
ENDROOT
BRANCH   1   2
ATOM      2  C   UNL A   1      31.660  29.980  25.087  1.00  0.00     0.116 C 
BRANCH   2   3
ATOM      3  N   UNL A   1      32.695  29.297  24.337  1.00  0.00    -0.356 N 
ATOM      4  C   UNL A   1      33.016  27.978  24.260  1.00  0.00     0.225 C 
ATOM      5  O   UNL A   1      34.054  27.685  23.660  1.00  0.00    -0.275 OA
ATOM      6  H   UNL A   1      33.262  29.888  23.789  1.00  0.00     0.163 HD
BRANCH   4   7
ATOM      7  C   UNL A   1      32.143  26.871  24.847  1.00  0.00     0.101 C 
ATOM      8  C   UNL A   1      31.266  26.072  23.844  1.00  0.00     0.094 C 
ATOM      9  C   UNL A   1      30.621  24.826  24.488  1.00  0.00     0.026 C 
ATOM     10  C   UNL A   1      31.567  24.041  25.386  1.00  0.00     0.002 C 
ATOM     11  C   UNL A   1      32.891  26.082  25.937  1.00  0.00     0.015 C 
ATOM     12  C   UNL A   1      32.080  24.930  26.505  1.00  0.00     0.001 C 
BRANCH   8  13
ATOM     13  N   UNL A   1      31.884  25.673  22.584  1.00  0.00    -0.349 N 
ATOM     14  C   UNL A   1      33.027  24.983  22.248  1.00  0.00     0.251 C 
ATOM     15  O   UNL A   1      33.375  25.087  21.067  1.00  0.00    -0.269 OA
ATOM     16  H   UNL A   1      31.368  25.961  21.797  1.00  0.00     0.164 HD
BRANCH  14  17
ATOM     17  C   UNL A   1      33.812  24.063  23.136  1.00  0.00     0.045 A 
ATOM     18  C   UNL A   1      34.003  21.773  24.020  1.00  0.00     0.163 A 
ATOM     19  C   UNL A   1      33.368  22.724  23.205  1.00  0.00     0.064 A 
ATOM     20  C   UNL A   1      35.131  22.147  24.771  1.00  0.00     0.179 A 
ATOM     21  C   UNL A   1      35.551  23.481  24.740  1.00  0.00     0.087 A 
ATOM     22  C   UNL A   1      34.899  24.418  23.927  1.00  0.00     0.038 A 
ATOM     23  Cl  UNL A   1      36.837  24.095  25.724  1.00  0.00    -0.080 Cl
BRANCH  18  24
ATOM     24  O   UNL A   1      33.604  20.465  24.146  1.00  0.00    -0.493 OA
ATOM     25  C   UNL A   1      32.252  20.204  24.498  1.00  0.00     0.278 C 
ENDBRANCH  18  24
BRANCH  20  26
ATOM     26  O   UNL A   1      35.682  21.181  25.578  1.00  0.00    -0.491 OA
ATOM     27  C   UNL A   1      36.896  20.612  25.092  1.00  0.00     0.278 C 
ENDBRANCH  20  26
ENDBRANCH  14  17
ENDBRANCH   8  13
ENDBRANCH   4   7
ENDBRANCH   2   3
ENDBRANCH   1   2
BRANCH   1  28
ATOM     28  C   UNL A   1      31.743  31.830  26.883  1.00  0.00     0.023 C 
BRANCH  28  29
ATOM     29  C   UNL A   1      32.848  32.685  27.467  1.00  0.00     0.116 C 
BRANCH  29  30
ATOM     30  N   UNL A   1      32.458  34.072  27.694  1.00  0.00    -0.352 N 
ATOM     31  C   UNL A   1      32.986  34.992  28.569  1.00  0.00     0.251 C 
ATOM     32  H   UNL A   1      31.711  34.395  27.143  1.00  0.00     0.163 HD
ATOM     33  O   UNL A   1      32.473  36.098  28.701  1.00  0.00    -0.269 OA
BRANCH  31  34
ATOM     34  C   UNL A   1      34.156  34.615  29.387  1.00  0.00     0.039 A 
ATOM     35  C   UNL A   1      33.956  34.162  30.693  1.00  0.00     0.014 A 
ATOM     36  C   UNL A   1      35.434  34.624  28.828  1.00  0.00     0.014 A 
ATOM     37  C   UNL A   1      35.031  33.628  31.404  1.00  0.00     0.010 A 
ATOM     38  C   UNL A   1      36.472  33.985  29.489  1.00  0.00     0.010 A 
ATOM     39  C   UNL A   1      36.285  33.486  30.788  1.00  0.00    -0.014 A 
BRANCH  39  40
ATOM     40  C   UNL A   1      37.427  32.835  31.479  1.00  0.00     0.031 A 
ATOM     41  C   UNL A   1      38.123  31.672  30.826  1.00  0.00     0.074 A 
ATOM     42  C   UNL A   1      37.770  33.221  32.723  1.00  0.00     0.049 A 
ATOM     43  N   UNL A   1      39.055  30.889  31.304  1.00  0.00    -0.248 NA
ATOM     44  C   UNL A   1      37.678  31.311  29.469  1.00  0.00     0.031 C 
ATOM     45  C   UNL A   1      37.119  34.283  33.495  1.00  0.00     0.029 A 
ATOM     46  N   UNL A   1      38.743  32.749  33.570  1.00  0.00    -0.354 N 
ATOM     47  C   UNL A   1      39.274  29.926  30.328  1.00  0.00     0.074 A 
ATOM     48  C   UNL A   1      38.342  30.187  29.254  1.00  0.00     0.031 C 
ATOM     49  C   UNL A   1      37.727  34.397  34.688  1.00  0.00     0.029 A 
ATOM     50  C   UNL A   1      38.783  33.395  34.782  1.00  0.00     0.049 A 
ATOM     51  H   UNL A   1      39.355  32.016  33.329  1.00  0.00     0.167 HD
ATOM     52  C   UNL A   1      40.191  28.930  30.315  1.00  0.00     0.037 A 
ATOM     53  C   UNL A   1      39.579  33.193  35.849  1.00  0.00     0.037 A 
ATOM     54  C   UNL A   1      41.162  28.721  31.354  1.00  0.00     0.049 A 
ATOM     55  C   UNL A   1      40.629  32.117  35.784  1.00  0.00     0.074 A 
ATOM     56  C   UNL A   1      42.205  27.814  31.387  1.00  0.00     0.029 A 
ATOM     57  N   UNL A   1      41.213  29.438  32.540  1.00  0.00    -0.354 N 
ATOM     58  N   UNL A   1      40.889  31.272  34.816  1.00  0.00    -0.248 NA
ATOM     59  C   UNL A   1      41.504  31.972  36.957  1.00  0.00     0.031 C 
ATOM     60  C   UNL A   1      42.865  27.954  32.613  1.00  0.00     0.029 A 
ATOM     61  C   UNL A   1      42.259  28.978  33.323  1.00  0.00     0.049 A 
ATOM     62  H   UNL A   1      40.597  30.164  32.789  1.00  0.00     0.167 HD
ATOM     63  C   UNL A   1      41.970  30.516  35.248  1.00  0.00     0.074 A 
ATOM     64  C   UNL A   1      42.328  31.012  36.561  1.00  0.00     0.031 C 
ATOM     65  C   UNL A   1      42.607  29.498  34.619  1.00  0.00     0.037 A 
BRANCH  52  66
ATOM     66  C   UNL A   1      40.199  28.004  29.136  1.00  0.00     0.064 A 
ATOM     67  C   UNL A   1      39.495  26.791  29.144  1.00  0.00     0.173 A 
ATOM     68  C   UNL A   1      40.890  28.355  27.965  1.00  0.00     0.173 A 
ATOM     69  F   UNL A   1      38.831  26.403  30.243  1.00  0.00    -0.203 F 
ATOM     70  C   UNL A   1      39.504  25.950  28.034  1.00  0.00     0.198 A 
ATOM     71  C   UNL A   1      40.870  27.527  26.847  1.00  0.00     0.198 A 
ATOM     72  F   UNL A   1      41.576  29.506  27.903  1.00  0.00    -0.203 F 
ATOM     73  F   UNL A   1      38.864  24.773  28.083  1.00  0.00    -0.200 F 
ATOM     74  C   UNL A   1      40.183  26.322  26.884  1.00  0.00     0.200 A 
ATOM     75  F   UNL A   1      41.517  27.892  25.731  1.00  0.00    -0.200 F 
ATOM     76  F   UNL A   1      40.182  25.516  25.814  1.00  0.00    -0.200 F 
ENDBRANCH  52  66
BRANCH  53  77
ATOM     77  C   UNL A   1      39.435  34.043  37.061  1.00  0.00     0.064 A 
ATOM     78  C   UNL A   1      40.042  35.306  37.129  1.00  0.00     0.173 A 
ATOM     79  C   UNL A   1      38.709  33.608  38.178  1.00  0.00     0.173 A 
ATOM     80  F   UNL A   1      40.764  35.758  36.093  1.00  0.00    -0.203 F 
ATOM     81  C   UNL A   1      39.949  36.089  38.278  1.00  0.00     0.198 A 
ATOM     82  C   UNL A   1      38.595  34.403  39.317  1.00  0.00     0.198 A 
ATOM     83  F   UNL A   1      38.105  32.410  38.162  1.00  0.00    -0.203 F 
ATOM     84  F   UNL A   1      40.582  37.268  38.336  1.00  0.00    -0.200 F 
ATOM     85  C   UNL A   1      39.223  35.638  39.371  1.00  0.00     0.200 A 
ATOM     86  F   UNL A   1      37.880  33.970  40.365  1.00  0.00    -0.200 F 
ATOM     87  F   UNL A   1      39.136  36.390  40.476  1.00  0.00    -0.200 F 
ENDBRANCH  53  77
BRANCH  65  88
ATOM     88  C   UNL A   1      43.776  28.879  35.323  1.00  0.00     0.064 A 
ATOM     89  C   UNL A   1      43.613  27.815  36.222  1.00  0.00     0.173 A 
ATOM     90  C   UNL A   1      45.080  29.321  35.054  1.00  0.00     0.173 A 
ATOM     91  F   UNL A   1      42.384  27.366  36.521  1.00  0.00    -0.203 F 
ATOM     92  C   UNL A   1      44.713  27.231  36.844  1.00  0.00     0.198 A 
ATOM     93  C   UNL A   1      46.179  28.716  35.656  1.00  0.00     0.198 A 
ATOM     94  F   UNL A   1      45.289  30.330  34.195  1.00  0.00    -0.203 F 
ATOM     95  F   UNL A   1      44.531  26.244  37.733  1.00  0.00    -0.200 F 
ATOM     96  C   UNL A   1      45.994  27.676  36.555  1.00  0.00     0.200 A 
ATOM     97  F   UNL A   1      47.417  29.138  35.365  1.00  0.00    -0.200 F 
ATOM     98  F   UNL A   1      47.052  27.106  37.148  1.00  0.00    -0.200 F 
ENDBRANCH  65  88
ENDBRANCH  39  40
ENDBRANCH  31  34
ENDBRANCH  29  30
ENDBRANCH  28  29
ENDBRANCH   1  28
TORSDOF 15
ENDMDL
MODEL 3
REMARK VINA RESULT:     -12.6      5.355      9.933
REMARK SMILES COc1cc(C(=O)N[C@H]2CCCC[C@H]2C(=O)NCCCCNC(=O)c2ccc(-c3c4nc(c(-c5c(F)c(F)c(F)c(F)c5F)c5ccc([nH]5)c(-c5c(F)c(F)c(F)c(F)c5F)c5nc(c(-c6c(F)c(F)c(F)c(F)c6F)c6ccc3[nH]6)C=C5)C=C4)cc2)cc(Cl)c1OC
REMARK SMILES IDX 19 1 18 2 17 3 15 4 16 5 14 7 9 8 10 9 11 10 13 11 12 12
REMARK SMILES IDX 8 13 6 14 7 15 5 17 3 18 4 19 91 20 89 21 88 22 90 23 2 24
REMARK SMILES IDX 1 25 92 26 93 27 20 28 21 29 22 30 23 31 24 33 25 34 26 35
REMARK SMILES IDX 87 36 27 37 86 38 28 39 29 40 30 41 80 42 31 43 85 44 79 45
REMARK SMILES IDX 81 46 32 47 84 48 78 49 77 50 33 52 65 53 45 54 64 55 46 56
REMARK SMILES IDX 49 57 63 58 82 59 47 60 48 61 62 63 83 64 50 65 34 66 35 67
REMARK SMILES IDX 43 68 36 69 37 70 41 71 44 72 38 73 39 74 42 75 40 76 66 77
REMARK SMILES IDX 67 78 75 79 68 80 69 81 73 82 76 83 70 84 71 85 74 86 72 87
REMARK SMILES IDX 51 88 52 89 60 90 53 91 54 92 58 93 61 94 55 95 56 96 59 97
REMARK SMILES IDX 57 98
REMARK H PARENT 17 6 8 16 22 32 81 51 49 62
REMARK Flexibility Score: inf
ROOT
ATOM      1  C   UNL A   1      37.126  21.193  25.156  1.00  0.00     0.023 C 
ENDROOT
BRANCH   1   2
ATOM      2  C   UNL A   1      35.716  20.659  25.383  1.00  0.00     0.116 C 
BRANCH   2   3
ATOM      3  N   UNL A   1      34.986  21.485  26.325  1.00  0.00    -0.356 N 
ATOM      4  C   UNL A   1      34.200  22.578  26.129  1.00  0.00     0.225 C 
ATOM      5  O   UNL A   1      33.823  23.188  27.134  1.00  0.00    -0.275 OA
ATOM      6  H   UNL A   1      35.073  21.208  27.266  1.00  0.00     0.163 HD
BRANCH   4   7
ATOM      7  C   UNL A   1      33.753  23.047  24.746  1.00  0.00     0.101 C 
ATOM      8  C   UNL A   1      32.272  22.773  24.364  1.00  0.00     0.094 C 
ATOM      9  C   UNL A   1      31.853  23.500  23.069  1.00  0.00     0.026 C 
ATOM     10  C   UNL A   1      32.355  24.934  22.981  1.00  0.00     0.002 C 
ATOM     11  C   UNL A   1      34.342  24.427  24.402  1.00  0.00     0.015 C 
ATOM     12  C   UNL A   1      33.872  24.960  23.059  1.00  0.00     0.001 C 
BRANCH   8  13
ATOM     13  N   UNL A   1      31.260  23.027  25.384  1.00  0.00    -0.349 N 
ATOM     14  C   UNL A   1      30.937  24.109  26.171  1.00  0.00     0.251 C 
ATOM     15  O   UNL A   1      30.197  23.860  27.129  1.00  0.00    -0.269 OA
ATOM     16  H   UNL A   1      30.676  22.251  25.546  1.00  0.00     0.164 HD
BRANCH  14  17
ATOM     17  C   UNL A   1      31.310  25.541  25.924  1.00  0.00     0.045 A 
ATOM     18  C   UNL A   1      30.719  27.613  24.732  1.00  0.00     0.163 A 
ATOM     19  C   UNL A   1      30.463  26.273  25.062  1.00  0.00     0.064 A 
ATOM     20  C   UNL A   1      31.833  28.263  25.292  1.00  0.00     0.179 A 
ATOM     21  C   UNL A   1      32.699  27.534  26.113  1.00  0.00     0.087 A 
ATOM     22  C   UNL A   1      32.432  26.194  26.425  1.00  0.00     0.038 A 
ATOM     23  Cl  UNL A   1      34.175  28.180  26.749  1.00  0.00    -0.080 Cl
BRANCH  18  24
ATOM     24  O   UNL A   1      29.947  28.367  23.883  1.00  0.00    -0.493 OA
ATOM     25  C   UNL A   1      30.139  28.214  22.483  1.00  0.00     0.278 C 
ENDBRANCH  18  24
BRANCH  20  26
ATOM     26  O   UNL A   1      32.051  29.561  24.898  1.00  0.00    -0.491 OA
ATOM     27  C   UNL A   1      31.778  30.546  25.893  1.00  0.00     0.278 C 
ENDBRANCH  20  26
ENDBRANCH  14  17
ENDBRANCH   8  13
ENDBRANCH   4   7
ENDBRANCH   2   3
ENDBRANCH   1   2
BRANCH   1  28
ATOM     28  C   UNL A   1      38.212  20.148  24.987  1.00  0.00     0.023 C 
BRANCH  28  29
ATOM     29  C   UNL A   1      39.446  20.372  25.836  1.00  0.00     0.116 C 
BRANCH  29  30
ATOM     30  N   UNL A   1      40.337  19.219  25.891  1.00  0.00    -0.352 N 
ATOM     31  C   UNL A   1      41.690  19.175  26.134  1.00  0.00     0.251 C 
ATOM     32  H   UNL A   1      39.909  18.348  25.732  1.00  0.00     0.163 HD
ATOM     33  O   UNL A   1      42.308  18.118  26.050  1.00  0.00    -0.269 OA
BRANCH  31  34
ATOM     34  C   UNL A   1      42.402  20.428  26.453  1.00  0.00     0.039 A 
ATOM     35  C   UNL A   1      43.020  21.140  25.424  1.00  0.00     0.014 A 
ATOM     36  C   UNL A   1      42.377  20.938  27.751  1.00  0.00     0.014 A 
ATOM     37  C   UNL A   1      43.530  22.413  25.682  1.00  0.00     0.010 A 
ATOM     38  C   UNL A   1      42.775  22.246  27.978  1.00  0.00     0.010 A 
ATOM     39  C   UNL A   1      43.363  22.997  26.948  1.00  0.00    -0.014 A 
BRANCH  39  40
ATOM     40  C   UNL A   1      43.807  24.385  27.234  1.00  0.00     0.031 A 
ATOM     41  C   UNL A   1      42.803  25.401  27.707  1.00  0.00     0.074 A 
ATOM     42  C   UNL A   1      45.077  24.753  26.975  1.00  0.00     0.049 A 
ATOM     43  N   UNL A   1      42.951  26.687  27.898  1.00  0.00    -0.248 NA
ATOM     44  C   UNL A   1      41.435  24.914  27.956  1.00  0.00     0.031 C 
ATOM     45  C   UNL A   1      46.123  23.881  26.438  1.00  0.00     0.029 A 
ATOM     46  N   UNL A   1      45.700  25.969  27.111  1.00  0.00    -0.354 N 
ATOM     47  C   UNL A   1      41.694  27.162  28.245  1.00  0.00     0.074 A 
ATOM     48  C   UNL A   1      40.782  26.042  28.186  1.00  0.00     0.031 C 
ATOM     49  C   UNL A   1      47.263  24.583  26.315  1.00  0.00     0.029 A 
ATOM     50  C   UNL A   1      47.020  25.961  26.727  1.00  0.00     0.049 A 
ATOM     51  H   UNL A   1      45.244  26.772  27.452  1.00  0.00     0.167 HD
ATOM     52  C   UNL A   1      41.337  28.416  28.608  1.00  0.00     0.037 A 
ATOM     53  C   UNL A   1      47.926  26.957  26.705  1.00  0.00     0.037 A 
ATOM     54  C   UNL A   1      42.261  29.508  28.734  1.00  0.00     0.049 A 
ATOM     55  C   UNL A   1      47.515  28.328  27.171  1.00  0.00     0.074 A 
ATOM     56  C   UNL A   1      42.024  30.788  29.202  1.00  0.00     0.029 A 
ATOM     57  N   UNL A   1      43.606  29.445  28.396  1.00  0.00    -0.354 N 
ATOM     58  N   UNL A   1      46.344  28.744  27.587  1.00  0.00    -0.248 NA
ATOM     59  C   UNL A   1      48.556  29.366  27.173  1.00  0.00     0.031 C 
ATOM     60  C   UNL A   1      43.217  31.513  29.110  1.00  0.00     0.029 A 
ATOM     61  C   UNL A   1      44.206  30.672  28.627  1.00  0.00     0.049 A 
ATOM     62  H   UNL A   1      44.063  28.648  28.045  1.00  0.00     0.167 HD
ATOM     63  C   UNL A   1      46.511  30.080  27.925  1.00  0.00     0.074 A 
ATOM     64  C   UNL A   1      47.902  30.402  27.681  1.00  0.00     0.031 C 
ATOM     65  C   UNL A   1      45.596  30.964  28.391  1.00  0.00     0.037 A 
BRANCH  52  66
ATOM     66  C   UNL A   1      39.890  28.669  28.914  1.00  0.00     0.064 A 
ATOM     67  C   UNL A   1      39.358  28.460  30.195  1.00  0.00     0.173 A 
ATOM     68  C   UNL A   1      39.033  29.167  27.920  1.00  0.00     0.173 A 
ATOM     69  F   UNL A   1      40.133  27.972  31.176  1.00  0.00    -0.203 F 
ATOM     70  C   UNL A   1      38.015  28.713  30.463  1.00  0.00     0.198 A 
ATOM     71  C   UNL A   1      37.699  29.449  28.200  1.00  0.00     0.198 A 
ATOM     72  F   UNL A   1      39.492  29.388  26.679  1.00  0.00    -0.203 F 
ATOM     73  F   UNL A   1      37.519  28.460  31.682  1.00  0.00    -0.200 F 
ATOM     74  C   UNL A   1      37.189  29.215  29.469  1.00  0.00     0.200 A 
ATOM     75  F   UNL A   1      36.904  29.944  27.242  1.00  0.00    -0.200 F 
ATOM     76  F   UNL A   1      35.900  29.468  29.732  1.00  0.00    -0.200 F 
ENDBRANCH  52  66
BRANCH  53  77
ATOM     77  C   UNL A   1      49.316  26.692  26.251  1.00  0.00     0.064 A 
ATOM     78  C   UNL A   1      49.690  26.907  24.916  1.00  0.00     0.173 A 
ATOM     79  C   UNL A   1      50.293  26.204  27.130  1.00  0.00     0.173 A 
ATOM     80  F   UNL A   1      48.786  27.354  24.032  1.00  0.00    -0.203 F 
ATOM     81  C   UNL A   1      50.979  26.618  24.472  1.00  0.00     0.198 A 
ATOM     82  C   UNL A   1      51.590  25.941  26.692  1.00  0.00     0.198 A 
ATOM     83  F   UNL A   1      49.989  25.987  28.418  1.00  0.00    -0.203 F 
ATOM     84  F   UNL A   1      51.294  26.783  23.180  1.00  0.00    -0.200 F 
ATOM     85  C   UNL A   1      51.930  26.138  25.362  1.00  0.00     0.200 A 
ATOM     86  F   UNL A   1      52.509  25.492  27.557  1.00  0.00    -0.200 F 
ATOM     87  F   UNL A   1      53.168  25.859  24.935  1.00  0.00    -0.200 F 
ENDBRANCH  53  77
BRANCH  65  88
ATOM     88  C   UNL A   1      46.075  32.350  28.703  1.00  0.00     0.064 A 
ATOM     89  C   UNL A   1      46.598  32.680  29.961  1.00  0.00     0.173 A 
ATOM     90  C   UNL A   1      46.059  33.344  27.714  1.00  0.00     0.173 A 
ATOM     91  F   UNL A   1      46.621  31.766  30.944  1.00  0.00    -0.203 F 
ATOM     92  C   UNL A   1      47.066  33.964  30.225  1.00  0.00     0.198 A 
ATOM     93  C   UNL A   1      46.555  34.618  27.972  1.00  0.00     0.198 A 
ATOM     94  F   UNL A   1      45.576  33.075  26.491  1.00  0.00    -0.203 F 
ATOM     95  F   UNL A   1      47.522  34.270  31.448  1.00  0.00    -0.200 F 
ATOM     96  C   UNL A   1      47.052  34.929  29.230  1.00  0.00     0.200 A 
ATOM     97  F   UNL A   1      46.553  35.546  27.005  1.00  0.00    -0.200 F 
ATOM     98  F   UNL A   1      47.513  36.162  29.483  1.00  0.00    -0.200 F 
ENDBRANCH  65  88
ENDBRANCH  39  40
ENDBRANCH  31  34
ENDBRANCH  29  30
ENDBRANCH  28  29
ENDBRANCH   1  28
TORSDOF 15
ENDMDL
