MODEL 1
REMARK VINA RESULT:     -14.8      0.000      0.000
REMARK SMILES NS(=O)(=O)c1ccc(-n2nc(C(=O)NCCCCNC(=O)c3ccc(-c4c5nc(c(-c6c(F)c(F)c(F)c(F)c6F)c6ccc([nH]6)c(-c6c(F)c(F)c(F)c(F)c6F)c6nc(c(-c7c(F)c(F)c(F)c(F)c7F)c7ccc4[nH]7)C=C6)C=C5)cc3)c(Cl)c2-c2ccc(Cl)cc2)cc1
REMARK SMILES IDX 16 1 15 2 14 3 12 4 13 5 11 7 9 8 10 9 87 10 85 11 86 12
REMARK SMILES IDX 8 13 5 14 6 15 96 16 7 17 95 18 2 19 3 20 4 21 1 22 88 25
REMARK SMILES IDX 89 26 94 27 90 28 93 29 91 30 92 31 17 32 18 33 19 34 20 35
REMARK SMILES IDX 21 37 22 38 23 39 84 40 24 41 83 42 25 43 26 44 27 45 77 46
REMARK SMILES IDX 28 47 82 48 76 49 78 50 29 51 81 52 75 53 74 54 30 56 62 57
REMARK SMILES IDX 42 58 61 59 43 60 46 61 60 62 79 63 44 64 45 65 59 67 80 68
REMARK SMILES IDX 47 69 31 70 32 71 40 72 33 73 34 74 38 75 41 76 35 77 36 78
REMARK SMILES IDX 39 79 37 80 63 81 64 82 72 83 65 84 66 85 70 86 73 87 67 88
REMARK SMILES IDX 68 89 71 90 69 91 48 92 49 93 57 94 50 95 51 96 55 97 58 98
REMARK SMILES IDX 52 99 53 100 56 101 54 102
REMARK H PARENT 14 6 1 23 1 24 19 36 78 55 46 66
REMARK Flexibility Score: inf
ROOT
ATOM      1  C   UNL A   1      31.795  28.937  26.370  1.00  0.00     0.023 C 
ENDROOT
BRANCH   1   2
ATOM      2  C   UNL A   1      31.792  28.960  24.830  1.00  0.00     0.116 C 
BRANCH   2   3
ATOM      3  N   UNL A   1      30.629  28.282  24.277  1.00  0.00    -0.351 N 
ATOM      4  C   UNL A   1      30.383  26.986  23.858  1.00  0.00     0.273 C 
ATOM      5  O   UNL A   1      29.218  26.775  23.499  1.00  0.00    -0.267 OA
ATOM      6  H   UNL A   1      29.849  28.874  24.179  1.00  0.00     0.163 HD
BRANCH   4   7
ATOM      7  C   UNL A   1      31.386  25.895  23.906  1.00  0.00     0.169 A 
ATOM      8  N   UNL A   1      32.090  23.869  24.173  1.00  0.00    -0.231 N 
ATOM      9  N   UNL A   1      30.967  24.605  24.006  1.00  0.00    -0.160 NA
ATOM     10  C   UNL A   1      33.218  24.653  24.222  1.00  0.00     0.094 A 
ATOM     11  C   UNL A   1      32.794  25.891  23.786  1.00  0.00     0.100 A 
ATOM     12  Cl  UNL A   1      33.875  27.049  23.181  1.00  0.00    -0.079 Cl
BRANCH   8  13
ATOM     13  C   UNL A   1      32.076  22.455  24.147  1.00  0.00     0.065 A 
ATOM     14  C   UNL A   1      32.529  19.715  24.062  1.00  0.00     0.082 A 
ATOM     15  C   UNL A   1      32.302  20.413  22.870  1.00  0.00     0.024 A 
ATOM     16  C   UNL A   1      32.487  20.375  25.296  1.00  0.00     0.024 A 
ATOM     17  C   UNL A   1      32.050  21.791  22.912  1.00  0.00     0.030 A 
ATOM     18  C   UNL A   1      32.283  21.752  25.338  1.00  0.00     0.030 A 
BRANCH  14  19
ATOM     19  S   UNL A   1      32.898  17.985  24.081  1.00  0.00     0.238 S 
ATOM     20  O   UNL A   1      32.036  17.351  25.062  1.00  0.00    -0.207 OA
ATOM     21  O   UNL A   1      34.326  17.828  24.085  1.00  0.00    -0.207 OA
BRANCH  19  22
ATOM     22  N   UNL A   1      32.370  17.404  22.597  1.00  0.00    -0.225 NA
ATOM     23  H   UNL A   1      32.830  17.920  21.847  1.00  0.00     0.137 HD
ATOM     24  H   UNL A   1      31.361  17.526  22.524  1.00  0.00     0.137 HD
ENDBRANCH  19  22
ENDBRANCH  14  19
ENDBRANCH   8  13
BRANCH  10  25
ATOM     25  C   UNL A   1      34.603  24.237  24.391  1.00  0.00     0.002 A 
ATOM     26  C   UNL A   1      35.210  23.511  23.357  1.00  0.00     0.012 A 
ATOM     27  C   UNL A   1      35.204  24.291  25.654  1.00  0.00     0.012 A 
ATOM     28  C   UNL A   1      36.378  22.791  23.601  1.00  0.00     0.021 A 
ATOM     29  C   UNL A   1      36.370  23.565  25.897  1.00  0.00     0.021 A 
ATOM     30  C   UNL A   1      36.939  22.802  24.876  1.00  0.00     0.041 A 
ATOM     31  Cl  UNL A   1      38.311  21.820  25.210  1.00  0.00    -0.084 Cl
ENDBRANCH  10  25
ENDBRANCH   4   7
ENDBRANCH   2   3
ENDBRANCH   1   2
BRANCH   1  32
ATOM     32  C   UNL A   1      32.291  30.178  27.115  1.00  0.00     0.023 C 
BRANCH  32  33
ATOM     33  C   UNL A   1      33.797  30.248  27.303  1.00  0.00     0.116 C 
BRANCH  33  34
ATOM     34  N   UNL A   1      34.353  31.614  27.286  1.00  0.00    -0.352 N 
ATOM     35  C   UNL A   1      35.474  32.084  27.963  1.00  0.00     0.251 C 
ATOM     36  H   UNL A   1      33.876  32.269  26.729  1.00  0.00     0.163 HD
ATOM     37  O   UNL A   1      35.643  33.271  28.205  1.00  0.00    -0.269 OA
BRANCH  35  38
ATOM     38  C   UNL A   1      36.489  31.092  28.346  1.00  0.00     0.039 A 
ATOM     39  C   UNL A   1      36.558  29.792  27.837  1.00  0.00     0.014 A 
ATOM     40  C   UNL A   1      37.483  31.593  29.168  1.00  0.00     0.014 A 
ATOM     41  C   UNL A   1      37.695  29.034  28.121  1.00  0.00     0.010 A 
ATOM     42  C   UNL A   1      38.700  30.995  29.131  1.00  0.00     0.010 A 
ATOM     43  C   UNL A   1      38.766  29.662  28.769  1.00  0.00    -0.014 A 
BRANCH  43  44
ATOM     44  C   UNL A   1      40.027  29.015  29.082  1.00  0.00     0.031 A 
ATOM     45  C   UNL A   1      40.288  28.814  30.526  1.00  0.00     0.074 A 
ATOM     46  C   UNL A   1      40.741  28.388  28.119  1.00  0.00     0.049 A 
ATOM     47  N   UNL A   1      41.210  29.366  31.239  1.00  0.00    -0.248 NA
ATOM     48  C   UNL A   1      39.336  28.005  31.303  1.00  0.00     0.031 C 
ATOM     49  C   UNL A   1      40.424  28.203  26.692  1.00  0.00     0.029 A 
ATOM     50  N   UNL A   1      41.880  27.663  28.255  1.00  0.00    -0.354 N 
ATOM     51  C   UNL A   1      41.086  28.823  32.513  1.00  0.00     0.074 A 
ATOM     52  C   UNL A   1      39.811  28.153  32.541  1.00  0.00     0.031 C 
ATOM     53  C   UNL A   1      41.208  27.236  26.169  1.00  0.00     0.029 A 
ATOM     54  C   UNL A   1      42.197  26.867  27.160  1.00  0.00     0.049 A 
ATOM     55  H   UNL A   1      42.439  27.699  29.065  1.00  0.00     0.167 HD
ATOM     56  C   UNL A   1      42.158  28.758  33.351  1.00  0.00     0.037 A 
ATOM     57  C   UNL A   1      43.183  25.939  27.117  1.00  0.00     0.037 A 
ATOM     58  C   UNL A   1      43.226  29.615  32.892  1.00  0.00     0.049 A 
ATOM     59  C   UNL A   1      44.142  26.289  28.203  1.00  0.00     0.074 A 
ATOM     60  C   UNL A   1      43.327  30.970  32.634  1.00  0.00     0.029 A 
ATOM     61  N   UNL A   1      44.278  29.038  32.221  1.00  0.00    -0.354 N 
ATOM     62  N   UNL A   1      44.848  27.390  28.207  1.00  0.00    -0.248 NA
ATOM     63  C   UNL A   1      43.910  25.691  29.512  1.00  0.00     0.031 C 
ATOM     64  C   UNL A   1      44.077  31.054  31.422  1.00  0.00     0.029 A 
ATOM     65  C   UNL A   1      44.464  29.760  31.068  1.00  0.00     0.049 A 
ATOM     66  H   UNL A   1      44.801  28.256  32.513  1.00  0.00     0.167 HD
ATOM     67  C   UNL A   1      44.794  27.846  29.517  1.00  0.00     0.074 A 
ATOM     68  C   UNL A   1      44.241  26.730  30.286  1.00  0.00     0.031 C 
ATOM     69  C   UNL A   1      44.903  29.175  29.821  1.00  0.00     0.037 A 
BRANCH  56  70
ATOM     70  C   UNL A   1      42.390  27.663  34.361  1.00  0.00     0.064 A 
ATOM     71  C   UNL A   1      42.944  26.441  33.926  1.00  0.00     0.173 A 
ATOM     72  C   UNL A   1      41.829  27.650  35.656  1.00  0.00     0.173 A 
ATOM     73  F   UNL A   1      43.495  26.337  32.708  1.00  0.00    -0.203 F 
ATOM     74  C   UNL A   1      42.857  25.279  34.695  1.00  0.00     0.198 A 
ATOM     75  C   UNL A   1      41.795  26.500  36.442  1.00  0.00     0.198 A 
ATOM     76  F   UNL A   1      41.187  28.705  36.168  1.00  0.00    -0.203 F 
ATOM     77  F   UNL A   1      43.278  24.113  34.185  1.00  0.00    -0.200 F 
ATOM     78  C   UNL A   1      42.277  25.306  35.949  1.00  0.00     0.200 A 
ATOM     79  F   UNL A   1      41.212  26.545  37.648  1.00  0.00    -0.200 F 
ATOM     80  F   UNL A   1      42.134  24.181  36.660  1.00  0.00    -0.200 F 
ENDBRANCH  56  70
BRANCH  57  81
ATOM     81  C   UNL A   1      43.111  24.599  26.481  1.00  0.00     0.064 A 
ATOM     82  C   UNL A   1      43.960  24.242  25.423  1.00  0.00     0.173 A 
ATOM     83  C   UNL A   1      42.378  23.546  27.070  1.00  0.00     0.173 A 
ATOM     84  F   UNL A   1      44.732  25.170  24.839  1.00  0.00    -0.203 F 
ATOM     85  C   UNL A   1      44.079  22.914  24.989  1.00  0.00     0.198 A 
ATOM     86  C   UNL A   1      42.492  22.225  26.635  1.00  0.00     0.198 A 
ATOM     87  F   UNL A   1      41.602  23.763  28.143  1.00  0.00    -0.203 F 
ATOM     88  F   UNL A   1      44.940  22.604  24.010  1.00  0.00    -0.200 F 
ATOM     89  C   UNL A   1      43.350  21.906  25.601  1.00  0.00     0.200 A 
ATOM     90  F   UNL A   1      41.810  21.258  27.264  1.00  0.00    -0.200 F 
ATOM     91  F   UNL A   1      43.505  20.629  25.223  1.00  0.00    -0.200 F 
ENDBRANCH  57  81
BRANCH  69  92
ATOM     92  C   UNL A   1      45.277  30.136  28.722  1.00  0.00     0.064 A 
ATOM     93  C   UNL A   1      44.345  30.769  27.878  1.00  0.00     0.173 A 
ATOM     94  C   UNL A   1      46.604  30.576  28.641  1.00  0.00     0.173 A 
ATOM     95  F   UNL A   1      43.041  30.487  27.958  1.00  0.00    -0.203 F 
ATOM     96  C   UNL A   1      44.730  31.762  26.978  1.00  0.00     0.198 A 
ATOM     97  C   UNL A   1      46.982  31.592  27.767  1.00  0.00     0.198 A 
ATOM     98  F   UNL A   1      47.531  30.057  29.462  1.00  0.00    -0.203 F 
ATOM     99  F   UNL A   1      43.815  32.345  26.188  1.00  0.00    -0.200 F 
ATOM    100  C   UNL A   1      46.047  32.179  26.929  1.00  0.00     0.200 A 
ATOM    101  F   UNL A   1      48.249  32.026  27.760  1.00  0.00    -0.200 F 
ATOM    102  F   UNL A   1      46.412  33.166  26.098  1.00  0.00    -0.200 F 
ENDBRANCH  69  92
ENDBRANCH  43  44
ENDBRANCH  35  38
ENDBRANCH  33  34
ENDBRANCH  32  33
ENDBRANCH   1  32
TORSDOF 15
ENDMDL
MODEL 2
REMARK VINA RESULT:     -13.8      1.308      2.052
REMARK SMILES NS(=O)(=O)c1ccc(-n2nc(C(=O)NCCCCNC(=O)c3ccc(-c4c5nc(c(-c6c(F)c(F)c(F)c(F)c6F)c6ccc([nH]6)c(-c6c(F)c(F)c(F)c(F)c6F)c6nc(c(-c7c(F)c(F)c(F)c(F)c7F)c7ccc4[nH]7)C=C6)C=C5)cc3)c(Cl)c2-c2ccc(Cl)cc2)cc1
REMARK SMILES IDX 16 1 15 2 14 3 12 4 13 5 11 7 9 8 10 9 87 10 85 11 86 12
REMARK SMILES IDX 8 13 5 14 6 15 96 16 7 17 95 18 2 19 3 20 4 21 1 22 88 25
REMARK SMILES IDX 89 26 94 27 90 28 93 29 91 30 92 31 17 32 18 33 19 34 20 35
REMARK SMILES IDX 21 37 22 38 23 39 84 40 24 41 83 42 25 43 26 44 27 45 77 46
REMARK SMILES IDX 28 47 82 48 76 49 78 50 29 51 81 52 75 53 74 54 30 56 62 57
REMARK SMILES IDX 42 58 61 59 43 60 46 61 60 62 79 63 44 64 45 65 59 67 80 68
REMARK SMILES IDX 47 69 31 70 32 71 40 72 33 73 34 74 38 75 41 76 35 77 36 78
REMARK SMILES IDX 39 79 37 80 63 81 64 82 72 83 65 84 66 85 70 86 73 87 67 88
REMARK SMILES IDX 68 89 71 90 69 91 48 92 49 93 57 94 50 95 51 96 55 97 58 98
REMARK SMILES IDX 52 99 53 100 56 101 54 102
REMARK H PARENT 14 6 1 23 1 24 19 36 78 55 46 66
REMARK Flexibility Score: inf
ROOT
ATOM      1  C   UNL A   1      32.875  28.689  27.312  1.00  0.00     0.023 C 
ENDROOT
BRANCH   1   2
ATOM      2  C   UNL A   1      31.560  27.887  27.327  1.00  0.00     0.116 C 
BRANCH   2   3
ATOM      3  N   UNL A   1      30.879  27.936  26.041  1.00  0.00    -0.351 N 
ATOM      4  C   UNL A   1      30.952  27.176  24.886  1.00  0.00     0.273 C 
ATOM      5  O   UNL A   1      30.145  27.499  24.008  1.00  0.00    -0.267 OA
ATOM      6  H   UNL A   1      30.224  28.668  25.980  1.00  0.00     0.163 HD
BRANCH   4   7
ATOM      7  C   UNL A   1      31.852  26.010  24.718  1.00  0.00     0.169 A 
ATOM      8  N   UNL A   1      32.383  23.915  24.670  1.00  0.00    -0.231 N 
ATOM      9  N   UNL A   1      31.324  24.757  24.684  1.00  0.00    -0.160 NA
ATOM     10  C   UNL A   1      33.579  24.590  24.732  1.00  0.00     0.094 A 
ATOM     11  C   UNL A   1      33.243  25.905  24.491  1.00  0.00     0.100 A 
ATOM     12  Cl  UNL A   1      34.384  27.041  23.959  1.00  0.00    -0.079 Cl
BRANCH   8  13
ATOM     13  C   UNL A   1      32.238  22.524  24.465  1.00  0.00     0.065 A 
ATOM     14  C   UNL A   1      32.433  19.789  24.015  1.00  0.00     0.082 A 
ATOM     15  C   UNL A   1      32.242  20.653  22.930  1.00  0.00     0.024 A 
ATOM     16  C   UNL A   1      32.483  20.283  25.323  1.00  0.00     0.024 A 
ATOM     17  C   UNL A   1      32.120  22.030  23.157  1.00  0.00     0.030 A 
ATOM     18  C   UNL A   1      32.408  21.656  25.547  1.00  0.00     0.030 A 
BRANCH  14  19
ATOM     19  S   UNL A   1      32.641  18.045  23.800  1.00  0.00     0.238 S 
ATOM     20  O   UNL A   1      31.867  17.369  24.825  1.00  0.00    -0.207 OA
ATOM     21  O   UNL A   1      34.035  17.780  23.579  1.00  0.00    -0.207 OA
BRANCH  19  22
ATOM     22  N   UNL A   1      31.864  17.681  22.357  1.00  0.00    -0.225 NA
ATOM     23  H   UNL A   1      31.861  18.505  21.755  1.00  0.00     0.137 HD
ATOM     24  H   UNL A   1      30.904  17.398  22.550  1.00  0.00     0.137 HD
ENDBRANCH  19  22
ENDBRANCH  14  19
ENDBRANCH   8  13
BRANCH  10  25
ATOM     25  C   UNL A   1      34.928  24.042  24.741  1.00  0.00     0.002 A 
ATOM     26  C   UNL A   1      35.412  23.448  23.566  1.00  0.00     0.012 A 
ATOM     27  C   UNL A   1      35.598  23.841  25.953  1.00  0.00     0.012 A 
ATOM     28  C   UNL A   1      36.521  22.606  23.615  1.00  0.00     0.021 A 
ATOM     29  C   UNL A   1      36.706  22.995  25.999  1.00  0.00     0.021 A 
ATOM     30  C   UNL A   1      37.148  22.365  24.836  1.00  0.00     0.041 A 
ATOM     31  Cl  UNL A   1      38.442  21.235  24.918  1.00  0.00    -0.084 Cl
ENDBRANCH  10  25
ENDBRANCH   4   7
ENDBRANCH   2   3
ENDBRANCH   1   2
BRANCH   1  32
ATOM     32  C   UNL A   1      32.805  30.196  27.051  1.00  0.00     0.023 C 
BRANCH  32  33
ATOM     33  C   UNL A   1      34.074  30.960  27.388  1.00  0.00     0.116 C 
BRANCH  33  34
ATOM     34  N   UNL A   1      33.936  31.914  28.504  1.00  0.00    -0.352 N 
ATOM     35  C   UNL A   1      34.776  32.064  29.603  1.00  0.00     0.251 C 
ATOM     36  H   UNL A   1      33.159  32.516  28.465  1.00  0.00     0.163 HD
ATOM     37  O   UNL A   1      34.404  32.584  30.645  1.00  0.00    -0.269 OA
BRANCH  35  38
ATOM     38  C   UNL A   1      36.165  31.609  29.450  1.00  0.00     0.039 A 
ATOM     39  C   UNL A   1      37.254  32.455  29.213  1.00  0.00     0.014 A 
ATOM     40  C   UNL A   1      36.346  30.260  29.698  1.00  0.00     0.014 A 
ATOM     41  C   UNL A   1      38.537  31.914  29.307  1.00  0.00     0.010 A 
ATOM     42  C   UNL A   1      37.566  29.851  30.128  1.00  0.00     0.010 A 
ATOM     43  C   UNL A   1      38.672  30.601  29.776  1.00  0.00    -0.014 A 
BRANCH  43  44
ATOM     44  C   UNL A   1      39.943  29.928  29.973  1.00  0.00     0.031 A 
ATOM     45  C   UNL A   1      40.389  29.826  31.381  1.00  0.00     0.074 A 
ATOM     46  C   UNL A   1      40.502  29.200  28.978  1.00  0.00     0.049 A 
ATOM     47  N   UNL A   1      41.415  30.393  31.920  1.00  0.00    -0.248 NA
ATOM     48  C   UNL A   1      39.525  29.119  32.339  1.00  0.00     0.031 C 
ATOM     49  C   UNL A   1      39.991  28.921  27.624  1.00  0.00     0.029 A 
ATOM     50  N   UNL A   1      41.626  28.441  29.021  1.00  0.00    -0.354 N 
ATOM     51  C   UNL A   1      41.446  29.953  33.239  1.00  0.00     0.074 A 
ATOM     52  C   UNL A   1      40.166  29.340  33.488  1.00  0.00     0.031 C 
ATOM     53  C   UNL A   1      40.667  27.885  27.083  1.00  0.00     0.029 A 
ATOM     54  C   UNL A   1      41.767  27.551  27.962  1.00  0.00     0.049 A 
ATOM     55  H   UNL A   1      42.289  28.515  29.745  1.00  0.00     0.167 HD
ATOM     56  C   UNL A   1      42.618  29.907  33.932  1.00  0.00     0.037 A 
ATOM     57  C   UNL A   1      42.710  26.583  27.865  1.00  0.00     0.037 A 
ATOM     58  C   UNL A   1      43.641  30.682  33.268  1.00  0.00     0.049 A 
ATOM     59  C   UNL A   1      43.816  26.975  28.784  1.00  0.00     0.074 A 
ATOM     60  C   UNL A   1      43.749  32.008  32.891  1.00  0.00     0.029 A 
ATOM     61  N   UNL A   1      44.576  30.012  32.514  1.00  0.00    -0.354 N 
ATOM     62  N   UNL A   1      44.550  28.043  28.606  1.00  0.00    -0.248 NA
ATOM     63  C   UNL A   1      43.744  26.488  30.156  1.00  0.00     0.031 C 
ATOM     64  C   UNL A   1      44.332  31.969  31.588  1.00  0.00     0.029 A 
ATOM     65  C   UNL A   1      44.628  30.637  31.292  1.00  0.00     0.049 A 
ATOM     66  H   UNL A   1      45.108  29.234  32.797  1.00  0.00     0.167 HD
ATOM     67  C   UNL A   1      44.686  28.598  29.871  1.00  0.00     0.074 A 
ATOM     68  C   UNL A   1      44.207  27.567  30.793  1.00  0.00     0.031 C 
ATOM     69  C   UNL A   1      44.877  29.941  30.050  1.00  0.00     0.037 A 
BRANCH  56  70
ATOM     70  C   UNL A   1      42.950  28.884  34.987  1.00  0.00     0.064 A 
ATOM     71  C   UNL A   1      43.523  29.317  36.200  1.00  0.00     0.173 A 
ATOM     72  C   UNL A   1      43.008  27.494  34.750  1.00  0.00     0.173 A 
ATOM     73  F   UNL A   1      43.534  30.619  36.524  1.00  0.00    -0.203 F 
ATOM     74  C   UNL A   1      44.181  28.435  37.061  1.00  0.00     0.198 A 
ATOM     75  C   UNL A   1      43.616  26.610  35.639  1.00  0.00     0.198 A 
ATOM     76  F   UNL A   1      42.588  26.945  33.604  1.00  0.00    -0.203 F 
ATOM     77  F   UNL A   1      44.825  28.912  38.135  1.00  0.00    -0.200 F 
ATOM     78  C   UNL A   1      44.234  27.083  36.777  1.00  0.00     0.200 A 
ATOM     79  F   UNL A   1      43.671  25.305  35.336  1.00  0.00    -0.200 F 
ATOM     80  F   UNL A   1      44.919  26.246  37.565  1.00  0.00    -0.200 F 
ENDBRANCH  56  70
BRANCH  57  81
ATOM     81  C   UNL A   1      42.511  25.202  27.354  1.00  0.00     0.064 A 
ATOM     82  C   UNL A   1      41.442  24.406  27.790  1.00  0.00     0.173 A 
ATOM     83  C   UNL A   1      43.222  24.727  26.231  1.00  0.00     0.173 A 
ATOM     84  F   UNL A   1      40.681  24.807  28.818  1.00  0.00    -0.203 F 
ATOM     85  C   UNL A   1      41.097  23.215  27.137  1.00  0.00     0.198 A 
ATOM     86  C   UNL A   1      42.881  23.538  25.584  1.00  0.00     0.198 A 
ATOM     87  F   UNL A   1      44.206  25.453  25.680  1.00  0.00    -0.203 F 
ATOM     88  F   UNL A   1      40.036  22.507  27.551  1.00  0.00    -0.200 F 
ATOM     89  C   UNL A   1      41.812  22.786  26.030  1.00  0.00     0.200 A 
ATOM     90  F   UNL A   1      43.558  23.160  24.491  1.00  0.00    -0.200 F 
ATOM     91  F   UNL A   1      41.448  21.677  25.372  1.00  0.00    -0.200 F 
ENDBRANCH  57  81
BRANCH  69  92
ATOM     92  C   UNL A   1      45.129  30.800  28.837  1.00  0.00     0.064 A 
ATOM     93  C   UNL A   1      44.126  31.505  28.149  1.00  0.00     0.173 A 
ATOM     94  C   UNL A   1      46.455  31.067  28.472  1.00  0.00     0.173 A 
ATOM     95  F   UNL A   1      42.840  31.391  28.498  1.00  0.00    -0.203 F 
ATOM     96  C   UNL A   1      44.432  32.403  27.126  1.00  0.00     0.198 A 
ATOM     97  C   UNL A   1      46.763  31.990  27.474  1.00  0.00     0.198 A 
ATOM     98  F   UNL A   1      47.462  30.473  29.130  1.00  0.00    -0.203 F 
ATOM     99  F   UNL A   1      43.450  33.060  26.491  1.00  0.00    -0.200 F 
ATOM    100  C   UNL A   1      45.752  32.651  26.795  1.00  0.00     0.200 A 
ATOM    101  F   UNL A   1      48.044  32.263  27.194  1.00  0.00    -0.200 F 
ATOM    102  F   UNL A   1      46.052  33.548  25.845  1.00  0.00    -0.200 F 
ENDBRANCH  69  92
ENDBRANCH  43  44
ENDBRANCH  35  38
ENDBRANCH  33  34
ENDBRANCH  32  33
ENDBRANCH   1  32
TORSDOF 15
ENDMDL
MODEL 3
REMARK VINA RESULT:     -13.8      2.585      6.862
REMARK SMILES NS(=O)(=O)c1ccc(-n2nc(C(=O)NCCCCNC(=O)c3ccc(-c4c5nc(c(-c6c(F)c(F)c(F)c(F)c6F)c6ccc([nH]6)c(-c6c(F)c(F)c(F)c(F)c6F)c6nc(c(-c7c(F)c(F)c(F)c(F)c7F)c7ccc4[nH]7)C=C6)C=C5)cc3)c(Cl)c2-c2ccc(Cl)cc2)cc1
REMARK SMILES IDX 16 1 15 2 14 3 12 4 13 5 11 7 9 8 10 9 87 10 85 11 86 12
REMARK SMILES IDX 8 13 5 14 6 15 96 16 7 17 95 18 2 19 3 20 4 21 1 22 88 25
REMARK SMILES IDX 89 26 94 27 90 28 93 29 91 30 92 31 17 32 18 33 19 34 20 35
REMARK SMILES IDX 21 37 22 38 23 39 84 40 24 41 83 42 25 43 26 44 27 45 77 46
REMARK SMILES IDX 28 47 82 48 76 49 78 50 29 51 81 52 75 53 74 54 30 56 62 57
REMARK SMILES IDX 42 58 61 59 43 60 46 61 60 62 79 63 44 64 45 65 59 67 80 68
REMARK SMILES IDX 47 69 31 70 32 71 40 72 33 73 34 74 38 75 41 76 35 77 36 78
REMARK SMILES IDX 39 79 37 80 63 81 64 82 72 83 65 84 66 85 70 86 73 87 67 88
REMARK SMILES IDX 68 89 71 90 69 91 48 92 49 93 57 94 50 95 51 96 55 97 58 98
REMARK SMILES IDX 52 99 53 100 56 101 54 102
REMARK H PARENT 14 6 1 23 1 24 19 36 78 55 46 66
REMARK Flexibility Score: inf
ROOT
ATOM      1  C   UNL A   1      32.201  28.990  27.155  1.00  0.00     0.023 C 
ENDROOT
BRANCH   1   2
ATOM      2  C   UNL A   1      31.139  27.924  26.825  1.00  0.00     0.116 C 
BRANCH   2   3
ATOM      3  N   UNL A   1      30.679  28.022  25.447  1.00  0.00    -0.351 N 
ATOM      4  C   UNL A   1      30.935  27.298  24.296  1.00  0.00     0.273 C 
ATOM      5  O   UNL A   1      30.286  27.659  23.308  1.00  0.00    -0.267 OA
ATOM      6  H   UNL A   1      30.050  28.766  25.303  1.00  0.00     0.163 HD
BRANCH   4   7
ATOM      7  C   UNL A   1      31.839  26.124  24.240  1.00  0.00     0.169 A 
ATOM      8  N   UNL A   1      32.369  24.031  24.345  1.00  0.00    -0.231 N 
ATOM      9  N   UNL A   1      31.311  24.871  24.261  1.00  0.00    -0.160 NA
ATOM     10  C   UNL A   1      33.562  24.710  24.417  1.00  0.00     0.094 A 
ATOM     11  C   UNL A   1      33.239  26.008  24.081  1.00  0.00     0.100 A 
ATOM     12  Cl  UNL A   1      34.404  27.109  23.529  1.00  0.00    -0.079 Cl
BRANCH   8  13
ATOM     13  C   UNL A   1      32.231  22.630  24.221  1.00  0.00     0.065 A 
ATOM     14  C   UNL A   1      32.439  19.875  23.925  1.00  0.00     0.082 A 
ATOM     15  C   UNL A   1      32.231  20.675  22.795  1.00  0.00     0.024 A 
ATOM     16  C   UNL A   1      32.499  20.443  25.202  1.00  0.00     0.024 A 
ATOM     17  C   UNL A   1      32.103  22.062  22.944  1.00  0.00     0.030 A 
ATOM     18  C   UNL A   1      32.417  21.825  25.349  1.00  0.00     0.030 A 
BRANCH  14  19
ATOM     19  S   UNL A   1      32.656  18.123  23.807  1.00  0.00     0.238 S 
ATOM     20  O   UNL A   1      31.855  17.499  24.844  1.00  0.00    -0.207 OA
ATOM     21  O   UNL A   1      34.056  17.852  23.639  1.00  0.00    -0.207 OA
BRANCH  19  22
ATOM     22  N   UNL A   1      31.920  17.682  22.364  1.00  0.00    -0.225 NA
ATOM     23  H   UNL A   1      31.932  18.473  21.720  1.00  0.00     0.137 HD
ATOM     24  H   UNL A   1      30.955  17.406  22.545  1.00  0.00     0.137 HD
ENDBRANCH  19  22
ENDBRANCH  14  19
ENDBRANCH   8  13
BRANCH  10  25
ATOM     25  C   UNL A   1      34.909  24.165  24.519  1.00  0.00     0.002 A 
ATOM     26  C   UNL A   1      35.395  23.394  23.454  1.00  0.00     0.012 A 
ATOM     27  C   UNL A   1      35.571  24.154  25.752  1.00  0.00     0.012 A 
ATOM     28  C   UNL A   1      36.500  22.565  23.640  1.00  0.00     0.021 A 
ATOM     29  C   UNL A   1      36.675  23.321  25.936  1.00  0.00     0.021 A 
ATOM     30  C   UNL A   1      37.121  22.515  24.887  1.00  0.00     0.041 A 
ATOM     31  Cl  UNL A   1      38.409  21.407  25.152  1.00  0.00    -0.084 Cl
ENDBRANCH  10  25
ENDBRANCH   4   7
ENDBRANCH   2   3
ENDBRANCH   1   2
BRANCH   1  32
ATOM     32  C   UNL A   1      31.860  30.460  26.901  1.00  0.00     0.023 C 
BRANCH  32  33
ATOM     33  C   UNL A   1      33.012  31.427  27.118  1.00  0.00     0.116 C 
BRANCH  33  34
ATOM     34  N   UNL A   1      32.609  32.840  27.240  1.00  0.00    -0.352 N 
ATOM     35  C   UNL A   1      33.049  33.771  28.176  1.00  0.00     0.251 C 
ATOM     36  H   UNL A   1      31.953  33.163  26.582  1.00  0.00     0.163 HD
ATOM     37  O   UNL A   1      32.407  34.775  28.453  1.00  0.00    -0.269 OA
BRANCH  35  38
ATOM     38  C   UNL A   1      34.358  33.527  28.799  1.00  0.00     0.039 A 
ATOM     39  C   UNL A   1      34.540  33.110  30.121  1.00  0.00     0.014 A 
ATOM     40  C   UNL A   1      35.424  33.611  27.920  1.00  0.00     0.014 A 
ATOM     41  C   UNL A   1      35.818  32.709  30.513  1.00  0.00     0.010 A 
ATOM     42  C   UNL A   1      36.540  32.896  28.206  1.00  0.00     0.010 A 
ATOM     43  C   UNL A   1      36.810  32.601  29.530  1.00  0.00    -0.014 A 
BRANCH  43  44
ATOM     44  C   UNL A   1      38.166  32.149  29.781  1.00  0.00     0.031 A 
ATOM     45  C   UNL A   1      38.445  30.749  29.387  1.00  0.00     0.074 A 
ATOM     46  C   UNL A   1      39.150  33.034  30.066  1.00  0.00     0.049 A 
ATOM     47  N   UNL A   1      38.729  29.760  30.163  1.00  0.00    -0.248 NA
ATOM     48  C   UNL A   1      38.259  30.369  27.978  1.00  0.00     0.031 C 
ATOM     49  C   UNL A   1      39.090  34.504  30.144  1.00  0.00     0.029 A 
ATOM     50  N   UNL A   1      40.474  32.793  30.236  1.00  0.00    -0.354 N 
ATOM     51  C   UNL A   1      38.960  28.672  29.328  1.00  0.00     0.074 A 
ATOM     52  C   UNL A   1      38.468  29.052  28.029  1.00  0.00     0.031 C 
ATOM     53  C   UNL A   1      40.337  35.018  30.104  1.00  0.00     0.029 A 
ATOM     54  C   UNL A   1      41.282  33.925  30.185  1.00  0.00     0.049 A 
ATOM     55  H   UNL A   1      40.835  31.889  30.383  1.00  0.00     0.167 HD
ATOM     56  C   UNL A   1      39.766  27.647  29.723  1.00  0.00     0.037 A 
ATOM     57  C   UNL A   1      42.637  33.927  30.163  1.00  0.00     0.037 A 
ATOM     58  C   UNL A   1      39.994  27.689  31.149  1.00  0.00     0.049 A 
ATOM     59  C   UNL A   1      43.071  32.610  30.711  1.00  0.00     0.074 A 
ATOM     60  C   UNL A   1      39.166  27.654  32.256  1.00  0.00     0.029 A 
ATOM     61  N   UNL A   1      41.183  28.211  31.601  1.00  0.00    -0.354 N 
ATOM     62  N   UNL A   1      42.851  32.241  31.946  1.00  0.00    -0.248 NA
ATOM     63  C   UNL A   1      43.258  31.523  29.758  1.00  0.00     0.031 C 
ATOM     64  C   UNL A   1      39.705  28.634  33.144  1.00  0.00     0.029 A 
ATOM     65  C   UNL A   1      40.874  29.135  32.569  1.00  0.00     0.049 A 
ATOM     66  H   UNL A   1      42.086  27.966  31.292  1.00  0.00     0.167 HD
ATOM     67  C   UNL A   1      42.460  30.912  31.859  1.00  0.00     0.074 A 
ATOM     68  C   UNL A   1      42.776  30.512  30.487  1.00  0.00     0.031 C 
ATOM     69  C   UNL A   1      41.635  30.343  32.791  1.00  0.00     0.037 A 
BRANCH  56  70
ATOM     70  C   UNL A   1      40.640  26.840  28.798  1.00  0.00     0.064 A 
ATOM     71  C   UNL A   1      40.278  25.508  28.508  1.00  0.00     0.173 A 
ATOM     72  C   UNL A   1      41.952  27.207  28.428  1.00  0.00     0.173 A 
ATOM     73  F   UNL A   1      39.059  25.048  28.826  1.00  0.00    -0.203 F 
ATOM     74  C   UNL A   1      41.190  24.596  27.972  1.00  0.00     0.198 A 
ATOM     75  C   UNL A   1      42.841  26.308  27.843  1.00  0.00     0.198 A 
ATOM     76  F   UNL A   1      42.469  28.405  28.720  1.00  0.00    -0.203 F 
ATOM     77  F   UNL A   1      40.841  23.309  27.838  1.00  0.00    -0.200 F 
ATOM     78  C   UNL A   1      42.474  24.994  27.647  1.00  0.00     0.200 A 
ATOM     79  F   UNL A   1      44.085  26.711  27.550  1.00  0.00    -0.200 F 
ATOM     80  F   UNL A   1      43.369  24.108  27.195  1.00  0.00    -0.200 F 
ENDBRANCH  56  70
BRANCH  57  81
ATOM     81  C   UNL A   1      43.508  34.807  29.343  1.00  0.00     0.064 A 
ATOM     82  C   UNL A   1      43.677  34.596  27.967  1.00  0.00     0.173 A 
ATOM     83  C   UNL A   1      43.991  36.034  29.847  1.00  0.00     0.173 A 
ATOM     84  F   UNL A   1      43.201  33.480  27.395  1.00  0.00    -0.203 F 
ATOM     85  C   UNL A   1      44.280  35.556  27.143  1.00  0.00     0.198 A 
ATOM     86  C   UNL A   1      44.596  36.988  29.027  1.00  0.00     0.198 A 
ATOM     87  F   UNL A   1      43.804  36.374  31.131  1.00  0.00    -0.203 F 
ATOM     88  F   UNL A   1      44.377  35.340  25.823  1.00  0.00    -0.200 F 
ATOM     89  C   UNL A   1      44.732  36.754  27.673  1.00  0.00     0.200 A 
ATOM     90  F   UNL A   1      44.992  38.157  29.550  1.00  0.00    -0.200 F 
ATOM     91  F   UNL A   1      45.259  37.695  26.877  1.00  0.00    -0.200 F 
ENDBRANCH  57  81
BRANCH  69  92
ATOM     92  C   UNL A   1      41.302  31.130  34.033  1.00  0.00     0.064 A 
ATOM     93  C   UNL A   1      40.165  31.948  34.166  1.00  0.00     0.173 A 
ATOM     94  C   UNL A   1      42.057  30.901  35.190  1.00  0.00     0.173 A 
ATOM     95  F   UNL A   1      39.330  32.138  33.140  1.00  0.00    -0.203 F 
ATOM     96  C   UNL A   1      39.824  32.533  35.385  1.00  0.00     0.198 A 
ATOM     97  C   UNL A   1      41.696  31.458  36.416  1.00  0.00     0.198 A 
ATOM     98  F   UNL A   1      43.118  30.081  35.145  1.00  0.00    -0.203 F 
ATOM     99  F   UNL A   1      38.732  33.308  35.476  1.00  0.00    -0.200 F 
ATOM    100  C   UNL A   1      40.585  32.281  36.511  1.00  0.00     0.200 A 
ATOM    101  F   UNL A   1      42.409  31.169  37.512  1.00  0.00    -0.200 F 
ATOM    102  F   UNL A   1      40.234  32.805  37.694  1.00  0.00    -0.200 F 
ENDBRANCH  69  92
ENDBRANCH  43  44
ENDBRANCH  35  38
ENDBRANCH  33  34
ENDBRANCH  32  33
ENDBRANCH   1  32
TORSDOF 15
ENDMDL
