MODEL 1
REMARK VINA RESULT:     -11.3      0.000      0.000
REMARK SMILES CC[NH2+][C@]1(C(=O)NCCCCNC(=O)c2ccc(-c3c4nc(c(-c5c(F)c(F)c(F)c(F)c5F)c5ccc([nH]5)c(-c5c(F)c(F)c(F)c(F)c5F)c5nc(c(-c6c(F)c(F)c(F)c(F)c6F)c6ccc3[nH]6)C=C5)C=C4)cc2)CC[C@H](SC2COC2)C1
REMARK SMILES IDX 9 1 8 2 7 3 5 4 6 5 4 7 78 8 86 9 79 10 80 11 3 12 2 15 1 16
REMARK SMILES IDX 81 17 82 18 83 19 85 20 84 21 10 22 11 23 12 24 13 25 14 27
REMARK SMILES IDX 15 28 16 29 77 30 17 31 76 32 18 33 19 34 20 35 70 36 21 37
REMARK SMILES IDX 75 38 69 39 71 40 22 41 74 42 68 43 67 44 23 46 55 47 35 48
REMARK SMILES IDX 54 49 36 50 39 51 53 52 72 53 37 54 38 55 52 57 73 58 40 59
REMARK SMILES IDX 24 60 25 61 33 62 26 63 27 64 31 65 34 66 28 67 29 68 32 69
REMARK SMILES IDX 30 70 56 71 57 72 65 73 58 74 59 75 63 76 66 77 60 78 61 79
REMARK SMILES IDX 64 80 62 81 41 82 42 83 50 84 43 85 44 86 48 87 51 88 45 89
REMARK SMILES IDX 46 90 49 91 47 92
REMARK H PARENT 7 6 3 13 3 14 12 26 71 45 39 56
REMARK Flexibility Score: inf
ROOT
ATOM      1  C   UNL A   1      31.864  30.403  26.802  1.00  0.00     0.023 C 
ENDROOT
BRANCH   1   2
ATOM      2  C   UNL A   1      33.150  29.916  26.124  1.00  0.00     0.116 C 
BRANCH   2   3
ATOM      3  N   UNL A   1      32.943  29.784  24.698  1.00  0.00    -0.351 N 
ATOM      4  C   UNL A   1      33.190  28.738  23.864  1.00  0.00     0.281 C 
ATOM      5  O   UNL A   1      33.418  29.053  22.687  1.00  0.00    -0.268 OA
ATOM      6  H   UNL A   1      32.562  30.580  24.261  1.00  0.00     0.163 HD
BRANCH   4   7
ATOM      7  C   UNL A   1      33.042  27.236  24.271  1.00  0.00     0.176 C 
ATOM      8  C   UNL A   1      33.320  26.349  23.040  1.00  0.00     0.080 C 
ATOM      9  C   UNL A   1      34.074  26.634  25.242  1.00  0.00     0.093 C 
ATOM     10  C   UNL A   1      33.505  24.938  23.590  1.00  0.00     0.022 C 
ATOM     11  C   UNL A   1      34.142  25.116  24.972  1.00  0.00     0.054 C 
BRANCH   7  12
ATOM     12  N   UNL A   1      31.682  26.988  24.824  1.00  0.00    -0.334 N 
ATOM     13  H   UNL A   1      31.579  25.983  24.968  1.00  0.00     0.347 HD
ATOM     14  H   UNL A   1      31.625  27.533  25.683  1.00  0.00     0.347 HD
BRANCH  12  15
ATOM     15  C   UNL A   1      30.571  27.440  23.983  1.00  0.00     0.257 C 
ATOM     16  C   UNL A   1      29.479  26.381  23.962  1.00  0.00     0.071 C 
ENDBRANCH  12  15
ENDBRANCH   7  12
BRANCH  11  17
ATOM     17  S   UNL A   1      33.284  24.217  26.307  1.00  0.00    -0.150 SA
BRANCH  17  18
ATOM     18  C   UNL A   1      31.787  23.548  25.534  1.00  0.00     0.098 C 
ATOM     19  C   UNL A   1      31.613  22.035  25.527  1.00  0.00     0.177 C 
ATOM     20  C   UNL A   1      30.500  23.566  26.352  1.00  0.00     0.177 C 
ATOM     21  O   UNL A   1      30.298  22.146  26.130  1.00  0.00    -0.379 OA
ENDBRANCH  17  18
ENDBRANCH  11  17
ENDBRANCH   4   7
ENDBRANCH   2   3
ENDBRANCH   1   2
BRANCH   1  22
ATOM     22  C   UNL A   1      31.661  31.921  26.746  1.00  0.00     0.023 C 
BRANCH  22  23
ATOM     23  C   UNL A   1      32.817  32.741  27.303  1.00  0.00     0.116 C 
BRANCH  23  24
ATOM     24  N   UNL A   1      32.443  34.105  27.640  1.00  0.00    -0.352 N 
ATOM     25  C   UNL A   1      32.989  34.925  28.598  1.00  0.00     0.251 C 
ATOM     26  H   UNL A   1      31.704  34.490  27.115  1.00  0.00     0.163 HD
ATOM     27  O   UNL A   1      32.499  36.019  28.837  1.00  0.00    -0.269 OA
BRANCH  25  28
ATOM     28  C   UNL A   1      34.150  34.442  29.371  1.00  0.00     0.039 A 
ATOM     29  C   UNL A   1      33.922  33.779  30.577  1.00  0.00     0.014 A 
ATOM     30  C   UNL A   1      35.449  34.608  28.882  1.00  0.00     0.014 A 
ATOM     31  C   UNL A   1      34.998  33.220  31.267  1.00  0.00     0.010 A 
ATOM     32  C   UNL A   1      36.510  33.993  29.536  1.00  0.00     0.010 A 
ATOM     33  C   UNL A   1      36.294  33.293  30.733  1.00  0.00    -0.014 A 
BRANCH  33  34
ATOM     34  C   UNL A   1      37.441  32.641  31.410  1.00  0.00     0.031 A 
ATOM     35  C   UNL A   1      38.149  31.496  30.749  1.00  0.00     0.074 A 
ATOM     36  C   UNL A   1      37.795  33.040  32.647  1.00  0.00     0.049 A 
ATOM     37  N   UNL A   1      39.129  30.754  31.202  1.00  0.00    -0.248 NA
ATOM     38  C   UNL A   1      37.676  31.112  29.410  1.00  0.00     0.031 C 
ATOM     39  C   UNL A   1      37.149  34.110  33.408  1.00  0.00     0.029 A 
ATOM     40  N   UNL A   1      38.781  32.583  33.483  1.00  0.00    -0.354 N 
ATOM     41  C   UNL A   1      39.375  29.811  30.215  1.00  0.00     0.074 A 
ATOM     42  C   UNL A   1      38.409  30.037  29.161  1.00  0.00     0.031 C 
ATOM     43  C   UNL A   1      37.773  34.245  34.590  1.00  0.00     0.029 A 
ATOM     44  C   UNL A   1      38.838  33.251  34.682  1.00  0.00     0.049 A 
ATOM     45  H   UNL A   1      39.390  31.846  33.248  1.00  0.00     0.167 HD
ATOM     46  C   UNL A   1      40.335  28.857  30.179  1.00  0.00     0.037 A 
ATOM     47  C   UNL A   1      39.657  33.078  35.735  1.00  0.00     0.037 A 
ATOM     48  C   UNL A   1      41.311  28.655  31.218  1.00  0.00     0.049 A 
ATOM     49  C   UNL A   1      40.714  32.009  35.672  1.00  0.00     0.074 A 
ATOM     50  C   UNL A   1      42.367  27.763  31.250  1.00  0.00     0.029 A 
ATOM     51  N   UNL A   1      41.346  29.360  32.413  1.00  0.00    -0.354 N 
ATOM     52  N   UNL A   1      40.986  31.170  34.703  1.00  0.00    -0.248 NA
ATOM     53  C   UNL A   1      41.580  31.865  36.851  1.00  0.00     0.031 C 
ATOM     54  C   UNL A   1      43.017  27.898  32.482  1.00  0.00     0.029 A 
ATOM     55  C   UNL A   1      42.394  28.907  33.199  1.00  0.00     0.049 A 
ATOM     56  H   UNL A   1      40.720  30.077  32.665  1.00  0.00     0.167 HD
ATOM     57  C   UNL A   1      42.071  30.421  35.139  1.00  0.00     0.074 A 
ATOM     58  C   UNL A   1      42.414  30.914  36.458  1.00  0.00     0.031 C 
ATOM     59  C   UNL A   1      42.725  29.417  34.505  1.00  0.00     0.037 A 
BRANCH  46  60
ATOM     60  C   UNL A   1      40.376  27.963  28.976  1.00  0.00     0.064 A 
ATOM     61  C   UNL A   1      41.149  28.282  27.847  1.00  0.00     0.173 A 
ATOM     62  C   UNL A   1      39.648  26.765  28.953  1.00  0.00     0.173 A 
ATOM     63  F   UNL A   1      41.853  29.424  27.813  1.00  0.00    -0.203 F 
ATOM     64  C   UNL A   1      41.163  27.452  26.730  1.00  0.00     0.198 A 
ATOM     65  C   UNL A   1      39.689  25.921  27.846  1.00  0.00     0.198 A 
ATOM     66  F   UNL A   1      38.896  26.409  30.006  1.00  0.00    -0.203 F 
ATOM     67  F   UNL A   1      41.864  27.806  25.644  1.00  0.00    -0.200 F 
ATOM     68  C   UNL A   1      40.439  26.270  26.732  1.00  0.00     0.200 A 
ATOM     69  F   UNL A   1      38.996  24.774  27.852  1.00  0.00    -0.200 F 
ATOM     70  F   UNL A   1      40.454  25.472  25.656  1.00  0.00    -0.200 F 
ENDBRANCH  46  60
BRANCH  47  71
ATOM     71  C   UNL A   1      39.541  33.963  36.922  1.00  0.00     0.064 A 
ATOM     72  C   UNL A   1      38.774  33.575  38.030  1.00  0.00     0.173 A 
ATOM     73  C   UNL A   1      40.187  35.205  36.977  1.00  0.00     0.173 A 
ATOM     74  F   UNL A   1      38.122  32.404  38.014  1.00  0.00    -0.203 F 
ATOM     75  C   UNL A   1      38.642  34.405  39.140  1.00  0.00     0.198 A 
ATOM     76  C   UNL A   1      40.076  36.024  38.099  1.00  0.00     0.198 A 
ATOM     77  F   UNL A   1      40.937  35.620  35.946  1.00  0.00    -0.203 F 
ATOM     78  F   UNL A   1      37.869  34.029  40.168  1.00  0.00    -0.200 F 
ATOM     79  C   UNL A   1      39.297  35.627  39.177  1.00  0.00     0.200 A 
ATOM     80  F   UNL A   1      40.720  37.198  38.137  1.00  0.00    -0.200 F 
ATOM     81  F   UNL A   1      39.173  36.424  40.246  1.00  0.00    -0.200 F 
ENDBRANCH  47  71
BRANCH  59  82
ATOM     82  C   UNL A   1      43.902  28.811  35.212  1.00  0.00     0.064 A 
ATOM     83  C   UNL A   1      43.760  27.698  36.053  1.00  0.00     0.173 A 
ATOM     84  C   UNL A   1      45.190  29.328  35.014  1.00  0.00     0.173 A 
ATOM     85  F   UNL A   1      42.545  27.179  36.286  1.00  0.00    -0.203 F 
ATOM     86  C   UNL A   1      44.864  27.138  36.689  1.00  0.00     0.198 A 
ATOM     87  C   UNL A   1      46.296  28.748  35.630  1.00  0.00     0.198 A 
ATOM     88  F   UNL A   1      45.378  30.388  34.215  1.00  0.00    -0.203 F 
ATOM     89  F   UNL A   1      44.700  26.103  37.523  1.00  0.00    -0.200 F 
ATOM     90  C   UNL A   1      46.131  27.659  36.470  1.00  0.00     0.200 A 
ATOM     91  F   UNL A   1      47.521  29.245  35.408  1.00  0.00    -0.200 F 
ATOM     92  F   UNL A   1      47.195  27.114  37.078  1.00  0.00    -0.200 F 
ENDBRANCH  59  82
ENDBRANCH  33  34
ENDBRANCH  25  28
ENDBRANCH  23  24
ENDBRANCH  22  23
ENDBRANCH   1  22
TORSDOF 15
ENDMDL
MODEL 2
REMARK VINA RESULT:     -11.2      1.771      3.551
REMARK SMILES CC[NH2+][C@]1(C(=O)NCCCCNC(=O)c2ccc(-c3c4nc(c(-c5c(F)c(F)c(F)c(F)c5F)c5ccc([nH]5)c(-c5c(F)c(F)c(F)c(F)c5F)c5nc(c(-c6c(F)c(F)c(F)c(F)c6F)c6ccc3[nH]6)C=C5)C=C4)cc2)CC[C@H](SC2COC2)C1
REMARK SMILES IDX 9 1 8 2 7 3 5 4 6 5 4 7 78 8 86 9 79 10 80 11 3 12 2 15 1 16
REMARK SMILES IDX 81 17 82 18 83 19 85 20 84 21 10 22 11 23 12 24 13 25 14 27
REMARK SMILES IDX 15 28 16 29 77 30 17 31 76 32 18 33 19 34 20 35 70 36 21 37
REMARK SMILES IDX 75 38 69 39 71 40 22 41 74 42 68 43 67 44 23 46 55 47 35 48
REMARK SMILES IDX 54 49 36 50 39 51 53 52 72 53 37 54 38 55 52 57 73 58 40 59
REMARK SMILES IDX 24 60 25 61 33 62 26 63 27 64 31 65 34 66 28 67 29 68 32 69
REMARK SMILES IDX 30 70 56 71 57 72 65 73 58 74 59 75 63 76 66 77 60 78 61 79
REMARK SMILES IDX 64 80 62 81 41 82 42 83 50 84 43 85 44 86 48 87 51 88 45 89
REMARK SMILES IDX 46 90 49 91 47 92
REMARK H PARENT 7 6 3 13 3 14 12 26 71 45 39 56
REMARK Flexibility Score: inf
ROOT
ATOM      1  C   UNL A   1      32.005  30.396  26.979  1.00  0.00     0.023 C 
ENDROOT
BRANCH   1   2
ATOM      2  C   UNL A   1      33.090  29.905  26.014  1.00  0.00     0.116 C 
BRANCH   2   3
ATOM      3  N   UNL A   1      33.045  28.463  25.906  1.00  0.00    -0.351 N 
ATOM      4  C   UNL A   1      32.082  27.645  25.401  1.00  0.00     0.281 C 
ATOM      5  O   UNL A   1      32.055  26.507  25.890  1.00  0.00    -0.268 OA
ATOM      6  H   UNL A   1      33.841  27.998  26.253  1.00  0.00     0.163 HD
BRANCH   4   7
ATOM      7  C   UNL A   1      31.170  28.010  24.185  1.00  0.00     0.176 C 
ATOM      8  C   UNL A   1      29.941  27.077  24.177  1.00  0.00     0.080 C 
ATOM      9  C   UNL A   1      30.444  29.368  24.192  1.00  0.00     0.093 C 
ATOM     10  C   UNL A   1      28.954  27.715  23.203  1.00  0.00     0.022 C 
ATOM     11  C   UNL A   1      29.176  29.225  23.325  1.00  0.00     0.054 C 
BRANCH   7  12
ATOM     12  N   UNL A   1      31.943  27.902  22.916  1.00  0.00    -0.334 N 
ATOM     13  H   UNL A   1      32.500  27.049  22.959  1.00  0.00     0.347 HD
ATOM     14  H   UNL A   1      31.253  27.904  22.166  1.00  0.00     0.347 HD
BRANCH  12  15
ATOM     15  C   UNL A   1      32.847  29.020  22.637  1.00  0.00     0.257 C 
ATOM     16  C   UNL A   1      34.252  28.492  22.386  1.00  0.00     0.071 C 
ENDBRANCH  12  15
ENDBRANCH   7  12
BRANCH  11  17
ATOM     17  S   UNL A   1      29.427  30.071  21.728  1.00  0.00    -0.150 SA
BRANCH  17  18
ATOM     18  C   UNL A   1      28.057  31.251  21.604  1.00  0.00     0.098 C 
ATOM     19  C   UNL A   1      28.156  32.535  22.418  1.00  0.00     0.177 C 
ATOM     20  C   UNL A   1      28.026  32.174  20.389  1.00  0.00     0.177 C 
ATOM     21  O   UNL A   1      27.919  33.346  21.238  1.00  0.00    -0.379 OA
ENDBRANCH  17  18
ENDBRANCH  11  17
ENDBRANCH   4   7
ENDBRANCH   2   3
ENDBRANCH   1   2
BRANCH   1  22
ATOM     22  C   UNL A   1      31.726  31.901  26.897  1.00  0.00     0.023 C 
BRANCH  22  23
ATOM     23  C   UNL A   1      32.906  32.791  27.266  1.00  0.00     0.116 C 
BRANCH  23  24
ATOM     24  N   UNL A   1      32.515  34.144  27.627  1.00  0.00    -0.352 N 
ATOM     25  C   UNL A   1      33.036  34.946  28.613  1.00  0.00     0.251 C 
ATOM     26  H   UNL A   1      31.783  34.535  27.097  1.00  0.00     0.163 HD
ATOM     27  O   UNL A   1      32.533  36.030  28.868  1.00  0.00    -0.269 OA
BRANCH  25  28
ATOM     28  C   UNL A   1      34.187  34.454  29.396  1.00  0.00     0.039 A 
ATOM     29  C   UNL A   1      33.947  33.845  30.628  1.00  0.00     0.014 A 
ATOM     30  C   UNL A   1      35.487  34.560  28.892  1.00  0.00     0.014 A 
ATOM     31  C   UNL A   1      35.011  33.277  31.331  1.00  0.00     0.010 A 
ATOM     32  C   UNL A   1      36.533  33.936  29.562  1.00  0.00     0.010 A 
ATOM     33  C   UNL A   1      36.304  33.289  30.785  1.00  0.00    -0.014 A 
BRANCH  33  34
ATOM     34  C   UNL A   1      37.434  32.626  31.479  1.00  0.00     0.031 A 
ATOM     35  C   UNL A   1      38.138  31.470  30.831  1.00  0.00     0.074 A 
ATOM     36  C   UNL A   1      37.778  33.024  32.719  1.00  0.00     0.049 A 
ATOM     37  N   UNL A   1      39.103  30.719  31.299  1.00  0.00    -0.248 NA
ATOM     38  C   UNL A   1      37.677  31.087  29.487  1.00  0.00     0.031 C 
ATOM     39  C   UNL A   1      37.135  34.104  33.469  1.00  0.00     0.029 A 
ATOM     40  N   UNL A   1      38.747  32.559  33.569  1.00  0.00    -0.354 N 
ATOM     41  C   UNL A   1      39.351  29.769  30.317  1.00  0.00     0.074 A 
ATOM     42  C   UNL A   1      38.401  30.004  29.251  1.00  0.00     0.031 C 
ATOM     43  C   UNL A   1      37.745  34.236  34.658  1.00  0.00     0.029 A 
ATOM     44  C   UNL A   1      38.797  33.230  34.767  1.00  0.00     0.049 A 
ATOM     45  H   UNL A   1      39.351  31.814  33.344  1.00  0.00     0.167 HD
ATOM     46  C   UNL A   1      40.300  28.805  30.297  1.00  0.00     0.037 A 
ATOM     47  C   UNL A   1      39.602  33.051  35.830  1.00  0.00     0.037 A 
ATOM     48  C   UNL A   1      41.261  28.595  31.349  1.00  0.00     0.049 A 
ATOM     49  C   UNL A   1      40.646  31.970  35.784  1.00  0.00     0.074 A 
ATOM     50  C   UNL A   1      42.306  27.691  31.396  1.00  0.00     0.029 A 
ATOM     51  N   UNL A   1      41.289  29.303  32.541  1.00  0.00    -0.354 N 
ATOM     52  N   UNL A   1      40.921  31.124  34.822  1.00  0.00    -0.248 NA
ATOM     53  C   UNL A   1      41.496  31.820  36.974  1.00  0.00     0.031 C 
ATOM     54  C   UNL A   1      42.942  27.822  32.636  1.00  0.00     0.029 A 
ATOM     55  C   UNL A   1      42.321  28.841  33.342  1.00  0.00     0.049 A 
ATOM     56  H   UNL A   1      40.668  30.028  32.784  1.00  0.00     0.167 HD
ATOM     57  C   UNL A   1      41.992  30.365  35.273  1.00  0.00     0.074 A 
ATOM     58  C   UNL A   1      42.323  30.857  36.595  1.00  0.00     0.031 C 
ATOM     59  C   UNL A   1      42.642  29.351  34.650  1.00  0.00     0.037 A 
BRANCH  46  60
ATOM     60  C   UNL A   1      40.346  27.906  29.097  1.00  0.00     0.064 A 
ATOM     61  C   UNL A   1      39.633  26.697  29.054  1.00  0.00     0.173 A 
ATOM     62  C   UNL A   1      41.099  28.262  27.969  1.00  0.00     0.173 A 
ATOM     63  F   UNL A   1      38.909  26.304  30.113  1.00  0.00    -0.203 F 
ATOM     64  C   UNL A   1      39.700  25.864  27.941  1.00  0.00     0.198 A 
ATOM     65  C   UNL A   1      41.139  27.441  26.844  1.00  0.00     0.198 A 
ATOM     66  F   UNL A   1      41.797  29.409  27.953  1.00  0.00    -0.203 F 
ATOM     67  F   UNL A   1      39.055  24.690  27.947  1.00  0.00    -0.200 F 
ATOM     68  C   UNL A   1      40.446  26.239  26.835  1.00  0.00     0.200 A 
ATOM     69  F   UNL A   1      41.853  27.808  25.772  1.00  0.00    -0.200 F 
ATOM     70  F   UNL A   1      40.509  25.436  25.764  1.00  0.00    -0.200 F 
ENDBRANCH  46  60
BRANCH  47  71
ATOM     71  C   UNL A   1      39.480  33.941  37.013  1.00  0.00     0.064 A 
ATOM     72  C   UNL A   1      40.115  35.191  37.034  1.00  0.00     0.173 A 
ATOM     73  C   UNL A   1      38.735  33.569  38.139  1.00  0.00     0.173 A 
ATOM     74  F   UNL A   1      40.856  35.582  35.987  1.00  0.00    -0.203 F 
ATOM     75  C   UNL A   1      40.024  36.027  38.145  1.00  0.00     0.198 A 
ATOM     76  C   UNL A   1      38.623  34.415  39.240  1.00  0.00     0.198 A 
ATOM     77  F   UNL A   1      38.103  32.385  38.166  1.00  0.00    -0.203 F 
ATOM     78  F   UNL A   1      40.675  37.198  38.156  1.00  0.00    -0.200 F 
ATOM     79  C   UNL A   1      39.274  35.640  39.245  1.00  0.00     0.200 A 
ATOM     80  F   UNL A   1      37.886  34.045  40.297  1.00  0.00    -0.200 F 
ATOM     81  F   UNL A   1      39.184  36.445  40.313  1.00  0.00    -0.200 F 
ENDBRANCH  47  71
BRANCH  59  82
ATOM     82  C   UNL A   1      43.802  28.734  35.374  1.00  0.00     0.064 A 
ATOM     83  C   UNL A   1      45.109  29.219  35.217  1.00  0.00     0.173 A 
ATOM     84  C   UNL A   1      43.597  27.670  36.264  1.00  0.00     0.173 A 
ATOM     85  F   UNL A   1      45.358  30.224  34.364  1.00  0.00    -0.203 F 
ATOM     86  C   UNL A   1      46.171  28.644  35.908  1.00  0.00     0.198 A 
ATOM     87  C   UNL A   1      44.658  27.116  36.975  1.00  0.00     0.198 A 
ATOM     88  F   UNL A   1      42.365  27.174  36.453  1.00  0.00    -0.203 F 
ATOM     89  F   UNL A   1      47.418  29.093  35.709  1.00  0.00    -0.200 F 
ATOM     90  C   UNL A   1      45.944  27.599  36.792  1.00  0.00     0.200 A 
ATOM     91  F   UNL A   1      44.434  26.115  37.838  1.00  0.00    -0.200 F 
ATOM     92  F   UNL A   1      46.968  27.053  37.462  1.00  0.00    -0.200 F 
ENDBRANCH  59  82
ENDBRANCH  33  34
ENDBRANCH  25  28
ENDBRANCH  23  24
ENDBRANCH  22  23
ENDBRANCH   1  22
TORSDOF 15
ENDMDL
MODEL 3
REMARK VINA RESULT:     -11.2      1.767      2.905
REMARK SMILES CC[NH2+][C@]1(C(=O)NCCCCNC(=O)c2ccc(-c3c4nc(c(-c5c(F)c(F)c(F)c(F)c5F)c5ccc([nH]5)c(-c5c(F)c(F)c(F)c(F)c5F)c5nc(c(-c6c(F)c(F)c(F)c(F)c6F)c6ccc3[nH]6)C=C5)C=C4)cc2)CC[C@H](SC2COC2)C1
REMARK SMILES IDX 9 1 8 2 7 3 5 4 6 5 4 7 78 8 86 9 79 10 80 11 3 12 2 15 1 16
REMARK SMILES IDX 81 17 82 18 83 19 85 20 84 21 10 22 11 23 12 24 13 25 14 27
REMARK SMILES IDX 15 28 16 29 77 30 17 31 76 32 18 33 19 34 20 35 70 36 21 37
REMARK SMILES IDX 75 38 69 39 71 40 22 41 74 42 68 43 67 44 23 46 55 47 35 48
REMARK SMILES IDX 54 49 36 50 39 51 53 52 72 53 37 54 38 55 52 57 73 58 40 59
REMARK SMILES IDX 24 60 25 61 33 62 26 63 27 64 31 65 34 66 28 67 29 68 32 69
REMARK SMILES IDX 30 70 56 71 57 72 65 73 58 74 59 75 63 76 66 77 60 78 61 79
REMARK SMILES IDX 64 80 62 81 41 82 42 83 50 84 43 85 44 86 48 87 51 88 45 89
REMARK SMILES IDX 46 90 49 91 47 92
REMARK H PARENT 7 6 3 13 3 14 12 26 71 45 39 56
REMARK Flexibility Score: inf
ROOT
ATOM      1  C   UNL A   1      32.037  30.300  26.786  1.00  0.00     0.023 C 
ENDROOT
BRANCH   1   2
ATOM      2  C   UNL A   1      33.127  29.952  25.767  1.00  0.00     0.116 C 
BRANCH   2   3
ATOM      3  N   UNL A   1      33.189  28.519  25.572  1.00  0.00    -0.351 N 
ATOM      4  C   UNL A   1      32.270  27.659  25.055  1.00  0.00     0.281 C 
ATOM      5  O   UNL A   1      32.352  26.495  25.474  1.00  0.00    -0.268 OA
ATOM      6  H   UNL A   1      34.032  28.099  25.859  1.00  0.00     0.163 HD
BRANCH   4   7
ATOM      7  C   UNL A   1      31.281  28.020  23.900  1.00  0.00     0.176 C 
ATOM      8  C   UNL A   1      30.077  27.056  23.945  1.00  0.00     0.080 C 
ATOM      9  C   UNL A   1      30.524  29.359  23.973  1.00  0.00     0.093 C 
ATOM     10  C   UNL A   1      29.020  27.685  23.041  1.00  0.00     0.022 C 
ATOM     11  C   UNL A   1      29.211  29.199  23.177  1.00  0.00     0.054 C 
BRANCH   7  12
ATOM     12  N   UNL A   1      31.982  27.953  22.587  1.00  0.00    -0.334 N 
ATOM     13  H   UNL A   1      31.273  27.922  21.853  1.00  0.00     0.347 HD
ATOM     14  H   UNL A   1      32.579  28.778  22.545  1.00  0.00     0.347 HD
BRANCH  12  15
ATOM     15  C   UNL A   1      32.868  26.801  22.408  1.00  0.00     0.257 C 
ATOM     16  C   UNL A   1      32.395  25.968  21.226  1.00  0.00     0.071 C 
ENDBRANCH  12  15
ENDBRANCH   7  12
BRANCH  11  17
ATOM     17  S   UNL A   1      29.350  30.077  21.584  1.00  0.00    -0.150 SA
BRANCH  17  18
ATOM     18  C   UNL A   1      27.992  31.279  21.594  1.00  0.00     0.098 C 
ATOM     19  C   UNL A   1      28.105  32.460  22.548  1.00  0.00     0.177 C 
ATOM     20  C   UNL A   1      27.973  32.332  20.492  1.00  0.00     0.177 C 
ATOM     21  O   UNL A   1      27.879  33.403  21.467  1.00  0.00    -0.379 OA
ENDBRANCH  17  18
ENDBRANCH  11  17
ENDBRANCH   4   7
ENDBRANCH   2   3
ENDBRANCH   1   2
BRANCH   1  22
ATOM     22  C   UNL A   1      31.703  31.793  26.864  1.00  0.00     0.023 C 
BRANCH  22  23
ATOM     23  C   UNL A   1      32.875  32.691  27.240  1.00  0.00     0.116 C 
BRANCH  23  24
ATOM     24  N   UNL A   1      32.472  34.041  27.599  1.00  0.00    -0.352 N 
ATOM     25  C   UNL A   1      32.998  34.855  28.574  1.00  0.00     0.251 C 
ATOM     26  H   UNL A   1      31.728  34.420  27.079  1.00  0.00     0.163 HD
ATOM     27  O   UNL A   1      32.486  35.934  28.831  1.00  0.00    -0.269 OA
BRANCH  25  28
ATOM     28  C   UNL A   1      34.167  34.381  29.342  1.00  0.00     0.039 A 
ATOM     29  C   UNL A   1      33.948  33.700  30.540  1.00  0.00     0.014 A 
ATOM     30  C   UNL A   1      35.463  34.575  28.857  1.00  0.00     0.014 A 
ATOM     31  C   UNL A   1      35.033  33.150  31.224  1.00  0.00     0.010 A 
ATOM     32  C   UNL A   1      36.534  33.970  29.504  1.00  0.00     0.010 A 
ATOM     33  C   UNL A   1      36.328  33.252  30.692  1.00  0.00    -0.014 A 
BRANCH  33  34
ATOM     34  C   UNL A   1      37.485  32.612  31.363  1.00  0.00     0.031 A 
ATOM     35  C   UNL A   1      38.210  31.482  30.691  1.00  0.00     0.074 A 
ATOM     36  C   UNL A   1      37.835  33.005  32.602  1.00  0.00     0.049 A 
ATOM     37  N   UNL A   1      39.200  30.751  31.138  1.00  0.00    -0.248 NA
ATOM     38  C   UNL A   1      37.740  31.102  29.350  1.00  0.00     0.031 C 
ATOM     39  C   UNL A   1      37.175  34.059  33.373  1.00  0.00     0.029 A 
ATOM     40  N   UNL A   1      38.828  32.556  33.434  1.00  0.00    -0.354 N 
ATOM     41  C   UNL A   1      39.459  29.819  30.142  1.00  0.00     0.074 A 
ATOM     42  C   UNL A   1      38.489  30.041  29.091  1.00  0.00     0.031 C 
ATOM     43  C   UNL A   1      37.798  34.194  34.555  1.00  0.00     0.029 A 
ATOM     44  C   UNL A   1      38.877  33.215  34.638  1.00  0.00     0.049 A 
ATOM     45  H   UNL A   1      39.448  31.830  33.192  1.00  0.00     0.167 HD
ATOM     46  C   UNL A   1      40.433  28.880  30.098  1.00  0.00     0.037 A 
ATOM     47  C   UNL A   1      39.701  33.045  35.689  1.00  0.00     0.037 A 
ATOM     48  C   UNL A   1      41.413  28.684  31.134  1.00  0.00     0.049 A 
ATOM     49  C   UNL A   1      40.772  31.991  35.616  1.00  0.00     0.074 A 
ATOM     50  C   UNL A   1      42.482  27.807  31.157  1.00  0.00     0.029 A 
ATOM     51  N   UNL A   1      41.439  29.380  32.334  1.00  0.00    -0.354 N 
ATOM     52  N   UNL A   1      41.056  31.165  34.640  1.00  0.00    -0.248 NA
ATOM     53  C   UNL A   1      41.642  31.851  36.793  1.00  0.00     0.031 C 
ATOM     54  C   UNL A   1      43.132  27.941  32.389  1.00  0.00     0.029 A 
ATOM     55  C   UNL A   1      42.494  28.935  33.115  1.00  0.00     0.049 A 
ATOM     56  H   UNL A   1      40.803  30.085  32.593  1.00  0.00     0.167 HD
ATOM     57  C   UNL A   1      42.152  30.428  35.069  1.00  0.00     0.074 A 
ATOM     58  C   UNL A   1      42.489  30.915  36.391  1.00  0.00     0.031 C 
ATOM     59  C   UNL A   1      42.820  29.439  34.425  1.00  0.00     0.037 A 
BRANCH  46  60
ATOM     60  C   UNL A   1      40.486  27.997  28.887  1.00  0.00     0.064 A 
ATOM     61  C   UNL A   1      41.276  28.321  27.772  1.00  0.00     0.173 A 
ATOM     62  C   UNL A   1      39.750  26.803  28.843  1.00  0.00     0.173 A 
ATOM     63  F   UNL A   1      41.987  29.459  27.758  1.00  0.00    -0.203 F 
ATOM     64  C   UNL A   1      41.300  27.501  26.648  1.00  0.00     0.198 A 
ATOM     65  C   UNL A   1      39.802  25.969  27.729  1.00  0.00     0.198 A 
ATOM     66  F   UNL A   1      38.982  26.442  29.882  1.00  0.00    -0.203 F 
ATOM     67  F   UNL A   1      42.018  27.861  25.575  1.00  0.00    -0.200 F 
ATOM     68  C   UNL A   1      40.569  26.324  26.629  1.00  0.00     0.200 A 
ATOM     69  F   UNL A   1      39.103  24.827  27.715  1.00  0.00    -0.200 F 
ATOM     70  F   UNL A   1      40.594  25.535  25.546  1.00  0.00    -0.200 F 
ENDBRANCH  46  60
BRANCH  47  71
ATOM     71  C   UNL A   1      39.573  33.918  36.883  1.00  0.00     0.064 A 
ATOM     72  C   UNL A   1      38.816  33.509  37.990  1.00  0.00     0.173 A 
ATOM     73  C   UNL A   1      40.198  35.171  36.947  1.00  0.00     0.173 A 
ATOM     74  F   UNL A   1      38.183  32.327  37.966  1.00  0.00    -0.203 F 
ATOM     75  C   UNL A   1      38.673  34.327  39.108  1.00  0.00     0.198 A 
ATOM     76  C   UNL A   1      40.076  35.978  38.076  1.00  0.00     0.198 A 
ATOM     77  F   UNL A   1      40.939  35.606  35.917  1.00  0.00    -0.203 F 
ATOM     78  F   UNL A   1      37.909  33.930  40.134  1.00  0.00    -0.200 F 
ATOM     79  C   UNL A   1      39.307  35.560  39.152  1.00  0.00     0.200 A 
ATOM     80  F   UNL A   1      40.701  37.163  38.121  1.00  0.00    -0.200 F 
ATOM     81  F   UNL A   1      39.173  36.346  40.229  1.00  0.00    -0.200 F 
ENDBRANCH  47  71
BRANCH  59  82
ATOM     82  C   UNL A   1      44.006  28.844  35.126  1.00  0.00     0.064 A 
ATOM     83  C   UNL A   1      43.875  27.745  35.987  1.00  0.00     0.173 A 
ATOM     84  C   UNL A   1      45.291  29.357  34.902  1.00  0.00     0.173 A 
ATOM     85  F   UNL A   1      42.663  27.231  36.246  1.00  0.00    -0.203 F 
ATOM     86  C   UNL A   1      44.988  27.196  36.617  1.00  0.00     0.198 A 
ATOM     87  C   UNL A   1      46.406  28.787  35.511  1.00  0.00     0.198 A 
ATOM     88  F   UNL A   1      45.469  30.404  34.082  1.00  0.00    -0.203 F 
ATOM     89  F   UNL A   1      44.836  26.175  37.471  1.00  0.00    -0.200 F 
ATOM     90  C   UNL A   1      46.252  27.712  36.373  1.00  0.00     0.200 A 
ATOM     91  F   UNL A   1      47.628  29.280  35.264  1.00  0.00    -0.200 F 
ATOM     92  F   UNL A   1      47.324  27.177  36.975  1.00  0.00    -0.200 F 
ENDBRANCH  59  82
ENDBRANCH  33  34
ENDBRANCH  25  28
ENDBRANCH  23  24
ENDBRANCH  22  23
ENDBRANCH   1  22
TORSDOF 15
ENDMDL
