MODEL 1
REMARK VINA RESULT:     -13.2      0.000      0.000
REMARK SMILES COc1cc(CC(=O)N2CCC[C@H]2C(=O)NCCCCNC(=O)c2ccc(-c3c4nc(c(-c5c(F)c(F)c(F)c(F)c5F)c5ccc([nH]5)c(-c5c(F)c(F)c(F)c(F)c5F)c5nc(c(-c6c(F)c(F)c(F)c(F)c6F)c6ccc3[nH]6)C=C5)C=C4)cc2)ccc1C
REMARK SMILES IDX 17 1 16 2 14 3 15 4 13 6 9 7 10 8 11 9 12 10 7 11 8 12 6 13
REMARK SMILES IDX 5 14 3 15 4 16 89 17 88 18 90 19 87 20 2 21 1 22 18 23 19 24
REMARK SMILES IDX 20 25 21 26 22 27 23 29 24 30 25 31 86 32 26 33 85 34 27 35
REMARK SMILES IDX 28 36 29 37 79 38 30 39 84 40 78 41 80 42 31 43 83 44 77 45
REMARK SMILES IDX 76 46 32 48 64 49 44 50 63 51 45 52 48 53 62 54 81 55 46 56
REMARK SMILES IDX 47 57 61 59 82 60 49 61 33 62 34 63 42 64 35 65 36 66 40 67
REMARK SMILES IDX 43 68 37 69 38 70 41 71 39 72 65 73 66 74 74 75 67 76 68 77
REMARK SMILES IDX 72 78 75 79 69 80 70 81 73 82 71 83 50 84 51 85 59 86 52 87
REMARK SMILES IDX 53 88 57 89 60 90 54 91 55 92 58 93 56 94
REMARK H PARENT 16 5 21 28 80 47 48 58
REMARK Flexibility Score: inf
ROOT
ATOM      1  C   UNL A   1      32.083  28.034  27.460  1.00  0.00     0.116 C 
ENDROOT
BRANCH   1   2
ATOM      2  N   UNL A   1      31.168  26.997  27.008  1.00  0.00    -0.354 N 
ATOM      3  C   UNL A   1      30.858  26.603  25.727  1.00  0.00     0.242 C 
ATOM      4  O   UNL A   1      29.987  25.743  25.581  1.00  0.00    -0.273 OA
ATOM      5  H   UNL A   1      30.701  26.507  27.723  1.00  0.00     0.163 HD
BRANCH   3   6
ATOM      6  C   UNL A   1      31.551  27.320  24.548  1.00  0.00     0.174 C 
ATOM      7  N   UNL A   1      32.049  26.445  23.475  1.00  0.00    -0.330 N 
ATOM      8  C   UNL A   1      31.216  26.593  22.298  1.00  0.00     0.120 C 
ATOM      9  C   UNL A   1      30.754  28.030  22.372  1.00  0.00     0.024 C 
ATOM     10  C   UNL A   1      30.533  28.239  23.856  1.00  0.00     0.037 C 
BRANCH   7  11
ATOM     11  C   UNL A   1      33.205  25.726  23.667  1.00  0.00     0.227 C 
ATOM     12  O   UNL A   1      34.048  26.144  24.475  1.00  0.00    -0.275 OA
BRANCH  11  13
ATOM     13  C   UNL A   1      33.610  24.541  22.789  1.00  0.00     0.135 C 
BRANCH  13  14
ATOM     14  C   UNL A   1      34.459  23.422  23.333  1.00  0.00    -0.035 A 
ATOM     15  C   UNL A   1      34.615  21.342  24.615  1.00  0.00     0.122 A 
ATOM     16  C   UNL A   1      33.849  22.333  23.991  1.00  0.00     0.051 A 
ATOM     17  C   UNL A   1      36.015  21.407  24.533  1.00  0.00    -0.009 A 
ATOM     18  C   UNL A   1      36.618  22.449  23.808  1.00  0.00     0.007 A 
ATOM     19  C   UNL A   1      36.907  20.393  25.197  1.00  0.00     0.048 C 
ATOM     20  C   UNL A   1      35.849  23.453  23.219  1.00  0.00     0.005 A 
BRANCH  15  21
ATOM     21  O   UNL A   1      34.096  20.324  25.369  1.00  0.00    -0.496 OA
ATOM     22  C   UNL A   1      32.701  20.071  25.261  1.00  0.00     0.278 C 
ENDBRANCH  15  21
ENDBRANCH  13  14
ENDBRANCH  11  13
ENDBRANCH   7  11
ENDBRANCH   3   6
ENDBRANCH   1   2
BRANCH   1  23
ATOM     23  C   UNL A   1      31.527  29.456  27.278  1.00  0.00     0.023 C 
BRANCH  23  24
ATOM     24  C   UNL A   1      32.478  30.456  26.615  1.00  0.00     0.023 C 
BRANCH  24  25
ATOM     25  C   UNL A   1      33.947  30.164  26.875  1.00  0.00     0.116 C 
BRANCH  25  26
ATOM     26  N   UNL A   1      34.706  31.276  27.428  1.00  0.00    -0.352 N 
ATOM     27  C   UNL A   1      35.876  31.276  28.171  1.00  0.00     0.251 C 
ATOM     28  H   UNL A   1      34.329  32.167  27.247  1.00  0.00     0.163 HD
ATOM     29  O   UNL A   1      36.283  32.320  28.653  1.00  0.00    -0.269 OA
BRANCH  27  30
ATOM     30  C   UNL A   1      36.715  30.048  28.258  1.00  0.00     0.039 A 
ATOM     31  C   UNL A   1      36.736  29.349  29.476  1.00  0.00     0.014 A 
ATOM     32  C   UNL A   1      37.614  29.705  27.257  1.00  0.00     0.014 A 
ATOM     33  C   UNL A   1      37.814  28.520  29.776  1.00  0.00     0.010 A 
ATOM     34  C   UNL A   1      38.744  28.996  27.595  1.00  0.00     0.010 A 
ATOM     35  C   UNL A   1      38.875  28.461  28.882  1.00  0.00    -0.014 A 
BRANCH  35  36
ATOM     36  C   UNL A   1      40.201  27.955  29.198  1.00  0.00     0.031 A 
ATOM     37  C   UNL A   1      40.581  26.587  28.789  1.00  0.00     0.074 A 
ATOM     38  C   UNL A   1      41.134  28.836  29.625  1.00  0.00     0.049 A 
ATOM     39  N   UNL A   1      41.700  26.031  29.100  1.00  0.00    -0.248 NA
ATOM     40  C   UNL A   1      39.696  25.699  28.034  1.00  0.00     0.031 C 
ATOM     41  C   UNL A   1      42.589  28.709  29.540  1.00  0.00     0.029 A 
ATOM     42  N   UNL A   1      40.937  29.974  30.430  1.00  0.00    -0.354 N 
ATOM     43  C   UNL A   1      41.821  24.897  28.337  1.00  0.00     0.074 A 
ATOM     44  C   UNL A   1      40.503  24.656  27.811  1.00  0.00     0.031 C 
ATOM     45  C   UNL A   1      43.152  29.504  30.462  1.00  0.00     0.029 A 
ATOM     46  C   UNL A   1      42.070  30.017  31.282  1.00  0.00     0.049 A 
ATOM     47  H   UNL A   1      40.179  30.600  30.408  1.00  0.00     0.167 HD
ATOM     48  C   UNL A   1      43.066  24.391  28.128  1.00  0.00     0.037 A 
ATOM     49  C   UNL A   1      41.962  29.806  32.627  1.00  0.00     0.037 A 
ATOM     50  C   UNL A   1      44.020  24.962  29.077  1.00  0.00     0.049 A 
ATOM     51  C   UNL A   1      42.802  28.660  33.141  1.00  0.00     0.074 A 
ATOM     52  C   UNL A   1      45.064  25.864  28.969  1.00  0.00     0.029 A 
ATOM     53  N   UNL A   1      43.782  24.793  30.439  1.00  0.00    -0.354 N 
ATOM     54  N   UNL A   1      43.231  27.678  32.397  1.00  0.00    -0.248 NA
ATOM     55  C   UNL A   1      43.213  28.526  34.534  1.00  0.00     0.031 C 
ATOM     56  C   UNL A   1      45.384  26.311  30.283  1.00  0.00     0.029 A 
ATOM     57  C   UNL A   1      44.573  25.641  31.184  1.00  0.00     0.049 A 
ATOM     58  H   UNL A   1      43.134  24.156  30.818  1.00  0.00     0.167 HD
ATOM     59  C   UNL A   1      43.944  26.795  33.167  1.00  0.00     0.074 A 
ATOM     60  C   UNL A   1      43.918  27.382  34.494  1.00  0.00     0.031 C 
ATOM     61  C   UNL A   1      44.479  25.653  32.639  1.00  0.00     0.037 A 
BRANCH  48  62
ATOM     62  C   UNL A   1      43.474  23.517  26.961  1.00  0.00     0.064 A 
ATOM     63  C   UNL A   1      43.087  22.159  26.926  1.00  0.00     0.173 A 
ATOM     64  C   UNL A   1      44.352  23.904  25.924  1.00  0.00     0.173 A 
ATOM     65  F   UNL A   1      42.271  21.647  27.858  1.00  0.00    -0.203 F 
ATOM     66  C   UNL A   1      43.546  21.271  25.944  1.00  0.00     0.198 A 
ATOM     67  C   UNL A   1      44.764  23.030  24.914  1.00  0.00     0.198 A 
ATOM     68  F   UNL A   1      44.908  25.119  25.875  1.00  0.00    -0.203 F 
ATOM     69  F   UNL A   1      43.193  19.980  25.996  1.00  0.00    -0.200 F 
ATOM     70  C   UNL A   1      44.372  21.711  24.930  1.00  0.00     0.200 A 
ATOM     71  F   UNL A   1      45.572  23.478  23.941  1.00  0.00    -0.200 F 
ATOM     72  F   UNL A   1      44.808  20.865  23.986  1.00  0.00    -0.200 F 
ENDBRANCH  48  62
BRANCH  49  73
ATOM     73  C   UNL A   1      40.636  30.207  33.168  1.00  0.00     0.064 A 
ATOM     74  C   UNL A   1      40.382  31.581  33.343  1.00  0.00     0.173 A 
ATOM     75  C   UNL A   1      39.534  29.346  33.100  1.00  0.00     0.173 A 
ATOM     76  F   UNL A   1      41.406  32.448  33.414  1.00  0.00    -0.203 F 
ATOM     77  C   UNL A   1      39.084  32.087  33.307  1.00  0.00     0.198 A 
ATOM     78  C   UNL A   1      38.234  29.856  33.086  1.00  0.00     0.198 A 
ATOM     79  F   UNL A   1      39.710  28.031  32.919  1.00  0.00    -0.203 F 
ATOM     80  F   UNL A   1      38.882  33.412  33.342  1.00  0.00    -0.200 F 
ATOM     81  C   UNL A   1      38.013  31.226  33.145  1.00  0.00     0.200 A 
ATOM     82  F   UNL A   1      37.196  29.028  32.902  1.00  0.00    -0.200 F 
ATOM     83  F   UNL A   1      36.773  31.714  32.999  1.00  0.00    -0.200 F 
ENDBRANCH  49  73
BRANCH  61  84
ATOM     84  C   UNL A   1      45.030  24.469  33.413  1.00  0.00     0.064 A 
ATOM     85  C   UNL A   1      44.315  23.286  33.672  1.00  0.00     0.173 A 
ATOM     86  C   UNL A   1      46.394  24.439  33.800  1.00  0.00     0.173 A 
ATOM     87  F   UNL A   1      43.060  23.115  33.243  1.00  0.00    -0.203 F 
ATOM     88  C   UNL A   1      44.895  22.194  34.329  1.00  0.00     0.198 A 
ATOM     89  C   UNL A   1      46.986  23.325  34.396  1.00  0.00     0.198 A 
ATOM     90  F   UNL A   1      47.211  25.480  33.583  1.00  0.00    -0.203 F 
ATOM     91  F   UNL A   1      44.153  21.109  34.592  1.00  0.00    -0.200 F 
ATOM     92  C   UNL A   1      46.231  22.208  34.679  1.00  0.00     0.200 A 
ATOM     93  F   UNL A   1      48.299  23.335  34.672  1.00  0.00    -0.200 F 
ATOM     94  F   UNL A   1      46.793  21.141  35.261  1.00  0.00    -0.200 F 
ENDBRANCH  61  84
ENDBRANCH  35  36
ENDBRANCH  27  30
ENDBRANCH  25  26
ENDBRANCH  24  25
ENDBRANCH  23  24
ENDBRANCH   1  23
TORSDOF 15
ENDMDL
MODEL 2
REMARK VINA RESULT:     -12.5      1.324      3.543
REMARK SMILES COc1cc(CC(=O)N2CCC[C@H]2C(=O)NCCCCNC(=O)c2ccc(-c3c4nc(c(-c5c(F)c(F)c(F)c(F)c5F)c5ccc([nH]5)c(-c5c(F)c(F)c(F)c(F)c5F)c5nc(c(-c6c(F)c(F)c(F)c(F)c6F)c6ccc3[nH]6)C=C5)C=C4)cc2)ccc1C
REMARK SMILES IDX 17 1 16 2 14 3 15 4 13 6 9 7 10 8 11 9 12 10 7 11 8 12 6 13
REMARK SMILES IDX 5 14 3 15 4 16 89 17 88 18 90 19 87 20 2 21 1 22 18 23 19 24
REMARK SMILES IDX 20 25 21 26 22 27 23 29 24 30 25 31 86 32 26 33 85 34 27 35
REMARK SMILES IDX 28 36 29 37 79 38 30 39 84 40 78 41 80 42 31 43 83 44 77 45
REMARK SMILES IDX 76 46 32 48 64 49 44 50 63 51 45 52 48 53 62 54 81 55 46 56
REMARK SMILES IDX 47 57 61 59 82 60 49 61 33 62 34 63 42 64 35 65 36 66 40 67
REMARK SMILES IDX 43 68 37 69 38 70 41 71 39 72 65 73 66 74 74 75 67 76 68 77
REMARK SMILES IDX 72 78 75 79 69 80 70 81 73 82 71 83 50 84 51 85 59 86 52 87
REMARK SMILES IDX 53 88 57 89 60 90 54 91 55 92 58 93 56 94
REMARK H PARENT 16 5 21 28 80 47 48 58
REMARK Flexibility Score: inf
ROOT
ATOM      1  C   UNL A   1      33.341  26.784  26.268  1.00  0.00     0.116 C 
ENDROOT
BRANCH   1   2
ATOM      2  N   UNL A   1      34.238  26.040  25.397  1.00  0.00    -0.354 N 
ATOM      3  C   UNL A   1      34.301  24.686  25.159  1.00  0.00     0.242 C 
ATOM      4  O   UNL A   1      35.203  24.269  24.431  1.00  0.00    -0.273 OA
ATOM      5  H   UNL A   1      34.898  26.583  24.908  1.00  0.00     0.163 HD
BRANCH   3   6
ATOM      6  C   UNL A   1      33.297  23.764  25.884  1.00  0.00     0.174 C 
ATOM      7  N   UNL A   1      32.360  23.034  25.015  1.00  0.00    -0.330 N 
ATOM      8  C   UNL A   1      32.716  21.629  24.985  1.00  0.00     0.120 C 
ATOM      9  C   UNL A   1      33.309  21.386  26.355  1.00  0.00     0.024 C 
ATOM     10  C   UNL A   1      34.075  22.664  26.624  1.00  0.00     0.037 C 
BRANCH   7  11
ATOM     11  C   UNL A   1      31.291  23.697  24.461  1.00  0.00     0.227 C 
ATOM     12  O   UNL A   1      30.932  23.405  23.309  1.00  0.00    -0.275 OA
BRANCH  11  13
ATOM     13  C   UNL A   1      30.640  24.922  25.103  1.00  0.00     0.135 C 
BRANCH  13  14
ATOM     14  C   UNL A   1      30.135  26.067  24.264  1.00  0.00    -0.035 A 
ATOM     15  C   UNL A   1      30.620  27.997  22.840  1.00  0.00     0.122 A 
ATOM     16  C   UNL A   1      31.044  26.855  23.528  1.00  0.00     0.051 A 
ATOM     17  C   UNL A   1      29.256  28.329  22.838  1.00  0.00    -0.009 A 
ATOM     18  C   UNL A   1      28.342  27.497  23.506  1.00  0.00     0.007 A 
ATOM     19  C   UNL A   1      28.727  29.554  22.142  1.00  0.00     0.048 C 
ATOM     20  C   UNL A   1      28.775  26.379  24.219  1.00  0.00     0.005 A 
BRANCH  15  21
ATOM     21  O   UNL A   1      31.461  28.872  22.204  1.00  0.00    -0.496 OA
ATOM     22  C   UNL A   1      32.766  29.038  22.741  1.00  0.00     0.278 C 
ENDBRANCH  15  21
ENDBRANCH  13  14
ENDBRANCH  11  13
ENDBRANCH   7  11
ENDBRANCH   3   6
ENDBRANCH   1   2
BRANCH   1  23
ATOM     23  C   UNL A   1      33.386  28.303  26.031  1.00  0.00     0.023 C 
BRANCH  23  24
ATOM     24  C   UNL A   1      34.535  29.043  26.721  1.00  0.00     0.023 C 
BRANCH  24  25
ATOM     25  C   UNL A   1      34.073  30.053  27.759  1.00  0.00     0.116 C 
BRANCH  25  26
ATOM     26  N   UNL A   1      34.944  31.208  27.922  1.00  0.00    -0.352 N 
ATOM     27  C   UNL A   1      36.266  31.277  28.334  1.00  0.00     0.251 C 
ATOM     28  H   UNL A   1      34.530  32.075  27.706  1.00  0.00     0.163 HD
ATOM     29  O   UNL A   1      36.779  32.367  28.529  1.00  0.00    -0.269 OA
BRANCH  27  30
ATOM     30  C   UNL A   1      37.103  30.047  28.394  1.00  0.00     0.039 A 
ATOM     31  C   UNL A   1      37.082  29.293  29.579  1.00  0.00     0.014 A 
ATOM     32  C   UNL A   1      38.038  29.751  27.411  1.00  0.00     0.014 A 
ATOM     33  C   UNL A   1      38.151  28.451  29.879  1.00  0.00     0.010 A 
ATOM     34  C   UNL A   1      39.157  29.027  27.757  1.00  0.00     0.010 A 
ATOM     35  C   UNL A   1      39.242  28.433  29.021  1.00  0.00    -0.014 A 
BRANCH  35  36
ATOM     36  C   UNL A   1      40.557  27.913  29.361  1.00  0.00     0.031 A 
ATOM     37  C   UNL A   1      40.940  26.551  28.935  1.00  0.00     0.074 A 
ATOM     38  C   UNL A   1      41.484  28.780  29.828  1.00  0.00     0.049 A 
ATOM     39  N   UNL A   1      42.048  25.982  29.264  1.00  0.00    -0.248 NA
ATOM     40  C   UNL A   1      40.069  25.683  28.142  1.00  0.00     0.031 C 
ATOM     41  C   UNL A   1      42.940  28.645  29.777  1.00  0.00     0.029 A 
ATOM     42  N   UNL A   1      41.273  29.904  30.649  1.00  0.00    -0.354 N 
ATOM     43  C   UNL A   1      42.182  24.862  28.484  1.00  0.00     0.074 A 
ATOM     44  C   UNL A   1      40.876  24.639  27.920  1.00  0.00     0.031 C 
ATOM     45  C   UNL A   1      43.484  29.420  30.728  1.00  0.00     0.029 A 
ATOM     46  C   UNL A   1      42.385  29.924  31.529  1.00  0.00     0.049 A 
ATOM     47  H   UNL A   1      40.520  30.535  30.620  1.00  0.00     0.167 HD
ATOM     48  C   UNL A   1      43.428  24.352  28.296  1.00  0.00     0.037 A 
ATOM     49  C   UNL A   1      42.242  29.689  32.867  1.00  0.00     0.037 A 
ATOM     50  C   UNL A   1      44.361  24.900  29.280  1.00  0.00     0.049 A 
ATOM     51  C   UNL A   1      43.062  28.528  33.380  1.00  0.00     0.074 A 
ATOM     52  C   UNL A   1      45.412  25.797  29.215  1.00  0.00     0.029 A 
ATOM     53  N   UNL A   1      44.088  24.707  30.632  1.00  0.00    -0.354 N 
ATOM     54  N   UNL A   1      43.504  27.557  32.629  1.00  0.00    -0.248 NA
ATOM     55  C   UNL A   1      43.437  28.366  34.781  1.00  0.00     0.031 C 
ATOM     56  C   UNL A   1      45.702  26.217  30.544  1.00  0.00     0.029 A 
ATOM     57  C   UNL A   1      44.865  25.535  31.413  1.00  0.00     0.049 A 
ATOM     58  H   UNL A   1      43.427  24.067  30.983  1.00  0.00     0.167 HD
ATOM     59  C   UNL A   1      44.192  26.656  33.401  1.00  0.00     0.074 A 
ATOM     60  C   UNL A   1      44.136  27.218  34.737  1.00  0.00     0.031 C 
ATOM     61  C   UNL A   1      44.734  25.521  32.865  1.00  0.00     0.037 A 
BRANCH  48  62
ATOM     62  C   UNL A   1      43.861  23.498  27.123  1.00  0.00     0.064 A 
ATOM     63  C   UNL A   1      44.659  24.056  26.099  1.00  0.00     0.173 A 
ATOM     64  C   UNL A   1      43.417  22.181  26.870  1.00  0.00     0.173 A 
ATOM     65  F   UNL A   1      45.135  25.306  26.195  1.00  0.00    -0.203 F 
ATOM     66  C   UNL A   1      44.976  23.356  24.928  1.00  0.00     0.198 A 
ATOM     67  C   UNL A   1      43.782  21.466  25.726  1.00  0.00     0.198 A 
ATOM     68  F   UNL A   1      42.560  21.549  27.677  1.00  0.00    -0.203 F 
ATOM     69  F   UNL A   1      45.687  23.958  23.965  1.00  0.00    -0.200 F 
ATOM     70  C   UNL A   1      44.550  22.057  24.748  1.00  0.00     0.200 A 
ATOM     71  F   UNL A   1      43.350  20.205  25.570  1.00  0.00    -0.200 F 
ATOM     72  F   UNL A   1      44.856  21.383  23.631  1.00  0.00    -0.200 F 
ENDBRANCH  48  62
BRANCH  49  73
ATOM     73  C   UNL A   1      40.905  30.088  33.383  1.00  0.00     0.064 A 
ATOM     74  C   UNL A   1      40.651  31.461  33.567  1.00  0.00     0.173 A 
ATOM     75  C   UNL A   1      39.802  29.231  33.279  1.00  0.00     0.173 A 
ATOM     76  F   UNL A   1      41.675  32.323  33.672  1.00  0.00    -0.203 F 
ATOM     77  C   UNL A   1      39.355  31.971  33.507  1.00  0.00     0.198 A 
ATOM     78  C   UNL A   1      38.504  29.745  33.241  1.00  0.00     0.198 A 
ATOM     79  F   UNL A   1      39.979  27.917  33.087  1.00  0.00    -0.203 F 
ATOM     80  F   UNL A   1      39.156  33.296  33.553  1.00  0.00    -0.200 F 
ATOM     81  C   UNL A   1      38.285  31.115  33.311  1.00  0.00     0.200 A 
ATOM     82  F   UNL A   1      37.468  28.923  33.023  1.00  0.00    -0.200 F 
ATOM     83  F   UNL A   1      37.051  31.609  33.142  1.00  0.00    -0.200 F 
ENDBRANCH  49  73
BRANCH  61  84
ATOM     84  C   UNL A   1      45.258  24.320  33.630  1.00  0.00     0.064 A 
ATOM     85  C   UNL A   1      44.521  23.147  33.873  1.00  0.00     0.173 A 
ATOM     86  C   UNL A   1      46.620  24.260  34.024  1.00  0.00     0.173 A 
ATOM     87  F   UNL A   1      43.264  23.003  33.435  1.00  0.00    -0.203 F 
ATOM     88  C   UNL A   1      45.076  22.038  34.522  1.00  0.00     0.198 A 
ATOM     89  C   UNL A   1      47.187  23.130  34.612  1.00  0.00     0.198 A 
ATOM     90  F   UNL A   1      47.457  25.288  33.821  1.00  0.00    -0.203 F 
ATOM     91  F   UNL A   1      44.312  20.965  34.770  1.00  0.00    -0.200 F 
ATOM     92  C   UNL A   1      46.411  22.024  34.879  1.00  0.00     0.200 A 
ATOM     93  F   UNL A   1      48.498  23.113  34.895  1.00  0.00    -0.200 F 
ATOM     94  F   UNL A   1      46.949  20.941  35.454  1.00  0.00    -0.200 F 
ENDBRANCH  61  84
ENDBRANCH  35  36
ENDBRANCH  27  30
ENDBRANCH  25  26
ENDBRANCH  24  25
ENDBRANCH  23  24
ENDBRANCH   1  23
TORSDOF 15
ENDMDL
MODEL 3
REMARK VINA RESULT:     -12.4      1.323      3.255
REMARK SMILES COc1cc(CC(=O)N2CCC[C@H]2C(=O)NCCCCNC(=O)c2ccc(-c3c4nc(c(-c5c(F)c(F)c(F)c(F)c5F)c5ccc([nH]5)c(-c5c(F)c(F)c(F)c(F)c5F)c5nc(c(-c6c(F)c(F)c(F)c(F)c6F)c6ccc3[nH]6)C=C5)C=C4)cc2)ccc1C
REMARK SMILES IDX 17 1 16 2 14 3 15 4 13 6 9 7 10 8 11 9 12 10 7 11 8 12 6 13
REMARK SMILES IDX 5 14 3 15 4 16 89 17 88 18 90 19 87 20 2 21 1 22 18 23 19 24
REMARK SMILES IDX 20 25 21 26 22 27 23 29 24 30 25 31 86 32 26 33 85 34 27 35
REMARK SMILES IDX 28 36 29 37 79 38 30 39 84 40 78 41 80 42 31 43 83 44 77 45
REMARK SMILES IDX 76 46 32 48 64 49 44 50 63 51 45 52 48 53 62 54 81 55 46 56
REMARK SMILES IDX 47 57 61 59 82 60 49 61 33 62 34 63 42 64 35 65 36 66 40 67
REMARK SMILES IDX 43 68 37 69 38 70 41 71 39 72 65 73 66 74 74 75 67 76 68 77
REMARK SMILES IDX 72 78 75 79 69 80 70 81 73 82 71 83 50 84 51 85 59 86 52 87
REMARK SMILES IDX 53 88 57 89 60 90 54 91 55 92 58 93 56 94
REMARK H PARENT 16 5 21 28 80 47 48 58
REMARK Flexibility Score: inf
ROOT
ATOM      1  C   UNL A   1      33.877  26.566  25.974  1.00  0.00     0.116 C 
ENDROOT
BRANCH   1   2
ATOM      2  N   UNL A   1      34.207  26.022  24.666  1.00  0.00    -0.354 N 
ATOM      3  C   UNL A   1      34.333  24.710  24.271  1.00  0.00     0.242 C 
ATOM      4  O   UNL A   1      34.699  24.486  23.117  1.00  0.00    -0.273 OA
ATOM      5  H   UNL A   1      34.366  26.690  23.960  1.00  0.00     0.163 HD
BRANCH   3   6
ATOM      6  C   UNL A   1      34.095  23.601  25.319  1.00  0.00     0.174 C 
ATOM      7  N   UNL A   1      33.636  22.309  24.785  1.00  0.00    -0.330 N 
ATOM      8  C   UNL A   1      34.707  21.336  24.872  1.00  0.00     0.120 C 
ATOM      9  C   UNL A   1      35.478  21.768  26.099  1.00  0.00     0.024 C 
ATOM     10  C   UNL A   1      35.427  23.280  26.015  1.00  0.00     0.037 C 
BRANCH   7  11
ATOM     11  C   UNL A   1      32.327  22.164  24.392  1.00  0.00     0.227 C 
ATOM     12  O   UNL A   1      32.072  21.497  23.376  1.00  0.00    -0.275 OA
BRANCH  11  13
ATOM     13  C   UNL A   1      31.172  22.947  25.017  1.00  0.00     0.135 C 
BRANCH  13  14
ATOM     14  C   UNL A   1      30.870  24.361  24.594  1.00  0.00    -0.035 A 
ATOM     15  C   UNL A   1      30.943  26.094  22.867  1.00  0.00     0.122 A 
ATOM     16  C   UNL A   1      31.096  24.759  23.260  1.00  0.00     0.051 A 
ATOM     17  C   UNL A   1      30.502  27.038  23.807  1.00  0.00    -0.009 A 
ATOM     18  C   UNL A   1      30.201  26.623  25.115  1.00  0.00     0.007 A 
ATOM     19  C   UNL A   1      30.336  28.495  23.467  1.00  0.00     0.048 C 
ATOM     20  C   UNL A   1      30.389  25.298  25.510  1.00  0.00     0.005 A 
BRANCH  15  21
ATOM     21  O   UNL A   1      31.257  26.573  21.622  1.00  0.00    -0.496 OA
ATOM     22  C   UNL A   1      32.326  25.947  20.927  1.00  0.00     0.278 C 
ENDBRANCH  15  21
ENDBRANCH  13  14
ENDBRANCH  11  13
ENDBRANCH   7  11
ENDBRANCH   3   6
ENDBRANCH   1   2
BRANCH   1  23
ATOM     23  C   UNL A   1      33.421  28.034  25.924  1.00  0.00     0.023 C 
BRANCH  23  24
ATOM     24  C   UNL A   1      34.168  28.988  26.859  1.00  0.00     0.023 C 
BRANCH  24  25
ATOM     25  C   UNL A   1      33.338  30.182  27.303  1.00  0.00     0.116 C 
BRANCH  25  26
ATOM     26  N   UNL A   1      34.106  31.361  27.672  1.00  0.00    -0.352 N 
ATOM     27  C   UNL A   1      35.370  31.462  28.234  1.00  0.00     0.251 C 
ATOM     28  H   UNL A   1      33.660  32.221  27.496  1.00  0.00     0.163 HD
ATOM     29  O   UNL A   1      35.785  32.554  28.588  1.00  0.00    -0.269 OA
BRANCH  27  30
ATOM     30  C   UNL A   1      36.278  30.282  28.267  1.00  0.00     0.039 A 
ATOM     31  C   UNL A   1      36.350  29.540  29.458  1.00  0.00     0.014 A 
ATOM     32  C   UNL A   1      37.186  30.029  27.247  1.00  0.00     0.014 A 
ATOM     33  C   UNL A   1      37.477  28.764  29.718  1.00  0.00     0.010 A 
ATOM     34  C   UNL A   1      38.357  29.373  27.550  1.00  0.00     0.010 A 
ATOM     35  C   UNL A   1      38.530  28.799  28.814  1.00  0.00    -0.014 A 
BRANCH  35  36
ATOM     36  C   UNL A   1      39.885  28.357  29.102  1.00  0.00     0.031 A 
ATOM     37  C   UNL A   1      40.293  26.976  28.770  1.00  0.00     0.074 A 
ATOM     38  C   UNL A   1      40.807  29.294  29.422  1.00  0.00     0.049 A 
ATOM     39  N   UNL A   1      41.444  26.478  29.066  1.00  0.00    -0.248 NA
ATOM     40  C   UNL A   1      39.406  26.010  28.121  1.00  0.00     0.031 C 
ATOM     41  C   UNL A   1      42.260  29.206  29.277  1.00  0.00     0.029 A 
ATOM     42  N   UNL A   1      40.607  30.480  30.155  1.00  0.00    -0.354 N 
ATOM     43  C   UNL A   1      41.569  25.297  28.378  1.00  0.00     0.074 A 
ATOM     44  C   UNL A   1      40.237  24.980  27.933  1.00  0.00     0.031 C 
ATOM     45  C   UNL A   1      42.837  30.082  30.114  1.00  0.00     0.029 A 
ATOM     46  C   UNL A   1      41.776  30.618  30.947  1.00  0.00     0.049 A 
ATOM     47  H   UNL A   1      39.828  31.079  30.126  1.00  0.00     0.167 HD
ATOM     48  C   UNL A   1      42.819  24.817  28.145  1.00  0.00     0.037 A 
ATOM     49  C   UNL A   1      41.736  30.499  32.307  1.00  0.00     0.037 A 
ATOM     50  C   UNL A   1      43.795  25.483  29.007  1.00  0.00     0.049 A 
ATOM     51  C   UNL A   1      42.637  29.418  32.858  1.00  0.00     0.074 A 
ATOM     52  C   UNL A   1      44.801  26.406  28.787  1.00  0.00     0.029 A 
ATOM     53  N   UNL A   1      43.625  25.403  30.387  1.00  0.00    -0.354 N 
ATOM     54  N   UNL A   1      43.065  28.400  32.164  1.00  0.00    -0.248 NA
ATOM     55  C   UNL A   1      43.115  29.396  34.237  1.00  0.00     0.031 C 
ATOM     56  C   UNL A   1      45.166  26.955  30.050  1.00  0.00     0.029 A 
ATOM     57  C   UNL A   1      44.420  26.325  31.033  1.00  0.00     0.049 A 
ATOM     58  H   UNL A   1      43.017  24.774  30.839  1.00  0.00     0.167 HD
ATOM     59  C   UNL A   1      43.841  27.596  32.959  1.00  0.00     0.074 A 
ATOM     60  C   UNL A   1      43.856  28.274  34.242  1.00  0.00     0.031 C 
ATOM     61  C   UNL A   1      44.391  26.437  32.487  1.00  0.00     0.037 A 
BRANCH  48  62
ATOM     62  C   UNL A   1      43.204  23.876  27.023  1.00  0.00     0.064 A 
ATOM     63  C   UNL A   1      42.883  22.503  27.111  1.00  0.00     0.173 A 
ATOM     64  C   UNL A   1      44.003  24.222  25.911  1.00  0.00     0.173 A 
ATOM     65  F   UNL A   1      42.146  22.027  28.125  1.00  0.00    -0.203 F 
ATOM     66  C   UNL A   1      43.328  21.565  26.172  1.00  0.00     0.198 A 
ATOM     67  C   UNL A   1      44.399  23.292  24.945  1.00  0.00     0.198 A 
ATOM     68  F   UNL A   1      44.494  25.452  25.739  1.00  0.00    -0.203 F 
ATOM     69  F   UNL A   1      43.043  20.266  26.339  1.00  0.00    -0.200 F 
ATOM     70  C   UNL A   1      44.074  21.962  25.081  1.00  0.00     0.200 A 
ATOM     71  F   UNL A   1      45.129  23.701  23.895  1.00  0.00    -0.200 F 
ATOM     72  F   UNL A   1      44.498  21.067  24.178  1.00  0.00    -0.200 F 
ENDBRANCH  48  62
BRANCH  49  73
ATOM     73  C   UNL A   1      40.423  30.896  32.882  1.00  0.00     0.064 A 
ATOM     74  C   UNL A   1      40.139  32.271  32.993  1.00  0.00     0.173 A 
ATOM     75  C   UNL A   1      39.343  30.006  32.906  1.00  0.00     0.173 A 
ATOM     76  F   UNL A   1      41.141  33.165  32.975  1.00  0.00    -0.203 F 
ATOM     77  C   UNL A   1      38.828  32.742  32.985  1.00  0.00     0.198 A 
ATOM     78  C   UNL A   1      38.029  30.482  32.920  1.00  0.00     0.198 A 
ATOM     79  F   UNL A   1      39.546  28.687  32.788  1.00  0.00    -0.203 F 
ATOM     80  F   UNL A   1      38.591  34.061  32.958  1.00  0.00    -0.200 F 
ATOM     81  C   UNL A   1      37.774  31.847  32.915  1.00  0.00     0.200 A 
ATOM     82  F   UNL A   1      37.008  29.620  32.824  1.00  0.00    -0.200 F 
ATOM     83  F   UNL A   1      36.517  32.296  32.796  1.00  0.00    -0.200 F 
ENDBRANCH  49  73
BRANCH  61  84
ATOM     84  C   UNL A   1      45.016  25.328  33.313  1.00  0.00     0.064 A 
ATOM     85  C   UNL A   1      46.395  25.058  33.370  1.00  0.00     0.173 A 
ATOM     86  C   UNL A   1      44.223  24.577  34.219  1.00  0.00     0.173 A 
ATOM     87  F   UNL A   1      47.282  25.780  32.676  1.00  0.00    -0.203 F 
ATOM     88  C   UNL A   1      46.926  24.068  34.205  1.00  0.00     0.198 A 
ATOM     89  C   UNL A   1      44.764  23.637  35.096  1.00  0.00     0.198 A 
ATOM     90  F   UNL A   1      42.897  24.753  34.306  1.00  0.00    -0.203 F 
ATOM     91  F   UNL A   1      48.244  23.820  34.183  1.00  0.00    -0.200 F 
ATOM     92  C   UNL A   1      46.115  23.368  35.076  1.00  0.00     0.200 A 
ATOM     93  F   UNL A   1      43.968  23.012  35.977  1.00  0.00    -0.200 F 
ATOM     94  F   UNL A   1      46.636  22.458  35.909  1.00  0.00    -0.200 F 
ENDBRANCH  61  84
ENDBRANCH  35  36
ENDBRANCH  27  30
ENDBRANCH  25  26
ENDBRANCH  24  25
ENDBRANCH  23  24
ENDBRANCH   1  23
TORSDOF 15
ENDMDL
