MODEL 1
REMARK VINA RESULT:     -14.3      0.000      0.000
REMARK SMILES Cc1cccc(C[NH2+]Cc2c(C(=O)NCCCCNC(=O)c3ccc(-c4c5nc(c(-c6c(F)c(F)c(F)c(F)c6F)c6ccc([nH]6)c(-c6c(F)c(F)c(F)c(F)c6F)c6nc(c(-c7c(F)c(F)c(F)c(F)c7F)c7ccc4[nH]7)C=C6)C=C5)cc3)c(C)n(Cc3cccc(F)c3)c2C)c1
REMARK SMILES IDX 15 1 14 2 12 3 13 4 11 6 10 7 96 8 85 9 87 10 97 11 86 12
REMARK SMILES IDX 9 13 8 14 7 17 6 18 1 19 2 20 3 21 98 22 4 23 5 24 88 25
REMARK SMILES IDX 89 26 90 27 95 28 91 29 93 30 92 31 94 32 16 33 17 34 18 35
REMARK SMILES IDX 19 36 20 37 21 39 22 40 23 41 84 42 24 43 83 44 25 45 26 46
REMARK SMILES IDX 27 47 77 48 28 49 82 50 76 51 78 52 29 53 81 54 75 55 74 56
REMARK SMILES IDX 30 58 62 59 42 60 61 61 43 62 46 63 60 64 79 65 44 66 45 67
REMARK SMILES IDX 59 69 80 70 47 71 31 72 32 73 40 74 33 75 34 76 38 77 41 78
REMARK SMILES IDX 35 79 36 80 39 81 37 82 63 83 64 84 72 85 65 86 66 87 70 88
REMARK SMILES IDX 73 89 67 90 68 91 71 92 69 93 48 94 49 95 57 96 50 97 51 98
REMARK SMILES IDX 55 99 58 100 52 101 53 102 56 103 54 104
REMARK H PARENT 14 5 8 15 8 16 19 38 78 57 46 68
REMARK Flexibility Score: inf
ROOT
ATOM      1  C   UNL A   1      36.760  22.945  24.674  1.00  0.00     0.116 C 
ENDROOT
BRANCH   1   2
ATOM      2  N   UNL A   1      35.896  22.989  23.521  1.00  0.00    -0.352 N 
ATOM      3  C   UNL A   1      34.645  23.427  23.187  1.00  0.00     0.253 C 
ATOM      4  O   UNL A   1      34.451  23.275  21.971  1.00  0.00    -0.269 OA
ATOM      5  H   UNL A   1      36.339  22.582  22.741  1.00  0.00     0.163 HD
BRANCH   3   6
ATOM      6  C   UNL A   1      33.592  24.032  24.054  1.00  0.00     0.069 A 
ATOM      7  C   UNL A   1      32.835  23.608  25.241  1.00  0.00     0.040 A 
ATOM      8  C   UNL A   1      31.927  24.635  25.533  1.00  0.00     0.025 A 
ATOM      9  C   UNL A   1      33.071  25.301  23.718  1.00  0.00     0.028 A 
ATOM     10  N   UNL A   1      32.171  25.694  24.681  1.00  0.00    -0.343 N 
ATOM     11  C   UNL A   1      30.817  24.705  26.532  1.00  0.00     0.065 C 
ATOM     12  C   UNL A   1      33.406  26.154  22.524  1.00  0.00     0.065 C 
BRANCH   7  13
ATOM     13  C   UNL A   1      33.019  22.297  25.958  1.00  0.00     0.300 C 
BRANCH  13  14
ATOM     14  N   UNL A   1      33.397  21.116  25.207  1.00  0.00    -0.339 N 
ATOM     15  H   UNL A   1      33.614  21.408  24.254  1.00  0.00     0.346 HD
ATOM     16  H   UNL A   1      34.188  20.712  25.710  1.00  0.00     0.346 HD
BRANCH  14  17
ATOM     17  C   UNL A   1      32.398  20.063  25.133  1.00  0.00     0.297 C 
BRANCH  17  18
ATOM     18  C   UNL A   1      33.087  18.734  24.893  1.00  0.00     0.006 A 
ATOM     19  C   UNL A   1      32.429  15.044  25.596  1.00  0.00     0.044 C 
ATOM     20  C   UNL A   1      33.116  16.306  25.165  1.00  0.00    -0.051 A 
ATOM     21  C   UNL A   1      34.446  16.282  24.739  1.00  0.00     0.003 A 
ATOM     22  C   UNL A   1      32.436  17.528  25.192  1.00  0.00     0.013 A 
ATOM     23  C   UNL A   1      35.092  17.467  24.384  1.00  0.00     0.001 A 
ATOM     24  C   UNL A   1      34.423  18.689  24.476  1.00  0.00     0.009 A 
ENDBRANCH  17  18
ENDBRANCH  14  17
ENDBRANCH  13  14
ENDBRANCH   7  13
BRANCH  10  25
ATOM     25  C   UNL A   1      31.491  27.001  24.749  1.00  0.00     0.157 C 
BRANCH  25  26
ATOM     26  C   UNL A   1      32.180  28.023  25.631  1.00  0.00    -0.025 A 
ATOM     27  C   UNL A   1      33.401  27.683  26.243  1.00  0.00     0.006 A 
ATOM     28  C   UNL A   1      31.660  29.311  25.836  1.00  0.00     0.044 A 
ATOM     29  C   UNL A   1      34.118  28.629  26.979  1.00  0.00     0.003 A 
ATOM     30  C   UNL A   1      32.390  30.247  26.561  1.00  0.00     0.123 A 
ATOM     31  C   UNL A   1      33.617  29.920  27.125  1.00  0.00     0.039 A 
ATOM     32  F   UNL A   1      31.912  31.490  26.697  1.00  0.00    -0.207 F 
ENDBRANCH  25  26
ENDBRANCH  10  25
ENDBRANCH   3   6
ENDBRANCH   1   2
BRANCH   1  33
ATOM     33  C   UNL A   1      37.273  21.525  24.958  1.00  0.00     0.023 C 
BRANCH  33  34
ATOM     34  C   UNL A   1      38.632  21.464  25.661  1.00  0.00     0.023 C 
BRANCH  34  35
ATOM     35  C   UNL A   1      39.058  22.791  26.271  1.00  0.00     0.116 C 
BRANCH  35  36
ATOM     36  N   UNL A   1      40.498  23.011  26.344  1.00  0.00    -0.352 N 
ATOM     37  C   UNL A   1      41.186  24.204  26.508  1.00  0.00     0.251 C 
ATOM     38  H   UNL A   1      41.056  22.203  26.267  1.00  0.00     0.163 HD
ATOM     39  O   UNL A   1      42.406  24.229  26.469  1.00  0.00    -0.269 OA
BRANCH  37  40
ATOM     40  C   UNL A   1      40.428  25.431  26.862  1.00  0.00     0.039 A 
ATOM     41  C   UNL A   1      40.807  26.637  26.262  1.00  0.00     0.014 A 
ATOM     42  C   UNL A   1      39.527  25.433  27.924  1.00  0.00     0.014 A 
ATOM     43  C   UNL A   1      40.493  27.841  26.893  1.00  0.00     0.010 A 
ATOM     44  C   UNL A   1      39.309  26.613  28.609  1.00  0.00     0.010 A 
ATOM     45  C   UNL A   1      39.850  27.811  28.133  1.00  0.00    -0.014 A 
BRANCH  45  46
ATOM     46  C   UNL A   1      39.841  28.945  29.054  1.00  0.00     0.031 A 
ATOM     47  C   UNL A   1      38.787  29.982  28.988  1.00  0.00     0.074 A 
ATOM     48  C   UNL A   1      40.768  29.017  30.037  1.00  0.00     0.049 A 
ATOM     49  N   UNL A   1      38.936  31.186  29.435  1.00  0.00    -0.248 NA
ATOM     50  C   UNL A   1      37.477  29.751  28.390  1.00  0.00     0.031 C 
ATOM     51  C   UNL A   1      40.779  29.930  31.179  1.00  0.00     0.029 A 
ATOM     52  N   UNL A   1      42.026  28.389  30.086  1.00  0.00    -0.354 N 
ATOM     53  C   UNL A   1      37.711  31.804  29.402  1.00  0.00     0.074 A 
ATOM     54  C   UNL A   1      36.838  30.880  28.714  1.00  0.00     0.031 C 
ATOM     55  C   UNL A   1      42.042  30.062  31.610  1.00  0.00     0.029 A 
ATOM     56  C   UNL A   1      42.893  29.330  30.693  1.00  0.00     0.049 A 
ATOM     57  H   UNL A   1      42.255  27.487  29.764  1.00  0.00     0.167 HD
ATOM     58  C   UNL A   1      37.535  32.996  30.041  1.00  0.00     0.037 A 
ATOM     59  C   UNL A   1      43.952  29.851  30.008  1.00  0.00     0.037 A 
ATOM     60  C   UNL A   1      38.761  33.478  30.662  1.00  0.00     0.049 A 
ATOM     61  C   UNL A   1      43.889  31.347  29.784  1.00  0.00     0.074 A 
ATOM     62  C   UNL A   1      39.281  33.439  31.946  1.00  0.00     0.029 A 
ATOM     63  N   UNL A   1      39.803  33.865  29.841  1.00  0.00    -0.354 N 
ATOM     64  N   UNL A   1      42.909  32.111  30.176  1.00  0.00    -0.248 NA
ATOM     65  C   UNL A   1      44.889  32.081  29.004  1.00  0.00     0.031 C 
ATOM     66  C   UNL A   1      40.658  33.793  31.878  1.00  0.00     0.029 A 
ATOM     67  C   UNL A   1      40.969  34.049  30.556  1.00  0.00     0.049 A 
ATOM     68  H   UNL A   1      39.724  33.993  28.868  1.00  0.00     0.167 HD
ATOM     69  C   UNL A   1      43.093  33.371  29.673  1.00  0.00     0.074 A 
ATOM     70  C   UNL A   1      44.348  33.310  28.954  1.00  0.00     0.031 C 
ATOM     71  C   UNL A   1      42.185  34.373  29.837  1.00  0.00     0.037 A 
BRANCH  58  72
ATOM     72  C   UNL A   1      36.185  33.621  30.255  1.00  0.00     0.064 A 
ATOM     73  C   UNL A   1      35.434  34.121  29.171  1.00  0.00     0.173 A 
ATOM     74  C   UNL A   1      35.590  33.774  31.521  1.00  0.00     0.173 A 
ATOM     75  F   UNL A   1      35.846  33.971  27.907  1.00  0.00    -0.203 F 
ATOM     76  C   UNL A   1      34.233  34.812  29.354  1.00  0.00     0.198 A 
ATOM     77  C   UNL A   1      34.421  34.518  31.708  1.00  0.00     0.198 A 
ATOM     78  F   UNL A   1      36.111  33.182  32.604  1.00  0.00    -0.203 F 
ATOM     79  F   UNL A   1      33.561  35.268  28.288  1.00  0.00    -0.200 F 
ATOM     80  C   UNL A   1      33.747  35.044  30.625  1.00  0.00     0.200 A 
ATOM     81  F   UNL A   1      33.956  34.724  32.948  1.00  0.00    -0.200 F 
ATOM     82  F   UNL A   1      32.627  35.757  30.802  1.00  0.00    -0.200 F 
ENDBRANCH  58  72
BRANCH  59  83
ATOM     83  C   UNL A   1      44.572  28.868  29.082  1.00  0.00     0.064 A 
ATOM     84  C   UNL A   1      45.387  27.858  29.632  1.00  0.00     0.173 A 
ATOM     85  C   UNL A   1      44.097  28.682  27.780  1.00  0.00     0.173 A 
ATOM     86  F   UNL A   1      45.865  27.989  30.880  1.00  0.00    -0.203 F 
ATOM     87  C   UNL A   1      45.613  26.664  28.955  1.00  0.00     0.198 A 
ATOM     88  C   UNL A   1      44.340  27.490  27.098  1.00  0.00     0.198 A 
ATOM     89  F   UNL A   1      43.301  29.598  27.211  1.00  0.00    -0.203 F 
ATOM     90  F   UNL A   1      46.295  25.675  29.550  1.00  0.00    -0.200 F 
ATOM     91  C   UNL A   1      45.065  26.469  27.698  1.00  0.00     0.200 A 
ATOM     92  F   UNL A   1      43.792  27.294  25.890  1.00  0.00    -0.200 F 
ATOM     93  F   UNL A   1      45.202  25.288  27.082  1.00  0.00    -0.200 F 
ENDBRANCH  59  83
BRANCH  71  94
ATOM     94  C   UNL A   1      42.393  35.760  29.319  1.00  0.00     0.064 A 
ATOM     95  C   UNL A   1      41.847  36.182  28.098  1.00  0.00     0.173 A 
ATOM     96  C   UNL A   1      43.261  36.660  29.969  1.00  0.00     0.173 A 
ATOM     97  F   UNL A   1      41.039  35.373  27.396  1.00  0.00    -0.203 F 
ATOM     98  C   UNL A   1      42.137  37.439  27.568  1.00  0.00     0.198 A 
ATOM     99  C   UNL A   1      43.585  37.896  29.415  1.00  0.00     0.198 A 
ATOM    100  F   UNL A   1      43.798  36.368  31.163  1.00  0.00    -0.203 F 
ATOM    101  F   UNL A   1      41.568  37.823  26.417  1.00  0.00    -0.200 F 
ATOM    102  C   UNL A   1      43.016  38.289  28.218  1.00  0.00     0.200 A 
ATOM    103  F   UNL A   1      44.449  38.703  30.047  1.00  0.00    -0.200 F 
ATOM    104  F   UNL A   1      43.314  39.486  27.693  1.00  0.00    -0.200 F 
ENDBRANCH  71  94
ENDBRANCH  45  46
ENDBRANCH  37  40
ENDBRANCH  35  36
ENDBRANCH  34  35
ENDBRANCH  33  34
ENDBRANCH   1  33
TORSDOF 17
ENDMDL
MODEL 2
REMARK VINA RESULT:     -14.0      1.211      2.079
REMARK SMILES Cc1cccc(C[NH2+]Cc2c(C(=O)NCCCCNC(=O)c3ccc(-c4c5nc(c(-c6c(F)c(F)c(F)c(F)c6F)c6ccc([nH]6)c(-c6c(F)c(F)c(F)c(F)c6F)c6nc(c(-c7c(F)c(F)c(F)c(F)c7F)c7ccc4[nH]7)C=C6)C=C5)cc3)c(C)n(Cc3cccc(F)c3)c2C)c1
REMARK SMILES IDX 15 1 14 2 12 3 13 4 11 6 10 7 96 8 85 9 87 10 97 11 86 12
REMARK SMILES IDX 9 13 8 14 7 17 6 18 1 19 2 20 3 21 98 22 4 23 5 24 88 25
REMARK SMILES IDX 89 26 90 27 95 28 91 29 93 30 92 31 94 32 16 33 17 34 18 35
REMARK SMILES IDX 19 36 20 37 21 39 22 40 23 41 84 42 24 43 83 44 25 45 26 46
REMARK SMILES IDX 27 47 77 48 28 49 82 50 76 51 78 52 29 53 81 54 75 55 74 56
REMARK SMILES IDX 30 58 62 59 42 60 61 61 43 62 46 63 60 64 79 65 44 66 45 67
REMARK SMILES IDX 59 69 80 70 47 71 31 72 32 73 40 74 33 75 34 76 38 77 41 78
REMARK SMILES IDX 35 79 36 80 39 81 37 82 63 83 64 84 72 85 65 86 66 87 70 88
REMARK SMILES IDX 73 89 67 90 68 91 71 92 69 93 48 94 49 95 57 96 50 97 51 98
REMARK SMILES IDX 55 99 58 100 52 101 53 102 56 103 54 104
REMARK H PARENT 14 5 8 15 8 16 19 38 78 57 46 68
REMARK Flexibility Score: inf
ROOT
ATOM      1  C   UNL A   1      35.689  22.820  24.667  1.00  0.00     0.116 C 
ENDROOT
BRANCH   1   2
ATOM      2  N   UNL A   1      34.943  22.937  23.439  1.00  0.00    -0.352 N 
ATOM      3  C   UNL A   1      33.837  23.582  22.962  1.00  0.00     0.253 C 
ATOM      4  O   UNL A   1      33.710  23.371  21.746  1.00  0.00    -0.269 OA
ATOM      5  H   UNL A   1      35.354  22.389  22.732  1.00  0.00     0.163 HD
BRANCH   3   6
ATOM      6  C   UNL A   1      32.863  24.451  23.687  1.00  0.00     0.069 A 
ATOM      7  C   UNL A   1      31.893  24.263  24.775  1.00  0.00     0.040 A 
ATOM      8  C   UNL A   1      31.227  25.485  24.943  1.00  0.00     0.025 A 
ATOM      9  C   UNL A   1      32.702  25.792  23.275  1.00  0.00     0.028 A 
ATOM     10  N   UNL A   1      31.814  26.423  24.115  1.00  0.00    -0.343 N 
ATOM     11  C   UNL A   1      30.057  25.852  25.796  1.00  0.00     0.065 C 
ATOM     12  C   UNL A   1      33.367  26.495  22.122  1.00  0.00     0.065 C 
BRANCH   7  13
ATOM     13  C   UNL A   1      31.676  22.975  25.523  1.00  0.00     0.300 C 
BRANCH  13  14
ATOM     14  N   UNL A   1      31.845  21.710  24.837  1.00  0.00    -0.339 N 
ATOM     15  H   UNL A   1      30.924  21.285  24.734  1.00  0.00     0.346 HD
ATOM     16  H   UNL A   1      32.301  21.936  23.952  1.00  0.00     0.346 HD
BRANCH  14  17
ATOM     17  C   UNL A   1      32.712  20.743  25.491  1.00  0.00     0.297 C 
BRANCH  17  18
ATOM     18  C   UNL A   1      32.776  19.480  24.654  1.00  0.00     0.006 A 
ATOM     19  C   UNL A   1      34.384  16.029  24.867  1.00  0.00     0.044 C 
ATOM     20  C   UNL A   1      33.631  17.213  24.337  1.00  0.00    -0.051 A 
ATOM     21  C   UNL A   1      33.170  17.232  23.019  1.00  0.00     0.003 A 
ATOM     22  C   UNL A   1      33.387  18.321  25.155  1.00  0.00     0.013 A 
ATOM     23  C   UNL A   1      32.511  18.356  22.520  1.00  0.00     0.001 A 
ATOM     24  C   UNL A   1      32.329  19.481  23.326  1.00  0.00     0.009 A 
ENDBRANCH  17  18
ENDBRANCH  14  17
ENDBRANCH  13  14
ENDBRANCH   7  13
BRANCH  10  25
ATOM     25  C   UNL A   1      31.461  27.854  24.085  1.00  0.00     0.157 C 
BRANCH  25  26
ATOM     26  C   UNL A   1      32.175  28.701  25.119  1.00  0.00    -0.025 A 
ATOM     27  C   UNL A   1      31.593  29.917  25.525  1.00  0.00     0.006 A 
ATOM     28  C   UNL A   1      33.383  28.303  25.712  1.00  0.00     0.044 A 
ATOM     29  C   UNL A   1      32.165  30.675  26.548  1.00  0.00     0.003 A 
ATOM     30  C   UNL A   1      33.937  29.061  26.738  1.00  0.00     0.123 A 
ATOM     31  C   UNL A   1      33.333  30.238  27.167  1.00  0.00     0.039 A 
ATOM     32  F   UNL A   1      35.057  28.639  27.338  1.00  0.00    -0.207 F 
ENDBRANCH  25  26
ENDBRANCH  10  25
ENDBRANCH   3   6
ENDBRANCH   1   2
BRANCH   1  33
ATOM     33  C   UNL A   1      36.254  21.407  24.868  1.00  0.00     0.023 C 
BRANCH  33  34
ATOM     34  C   UNL A   1      37.779  21.339  24.990  1.00  0.00     0.023 C 
BRANCH  34  35
ATOM     35  C   UNL A   1      38.367  22.440  25.861  1.00  0.00     0.116 C 
BRANCH  35  36
ATOM     36  N   UNL A   1      39.811  22.385  26.046  1.00  0.00    -0.352 N 
ATOM     37  C   UNL A   1      40.681  23.406  26.401  1.00  0.00     0.251 C 
ATOM     38  H   UNL A   1      40.226  21.503  25.901  1.00  0.00     0.163 HD
ATOM     39  O   UNL A   1      41.886  23.214  26.437  1.00  0.00    -0.269 OA
BRANCH  37  40
ATOM     40  C   UNL A   1      40.120  24.702  26.863  1.00  0.00     0.039 A 
ATOM     41  C   UNL A   1      40.595  25.876  26.268  1.00  0.00     0.014 A 
ATOM     42  C   UNL A   1      39.324  24.770  28.003  1.00  0.00     0.014 A 
ATOM     43  C   UNL A   1      40.494  27.081  26.963  1.00  0.00     0.010 A 
ATOM     44  C   UNL A   1      39.320  25.937  28.743  1.00  0.00     0.010 A 
ATOM     45  C   UNL A   1      39.966  27.078  28.256  1.00  0.00    -0.014 A 
BRANCH  45  46
ATOM     46  C   UNL A   1      40.183  28.164  29.209  1.00  0.00     0.031 A 
ATOM     47  C   UNL A   1      39.205  29.265  29.358  1.00  0.00     0.074 A 
ATOM     48  C   UNL A   1      41.260  28.131  30.028  1.00  0.00     0.049 A 
ATOM     49  N   UNL A   1      39.506  30.434  29.821  1.00  0.00    -0.248 NA
ATOM     50  C   UNL A   1      37.803  29.143  28.977  1.00  0.00     0.031 C 
ATOM     51  C   UNL A   1      41.518  28.984  31.186  1.00  0.00     0.029 A 
ATOM     52  N   UNL A   1      42.464  27.427  29.843  1.00  0.00    -0.354 N 
ATOM     53  C   UNL A   1      38.337  31.126  30.015  1.00  0.00     0.074 A 
ATOM     54  C   UNL A   1      37.303  30.292  29.445  1.00  0.00     0.031 C 
ATOM     55  C   UNL A   1      42.841  29.018  31.408  1.00  0.00     0.029 A 
ATOM     56  C   UNL A   1      43.480  28.282  30.335  1.00  0.00     0.049 A 
ATOM     57  H   UNL A   1      42.575  26.530  29.454  1.00  0.00     0.167 HD
ATOM     58  C   UNL A   1      38.348  32.293  30.720  1.00  0.00     0.037 A 
ATOM     59  C   UNL A   1      44.446  28.771  29.505  1.00  0.00     0.037 A 
ATOM     60  C   UNL A   1      39.689  32.669  31.148  1.00  0.00     0.049 A 
ATOM     61  C   UNL A   1      44.450  30.278  29.353  1.00  0.00     0.074 A 
ATOM     62  C   UNL A   1      40.406  32.535  32.325  1.00  0.00     0.029 A 
ATOM     63  N   UNL A   1      40.607  33.032  30.182  1.00  0.00    -0.354 N 
ATOM     64  N   UNL A   1      43.600  31.080  29.930  1.00  0.00    -0.248 NA
ATOM     65  C   UNL A   1      45.356  30.987  28.446  1.00  0.00     0.031 C 
ATOM     66  C   UNL A   1      41.775  32.808  32.045  1.00  0.00     0.029 A 
ATOM     67  C   UNL A   1      41.884  33.110  30.700  1.00  0.00     0.049 A 
ATOM     68  H   UNL A   1      40.379  33.212  29.241  1.00  0.00     0.167 HD
ATOM     69  C   UNL A   1      43.784  32.350  29.453  1.00  0.00     0.074 A 
ATOM     70  C   UNL A   1      44.900  32.248  28.534  1.00  0.00     0.031 C 
ATOM     71  C   UNL A   1      42.985  33.395  29.804  1.00  0.00     0.037 A 
BRANCH  58  72
ATOM     72  C   UNL A   1      37.096  32.988  31.178  1.00  0.00     0.064 A 
ATOM     73  C   UNL A   1      36.631  32.852  32.502  1.00  0.00     0.173 A 
ATOM     74  C   UNL A   1      36.299  33.789  30.339  1.00  0.00     0.173 A 
ATOM     75  F   UNL A   1      37.334  32.183  33.425  1.00  0.00    -0.203 F 
ATOM     76  C   UNL A   1      35.411  33.389  32.921  1.00  0.00     0.198 A 
ATOM     77  C   UNL A   1      35.051  34.274  30.741  1.00  0.00     0.198 A 
ATOM     78  F   UNL A   1      36.724  34.146  29.120  1.00  0.00    -0.203 F 
ATOM     79  F   UNL A   1      35.016  33.227  34.192  1.00  0.00    -0.200 F 
ATOM     80  C   UNL A   1      34.603  34.066  32.031  1.00  0.00     0.200 A 
ATOM     81  F   UNL A   1      34.283  34.940  29.867  1.00  0.00    -0.200 F 
ATOM     82  F   UNL A   1      33.408  34.530  32.418  1.00  0.00    -0.200 F 
ENDBRANCH  58  72
BRANCH  59  83
ATOM     83  C   UNL A   1      44.839  27.800  28.452  1.00  0.00     0.064 A 
ATOM     84  C   UNL A   1      45.612  26.684  28.831  1.00  0.00     0.173 A 
ATOM     85  C   UNL A   1      44.184  27.746  27.217  1.00  0.00     0.173 A 
ATOM     86  F   UNL A   1      46.259  26.687  30.008  1.00  0.00    -0.203 F 
ATOM     87  C   UNL A   1      45.628  25.522  28.066  1.00  0.00     0.198 A 
ATOM     88  C   UNL A   1      44.216  26.585  26.445  1.00  0.00     0.198 A 
ATOM     89  F   UNL A   1      43.417  28.768  26.811  1.00  0.00    -0.203 F 
ATOM     90  F   UNL A   1      46.278  24.437  28.509  1.00  0.00    -0.200 F 
ATOM     91  C   UNL A   1      44.906  25.464  26.886  1.00  0.00     0.200 A 
ATOM     92  F   UNL A   1      43.500  26.521  25.314  1.00  0.00    -0.200 F 
ATOM     93  F   UNL A   1      44.843  24.319  26.194  1.00  0.00    -0.200 F 
ENDBRANCH  59  83
BRANCH  71  94
ATOM     94  C   UNL A   1      43.201  34.791  29.312  1.00  0.00     0.064 A 
ATOM     95  C   UNL A   1      43.498  35.844  30.190  1.00  0.00     0.173 A 
ATOM     96  C   UNL A   1      42.978  35.134  27.964  1.00  0.00     0.173 A 
ATOM     97  F   UNL A   1      43.689  35.610  31.497  1.00  0.00    -0.203 F 
ATOM     98  C   UNL A   1      43.588  37.162  29.740  1.00  0.00     0.198 A 
ATOM     99  C   UNL A   1      43.023  36.456  27.527  1.00  0.00     0.198 A 
ATOM    100  F   UNL A   1      42.732  34.194  27.040  1.00  0.00    -0.203 F 
ATOM    101  F   UNL A   1      43.912  38.137  30.600  1.00  0.00    -0.200 F 
ATOM    102  C   UNL A   1      43.336  37.469  28.414  1.00  0.00     0.200 A 
ATOM    103  F   UNL A   1      42.762  36.741  26.243  1.00  0.00    -0.200 F 
ATOM    104  F   UNL A   1      43.397  38.738  27.989  1.00  0.00    -0.200 F 
ENDBRANCH  71  94
ENDBRANCH  45  46
ENDBRANCH  37  40
ENDBRANCH  35  36
ENDBRANCH  34  35
ENDBRANCH  33  34
ENDBRANCH   1  33
TORSDOF 17
ENDMDL
MODEL 3
REMARK VINA RESULT:     -13.9      3.645     10.454
REMARK SMILES Cc1cccc(C[NH2+]Cc2c(C(=O)NCCCCNC(=O)c3ccc(-c4c5nc(c(-c6c(F)c(F)c(F)c(F)c6F)c6ccc([nH]6)c(-c6c(F)c(F)c(F)c(F)c6F)c6nc(c(-c7c(F)c(F)c(F)c(F)c7F)c7ccc4[nH]7)C=C6)C=C5)cc3)c(C)n(Cc3cccc(F)c3)c2C)c1
REMARK SMILES IDX 15 1 14 2 12 3 13 4 11 6 10 7 96 8 85 9 87 10 97 11 86 12
REMARK SMILES IDX 9 13 8 14 7 17 6 18 1 19 2 20 3 21 98 22 4 23 5 24 88 25
REMARK SMILES IDX 89 26 90 27 95 28 91 29 93 30 92 31 94 32 16 33 17 34 18 35
REMARK SMILES IDX 19 36 20 37 21 39 22 40 23 41 84 42 24 43 83 44 25 45 26 46
REMARK SMILES IDX 27 47 77 48 28 49 82 50 76 51 78 52 29 53 81 54 75 55 74 56
REMARK SMILES IDX 30 58 62 59 42 60 61 61 43 62 46 63 60 64 79 65 44 66 45 67
REMARK SMILES IDX 59 69 80 70 47 71 31 72 32 73 40 74 33 75 34 76 38 77 41 78
REMARK SMILES IDX 35 79 36 80 39 81 37 82 63 83 64 84 72 85 65 86 66 87 70 88
REMARK SMILES IDX 73 89 67 90 68 91 71 92 69 93 48 94 49 95 57 96 50 97 51 98
REMARK SMILES IDX 55 99 58 100 52 101 53 102 56 103 54 104
REMARK H PARENT 14 5 8 15 8 16 19 38 78 57 46 68
REMARK Flexibility Score: inf
ROOT
ATOM      1  C   UNL A   1      32.659  28.491  25.466  1.00  0.00     0.116 C 
ENDROOT
BRANCH   1   2
ATOM      2  N   UNL A   1      31.654  27.559  25.914  1.00  0.00    -0.352 N 
ATOM      3  C   UNL A   1      31.340  26.237  25.775  1.00  0.00     0.253 C 
ATOM      4  O   UNL A   1      30.369  25.951  26.492  1.00  0.00    -0.269 OA
ATOM      5  H   UNL A   1      30.998  28.010  26.493  1.00  0.00     0.163 HD
BRANCH   3   6
ATOM      6  C   UNL A   1      31.999  25.191  24.937  1.00  0.00     0.069 A 
ATOM      7  C   UNL A   1      32.419  25.079  23.533  1.00  0.00     0.040 A 
ATOM      8  C   UNL A   1      32.923  23.783  23.361  1.00  0.00     0.025 A 
ATOM      9  C   UNL A   1      32.284  23.933  25.510  1.00  0.00     0.028 A 
ATOM     10  N   UNL A   1      32.947  23.153  24.590  1.00  0.00    -0.343 N 
ATOM     11  C   UNL A   1      33.364  23.060  22.129  1.00  0.00     0.065 C 
ATOM     12  C   UNL A   1      31.962  23.450  26.899  1.00  0.00     0.065 C 
BRANCH   7  13
ATOM     13  C   UNL A   1      32.291  26.172  22.505  1.00  0.00     0.300 C 
BRANCH  13  14
ATOM     14  N   UNL A   1      31.035  26.884  22.369  1.00  0.00    -0.339 N 
ATOM     15  H   UNL A   1      30.577  26.548  21.522  1.00  0.00     0.346 HD
ATOM     16  H   UNL A   1      30.517  26.694  23.227  1.00  0.00     0.346 HD
BRANCH  14  17
ATOM     17  C   UNL A   1      31.133  28.332  22.280  1.00  0.00     0.297 C 
BRANCH  17  18
ATOM     18  C   UNL A   1      29.752  28.938  22.443  1.00  0.00     0.006 A 
ATOM     19  C   UNL A   1      28.129  32.378  22.173  1.00  0.00     0.044 C 
ATOM     20  C   UNL A   1      28.313  30.913  22.437  1.00  0.00    -0.051 A 
ATOM     21  C   UNL A   1      27.290  30.159  23.018  1.00  0.00     0.003 A 
ATOM     22  C   UNL A   1      29.518  30.281  22.113  1.00  0.00     0.013 A 
ATOM     23  C   UNL A   1      27.487  28.807  23.302  1.00  0.00     0.001 A 
ATOM     24  C   UNL A   1      28.716  28.203  23.033  1.00  0.00     0.009 A 
ENDBRANCH  17  18
ENDBRANCH  14  17
ENDBRANCH  13  14
ENDBRANCH   7  13
BRANCH  10  25
ATOM     25  C   UNL A   1      33.510  21.813  24.837  1.00  0.00     0.157 C 
BRANCH  25  26
ATOM     26  C   UNL A   1      35.015  21.787  25.019  1.00  0.00    -0.025 A 
ATOM     27  C   UNL A   1      35.687  20.552  24.961  1.00  0.00     0.006 A 
ATOM     28  C   UNL A   1      35.769  22.954  25.214  1.00  0.00     0.044 A 
ATOM     29  C   UNL A   1      37.081  20.494  25.021  1.00  0.00     0.003 A 
ATOM     30  C   UNL A   1      37.157  22.885  25.261  1.00  0.00     0.123 A 
ATOM     31  C   UNL A   1      37.819  21.667  25.157  1.00  0.00     0.039 A 
ATOM     32  F   UNL A   1      37.868  24.013  25.386  1.00  0.00    -0.207 F 
ENDBRANCH  25  26
ENDBRANCH  10  25
ENDBRANCH   3   6
ENDBRANCH   1   2
BRANCH   1  33
ATOM     33  C   UNL A   1      33.838  28.585  26.447  1.00  0.00     0.023 C 
BRANCH  33  34
ATOM     34  C   UNL A   1      34.212  30.011  26.861  1.00  0.00     0.023 C 
BRANCH  34  35
ATOM     35  C   UNL A   1      34.077  30.263  28.356  1.00  0.00     0.116 C 
BRANCH  35  36
ATOM     36  N   UNL A   1      34.947  31.301  28.895  1.00  0.00    -0.352 N 
ATOM     37  C   UNL A   1      36.274  31.203  29.289  1.00  0.00     0.251 C 
ATOM     38  H   UNL A   1      34.538  32.192  28.991  1.00  0.00     0.163 HD
ATOM     39  O   UNL A   1      36.844  32.155  29.798  1.00  0.00    -0.269 OA
BRANCH  37  40
ATOM     40  C   UNL A   1      37.033  29.968  28.965  1.00  0.00     0.039 A 
ATOM     41  C   UNL A   1      37.348  29.094  30.011  1.00  0.00     0.014 A 
ATOM     42  C   UNL A   1      37.615  29.796  27.711  1.00  0.00     0.014 A 
ATOM     43  C   UNL A   1      38.431  28.226  29.871  1.00  0.00     0.010 A 
ATOM     44  C   UNL A   1      38.754  29.020  27.608  1.00  0.00     0.010 A 
ATOM     45  C   UNL A   1      39.206  28.287  28.709  1.00  0.00    -0.014 A 
BRANCH  45  46
ATOM     46  C   UNL A   1      40.560  27.744  28.624  1.00  0.00     0.031 A 
ATOM     47  C   UNL A   1      40.801  26.328  28.270  1.00  0.00     0.074 A 
ATOM     48  C   UNL A   1      41.622  28.565  28.798  1.00  0.00     0.049 A 
ATOM     49  N   UNL A   1      41.873  25.681  28.591  1.00  0.00    -0.248 NA
ATOM     50  C   UNL A   1      39.838  25.513  27.539  1.00  0.00     0.031 C 
ATOM     51  C   UNL A   1      43.026  28.266  28.523  1.00  0.00     0.029 A 
ATOM     52  N   UNL A   1      41.658  29.801  29.469  1.00  0.00    -0.354 N 
ATOM     53  C   UNL A   1      41.854  24.477  27.932  1.00  0.00     0.074 A 
ATOM     54  C   UNL A   1      40.550  24.404  27.313  1.00  0.00     0.031 C 
ATOM     55  C   UNL A   1      43.791  29.072  29.274  1.00  0.00     0.029 A 
ATOM     56  C   UNL A   1      42.907  29.833  30.135  1.00  0.00     0.049 A 
ATOM     57  H   UNL A   1      40.960  30.496  29.474  1.00  0.00     0.167 HD
ATOM     58  C   UNL A   1      42.976  23.702  27.900  1.00  0.00     0.037 A 
ATOM     59  C   UNL A   1      42.974  29.878  31.497  1.00  0.00     0.037 A 
ATOM     60  C   UNL A   1      44.076  24.290  28.652  1.00  0.00     0.049 A 
ATOM     61  C   UNL A   1      43.635  28.678  32.140  1.00  0.00     0.074 A 
ATOM     62  C   UNL A   1      45.192  25.040  28.315  1.00  0.00     0.029 A 
ATOM     63  N   UNL A   1      43.957  24.380  30.025  1.00  0.00    -0.354 N 
ATOM     64  N   UNL A   1      44.096  27.649  31.485  1.00  0.00    -0.248 NA
ATOM     65  C   UNL A   1      43.733  28.501  33.592  1.00  0.00     0.031 C 
ATOM     66  C   UNL A   1      45.731  25.596  29.511  1.00  0.00     0.029 A 
ATOM     67  C   UNL A   1      44.943  25.179  30.568  1.00  0.00     0.049 A 
ATOM     68  H   UNL A   1      43.257  23.932  30.552  1.00  0.00     0.167 HD
ATOM     69  C   UNL A   1      44.477  26.682  32.376  1.00  0.00     0.074 A 
ATOM     70  C   UNL A   1      44.241  27.261  33.683  1.00  0.00     0.031 C 
ATOM     71  C   UNL A   1      44.917  25.453  31.990  1.00  0.00     0.037 A 
BRANCH  58  72
ATOM     72  C   UNL A   1      43.116  22.495  27.016  1.00  0.00     0.064 A 
ATOM     73  C   UNL A   1      42.314  21.352  27.212  1.00  0.00     0.173 A 
ATOM     74  C   UNL A   1      44.048  22.404  25.965  1.00  0.00     0.173 A 
ATOM     75  F   UNL A   1      41.336  21.333  28.126  1.00  0.00    -0.203 F 
ATOM     76  C   UNL A   1      42.505  20.176  26.483  1.00  0.00     0.198 A 
ATOM     77  C   UNL A   1      44.278  21.209  25.278  1.00  0.00     0.198 A 
ATOM     78  F   UNL A   1      44.735  23.480  25.558  1.00  0.00    -0.203 F 
ATOM     79  F   UNL A   1      41.716  19.116  26.713  1.00  0.00    -0.200 F 
ATOM     80  C   UNL A   1      43.512  20.091  25.543  1.00  0.00     0.200 A 
ATOM     81  F   UNL A   1      45.253  21.148  24.359  1.00  0.00    -0.200 F 
ATOM     82  F   UNL A   1      43.732  18.945  24.886  1.00  0.00    -0.200 F 
ENDBRANCH  58  72
BRANCH  59  83
ATOM     83  C   UNL A   1      41.875  30.678  32.096  1.00  0.00     0.064 A 
ATOM     84  C   UNL A   1      41.969  32.083  32.042  1.00  0.00     0.173 A 
ATOM     85  C   UNL A   1      40.620  30.121  32.364  1.00  0.00     0.173 A 
ATOM     86  F   UNL A   1      43.151  32.666  31.785  1.00  0.00    -0.203 F 
ATOM     87  C   UNL A   1      40.837  32.887  32.131  1.00  0.00     0.198 A 
ATOM     88  C   UNL A   1      39.490  30.933  32.469  1.00  0.00     0.198 A 
ATOM     89  F   UNL A   1      40.463  28.791  32.408  1.00  0.00    -0.203 F 
ATOM     90  F   UNL A   1      40.941  34.213  31.960  1.00  0.00    -0.200 F 
ATOM     91  C   UNL A   1      39.593  32.308  32.317  1.00  0.00     0.200 A 
ATOM     92  F   UNL A   1      38.283  30.370  32.628  1.00  0.00    -0.200 F 
ATOM     93  F   UNL A   1      38.491  33.070  32.310  1.00  0.00    -0.200 F 
ENDBRANCH  59  83
BRANCH  71  94
ATOM     94  C   UNL A   1      45.366  24.403  32.957  1.00  0.00     0.064 A 
ATOM     95  C   UNL A   1      44.527  23.347  33.340  1.00  0.00     0.173 A 
ATOM     96  C   UNL A   1      46.600  24.507  33.627  1.00  0.00     0.173 A 
ATOM     97  F   UNL A   1      43.318  23.195  32.778  1.00  0.00    -0.203 F 
ATOM     98  C   UNL A   1      44.911  22.435  34.325  1.00  0.00     0.198 A 
ATOM     99  C   UNL A   1      46.961  23.623  34.641  1.00  0.00     0.198 A 
ATOM    100  F   UNL A   1      47.491  25.456  33.300  1.00  0.00    -0.203 F 
ATOM    101  F   UNL A   1      44.100  21.416  34.639  1.00  0.00    -0.200 F 
ATOM    102  C   UNL A   1      46.119  22.582  34.984  1.00  0.00     0.200 A 
ATOM    103  F   UNL A   1      48.127  23.785  35.282  1.00  0.00    -0.200 F 
ATOM    104  F   UNL A   1      46.474  21.721  35.947  1.00  0.00    -0.200 F 
ENDBRANCH  71  94
ENDBRANCH  45  46
ENDBRANCH  37  40
ENDBRANCH  35  36
ENDBRANCH  34  35
ENDBRANCH  33  34
ENDBRANCH   1  33
TORSDOF 17
ENDMDL
