MODEL 1
REMARK VINA RESULT:     -12.0      0.000      0.000
REMARK SMILES C/C=C/C(=O)N1CC[C@H](C(=O)NCCCCNC(=O)c2ccc(-c3c4nc(c(-c5c(F)c(F)c(F)c(F)c5F)c5ccc([nH]5)c(-c5c(F)c(F)c(F)c(F)c5F)c5nc(c(-c6c(F)c(F)c(F)c(F)c6F)c6ccc3[nH]6)C=C5)C=C4)cc2)[C@H]1C
REMARK SMILES IDX 14 1 13 2 12 3 10 4 11 5 9 7 6 8 7 9 83 10 8 11 84 12 4 13
REMARK SMILES IDX 5 14 3 15 1 16 2 17 15 18 16 19 17 20 18 21 19 23 20 24
REMARK SMILES IDX 21 25 82 26 22 27 81 28 23 29 24 30 25 31 75 32 26 33 80 34
REMARK SMILES IDX 74 35 76 36 27 37 79 38 73 39 72 40 28 42 60 43 40 44 59 45
REMARK SMILES IDX 41 46 44 47 58 48 77 49 42 50 43 51 57 53 78 54 45 55 29 56
REMARK SMILES IDX 30 57 38 58 31 59 32 60 36 61 39 62 33 63 34 64 37 65 35 66
REMARK SMILES IDX 61 67 62 68 70 69 63 70 64 71 68 72 71 73 65 74 66 75 69 76
REMARK SMILES IDX 67 77 46 78 47 79 55 80 48 81 49 82 53 83 56 84 50 85 51 86
REMARK SMILES IDX 54 87 52 88
REMARK H PARENT 12 6 17 22 76 41 44 52
REMARK Flexibility Score: inf
ROOT
ATOM      1  C   UNL A   1      31.923  30.352  26.895  1.00  0.00     0.023 C 
ENDROOT
BRANCH   1   2
ATOM      2  C   UNL A   1      33.342  29.881  26.578  1.00  0.00     0.116 C 
BRANCH   2   3
ATOM      3  N   UNL A   1      33.583  29.779  25.155  1.00  0.00    -0.356 N 
ATOM      4  C   UNL A   1      33.364  28.775  24.271  1.00  0.00     0.225 C 
ATOM      5  O   UNL A   1      33.619  29.028  23.087  1.00  0.00    -0.275 OA
ATOM      6  H   UNL A   1      33.976  30.588  24.755  1.00  0.00     0.163 HD
BRANCH   4   7
ATOM      7  C   UNL A   1      32.840  27.391  24.638  1.00  0.00     0.102 C 
ATOM      8  N   UNL A   1      32.709  25.592  23.082  1.00  0.00    -0.336 N 
ATOM      9  C   UNL A   1      31.364  26.121  23.189  1.00  0.00     0.121 C 
ATOM     10  C   UNL A   1      33.628  26.208  24.053  1.00  0.00     0.094 C 
ATOM     11  C   UNL A   1      31.373  27.122  24.326  1.00  0.00     0.037 C 
ATOM     12  C   UNL A   1      34.041  25.251  25.174  1.00  0.00     0.032 C 
BRANCH   8  13
ATOM     13  C   UNL A   1      33.049  24.894  21.942  1.00  0.00     0.246 C 
ATOM     14  O   UNL A   1      33.242  25.436  20.856  1.00  0.00    -0.270 OA
BRANCH  13  15
ATOM     15  C   UNL A   1      33.168  23.425  22.027  1.00  0.00     0.067 C 
ATOM     16  C   UNL A   1      32.265  21.290  22.984  1.00  0.00     0.036 C 
ATOM     17  C   UNL A   1      32.399  22.773  22.912  1.00  0.00    -0.025 C 
ENDBRANCH  13  15
ENDBRANCH   8  13
ENDBRANCH   4   7
ENDBRANCH   2   3
ENDBRANCH   1   2
BRANCH   1  18
ATOM     18  C   UNL A   1      31.711  31.861  26.773  1.00  0.00     0.023 C 
BRANCH  18  19
ATOM     19  C   UNL A   1      32.834  32.719  27.348  1.00  0.00     0.116 C 
BRANCH  19  20
ATOM     20  N   UNL A   1      32.442  34.089  27.639  1.00  0.00    -0.352 N 
ATOM     21  C   UNL A   1      32.990  34.952  28.563  1.00  0.00     0.251 C 
ATOM     22  H   UNL A   1      31.692  34.443  27.110  1.00  0.00     0.163 HD
ATOM     23  O   UNL A   1      32.501  36.049  28.769  1.00  0.00    -0.269 OA
BRANCH  21  24
ATOM     24  C   UNL A   1      34.165  34.505  29.342  1.00  0.00     0.039 A 
ATOM     25  C   UNL A   1      33.955  33.896  30.581  1.00  0.00     0.014 A 
ATOM     26  C   UNL A   1      35.456  34.641  28.827  1.00  0.00     0.014 A 
ATOM     27  C   UNL A   1      35.039  33.352  31.272  1.00  0.00     0.010 A 
ATOM     28  C   UNL A   1      36.524  34.038  29.482  1.00  0.00     0.010 A 
ATOM     29  C   UNL A   1      36.325  33.382  30.706  1.00  0.00    -0.014 A 
BRANCH  29  30
ATOM     30  C   UNL A   1      37.475  32.726  31.375  1.00  0.00     0.031 A 
ATOM     31  C   UNL A   1      38.183  31.584  30.704  1.00  0.00     0.074 A 
ATOM     32  C   UNL A   1      37.828  33.107  32.617  1.00  0.00     0.049 A 
ATOM     33  N   UNL A   1      39.155  30.833  31.156  1.00  0.00    -0.248 NA
ATOM     34  C   UNL A   1      37.717  31.219  29.357  1.00  0.00     0.031 C 
ATOM     35  C   UNL A   1      37.179  34.165  33.395  1.00  0.00     0.029 A 
ATOM     36  N   UNL A   1      38.813  32.639  33.450  1.00  0.00    -0.354 N 
ATOM     37  C   UNL A   1      39.403  29.899  30.160  1.00  0.00     0.074 A 
ATOM     38  C   UNL A   1      38.448  30.144  29.102  1.00  0.00     0.031 C 
ATOM     39  C   UNL A   1      37.796  34.279  34.581  1.00  0.00     0.029 A 
ATOM     40  C   UNL A   1      38.861  33.284  34.663  1.00  0.00     0.049 A 
ATOM     41  H   UNL A   1      39.427  31.910  33.203  1.00  0.00     0.167 HD
ATOM     42  C   UNL A   1      40.357  28.940  30.122  1.00  0.00     0.037 A 
ATOM     43  C   UNL A   1      39.671  33.089  35.720  1.00  0.00     0.037 A 
ATOM     44  C   UNL A   1      41.327  28.720  31.163  1.00  0.00     0.049 A 
ATOM     45  C   UNL A   1      40.733  32.026  35.646  1.00  0.00     0.074 A 
ATOM     46  C   UNL A   1      42.376  27.818  31.190  1.00  0.00     0.029 A 
ATOM     47  N   UNL A   1      41.364  29.413  32.364  1.00  0.00    -0.354 N 
ATOM     48  N   UNL A   1      41.005  31.195  34.670  1.00  0.00    -0.248 NA
ATOM     49  C   UNL A   1      41.604  31.878  36.820  1.00  0.00     0.031 C 
ATOM     50  C   UNL A   1      43.026  27.940  32.423  1.00  0.00     0.029 A 
ATOM     51  C   UNL A   1      42.409  28.947  33.146  1.00  0.00     0.049 A 
ATOM     52  H   UNL A   1      40.741  30.130  32.622  1.00  0.00     0.167 HD
ATOM     53  C   UNL A   1      42.092  30.446  35.098  1.00  0.00     0.074 A 
ATOM     54  C   UNL A   1      42.439  30.930  36.417  1.00  0.00     0.031 C 
ATOM     55  C   UNL A   1      42.745  29.447  34.454  1.00  0.00     0.037 A 
BRANCH  42  56
ATOM     56  C   UNL A   1      40.404  28.059  28.908  1.00  0.00     0.064 A 
ATOM     57  C   UNL A   1      41.167  28.402  27.781  1.00  0.00     0.173 A 
ATOM     58  C   UNL A   1      39.702  26.845  28.880  1.00  0.00     0.173 A 
ATOM     59  F   UNL A   1      41.846  29.559  27.752  1.00  0.00    -0.203 F 
ATOM     60  C   UNL A   1      41.200  27.578  26.660  1.00  0.00     0.198 A 
ATOM     61  C   UNL A   1      39.760  26.009  27.768  1.00  0.00     0.198 A 
ATOM     62  F   UNL A   1      38.961  26.467  29.933  1.00  0.00    -0.203 F 
ATOM     63  F   UNL A   1      41.894  27.951  25.576  1.00  0.00    -0.200 F 
ATOM     64  C   UNL A   1      40.502  26.380  26.656  1.00  0.00     0.200 A 
ATOM     65  F   UNL A   1      39.095  24.846  27.769  1.00  0.00    -0.200 F 
ATOM     66  F   UNL A   1      40.538  25.585  25.578  1.00  0.00    -0.200 F 
ENDBRANCH  42  56
BRANCH  43  67
ATOM     67  C   UNL A   1      39.532  33.944  36.927  1.00  0.00     0.064 A 
ATOM     68  C   UNL A   1      38.770  33.516  38.024  1.00  0.00     0.173 A 
ATOM     69  C   UNL A   1      40.152  35.198  37.012  1.00  0.00     0.173 A 
ATOM     70  F   UNL A   1      38.141  32.332  37.980  1.00  0.00    -0.203 F 
ATOM     71  C   UNL A   1      38.619  34.319  39.152  1.00  0.00     0.198 A 
ATOM     72  C   UNL A   1      40.021  35.990  38.151  1.00  0.00     0.198 A 
ATOM     73  F   UNL A   1      40.895  35.650  35.991  1.00  0.00    -0.203 F 
ATOM     74  F   UNL A   1      37.851  33.904  40.168  1.00  0.00    -0.200 F 
ATOM     75  C   UNL A   1      39.249  35.553  39.218  1.00  0.00     0.200 A 
ATOM     76  F   UNL A   1      40.642  37.175  38.216  1.00  0.00    -0.200 F 
ATOM     77  F   UNL A   1      39.107  36.323  40.304  1.00  0.00    -0.200 F 
ENDBRANCH  43  67
BRANCH  55  78
ATOM     78  C   UNL A   1      43.919  28.833  35.154  1.00  0.00     0.064 A 
ATOM     79  C   UNL A   1      43.775  27.722  35.997  1.00  0.00     0.173 A 
ATOM     80  C   UNL A   1      45.212  29.338  34.946  1.00  0.00     0.173 A 
ATOM     81  F   UNL A   1      42.557  27.213  36.240  1.00  0.00    -0.203 F 
ATOM     82  C   UNL A   1      44.879  27.152  36.624  1.00  0.00     0.198 A 
ATOM     83  C   UNL A   1      46.317  28.749  35.553  1.00  0.00     0.198 A 
ATOM     84  F   UNL A   1      45.403  30.396  34.144  1.00  0.00    -0.203 F 
ATOM     85  F   UNL A   1      44.713  26.117  37.459  1.00  0.00    -0.200 F 
ATOM     86  C   UNL A   1      46.149  27.660  36.396  1.00  0.00     0.200 A 
ATOM     87  F   UNL A   1      47.545  29.233  35.322  1.00  0.00    -0.200 F 
ATOM     88  F   UNL A   1      47.212  27.105  36.994  1.00  0.00    -0.200 F 
ENDBRANCH  55  78
ENDBRANCH  29  30
ENDBRANCH  21  24
ENDBRANCH  19  20
ENDBRANCH  18  19
ENDBRANCH   1  18
TORSDOF 13
ENDMDL
MODEL 2
REMARK VINA RESULT:     -11.9      0.162      1.647
REMARK SMILES C/C=C/C(=O)N1CC[C@H](C(=O)NCCCCNC(=O)c2ccc(-c3c4nc(c(-c5c(F)c(F)c(F)c(F)c5F)c5ccc([nH]5)c(-c5c(F)c(F)c(F)c(F)c5F)c5nc(c(-c6c(F)c(F)c(F)c(F)c6F)c6ccc3[nH]6)C=C5)C=C4)cc2)[C@H]1C
REMARK SMILES IDX 14 1 13 2 12 3 10 4 11 5 9 7 6 8 7 9 83 10 8 11 84 12 4 13
REMARK SMILES IDX 5 14 3 15 1 16 2 17 15 18 16 19 17 20 18 21 19 23 20 24
REMARK SMILES IDX 21 25 82 26 22 27 81 28 23 29 24 30 25 31 75 32 26 33 80 34
REMARK SMILES IDX 74 35 76 36 27 37 79 38 73 39 72 40 28 42 60 43 40 44 59 45
REMARK SMILES IDX 41 46 44 47 58 48 77 49 42 50 43 51 57 53 78 54 45 55 29 56
REMARK SMILES IDX 30 57 38 58 31 59 32 60 36 61 39 62 33 63 34 64 37 65 35 66
REMARK SMILES IDX 61 67 62 68 70 69 63 70 64 71 68 72 71 73 65 74 66 75 69 76
REMARK SMILES IDX 67 77 46 78 47 79 55 80 48 81 49 82 53 83 56 84 50 85 51 86
REMARK SMILES IDX 54 87 52 88
REMARK H PARENT 12 6 17 22 76 41 44 52
REMARK Flexibility Score: inf
ROOT
ATOM      1  C   UNL A   1      31.791  30.365  26.682  1.00  0.00     0.023 C 
ENDROOT
BRANCH   1   2
ATOM      2  C   UNL A   1      33.239  29.889  26.570  1.00  0.00     0.116 C 
BRANCH   2   3
ATOM      3  N   UNL A   1      33.653  29.707  25.196  1.00  0.00    -0.356 N 
ATOM      4  C   UNL A   1      33.516  28.664  24.341  1.00  0.00     0.225 C 
ATOM      5  O   UNL A   1      33.925  28.849  23.188  1.00  0.00    -0.275 OA
ATOM      6  H   UNL A   1      34.119  30.484  24.810  1.00  0.00     0.163 HD
BRANCH   4   7
ATOM      7  C   UNL A   1      32.906  27.314  24.705  1.00  0.00     0.102 C 
ATOM      8  N   UNL A   1      32.747  25.500  23.170  1.00  0.00    -0.336 N 
ATOM      9  C   UNL A   1      31.428  26.098  23.214  1.00  0.00     0.121 C 
ATOM     10  C   UNL A   1      33.655  26.084  24.170  1.00  0.00     0.094 C 
ATOM     11  C   UNL A   1      31.441  27.116  24.335  1.00  0.00     0.037 C 
ATOM     12  C   UNL A   1      33.972  25.125  25.321  1.00  0.00     0.032 C 
BRANCH   8  13
ATOM     13  C   UNL A   1      33.097  24.766  22.056  1.00  0.00     0.246 C 
ATOM     14  O   UNL A   1      33.278  25.271  20.950  1.00  0.00    -0.270 OA
BRANCH  13  15
ATOM     15  C   UNL A   1      33.244  23.304  22.195  1.00  0.00     0.067 C 
ATOM     16  C   UNL A   1      32.153  21.124  22.786  1.00  0.00     0.036 C 
ATOM     17  C   UNL A   1      32.237  22.612  22.751  1.00  0.00    -0.025 C 
ENDBRANCH  13  15
ENDBRANCH   8  13
ENDBRANCH   4   7
ENDBRANCH   2   3
ENDBRANCH   1   2
BRANCH   1  18
ATOM     18  C   UNL A   1      31.616  31.883  26.660  1.00  0.00     0.023 C 
BRANCH  18  19
ATOM     19  C   UNL A   1      32.706  32.669  27.383  1.00  0.00     0.116 C 
BRANCH  19  20
ATOM     20  N   UNL A   1      32.367  34.062  27.626  1.00  0.00    -0.352 N 
ATOM     21  C   UNL A   1      32.961  34.940  28.506  1.00  0.00     0.251 C 
ATOM     22  H   UNL A   1      31.622  34.423  27.095  1.00  0.00     0.163 HD
ATOM     23  O   UNL A   1      32.515  36.061  28.677  1.00  0.00    -0.269 OA
BRANCH  21  24
ATOM     24  C   UNL A   1      34.132  34.481  29.285  1.00  0.00     0.039 A 
ATOM     25  C   UNL A   1      33.919  33.909  30.541  1.00  0.00     0.014 A 
ATOM     26  C   UNL A   1      35.421  34.569  28.753  1.00  0.00     0.014 A 
ATOM     27  C   UNL A   1      34.996  33.354  31.234  1.00  0.00     0.010 A 
ATOM     28  C   UNL A   1      36.479  33.954  29.412  1.00  0.00     0.010 A 
ATOM     29  C   UNL A   1      36.276  33.336  30.655  1.00  0.00    -0.014 A 
BRANCH  29  30
ATOM     30  C   UNL A   1      37.415  32.665  31.328  1.00  0.00     0.031 A 
ATOM     31  C   UNL A   1      38.119  31.522  30.656  1.00  0.00     0.074 A 
ATOM     32  C   UNL A   1      37.762  33.036  32.576  1.00  0.00     0.049 A 
ATOM     33  N   UNL A   1      39.081  30.760  31.110  1.00  0.00    -0.248 NA
ATOM     34  C   UNL A   1      37.661  31.170  29.303  1.00  0.00     0.031 C 
ATOM     35  C   UNL A   1      37.115  34.093  33.355  1.00  0.00     0.029 A 
ATOM     36  N   UNL A   1      38.736  32.554  33.414  1.00  0.00    -0.354 N 
ATOM     37  C   UNL A   1      39.329  29.831  30.110  1.00  0.00     0.074 A 
ATOM     38  C   UNL A   1      38.385  30.090  29.046  1.00  0.00     0.031 C 
ATOM     39  C   UNL A   1      37.724  34.195  34.548  1.00  0.00     0.029 A 
ATOM     40  C   UNL A   1      38.779  33.190  34.631  1.00  0.00     0.049 A 
ATOM     41  H   UNL A   1      39.346  31.822  33.166  1.00  0.00     0.167 HD
ATOM     42  C   UNL A   1      40.276  28.864  30.073  1.00  0.00     0.037 A 
ATOM     43  C   UNL A   1      39.579  32.982  35.693  1.00  0.00     0.037 A 
ATOM     44  C   UNL A   1      41.235  28.629  31.120  1.00  0.00     0.049 A 
ATOM     45  C   UNL A   1      40.633  31.910  35.621  1.00  0.00     0.074 A 
ATOM     46  C   UNL A   1      42.277  27.718  31.150  1.00  0.00     0.029 A 
ATOM     47  N   UNL A   1      41.269  29.314  32.326  1.00  0.00    -0.354 N 
ATOM     48  N   UNL A   1      40.906  31.084  34.641  1.00  0.00    -0.248 NA
ATOM     49  C   UNL A   1      41.494  31.749  36.800  1.00  0.00     0.031 C 
ATOM     50  C   UNL A   1      42.918  27.827  32.389  1.00  0.00     0.029 A 
ATOM     51  C   UNL A   1      42.303  28.834  33.114  1.00  0.00     0.049 A 
ATOM     52  H   UNL A   1      40.650  30.034  32.584  1.00  0.00     0.167 HD
ATOM     53  C   UNL A   1      41.983  30.324  35.073  1.00  0.00     0.074 A 
ATOM     54  C   UNL A   1      42.324  30.795  36.398  1.00  0.00     0.031 C 
ATOM     55  C   UNL A   1      42.633  29.323  34.428  1.00  0.00     0.037 A 
BRANCH  42  56
ATOM     56  C   UNL A   1      40.325  27.990  28.854  1.00  0.00     0.064 A 
ATOM     57  C   UNL A   1      41.079  28.348  27.725  1.00  0.00     0.173 A 
ATOM     58  C   UNL A   1      39.635  26.770  28.823  1.00  0.00     0.173 A 
ATOM     59  F   UNL A   1      41.747  29.511  27.700  1.00  0.00    -0.203 F 
ATOM     60  C   UNL A   1      41.114  27.530  26.599  1.00  0.00     0.198 A 
ATOM     61  C   UNL A   1      39.695  25.941  27.705  1.00  0.00     0.198 A 
ATOM     62  F   UNL A   1      38.903  26.379  29.877  1.00  0.00    -0.203 F 
ATOM     63  F   UNL A   1      41.800  27.917  25.514  1.00  0.00    -0.200 F 
ATOM     64  C   UNL A   1      40.429  26.326  26.592  1.00  0.00     0.200 A 
ATOM     65  F   UNL A   1      39.042  24.772  27.704  1.00  0.00    -0.200 F 
ATOM     66  F   UNL A   1      40.467  25.537  25.509  1.00  0.00    -0.200 F 
ENDBRANCH  42  56
BRANCH  43  67
ATOM     67  C   UNL A   1      39.438  33.830  36.904  1.00  0.00     0.064 A 
ATOM     68  C   UNL A   1      40.072  35.078  36.983  1.00  0.00     0.173 A 
ATOM     69  C   UNL A   1      38.672  33.416  38.003  1.00  0.00     0.173 A 
ATOM     70  F   UNL A   1      40.833  35.508  35.966  1.00  0.00    -0.203 F 
ATOM     71  C   UNL A   1      39.961  35.871  38.123  1.00  0.00     0.198 A 
ATOM     72  C   UNL A   1      38.540  34.221  39.133  1.00  0.00     0.198 A 
ATOM     73  F   UNL A   1      38.042  32.232  37.974  1.00  0.00    -0.203 F 
ATOM     74  F   UNL A   1      40.611  37.040  38.189  1.00  0.00    -0.200 F 
ATOM     75  C   UNL A   1      39.190  35.445  39.195  1.00  0.00     0.200 A 
ATOM     76  F   UNL A   1      37.785  33.811  40.161  1.00  0.00    -0.200 F 
ATOM     77  F   UNL A   1      39.080  36.209  40.289  1.00  0.00    -0.200 F 
ENDBRANCH  43  67
BRANCH  55  78
ATOM     78  C   UNL A   1      43.797  28.695  35.133  1.00  0.00     0.064 A 
ATOM     79  C   UNL A   1      45.103  29.177  34.971  1.00  0.00     0.173 A 
ATOM     80  C   UNL A   1      43.596  27.623  36.016  1.00  0.00     0.173 A 
ATOM     81  F   UNL A   1      45.348  30.190  34.125  1.00  0.00    -0.203 F 
ATOM     82  C   UNL A   1      46.171  28.595  35.648  1.00  0.00     0.198 A 
ATOM     83  C   UNL A   1      44.661  27.060  36.713  1.00  0.00     0.198 A 
ATOM     84  F   UNL A   1      42.365  27.129  36.210  1.00  0.00    -0.203 F 
ATOM     85  F   UNL A   1      47.417  29.044  35.446  1.00  0.00    -0.200 F 
ATOM     86  C   UNL A   1      45.949  27.543  36.524  1.00  0.00     0.200 A 
ATOM     87  F   UNL A   1      44.443  26.052  37.568  1.00  0.00    -0.200 F 
ATOM     88  F   UNL A   1      46.975  26.988  37.183  1.00  0.00    -0.200 F 
ENDBRANCH  55  78
ENDBRANCH  29  30
ENDBRANCH  21  24
ENDBRANCH  19  20
ENDBRANCH  18  19
ENDBRANCH   1  18
TORSDOF 13
ENDMDL
MODEL 3
REMARK VINA RESULT:     -11.8      0.609      7.457
REMARK SMILES C/C=C/C(=O)N1CC[C@H](C(=O)NCCCCNC(=O)c2ccc(-c3c4nc(c(-c5c(F)c(F)c(F)c(F)c5F)c5ccc([nH]5)c(-c5c(F)c(F)c(F)c(F)c5F)c5nc(c(-c6c(F)c(F)c(F)c(F)c6F)c6ccc3[nH]6)C=C5)C=C4)cc2)[C@H]1C
REMARK SMILES IDX 14 1 13 2 12 3 10 4 11 5 9 7 6 8 7 9 83 10 8 11 84 12 4 13
REMARK SMILES IDX 5 14 3 15 1 16 2 17 15 18 16 19 17 20 18 21 19 23 20 24
REMARK SMILES IDX 21 25 82 26 22 27 81 28 23 29 24 30 25 31 75 32 26 33 80 34
REMARK SMILES IDX 74 35 76 36 27 37 79 38 73 39 72 40 28 42 60 43 40 44 59 45
REMARK SMILES IDX 41 46 44 47 58 48 77 49 42 50 43 51 57 53 78 54 45 55 29 56
REMARK SMILES IDX 30 57 38 58 31 59 32 60 36 61 39 62 33 63 34 64 37 65 35 66
REMARK SMILES IDX 61 67 62 68 70 69 63 70 64 71 68 72 71 73 65 74 66 75 69 76
REMARK SMILES IDX 67 77 46 78 47 79 55 80 48 81 49 82 53 83 56 84 50 85 51 86
REMARK SMILES IDX 54 87 52 88
REMARK H PARENT 12 6 17 22 76 41 44 52
REMARK Flexibility Score: inf
ROOT
ATOM      1  C   UNL A   1      31.815  30.298  26.835  1.00  0.00     0.023 C 
ENDROOT
BRANCH   1   2
ATOM      2  C   UNL A   1      33.265  29.865  26.623  1.00  0.00     0.116 C 
BRANCH   2   3
ATOM      3  N   UNL A   1      33.600  29.733  25.222  1.00  0.00    -0.356 N 
ATOM      4  C   UNL A   1      33.452  28.706  24.349  1.00  0.00     0.225 C 
ATOM      5  O   UNL A   1      33.781  28.935  23.179  1.00  0.00    -0.275 OA
ATOM      6  H   UNL A   1      34.010  30.538  24.829  1.00  0.00     0.163 HD
BRANCH   4   7
ATOM      7  C   UNL A   1      32.921  27.324  24.715  1.00  0.00     0.102 C 
ATOM      8  N   UNL A   1      32.753  25.537  23.148  1.00  0.00    -0.336 N 
ATOM      9  C   UNL A   1      31.414  26.077  23.278  1.00  0.00     0.121 C 
ATOM     10  C   UNL A   1      33.690  26.138  24.110  1.00  0.00     0.094 C 
ATOM     11  C   UNL A   1      31.447  27.070  24.421  1.00  0.00     0.037 C 
ATOM     12  C   UNL A   1      34.111  25.170  25.219  1.00  0.00     0.032 C 
BRANCH   8  13
ATOM     13  C   UNL A   1      33.070  24.844  21.999  1.00  0.00     0.246 C 
ATOM     14  O   UNL A   1      33.228  25.389  20.908  1.00  0.00    -0.270 OA
BRANCH  13  15
ATOM     15  C   UNL A   1      33.209  23.376  22.079  1.00  0.00     0.067 C 
ATOM     16  C   UNL A   1      32.293  21.219  22.971  1.00  0.00     0.036 C 
ATOM     17  C   UNL A   1      32.406  22.705  22.918  1.00  0.00    -0.025 C 
ENDBRANCH  13  15
ENDBRANCH   8  13
ENDBRANCH   4   7
ENDBRANCH   2   3
ENDBRANCH   1   2
BRANCH   1  18
ATOM     18  C   UNL A   1      31.592  31.811  26.809  1.00  0.00     0.023 C 
BRANCH  18  19
ATOM     19  C   UNL A   1      32.802  32.648  27.212  1.00  0.00     0.116 C 
BRANCH  19  20
ATOM     20  N   UNL A   1      32.477  34.016  27.582  1.00  0.00    -0.352 N 
ATOM     21  C   UNL A   1      33.070  34.800  28.547  1.00  0.00     0.251 C 
ATOM     22  H   UNL A   1      31.741  34.435  27.079  1.00  0.00     0.163 HD
ATOM     23  O   UNL A   1      32.635  35.905  28.818  1.00  0.00    -0.269 OA
BRANCH  21  24
ATOM     24  C   UNL A   1      34.227  34.255  29.291  1.00  0.00     0.039 A 
ATOM     25  C   UNL A   1      33.988  33.443  30.402  1.00  0.00     0.014 A 
ATOM     26  C   UNL A   1      35.533  34.504  28.860  1.00  0.00     0.014 A 
ATOM     27  C   UNL A   1      35.061  32.816  31.038  1.00  0.00     0.010 A 
ATOM     28  C   UNL A   1      36.592  33.824  29.451  1.00  0.00     0.010 A 
ATOM     29  C   UNL A   1      36.366  32.969  30.540  1.00  0.00    -0.014 A 
BRANCH  29  30
ATOM     30  C   UNL A   1      37.507  32.235  31.138  1.00  0.00     0.031 A 
ATOM     31  C   UNL A   1      38.008  32.606  32.505  1.00  0.00     0.074 A 
ATOM     32  C   UNL A   1      38.140  31.289  30.418  1.00  0.00     0.049 A 
ATOM     33  N   UNL A   1      39.036  32.138  33.165  1.00  0.00    -0.248 NA
ATOM     34  C   UNL A   1      37.271  33.665  33.211  1.00  0.00     0.031 C 
ATOM     35  C   UNL A   1      37.783  30.880  29.059  1.00  0.00     0.029 A 
ATOM     36  N   UNL A   1      39.225  30.508  30.726  1.00  0.00    -0.354 N 
ATOM     37  C   UNL A   1      39.080  32.856  34.351  1.00  0.00     0.074 A 
ATOM     38  C   UNL A   1      38.008  33.826  34.300  1.00  0.00     0.031 C 
ATOM     39  C   UNL A   1      38.620  29.910  28.657  1.00  0.00     0.029 A 
ATOM     40  C   UNL A   1      39.591  29.651  29.715  1.00  0.00     0.049 A 
ATOM     41  H   UNL A   1      39.698  30.557  31.588  1.00  0.00     0.167 HD
ATOM     42  C   UNL A   1      39.924  32.704  35.399  1.00  0.00     0.037 A 
ATOM     43  C   UNL A   1      40.599  28.761  29.652  1.00  0.00     0.037 A 
ATOM     44  C   UNL A   1      40.969  31.717  35.459  1.00  0.00     0.049 A 
ATOM     45  C   UNL A   1      41.514  28.601  30.836  1.00  0.00     0.074 A 
ATOM     46  C   UNL A   1      41.835  31.438  36.503  1.00  0.00     0.029 A 
ATOM     47  N   UNL A   1      41.290  30.845  34.429  1.00  0.00    -0.354 N 
ATOM     48  N   UNL A   1      41.502  29.236  31.982  1.00  0.00    -0.248 NA
ATOM     49  C   UNL A   1      42.578  27.595  30.718  1.00  0.00     0.031 C 
ATOM     50  C   UNL A   1      42.704  30.422  36.090  1.00  0.00     0.029 A 
ATOM     51  C   UNL A   1      42.353  30.038  34.807  1.00  0.00     0.049 A 
ATOM     52  H   UNL A   1      40.832  30.805  33.560  1.00  0.00     0.167 HD
ATOM     53  C   UNL A   1      42.535  28.691  32.731  1.00  0.00     0.074 A 
ATOM     54  C   UNL A   1      43.146  27.664  31.915  1.00  0.00     0.031 C 
ATOM     55  C   UNL A   1      42.941  29.014  33.984  1.00  0.00     0.037 A 
BRANCH  42  56
ATOM     56  C   UNL A   1      39.744  33.624  36.571  1.00  0.00     0.064 A 
ATOM     57  C   UNL A   1      40.406  34.859  36.642  1.00  0.00     0.173 A 
ATOM     58  C   UNL A   1      38.880  33.280  37.621  1.00  0.00     0.173 A 
ATOM     59  F   UNL A   1      41.254  35.228  35.670  1.00  0.00    -0.203 F 
ATOM     60  C   UNL A   1      40.233  35.702  37.737  1.00  0.00     0.198 A 
ATOM     61  C   UNL A   1      38.687  34.139  38.700  1.00  0.00     0.198 A 
ATOM     62  F   UNL A   1      38.218  32.113  37.600  1.00  0.00    -0.203 F 
ATOM     63  F   UNL A   1      40.915  36.854  37.807  1.00  0.00    -0.200 F 
ATOM     64  C   UNL A   1      39.370  35.345  38.761  1.00  0.00     0.200 A 
ATOM     65  F   UNL A   1      37.844  33.798  39.684  1.00  0.00    -0.200 F 
ATOM     66  F   UNL A   1      39.201  36.159  39.811  1.00  0.00    -0.200 F 
ENDBRANCH  42  56
BRANCH  43  67
ATOM     67  C   UNL A   1      40.775  27.927  28.436  1.00  0.00     0.064 A 
ATOM     68  C   UNL A   1      40.169  26.666  28.338  1.00  0.00     0.173 A 
ATOM     69  C   UNL A   1      41.547  28.366  27.352  1.00  0.00     0.173 A 
ATOM     70  F   UNL A   1      39.438  26.194  29.359  1.00  0.00    -0.203 F 
ATOM     71  C   UNL A   1      40.344  25.868  27.210  1.00  0.00     0.198 A 
ATOM     72  C   UNL A   1      41.701  27.578  26.212  1.00  0.00     0.198 A 
ATOM     73  F   UNL A   1      42.143  29.567  27.394  1.00  0.00    -0.203 F 
ATOM     74  F   UNL A   1      39.789  24.650  27.160  1.00  0.00    -0.200 F 
ATOM     75  C   UNL A   1      41.105  26.328  26.145  1.00  0.00     0.200 A 
ATOM     76  F   UNL A   1      42.427  28.031  25.181  1.00  0.00    -0.200 F 
ATOM     77  F   UNL A   1      41.271  25.562  25.058  1.00  0.00    -0.200 F 
ENDBRANCH  43  67
BRANCH  55  78
ATOM     78  C   UNL A   1      44.079  28.225  34.560  1.00  0.00     0.064 A 
ATOM     79  C   UNL A   1      43.866  27.020  35.243  1.00  0.00     0.173 A 
ATOM     80  C   UNL A   1      45.401  28.661  34.389  1.00  0.00     0.173 A 
ATOM     81  F   UNL A   1      42.618  26.570  35.445  1.00  0.00    -0.203 F 
ATOM     82  C   UNL A   1      44.935  26.289  35.755  1.00  0.00     0.198 A 
ATOM     83  C   UNL A   1      46.470  27.915  34.878  1.00  0.00     0.198 A 
ATOM     84  F   UNL A   1      45.658  29.805  33.738  1.00  0.00    -0.203 F 
ATOM     85  F   UNL A   1      44.707  25.162  36.442  1.00  0.00    -0.200 F 
ATOM     86  C   UNL A   1      46.235  26.733  35.566  1.00  0.00     0.200 A 
ATOM     87  F   UNL A   1      47.726  28.339  34.684  1.00  0.00    -0.200 F 
ATOM     88  F   UNL A   1      47.264  26.025  36.052  1.00  0.00    -0.200 F 
ENDBRANCH  55  78
ENDBRANCH  29  30
ENDBRANCH  21  24
ENDBRANCH  19  20
ENDBRANCH  18  19
ENDBRANCH   1  18
TORSDOF 13
ENDMDL
