MODEL 1
REMARK VINA RESULT:     -13.2      0.000      0.000
REMARK SMILES Cc1ccc(C)c(-n2nc(C)c(/C=C(/C#N)C(=O)NCCCCNC(=O)c3ccc(-c4c5nc(c(-c6c(F)c(F)c(F)c(F)c6F)c6ccc([nH]6)c(-c6c(F)c(F)c(F)c(F)c6F)c6nc(c(-c7c(F)c(F)c(F)c(F)c7F)c7ccc4[nH]7)C=C6)C=C5)cc3)c2Cl)c1
REMARK SMILES IDX 21 1 20 2 19 3 17 4 18 5 14 7 13 8 12 9 8 10 9 11 90 12
REMARK SMILES IDX 10 13 91 14 11 15 7 16 1 17 2 18 3 19 92 20 4 21 5 22 6 23
REMARK SMILES IDX 15 24 16 25 22 26 23 27 24 28 25 29 26 31 27 32 28 33 89 34
REMARK SMILES IDX 29 35 88 36 30 37 31 38 32 39 82 40 33 41 87 42 81 43 83 44
REMARK SMILES IDX 34 45 86 46 80 47 79 48 35 50 67 51 47 52 66 53 48 54 51 55
REMARK SMILES IDX 65 56 84 57 49 58 50 59 64 61 85 62 52 63 36 64 37 65 45 66
REMARK SMILES IDX 38 67 39 68 43 69 46 70 40 71 41 72 44 73 42 74 68 75 69 76
REMARK SMILES IDX 77 77 70 78 71 79 75 80 78 81 72 82 73 83 76 84 74 85 53 86
REMARK SMILES IDX 54 87 62 88 55 89 56 90 60 91 63 92 57 93 58 94 61 95 59 96
REMARK H PARENT 19 6 24 30 83 49 51 60
REMARK Flexibility Score: inf
ROOT
ATOM      1  C   UNL A   1      37.785  20.791  25.006  1.00  0.00     0.023 C 
ENDROOT
BRANCH   1   2
ATOM      2  C   UNL A   1      36.301  21.182  24.884  1.00  0.00     0.116 C 
BRANCH   2   3
ATOM      3  N   UNL A   1      35.661  21.198  26.189  1.00  0.00    -0.351 N 
ATOM      4  C   UNL A   1      34.377  21.433  26.587  1.00  0.00     0.261 C 
ATOM      5  O   UNL A   1      34.228  21.873  27.726  1.00  0.00    -0.268 OA
ATOM      6  H   UNL A   1      36.275  21.000  26.933  1.00  0.00     0.163 HD
BRANCH   4   7
ATOM      7  C   UNL A   1      33.195  21.163  25.700  1.00  0.00     0.117 C 
ATOM      8  C   UNL A   1      32.680  22.095  24.877  1.00  0.00     0.038 C 
BRANCH   8   9
ATOM      9  C   UNL A   1      33.064  23.478  24.694  1.00  0.00     0.036 A 
ATOM     10  N   UNL A   1      33.054  25.699  24.980  1.00  0.00    -0.221 N 
ATOM     11  N   UNL A   1      33.883  25.489  23.933  1.00  0.00    -0.171 NA
ATOM     12  C   UNL A   1      32.562  24.506  25.464  1.00  0.00     0.140 A 
ATOM     13  C   UNL A   1      33.945  24.156  23.792  1.00  0.00     0.069 A 
ATOM     14  Cl  UNL A   1      31.388  24.478  26.713  1.00  0.00    -0.061 Cl
ATOM     15  C   UNL A   1      34.902  23.648  22.770  1.00  0.00     0.069 C 
BRANCH  10  16
ATOM     16  C   UNL A   1      32.926  27.010  25.509  1.00  0.00     0.069 A 
ATOM     17  C   UNL A   1      35.086  29.360  27.602  1.00  0.00     0.044 C 
ATOM     18  C   UNL A   1      33.948  28.813  26.795  1.00  0.00    -0.049 A 
ATOM     19  C   UNL A   1      32.831  29.610  26.530  1.00  0.00     0.004 A 
ATOM     20  C   UNL A   1      33.984  27.509  26.292  1.00  0.00     0.032 A 
ATOM     21  C   UNL A   1      31.780  29.121  25.750  1.00  0.00     0.006 A 
ATOM     22  C   UNL A   1      31.812  27.819  25.216  1.00  0.00    -0.025 A 
ATOM     23  C   UNL A   1      30.608  27.376  24.429  1.00  0.00     0.047 C 
ENDBRANCH  10  16
ENDBRANCH   8   9
BRANCH   7  24
ATOM     24  C   UNL A   1      32.838  19.685  25.639  1.00  0.00     0.105 C 
ATOM     25  N   UNL A   1      32.541  18.461  25.589  1.00  0.00    -0.192 NA
ENDBRANCH   7  24
ENDBRANCH   4   7
ENDBRANCH   2   3
ENDBRANCH   1   2
BRANCH   1  26
ATOM     26  C   UNL A   1      38.686  21.808  25.733  1.00  0.00     0.023 C 
BRANCH  26  27
ATOM     27  C   UNL A   1      39.905  21.255  26.491  1.00  0.00     0.116 C 
BRANCH  27  28
ATOM     28  N   UNL A   1      41.200  21.755  25.996  1.00  0.00    -0.352 N 
ATOM     29  C   UNL A   1      41.789  23.016  25.929  1.00  0.00     0.251 C 
ATOM     30  H   UNL A   1      41.775  21.042  25.636  1.00  0.00     0.163 HD
ATOM     31  O   UNL A   1      42.771  23.191  25.234  1.00  0.00    -0.269 OA
BRANCH  29  32
ATOM     32  C   UNL A   1      41.263  24.145  26.733  1.00  0.00     0.039 A 
ATOM     33  C   UNL A   1      40.167  24.940  26.384  1.00  0.00     0.014 A 
ATOM     34  C   UNL A   1      42.057  24.591  27.758  1.00  0.00     0.014 A 
ATOM     35  C   UNL A   1      40.009  26.187  27.021  1.00  0.00     0.010 A 
ATOM     36  C   UNL A   1      41.596  25.490  28.661  1.00  0.00     0.010 A 
ATOM     37  C   UNL A   1      40.823  26.486  28.114  1.00  0.00    -0.014 A 
BRANCH  37  38
ATOM     38  C   UNL A   1      40.925  27.749  28.826  1.00  0.00     0.031 A 
ATOM     39  C   UNL A   1      41.969  28.669  28.311  1.00  0.00     0.074 A 
ATOM     40  C   UNL A   1      39.884  28.270  29.513  1.00  0.00     0.049 A 
ATOM     41  N   UNL A   1      43.109  28.953  28.848  1.00  0.00    -0.248 NA
ATOM     42  C   UNL A   1      41.805  29.200  26.946  1.00  0.00     0.031 C 
ATOM     43  C   UNL A   1      38.525  27.741  29.682  1.00  0.00     0.029 A 
ATOM     44  N   UNL A   1      39.811  29.484  30.124  1.00  0.00    -0.354 N 
ATOM     45  C   UNL A   1      43.723  29.830  27.957  1.00  0.00     0.074 A 
ATOM     46  C   UNL A   1      43.028  29.673  26.713  1.00  0.00     0.031 C 
ATOM     47  C   UNL A   1      37.728  28.708  30.201  1.00  0.00     0.029 A 
ATOM     48  C   UNL A   1      38.537  29.877  30.508  1.00  0.00     0.049 A 
ATOM     49  H   UNL A   1      40.606  30.043  30.283  1.00  0.00     0.167 HD
ATOM     50  C   UNL A   1      44.544  30.831  28.382  1.00  0.00     0.037 A 
ATOM     51  C   UNL A   1      38.194  31.099  30.988  1.00  0.00     0.037 A 
ATOM     52  C   UNL A   1      44.869  30.655  29.780  1.00  0.00     0.049 A 
ATOM     53  C   UNL A   1      39.452  31.793  31.381  1.00  0.00     0.074 A 
ATOM     54  C   UNL A   1      45.438  29.639  30.525  1.00  0.00     0.029 A 
ATOM     55  N   UNL A   1      44.236  31.467  30.692  1.00  0.00    -0.354 N 
ATOM     56  N   UNL A   1      40.208  31.437  32.383  1.00  0.00    -0.248 NA
ATOM     57  C   UNL A   1      40.099  32.633  30.383  1.00  0.00     0.031 C 
ATOM     58  C   UNL A   1      44.702  29.622  31.748  1.00  0.00     0.029 A 
ATOM     59  C   UNL A   1      43.775  30.663  31.703  1.00  0.00     0.049 A 
ATOM     60  H   UNL A   1      44.134  32.444  30.632  1.00  0.00     0.167 HD
ATOM     61  C   UNL A   1      41.506  31.650  31.943  1.00  0.00     0.074 A 
ATOM     62  C   UNL A   1      41.375  32.475  30.747  1.00  0.00     0.031 C 
ATOM     63  C   UNL A   1      42.541  30.896  32.416  1.00  0.00     0.037 A 
BRANCH  50  64
ATOM     64  C   UNL A   1      44.749  32.160  27.675  1.00  0.00     0.064 A 
ATOM     65  C   UNL A   1      45.941  32.346  26.943  1.00  0.00     0.173 A 
ATOM     66  C   UNL A   1      43.990  33.335  27.881  1.00  0.00     0.173 A 
ATOM     67  F   UNL A   1      46.742  31.308  26.664  1.00  0.00    -0.203 F 
ATOM     68  C   UNL A   1      46.392  33.613  26.563  1.00  0.00     0.198 A 
ATOM     69  C   UNL A   1      44.415  34.590  27.447  1.00  0.00     0.198 A 
ATOM     70  F   UNL A   1      42.861  33.361  28.592  1.00  0.00    -0.203 F 
ATOM     71  F   UNL A   1      47.600  33.745  26.002  1.00  0.00    -0.200 F 
ATOM     72  C   UNL A   1      45.634  34.736  26.827  1.00  0.00     0.200 A 
ATOM     73  F   UNL A   1      43.661  35.666  27.716  1.00  0.00    -0.200 F 
ATOM     74  F   UNL A   1      46.094  35.957  26.529  1.00  0.00    -0.200 F 
ENDBRANCH  50  64
BRANCH  51  75
ATOM     75  C   UNL A   1      36.904  31.826  30.897  1.00  0.00     0.064 A 
ATOM     76  C   UNL A   1      36.109  32.046  32.036  1.00  0.00     0.173 A 
ATOM     77  C   UNL A   1      36.557  32.553  29.744  1.00  0.00     0.173 A 
ATOM     78  F   UNL A   1      36.397  31.425  33.189  1.00  0.00    -0.203 F 
ATOM     79  C   UNL A   1      35.044  32.955  32.028  1.00  0.00     0.198 A 
ATOM     80  C   UNL A   1      35.494  33.458  29.741  1.00  0.00     0.198 A 
ATOM     81  F   UNL A   1      37.293  32.469  28.626  1.00  0.00    -0.203 F 
ATOM     82  F   UNL A   1      34.344  33.178  33.149  1.00  0.00    -0.200 F 
ATOM     83  C   UNL A   1      34.743  33.667  30.882  1.00  0.00     0.200 A 
ATOM     84  F   UNL A   1      35.240  34.174  28.643  1.00  0.00    -0.200 F 
ATOM     85  F   UNL A   1      33.761  34.579  30.883  1.00  0.00    -0.200 F 
ENDBRANCH  51  75
BRANCH  63  86
ATOM     86  C   UNL A   1      42.296  30.040  33.626  1.00  0.00     0.064 A 
ATOM     87  C   UNL A   1      41.759  28.742  33.571  1.00  0.00     0.173 A 
ATOM     88  C   UNL A   1      42.779  30.485  34.863  1.00  0.00     0.173 A 
ATOM     89  F   UNL A   1      41.366  28.206  32.409  1.00  0.00    -0.203 F 
ATOM     90  C   UNL A   1      41.679  27.943  34.711  1.00  0.00     0.198 A 
ATOM     91  C   UNL A   1      42.732  29.672  35.992  1.00  0.00     0.198 A 
ATOM     92  F   UNL A   1      43.350  31.695  34.963  1.00  0.00    -0.203 F 
ATOM     93  F   UNL A   1      41.158  26.710  34.631  1.00  0.00    -0.200 F 
ATOM     94  C   UNL A   1      42.175  28.405  35.917  1.00  0.00     0.200 A 
ATOM     95  F   UNL A   1      43.258  30.105  37.146  1.00  0.00    -0.200 F 
ATOM     96  F   UNL A   1      42.144  27.619  37.002  1.00  0.00    -0.200 F 
ENDBRANCH  63  86
ENDBRANCH  37  38
ENDBRANCH  29  32
ENDBRANCH  27  28
ENDBRANCH  26  27
ENDBRANCH   1  26
TORSDOF 14
ENDMDL
MODEL 2
REMARK VINA RESULT:     -13.2      0.955      1.974
REMARK SMILES Cc1ccc(C)c(-n2nc(C)c(/C=C(/C#N)C(=O)NCCCCNC(=O)c3ccc(-c4c5nc(c(-c6c(F)c(F)c(F)c(F)c6F)c6ccc([nH]6)c(-c6c(F)c(F)c(F)c(F)c6F)c6nc(c(-c7c(F)c(F)c(F)c(F)c7F)c7ccc4[nH]7)C=C6)C=C5)cc3)c2Cl)c1
REMARK SMILES IDX 21 1 20 2 19 3 17 4 18 5 14 7 13 8 12 9 8 10 9 11 90 12
REMARK SMILES IDX 10 13 91 14 11 15 7 16 1 17 2 18 3 19 92 20 4 21 5 22 6 23
REMARK SMILES IDX 15 24 16 25 22 26 23 27 24 28 25 29 26 31 27 32 28 33 89 34
REMARK SMILES IDX 29 35 88 36 30 37 31 38 32 39 82 40 33 41 87 42 81 43 83 44
REMARK SMILES IDX 34 45 86 46 80 47 79 48 35 50 67 51 47 52 66 53 48 54 51 55
REMARK SMILES IDX 65 56 84 57 49 58 50 59 64 61 85 62 52 63 36 64 37 65 45 66
REMARK SMILES IDX 38 67 39 68 43 69 46 70 40 71 41 72 44 73 42 74 68 75 69 76
REMARK SMILES IDX 77 77 70 78 71 79 75 80 78 81 72 82 73 83 76 84 74 85 53 86
REMARK SMILES IDX 54 87 62 88 55 89 56 90 60 91 63 92 57 93 58 94 61 95 59 96
REMARK H PARENT 19 6 24 30 83 49 51 60
REMARK Flexibility Score: inf
ROOT
ATOM      1  C   UNL A   1      37.486  21.310  25.224  1.00  0.00     0.023 C 
ENDROOT
BRANCH   1   2
ATOM      2  C   UNL A   1      36.085  21.947  25.259  1.00  0.00     0.116 C 
BRANCH   2   3
ATOM      3  N   UNL A   1      35.358  21.531  26.447  1.00  0.00    -0.351 N 
ATOM      4  C   UNL A   1      34.032  21.317  26.692  1.00  0.00     0.261 C 
ATOM      5  O   UNL A   1      33.658  21.468  27.854  1.00  0.00    -0.268 OA
ATOM      6  H   UNL A   1      35.935  21.373  27.229  1.00  0.00     0.163 HD
BRANCH   4   7
ATOM      7  C   UNL A   1      33.070  20.903  25.616  1.00  0.00     0.117 C 
ATOM      8  C   UNL A   1      32.074  21.702  25.190  1.00  0.00     0.038 C 
BRANCH   8   9
ATOM      9  C   UNL A   1      31.683  23.015  25.652  1.00  0.00     0.036 A 
ATOM     10  N   UNL A   1      31.773  25.234  25.945  1.00  0.00    -0.221 N 
ATOM     11  N   UNL A   1      30.772  24.818  26.754  1.00  0.00    -0.171 NA
ATOM     12  C   UNL A   1      32.325  24.172  25.262  1.00  0.00     0.140 A 
ATOM     13  C   UNL A   1      30.668  23.498  26.540  1.00  0.00     0.069 A 
ATOM     14  Cl  UNL A   1      33.697  24.388  24.257  1.00  0.00    -0.061 Cl
ATOM     15  C   UNL A   1      29.541  22.808  27.228  1.00  0.00     0.069 C 
BRANCH  10  16
ATOM     16  C   UNL A   1      32.009  26.626  25.795  1.00  0.00     0.069 A 
ATOM     17  C   UNL A   1      34.546  29.149  27.126  1.00  0.00     0.044 C 
ATOM     18  C   UNL A   1      33.395  28.546  26.378  1.00  0.00    -0.049 A 
ATOM     19  C   UNL A   1      32.630  29.336  25.516  1.00  0.00     0.004 A 
ATOM     20  C   UNL A   1      33.071  27.193  26.523  1.00  0.00     0.032 A 
ATOM     21  C   UNL A   1      31.576  28.776  24.788  1.00  0.00     0.006 A 
ATOM     22  C   UNL A   1      31.253  27.412  24.905  1.00  0.00    -0.025 A 
ATOM     23  C   UNL A   1      30.072  26.921  24.113  1.00  0.00     0.047 C 
ENDBRANCH  10  16
ENDBRANCH   8   9
BRANCH   7  24
ATOM     24  C   UNL A   1      33.507  19.634  24.899  1.00  0.00     0.105 C 
ATOM     25  N   UNL A   1      33.869  18.583  24.304  1.00  0.00    -0.192 NA
ENDBRANCH   7  24
ENDBRANCH   4   7
ENDBRANCH   2   3
ENDBRANCH   1   2
BRANCH   1  26
ATOM     26  C   UNL A   1      38.642  22.209  25.707  1.00  0.00     0.023 C 
BRANCH  26  27
ATOM     27  C   UNL A   1      39.803  21.526  26.448  1.00  0.00     0.116 C 
BRANCH  27  28
ATOM     28  N   UNL A   1      41.140  21.925  25.971  1.00  0.00    -0.352 N 
ATOM     29  C   UNL A   1      41.806  23.145  25.867  1.00  0.00     0.251 C 
ATOM     30  H   UNL A   1      41.679  21.164  25.658  1.00  0.00     0.163 HD
ATOM     31  O   UNL A   1      42.815  23.230  25.195  1.00  0.00    -0.269 OA
BRANCH  29  32
ATOM     32  C   UNL A   1      41.329  24.338  26.607  1.00  0.00     0.039 A 
ATOM     33  C   UNL A   1      40.461  25.308  26.096  1.00  0.00     0.014 A 
ATOM     34  C   UNL A   1      41.979  24.635  27.777  1.00  0.00     0.014 A 
ATOM     35  C   UNL A   1      40.391  26.557  26.744  1.00  0.00     0.010 A 
ATOM     36  C   UNL A   1      41.510  25.589  28.616  1.00  0.00     0.010 A 
ATOM     37  C   UNL A   1      41.024  26.706  27.978  1.00  0.00    -0.014 A 
BRANCH  37  38
ATOM     38  C   UNL A   1      41.195  27.927  28.747  1.00  0.00     0.031 A 
ATOM     39  C   UNL A   1      42.344  28.768  28.331  1.00  0.00     0.074 A 
ATOM     40  C   UNL A   1      40.165  28.514  29.397  1.00  0.00     0.049 A 
ATOM     41  N   UNL A   1      43.470  28.928  28.940  1.00  0.00    -0.248 NA
ATOM     42  C   UNL A   1      42.307  29.362  26.982  1.00  0.00     0.031 C 
ATOM     43  C   UNL A   1      38.757  28.104  29.469  1.00  0.00     0.029 A 
ATOM     44  N   UNL A   1      40.162  29.706  30.054  1.00  0.00    -0.354 N 
ATOM     45  C   UNL A   1      44.210  29.779  28.124  1.00  0.00     0.074 A 
ATOM     46  C   UNL A   1      43.579  29.731  26.837  1.00  0.00     0.031 C 
ATOM     47  C   UNL A   1      38.018  29.118  29.983  1.00  0.00     0.029 A 
ATOM     48  C   UNL A   1      38.908  30.198  30.383  1.00  0.00     0.049 A 
ATOM     49  H   UNL A   1      40.993  30.185  30.280  1.00  0.00     0.167 HD
ATOM     50  C   UNL A   1      45.090  30.685  28.635  1.00  0.00     0.037 A 
ATOM     51  C   UNL A   1      38.645  31.427  30.894  1.00  0.00     0.037 A 
ATOM     52  C   UNL A   1      45.315  30.429  30.040  1.00  0.00     0.049 A 
ATOM     53  C   UNL A   1      39.934  31.990  31.386  1.00  0.00     0.074 A 
ATOM     54  C   UNL A   1      45.748  29.339  30.772  1.00  0.00     0.029 A 
ATOM     55  N   UNL A   1      44.703  31.260  30.949  1.00  0.00    -0.354 N 
ATOM     56  N   UNL A   1      40.595  31.530  32.412  1.00  0.00    -0.248 NA
ATOM     57  C   UNL A   1      40.710  32.804  30.461  1.00  0.00     0.031 C 
ATOM     58  C   UNL A   1      44.943  29.342  31.951  1.00  0.00     0.029 A 
ATOM     59  C   UNL A   1      44.115  30.464  31.898  1.00  0.00     0.049 A 
ATOM     60  H   UNL A   1      44.691  32.244  30.925  1.00  0.00     0.167 HD
ATOM     61  C   UNL A   1      41.931  31.641  32.054  1.00  0.00     0.074 A 
ATOM     62  C   UNL A   1      41.944  32.519  30.889  1.00  0.00     0.031 C 
ATOM     63  C   UNL A   1      42.866  30.780  32.551  1.00  0.00     0.037 A 
BRANCH  50  64
ATOM     64  C   UNL A   1      45.451  32.016  27.997  1.00  0.00     0.064 A 
ATOM     65  C   UNL A   1      44.411  32.932  27.737  1.00  0.00     0.173 A 
ATOM     66  C   UNL A   1      46.689  32.337  27.394  1.00  0.00     0.173 A 
ATOM     67  F   UNL A   1      43.191  32.752  28.265  1.00  0.00    -0.203 F 
ATOM     68  C   UNL A   1      44.564  34.003  26.852  1.00  0.00     0.198 A 
ATOM     69  C   UNL A   1      46.854  33.443  26.559  1.00  0.00     0.198 A 
ATOM     70  F   UNL A   1      47.772  31.563  27.488  1.00  0.00    -0.203 F 
ATOM     71  F   UNL A   1      43.503  34.753  26.530  1.00  0.00    -0.200 F 
ATOM     72  C   UNL A   1      45.783  34.251  26.254  1.00  0.00     0.200 A 
ATOM     73  F   UNL A   1      48.049  33.660  25.990  1.00  0.00    -0.200 F 
ATOM     74  F   UNL A   1      45.917  35.231  25.353  1.00  0.00    -0.200 F 
ENDBRANCH  50  64
BRANCH  51  75
ATOM     75  C   UNL A   1      37.432  32.270  30.763  1.00  0.00     0.064 A 
ATOM     76  C   UNL A   1      37.139  32.945  29.564  1.00  0.00     0.173 A 
ATOM     77  C   UNL A   1      36.399  32.214  31.715  1.00  0.00     0.173 A 
ATOM     78  F   UNL A   1      38.054  33.009  28.586  1.00  0.00    -0.203 F 
ATOM     79  C   UNL A   1      35.880  33.511  29.325  1.00  0.00     0.198 A 
ATOM     80  C   UNL A   1      35.146  32.779  31.471  1.00  0.00     0.198 A 
ATOM     81  F   UNL A   1      36.552  31.534  32.861  1.00  0.00    -0.203 F 
ATOM     82  F   UNL A   1      35.622  34.098  28.147  1.00  0.00    -0.200 F 
ATOM     83  C   UNL A   1      34.882  33.419  30.276  1.00  0.00     0.200 A 
ATOM     84  F   UNL A   1      34.174  32.646  32.378  1.00  0.00    -0.200 F 
ATOM     85  F   UNL A   1      33.659  33.908  30.030  1.00  0.00    -0.200 F 
ENDBRANCH  51  75
BRANCH  63  86
ATOM     86  C   UNL A   1      42.477  29.905  33.708  1.00  0.00     0.064 A 
ATOM     87  C   UNL A   1      41.911  28.626  33.567  1.00  0.00     0.173 A 
ATOM     88  C   UNL A   1      42.845  30.308  34.999  1.00  0.00     0.173 A 
ATOM     89  F   UNL A   1      41.621  28.129  32.359  1.00  0.00    -0.203 F 
ATOM     90  C   UNL A   1      41.694  27.805  34.672  1.00  0.00     0.198 A 
ATOM     91  C   UNL A   1      42.661  29.472  36.096  1.00  0.00     0.198 A 
ATOM     92  F   UNL A   1      43.438  31.497  35.186  1.00  0.00    -0.203 F 
ATOM     93  F   UNL A   1      41.148  26.591  34.509  1.00  0.00    -0.200 F 
ATOM     94  C   UNL A   1      42.079  28.225  35.933  1.00  0.00     0.200 A 
ATOM     95  F   UNL A   1      43.081  29.862  37.307  1.00  0.00    -0.200 F 
ATOM     96  F   UNL A   1      41.916  27.416  36.990  1.00  0.00    -0.200 F 
ENDBRANCH  63  86
ENDBRANCH  37  38
ENDBRANCH  29  32
ENDBRANCH  27  28
ENDBRANCH  26  27
ENDBRANCH   1  26
TORSDOF 14
ENDMDL
MODEL 3
REMARK VINA RESULT:     -13.0      3.280      9.015
REMARK SMILES Cc1ccc(C)c(-n2nc(C)c(/C=C(/C#N)C(=O)NCCCCNC(=O)c3ccc(-c4c5nc(c(-c6c(F)c(F)c(F)c(F)c6F)c6ccc([nH]6)c(-c6c(F)c(F)c(F)c(F)c6F)c6nc(c(-c7c(F)c(F)c(F)c(F)c7F)c7ccc4[nH]7)C=C6)C=C5)cc3)c2Cl)c1
REMARK SMILES IDX 21 1 20 2 19 3 17 4 18 5 14 7 13 8 12 9 8 10 9 11 90 12
REMARK SMILES IDX 10 13 91 14 11 15 7 16 1 17 2 18 3 19 92 20 4 21 5 22 6 23
REMARK SMILES IDX 15 24 16 25 22 26 23 27 24 28 25 29 26 31 27 32 28 33 89 34
REMARK SMILES IDX 29 35 88 36 30 37 31 38 32 39 82 40 33 41 87 42 81 43 83 44
REMARK SMILES IDX 34 45 86 46 80 47 79 48 35 50 67 51 47 52 66 53 48 54 51 55
REMARK SMILES IDX 65 56 84 57 49 58 50 59 64 61 85 62 52 63 36 64 37 65 45 66
REMARK SMILES IDX 38 67 39 68 43 69 46 70 40 71 41 72 44 73 42 74 68 75 69 76
REMARK SMILES IDX 77 77 70 78 71 79 75 80 78 81 72 82 73 83 76 84 74 85 53 86
REMARK SMILES IDX 54 87 62 88 55 89 56 90 60 91 63 92 57 93 58 94 61 95 59 96
REMARK H PARENT 19 6 24 30 83 49 51 60
REMARK Flexibility Score: inf
ROOT
ATOM      1  C   UNL A   1      32.163  30.912  26.675  1.00  0.00     0.023 C 
ENDROOT
BRANCH   1   2
ATOM      2  C   UNL A   1      31.943  29.648  25.824  1.00  0.00     0.116 C 
BRANCH   2   3
ATOM      3  N   UNL A   1      32.735  29.702  24.606  1.00  0.00    -0.351 N 
ATOM      4  C   UNL A   1      32.726  28.953  23.464  1.00  0.00     0.261 C 
ATOM      5  O   UNL A   1      33.787  28.885  22.846  1.00  0.00    -0.268 OA
ATOM      6  H   UNL A   1      33.410  30.418  24.603  1.00  0.00     0.163 HD
BRANCH   4   7
ATOM      7  C   UNL A   1      31.492  28.256  22.966  1.00  0.00     0.117 C 
ATOM      8  C   UNL A   1      31.168  27.005  23.341  1.00  0.00     0.038 C 
BRANCH   8   9
ATOM      9  C   UNL A   1      31.882  26.083  24.197  1.00  0.00     0.036 A 
ATOM     10  N   UNL A   1      33.346  24.493  24.785  1.00  0.00    -0.221 N 
ATOM     11  N   UNL A   1      32.590  24.692  25.888  1.00  0.00    -0.171 NA
ATOM     12  C   UNL A   1      32.950  25.327  23.761  1.00  0.00     0.140 A 
ATOM     13  C   UNL A   1      31.749  25.688  25.567  1.00  0.00     0.069 A 
ATOM     14  Cl  UNL A   1      33.653  25.203  22.203  1.00  0.00    -0.061 Cl
ATOM     15  C   UNL A   1      30.878  26.192  26.665  1.00  0.00     0.069 C 
BRANCH  10  16
ATOM     16  C   UNL A   1      34.467  23.626  24.863  1.00  0.00     0.069 A 
ATOM     17  C   UNL A   1      38.061  23.876  26.125  1.00  0.00     0.044 C 
ATOM     18  C   UNL A   1      36.791  23.334  25.541  1.00  0.00    -0.049 A 
ATOM     19  C   UNL A   1      36.717  21.994  25.149  1.00  0.00     0.004 A 
ATOM     20  C   UNL A   1      35.666  24.148  25.383  1.00  0.00     0.032 A 
ATOM     21  C   UNL A   1      35.528  21.470  24.636  1.00  0.00     0.006 A 
ATOM     22  C   UNL A   1      34.380  22.270  24.493  1.00  0.00    -0.025 A 
ATOM     23  C   UNL A   1      33.166  21.619  23.887  1.00  0.00     0.047 C 
ENDBRANCH  10  16
ENDBRANCH   8   9
BRANCH   7  24
ATOM     24  C   UNL A   1      30.546  29.195  22.234  1.00  0.00     0.105 C 
ATOM     25  N   UNL A   1      29.762  29.974  21.627  1.00  0.00    -0.192 NA
ENDBRANCH   7  24
ENDBRANCH   4   7
ENDBRANCH   2   3
ENDBRANCH   1   2
BRANCH   1  26
ATOM     26  C   UNL A   1      33.441  30.924  27.536  1.00  0.00     0.023 C 
BRANCH  26  27
ATOM     27  C   UNL A   1      34.089  32.290  27.817  1.00  0.00     0.116 C 
BRANCH  27  28
ATOM     28  N   UNL A   1      34.402  32.529  29.237  1.00  0.00    -0.352 N 
ATOM     29  C   UNL A   1      35.286  31.946  30.144  1.00  0.00     0.251 C 
ATOM     30  H   UNL A   1      33.872  33.258  29.631  1.00  0.00     0.163 HD
ATOM     31  O   UNL A   1      35.163  32.161  31.334  1.00  0.00    -0.269 OA
BRANCH  29  32
ATOM     32  C   UNL A   1      36.411  31.102  29.675  1.00  0.00     0.039 A 
ATOM     33  C   UNL A   1      36.324  29.738  29.377  1.00  0.00     0.014 A 
ATOM     34  C   UNL A   1      37.668  31.639  29.782  1.00  0.00     0.014 A 
ATOM     35  C   UNL A   1      37.513  28.986  29.313  1.00  0.00     0.010 A 
ATOM     36  C   UNL A   1      38.740  31.031  29.219  1.00  0.00     0.010 A 
ATOM     37  C   UNL A   1      38.733  29.661  29.342  1.00  0.00    -0.014 A 
BRANCH  37  38
ATOM     38  C   UNL A   1      40.065  29.086  29.426  1.00  0.00     0.031 A 
ATOM     39  C   UNL A   1      40.546  28.832  30.806  1.00  0.00     0.074 A 
ATOM     40  C   UNL A   1      40.602  28.372  28.411  1.00  0.00     0.049 A 
ATOM     41  N   UNL A   1      41.433  29.493  31.471  1.00  0.00    -0.248 NA
ATOM     42  C   UNL A   1      39.824  27.829  31.612  1.00  0.00     0.031 C 
ATOM     43  C   UNL A   1      40.022  28.031  27.107  1.00  0.00     0.029 A 
ATOM     44  N   UNL A   1      41.781  27.692  28.401  1.00  0.00    -0.354 N 
ATOM     45  C   UNL A   1      41.491  28.876  32.718  1.00  0.00     0.074 A 
ATOM     46  C   UNL A   1      40.285  28.109  32.829  1.00  0.00     0.031 C 
ATOM     47  C   UNL A   1      40.778  27.073  26.515  1.00  0.00     0.029 A 
ATOM     48  C   UNL A   1      41.951  26.819  27.337  1.00  0.00     0.049 A 
ATOM     49  H   UNL A   1      42.465  27.811  29.100  1.00  0.00     0.167 HD
ATOM     50  C   UNL A   1      42.650  28.795  33.429  1.00  0.00     0.037 A 
ATOM     51  C   UNL A   1      42.963  25.925  27.196  1.00  0.00     0.037 A 
ATOM     52  C   UNL A   1      43.660  29.646  32.842  1.00  0.00     0.049 A 
ATOM     53  C   UNL A   1      44.032  26.306  28.161  1.00  0.00     0.074 A 
ATOM     54  C   UNL A   1      43.740  30.993  32.538  1.00  0.00     0.029 A 
ATOM     55  N   UNL A   1      44.657  29.047  32.107  1.00  0.00    -0.354 N 
ATOM     56  N   UNL A   1      44.760  27.385  28.068  1.00  0.00    -0.248 NA
ATOM     57  C   UNL A   1      43.996  25.694  29.482  1.00  0.00     0.031 C 
ATOM     58  C   UNL A   1      44.424  31.050  31.287  1.00  0.00     0.029 A 
ATOM     59  C   UNL A   1      44.775  29.746  30.934  1.00  0.00     0.049 A 
ATOM     60  H   UNL A   1      45.187  28.262  32.374  1.00  0.00     0.167 HD
ATOM     61  C   UNL A   1      44.929  27.815  29.376  1.00  0.00     0.074 A 
ATOM     62  C   UNL A   1      44.523  26.686  30.206  1.00  0.00     0.031 C 
ATOM     63  C   UNL A   1      45.100  29.138  29.664  1.00  0.00     0.037 A 
BRANCH  50  64
ATOM     64  C   UNL A   1      43.008  27.686  34.404  1.00  0.00     0.064 A 
ATOM     65  C   UNL A   1      43.200  28.030  35.759  1.00  0.00     0.173 A 
ATOM     66  C   UNL A   1      43.425  26.381  34.059  1.00  0.00     0.173 A 
ATOM     67  F   UNL A   1      42.829  29.234  36.219  1.00  0.00    -0.203 F 
ATOM     68  C   UNL A   1      43.865  27.188  36.655  1.00  0.00     0.198 A 
ATOM     69  C   UNL A   1      44.034  25.519  34.972  1.00  0.00     0.198 A 
ATOM     70  F   UNL A   1      43.367  25.898  32.816  1.00  0.00    -0.203 F 
ATOM     71  F   UNL A   1      44.150  27.626  37.887  1.00  0.00    -0.200 F 
ATOM     72  C   UNL A   1      44.293  25.937  36.257  1.00  0.00     0.200 A 
ATOM     73  F   UNL A   1      44.441  24.310  34.560  1.00  0.00    -0.200 F 
ATOM     74  F   UNL A   1      44.991  25.156  37.090  1.00  0.00    -0.200 F 
ENDBRANCH  50  64
BRANCH  51  75
ATOM     75  C   UNL A   1      42.986  24.621  26.490  1.00  0.00     0.064 A 
ATOM     76  C   UNL A   1      43.783  24.423  25.349  1.00  0.00     0.173 A 
ATOM     77  C   UNL A   1      42.437  23.466  27.075  1.00  0.00     0.173 A 
ATOM     78  F   UNL A   1      44.379  25.466  24.754  1.00  0.00    -0.203 F 
ATOM     79  C   UNL A   1      44.035  23.144  24.837  1.00  0.00     0.198 A 
ATOM     80  C   UNL A   1      42.690  22.193  26.561  1.00  0.00     0.198 A 
ATOM     81  F   UNL A   1      41.719  23.539  28.206  1.00  0.00    -0.203 F 
ATOM     82  F   UNL A   1      44.845  22.991  23.781  1.00  0.00    -0.200 F 
ATOM     83  C   UNL A   1      43.494  22.029  25.450  1.00  0.00     0.200 A 
ATOM     84  F   UNL A   1      42.201  21.120  27.187  1.00  0.00    -0.200 F 
ATOM     85  F   UNL A   1      43.776  20.798  25.000  1.00  0.00    -0.200 F 
ENDBRANCH  51  75
BRANCH  63  86
ATOM     86  C   UNL A   1      45.393  30.077  28.529  1.00  0.00     0.064 A 
ATOM     87  C   UNL A   1      44.401  30.729  27.776  1.00  0.00     0.173 A 
ATOM     88  C   UNL A   1      46.723  30.458  28.309  1.00  0.00     0.173 A 
ATOM     89  F   UNL A   1      43.102  30.493  27.994  1.00  0.00    -0.203 F 
ATOM     90  C   UNL A   1      44.731  31.691  26.823  1.00  0.00     0.198 A 
ATOM     91  C   UNL A   1      47.047  31.445  27.383  1.00  0.00     0.198 A 
ATOM     92  F   UNL A   1      47.707  29.907  29.036  1.00  0.00    -0.203 F 
ATOM     93  F   UNL A   1      43.765  32.294  26.115  1.00  0.00    -0.200 F 
ATOM     94  C   UNL A   1      46.053  32.055  26.636  1.00  0.00     0.200 A 
ATOM     95  F   UNL A   1      48.323  31.830  27.240  1.00  0.00    -0.200 F 
ATOM     96  F   UNL A   1      46.367  33.016  25.755  1.00  0.00    -0.200 F 
ENDBRANCH  63  86
ENDBRANCH  37  38
ENDBRANCH  29  32
ENDBRANCH  27  28
ENDBRANCH  26  27
ENDBRANCH   1  26
TORSDOF 14
ENDMDL
