MODEL 1
REMARK VINA RESULT:     -12.9      0.000      0.000
REMARK SMILES C[C@@H](NC(=O)CNC(=O)N1CC(=O)Nc2ccccc21)C(=O)NCCCCNC(=O)c1ccc(-c2c3nc(c(-c4c(F)c(F)c(F)c(F)c4F)c4ccc([nH]4)c(-c4c(F)c(F)c(F)c(F)c4F)c4nc(c(-c5c(F)c(F)c(F)c(F)c5F)c5ccc2[nH]5)C=C4)C=C3)cc1
REMARK SMILES IDX 24 1 23 2 21 3 22 4 2 6 1 7 3 8 4 9 5 11 6 12 7 13 8 14 9 16
REMARK SMILES IDX 10 17 11 18 20 19 12 20 15 21 19 22 13 23 14 24 16 25 18 26
REMARK SMILES IDX 17 28 25 29 26 30 27 31 28 32 29 33 30 35 31 36 32 37 93 38
REMARK SMILES IDX 33 39 92 40 34 41 35 42 36 43 86 44 37 45 91 46 85 47 87 48
REMARK SMILES IDX 38 49 90 50 84 51 83 52 39 54 71 55 51 56 70 57 52 58 55 59
REMARK SMILES IDX 69 60 88 61 53 62 54 63 68 65 89 66 56 67 40 68 41 69 49 70
REMARK SMILES IDX 42 71 43 72 47 73 50 74 44 75 45 76 48 77 46 78 72 79 73 80
REMARK SMILES IDX 81 81 74 82 75 83 79 84 82 85 76 86 77 87 80 88 78 89 57 90
REMARK SMILES IDX 58 91 66 92 59 93 60 94 64 95 67 96 61 97 62 98 65 99 63 100
REMARK H PARENT 23 5 3 10 7 15 14 27 28 34 87 53 55 64
REMARK Flexibility Score: inf
ROOT
ATOM      1  C   UNL A   1      35.824  21.051  25.438  1.00  0.00     0.116 C 
ENDROOT
BRANCH   1   2
ATOM      2  N   UNL A   1      34.828  20.001  25.382  1.00  0.00    -0.354 N 
ATOM      3  C   UNL A   1      33.471  20.103  25.320  1.00  0.00     0.242 C 
ATOM      4  O   UNL A   1      32.800  19.094  25.549  1.00  0.00    -0.273 OA
ATOM      5  H   UNL A   1      35.182  19.082  25.389  1.00  0.00     0.163 HD
BRANCH   3   6
ATOM      6  C   UNL A   1      32.762  21.459  25.159  1.00  0.00     0.168 C 
ATOM      7  C   UNL A   1      32.142  21.483  23.762  1.00  0.00     0.041 C 
BRANCH   6   8
ATOM      8  N   UNL A   1      31.766  21.772  26.181  1.00  0.00    -0.343 N 
ATOM      9  C   UNL A   1      31.103  22.949  26.389  1.00  0.00     0.240 C 
ATOM     10  H   UNL A   1      31.544  21.040  26.801  1.00  0.00     0.164 HD
ATOM     11  O   UNL A   1      30.327  23.012  27.345  1.00  0.00    -0.273 OA
BRANCH   9  12
ATOM     12  C   UNL A   1      31.457  24.195  25.575  1.00  0.00     0.218 C 
BRANCH  12  13
ATOM     13  N   UNL A   1      30.277  24.688  24.868  1.00  0.00    -0.329 N 
ATOM     14  C   UNL A   1      30.051  25.969  24.435  1.00  0.00     0.322 C 
ATOM     15  H   UNL A   1      29.569  24.030  24.683  1.00  0.00     0.165 HD
ATOM     16  O   UNL A   1      28.888  26.349  24.351  1.00  0.00    -0.248 OA
BRANCH  14  17
ATOM     17  N   UNL A   1      31.170  26.733  24.184  1.00  0.00    -0.283 N 
ATOM     18  C   UNL A   1      31.693  26.860  22.825  1.00  0.00     0.227 C 
ATOM     19  C   UNL A   1      31.875  27.457  25.191  1.00  0.00     0.070 A 
ATOM     20  C   UNL A   1      33.201  26.701  22.759  1.00  0.00     0.244 C 
ATOM     21  C   UNL A   1      33.263  27.643  25.005  1.00  0.00     0.065 A 
ATOM     22  C   UNL A   1      31.302  27.860  26.399  1.00  0.00     0.028 A 
ATOM     23  O   UNL A   1      33.783  26.315  21.749  1.00  0.00    -0.273 OA
ATOM     24  N   UNL A   1      33.894  27.191  23.834  1.00  0.00    -0.323 N 
ATOM     25  C   UNL A   1      34.057  28.185  26.018  1.00  0.00     0.028 A 
ATOM     26  C   UNL A   1      32.097  28.422  27.405  1.00  0.00     0.002 A 
ATOM     27  H   UNL A   1      34.876  27.228  23.784  1.00  0.00     0.170 HD
ATOM     28  C   UNL A   1      33.470  28.572  27.221  1.00  0.00     0.002 A 
ENDBRANCH  14  17
ENDBRANCH  12  13
ENDBRANCH   9  12
ENDBRANCH   6   8
ENDBRANCH   3   6
ENDBRANCH   1   2
BRANCH   1  29
ATOM     29  C   UNL A   1      36.985  20.793  24.482  1.00  0.00     0.023 C 
BRANCH  29  30
ATOM     30  C   UNL A   1      37.946  19.688  24.933  1.00  0.00     0.023 C 
BRANCH  30  31
ATOM     31  C   UNL A   1      39.079  20.147  25.849  1.00  0.00     0.116 C 
BRANCH  31  32
ATOM     32  N   UNL A   1      40.180  19.195  25.885  1.00  0.00    -0.352 N 
ATOM     33  C   UNL A   1      41.524  19.408  26.053  1.00  0.00     0.251 C 
ATOM     34  H   UNL A   1      39.919  18.252  25.772  1.00  0.00     0.163 HD
ATOM     35  O   UNL A   1      42.321  18.494  25.841  1.00  0.00    -0.269 OA
BRANCH  33  36
ATOM     36  C   UNL A   1      42.030  20.730  26.477  1.00  0.00     0.039 A 
ATOM     37  C   UNL A   1      42.362  21.670  25.497  1.00  0.00     0.014 A 
ATOM     38  C   UNL A   1      42.219  21.032  27.828  1.00  0.00     0.014 A 
ATOM     39  C   UNL A   1      42.829  22.931  25.874  1.00  0.00     0.010 A 
ATOM     40  C   UNL A   1      42.623  22.312  28.205  1.00  0.00     0.010 A 
ATOM     41  C   UNL A   1      42.936  23.273  27.231  1.00  0.00    -0.014 A 
BRANCH  41  42
ATOM     42  C   UNL A   1      43.375  24.630  27.645  1.00  0.00     0.031 A 
ATOM     43  C   UNL A   1      42.362  25.686  27.988  1.00  0.00     0.074 A 
ATOM     44  C   UNL A   1      44.689  24.927  27.663  1.00  0.00     0.049 A 
ATOM     45  N   UNL A   1      42.552  26.938  28.324  1.00  0.00    -0.248 NA
ATOM     46  C   UNL A   1      40.947  25.289  27.927  1.00  0.00     0.031 C 
ATOM     47  C   UNL A   1      45.767  24.004  27.308  1.00  0.00     0.029 A 
ATOM     48  N   UNL A   1      45.339  26.092  27.984  1.00  0.00    -0.354 N 
ATOM     49  C   UNL A   1      41.285  27.477  28.503  1.00  0.00     0.074 A 
ATOM     50  C   UNL A   1      40.333  26.433  28.191  1.00  0.00     0.031 C 
ATOM     51  C   UNL A   1      46.946  24.633  27.445  1.00  0.00     0.029 A 
ATOM     52  C   UNL A   1      46.705  26.011  27.865  1.00  0.00     0.049 A 
ATOM     53  H   UNL A   1      44.871  26.909  28.272  1.00  0.00     0.167 HD
ATOM     54  C   UNL A   1      40.948  28.723  28.913  1.00  0.00     0.037 A 
ATOM     55  C   UNL A   1      47.656  26.943  28.065  1.00  0.00     0.037 A 
ATOM     56  C   UNL A   1      41.895  29.756  29.240  1.00  0.00     0.049 A 
ATOM     57  C   UNL A   1      47.254  28.321  28.514  1.00  0.00     0.074 A 
ATOM     58  C   UNL A   1      41.651  31.035  29.713  1.00  0.00     0.029 A 
ATOM     59  N   UNL A   1      43.272  29.630  29.126  1.00  0.00    -0.354 N 
ATOM     60  N   UNL A   1      46.055  28.800  28.744  1.00  0.00    -0.248 NA
ATOM     61  C   UNL A   1      48.338  29.287  28.741  1.00  0.00     0.031 C 
ATOM     62  C   UNL A   1      42.877  31.695  29.845  1.00  0.00     0.029 A 
ATOM     63  C   UNL A   1      43.888  30.813  29.501  1.00  0.00     0.049 A 
ATOM     64  H   UNL A   1      43.742  28.819  28.823  1.00  0.00     0.167 HD
ATOM     65  C   UNL A   1      46.242  30.110  29.166  1.00  0.00     0.074 A 
ATOM     66  C   UNL A   1      47.670  30.347  29.174  1.00  0.00     0.031 C 
ATOM     67  C   UNL A   1      45.311  31.034  29.511  1.00  0.00     0.037 A 
BRANCH  54  68
ATOM     68  C   UNL A   1      39.485  29.039  29.037  1.00  0.00     0.064 A 
ATOM     69  C   UNL A   1      38.723  29.434  27.927  1.00  0.00     0.173 A 
ATOM     70  C   UNL A   1      38.827  28.906  30.270  1.00  0.00     0.173 A 
ATOM     71  F   UNL A   1      39.306  29.587  26.729  1.00  0.00    -0.203 F 
ATOM     72  C   UNL A   1      37.364  29.712  28.053  1.00  0.00     0.198 A 
ATOM     73  C   UNL A   1      37.462  29.156  30.385  1.00  0.00     0.198 A 
ATOM     74  F   UNL A   1      39.506  28.523  31.362  1.00  0.00    -0.203 F 
ATOM     75  F   UNL A   1      36.667  30.133  26.988  1.00  0.00    -0.200 F 
ATOM     76  C   UNL A   1      36.733  29.566  29.279  1.00  0.00     0.200 A 
ATOM     77  F   UNL A   1      36.851  29.000  31.568  1.00  0.00    -0.200 F 
ATOM     78  F   UNL A   1      35.424  29.826  29.396  1.00  0.00    -0.200 F 
ENDBRANCH  54  68
BRANCH  55  79
ATOM     79  C   UNL A   1      49.086  26.597  27.861  1.00  0.00     0.064 A 
ATOM     80  C   UNL A   1      49.643  26.565  26.575  1.00  0.00     0.173 A 
ATOM     81  C   UNL A   1      49.922  26.286  28.944  1.00  0.00     0.173 A 
ATOM     82  F   UNL A   1      48.879  26.833  25.507  1.00  0.00    -0.203 F 
ATOM     83  C   UNL A   1      50.979  26.219  26.379  1.00  0.00     0.198 A 
ATOM     84  C   UNL A   1      51.264  25.967  28.748  1.00  0.00     0.198 A 
ATOM     85  F   UNL A   1      49.437  26.305  30.194  1.00  0.00    -0.203 F 
ATOM     86  F   UNL A   1      51.475  26.154  25.137  1.00  0.00    -0.200 F 
ATOM     87  C   UNL A   1      51.789  25.926  27.466  1.00  0.00     0.200 A 
ATOM     88  F   UNL A   1      52.046  25.697  29.802  1.00  0.00    -0.200 F 
ATOM     89  F   UNL A   1      53.074  25.596  27.276  1.00  0.00    -0.200 F 
ENDBRANCH  55  79
BRANCH  67  90
ATOM     90  C   UNL A   1      45.810  32.376  29.961  1.00  0.00     0.064 A 
ATOM     91  C   UNL A   1      45.965  33.441  29.062  1.00  0.00     0.173 A 
ATOM     92  C   UNL A   1      46.097  32.609  31.314  1.00  0.00     0.173 A 
ATOM     93  F   UNL A   1      45.718  33.264  27.755  1.00  0.00    -0.203 F 
ATOM     94  C   UNL A   1      46.413  34.686  29.498  1.00  0.00     0.198 A 
ATOM     95  C   UNL A   1      46.518  33.862  31.751  1.00  0.00     0.198 A 
ATOM     96  F   UNL A   1      45.959  31.625  32.215  1.00  0.00    -0.203 F 
ATOM     97  F   UNL A   1      46.599  35.676  28.615  1.00  0.00    -0.200 F 
ATOM     98  C   UNL A   1      46.682  34.896  30.843  1.00  0.00     0.200 A 
ATOM     99  F   UNL A   1      46.765  34.068  33.051  1.00  0.00    -0.200 F 
ATOM    100  F   UNL A   1      47.107  36.097  31.261  1.00  0.00    -0.200 F 
ENDBRANCH  67  90
ENDBRANCH  41  42
ENDBRANCH  33  36
ENDBRANCH  31  32
ENDBRANCH  30  31
ENDBRANCH  29  30
ENDBRANCH   1  29
TORSDOF 15
ENDMDL
MODEL 2
REMARK VINA RESULT:     -12.8      4.948     10.373
REMARK SMILES C[C@@H](NC(=O)CNC(=O)N1CC(=O)Nc2ccccc21)C(=O)NCCCCNC(=O)c1ccc(-c2c3nc(c(-c4c(F)c(F)c(F)c(F)c4F)c4ccc([nH]4)c(-c4c(F)c(F)c(F)c(F)c4F)c4nc(c(-c5c(F)c(F)c(F)c(F)c5F)c5ccc2[nH]5)C=C4)C=C3)cc1
REMARK SMILES IDX 24 1 23 2 21 3 22 4 2 6 1 7 3 8 4 9 5 11 6 12 7 13 8 14 9 16
REMARK SMILES IDX 10 17 11 18 20 19 12 20 15 21 19 22 13 23 14 24 16 25 18 26
REMARK SMILES IDX 17 28 25 29 26 30 27 31 28 32 29 33 30 35 31 36 32 37 93 38
REMARK SMILES IDX 33 39 92 40 34 41 35 42 36 43 86 44 37 45 91 46 85 47 87 48
REMARK SMILES IDX 38 49 90 50 84 51 83 52 39 54 71 55 51 56 70 57 52 58 55 59
REMARK SMILES IDX 69 60 88 61 53 62 54 63 68 65 89 66 56 67 40 68 41 69 49 70
REMARK SMILES IDX 42 71 43 72 47 73 50 74 44 75 45 76 48 77 46 78 72 79 73 80
REMARK SMILES IDX 81 81 74 82 75 83 79 84 82 85 76 86 77 87 80 88 78 89 57 90
REMARK SMILES IDX 58 91 66 92 59 93 60 94 64 95 67 96 61 97 62 98 65 99 63 100
REMARK H PARENT 23 5 3 10 7 15 14 27 28 34 87 53 55 64
REMARK Flexibility Score: inf
ROOT
ATOM      1  C   UNL A   1      31.980  29.656  25.508  1.00  0.00     0.116 C 
ENDROOT
BRANCH   1   2
ATOM      2  N   UNL A   1      33.088  29.711  24.577  1.00  0.00    -0.354 N 
ATOM      3  C   UNL A   1      33.287  28.999  23.432  1.00  0.00     0.242 C 
ATOM      4  O   UNL A   1      34.414  29.004  22.932  1.00  0.00    -0.273 OA
ATOM      5  H   UNL A   1      33.799  30.353  24.803  1.00  0.00     0.163 HD
BRANCH   3   6
ATOM      6  C   UNL A   1      32.212  28.059  22.860  1.00  0.00     0.168 C 
ATOM      7  C   UNL A   1      31.034  28.929  22.424  1.00  0.00     0.041 C 
BRANCH   6   8
ATOM      8  N   UNL A   1      32.654  27.190  21.771  1.00  0.00    -0.343 N 
ATOM      9  C   UNL A   1      32.685  25.824  21.733  1.00  0.00     0.240 C 
ATOM     10  H   UNL A   1      32.971  27.648  20.959  1.00  0.00     0.164 HD
ATOM     11  O   UNL A   1      33.140  25.286  20.722  1.00  0.00    -0.273 OA
BRANCH   9  12
ATOM     12  C   UNL A   1      32.341  25.004  22.979  1.00  0.00     0.218 C 
BRANCH  12  13
ATOM     13  N   UNL A   1      31.846  23.684  22.592  1.00  0.00    -0.329 N 
ATOM     14  C   UNL A   1      32.314  22.469  23.024  1.00  0.00     0.322 C 
ATOM     15  H   UNL A   1      31.097  23.666  21.955  1.00  0.00     0.165 HD
ATOM     16  O   UNL A   1      32.192  21.508  22.272  1.00  0.00    -0.248 OA
BRANCH  14  17
ATOM     17  N   UNL A   1      32.932  22.458  24.255  1.00  0.00    -0.283 N 
ATOM     18  C   UNL A   1      32.179  22.129  25.463  1.00  0.00     0.227 C 
ATOM     19  C   UNL A   1      34.318  22.736  24.445  1.00  0.00     0.070 A 
ATOM     20  C   UNL A   1      32.466  23.077  26.612  1.00  0.00     0.244 C 
ATOM     21  C   UNL A   1      34.701  23.320  25.673  1.00  0.00     0.065 A 
ATOM     22  C   UNL A   1      35.281  22.595  23.443  1.00  0.00     0.028 A 
ATOM     23  O   UNL A   1      31.661  23.290  27.514  1.00  0.00    -0.273 OA
ATOM     24  N   UNL A   1      33.752  23.544  26.684  1.00  0.00    -0.323 N 
ATOM     25  C   UNL A   1      36.004  23.781  25.874  1.00  0.00     0.028 A 
ATOM     26  C   UNL A   1      36.592  23.040  23.655  1.00  0.00     0.002 A 
ATOM     27  H   UNL A   1      34.023  24.057  27.479  1.00  0.00     0.170 HD
ATOM     28  C   UNL A   1      36.949  23.642  24.860  1.00  0.00     0.002 A 
ENDBRANCH  14  17
ENDBRANCH  12  13
ENDBRANCH   9  12
ENDBRANCH   6   8
ENDBRANCH   3   6
ENDBRANCH   1   2
BRANCH   1  29
ATOM     29  C   UNL A   1      31.103  30.902  25.429  1.00  0.00     0.023 C 
BRANCH  29  30
ATOM     30  C   UNL A   1      31.138  31.785  26.681  1.00  0.00     0.023 C 
BRANCH  30  31
ATOM     31  C   UNL A   1      32.472  32.480  26.946  1.00  0.00     0.116 C 
BRANCH  31  32
ATOM     32  N   UNL A   1      32.301  33.870  27.348  1.00  0.00    -0.352 N 
ATOM     33  C   UNL A   1      32.920  34.583  28.341  1.00  0.00     0.251 C 
ATOM     34  H   UNL A   1      31.636  34.375  26.824  1.00  0.00     0.163 HD
ATOM     35  O   UNL A   1      32.485  35.689  28.664  1.00  0.00    -0.269 OA
BRANCH  33  36
ATOM     36  C   UNL A   1      34.102  34.034  29.038  1.00  0.00     0.039 A 
ATOM     37  C   UNL A   1      33.905  33.180  30.126  1.00  0.00     0.014 A 
ATOM     38  C   UNL A   1      35.397  34.390  28.653  1.00  0.00     0.014 A 
ATOM     39  C   UNL A   1      35.006  32.637  30.792  1.00  0.00     0.010 A 
ATOM     40  C   UNL A   1      36.495  33.798  29.276  1.00  0.00     0.010 A 
ATOM     41  C   UNL A   1      36.310  32.919  30.354  1.00  0.00    -0.014 A 
BRANCH  41  42
ATOM     42  C   UNL A   1      37.488  32.302  31.016  1.00  0.00     0.031 A 
ATOM     43  C   UNL A   1      38.224  31.169  30.358  1.00  0.00     0.074 A 
ATOM     44  C   UNL A   1      37.865  32.731  32.236  1.00  0.00     0.049 A 
ATOM     45  N   UNL A   1      39.243  30.475  30.801  1.00  0.00    -0.248 NA
ATOM     46  C   UNL A   1      37.741  30.747  29.035  1.00  0.00     0.031 C 
ATOM     47  C   UNL A   1      37.205  33.791  32.999  1.00  0.00     0.029 A 
ATOM     48  N   UNL A   1      38.888  32.320  33.053  1.00  0.00    -0.354 N 
ATOM     49  C   UNL A   1      39.513  29.531  29.819  1.00  0.00     0.074 A 
ATOM     50  C   UNL A   1      38.523  29.708  28.779  1.00  0.00     0.031 C 
ATOM     51  C   UNL A   1      37.849  33.958  34.166  1.00  0.00     0.029 A 
ATOM     52  C   UNL A   1      38.945  32.996  34.247  1.00  0.00     0.049 A 
ATOM     53  H   UNL A   1      39.522  31.608  32.807  1.00  0.00     0.167 HD
ATOM     54  C   UNL A   1      40.511  28.616  29.779  1.00  0.00     0.037 A 
ATOM     55  C   UNL A   1      39.780  32.852  35.294  1.00  0.00     0.037 A 
ATOM     56  C   UNL A   1      41.506  28.452  30.805  1.00  0.00     0.049 A 
ATOM     57  C   UNL A   1      40.876  31.824  35.225  1.00  0.00     0.074 A 
ATOM     58  C   UNL A   1      42.587  27.586  30.831  1.00  0.00     0.029 A 
ATOM     59  N   UNL A   1      41.542  29.169  31.992  1.00  0.00    -0.354 N 
ATOM     60  N   UNL A   1      41.163  30.982  34.262  1.00  0.00    -0.248 NA
ATOM     61  C   UNL A   1      41.773  31.732  36.387  1.00  0.00     0.031 C 
ATOM     62  C   UNL A   1      43.252  27.751  32.050  1.00  0.00     0.029 A 
ATOM     63  C   UNL A   1      42.614  28.752  32.765  1.00  0.00     0.049 A 
ATOM     64  H   UNL A   1      40.901  29.871  32.248  1.00  0.00     0.167 HD
ATOM     65  C   UNL A   1      42.282  30.281  34.688  1.00  0.00     0.074 A 
ATOM     66  C   UNL A   1      42.634  30.806  35.992  1.00  0.00     0.031 C 
ATOM     67  C   UNL A   1      42.957  29.288  34.057  1.00  0.00     0.037 A 
BRANCH  54  68
ATOM     68  C   UNL A   1      40.579  27.719  28.576  1.00  0.00     0.064 A 
ATOM     69  C   UNL A   1      39.860  26.516  28.516  1.00  0.00     0.173 A 
ATOM     70  C   UNL A   1      41.339  28.085  27.455  1.00  0.00     0.173 A 
ATOM     71  F   UNL A   1      39.126  26.116  29.566  1.00  0.00    -0.203 F 
ATOM     72  C   UNL A   1      39.922  25.699  27.391  1.00  0.00     0.198 A 
ATOM     73  C   UNL A   1      41.375  27.280  26.319  1.00  0.00     0.198 A 
ATOM     74  F   UNL A   1      42.040  29.229  27.456  1.00  0.00    -0.203 F 
ATOM     75  F   UNL A   1      39.262  24.532  27.374  1.00  0.00    -0.200 F 
ATOM     76  C   UNL A   1      40.673  26.085  26.290  1.00  0.00     0.200 A 
ATOM     77  F   UNL A   1      42.090  27.661  25.252  1.00  0.00    -0.200 F 
ATOM     78  F   UNL A   1      40.725  25.301  25.205  1.00  0.00    -0.200 F 
ENDBRANCH  54  68
BRANCH  55  79
ATOM     79  C   UNL A   1      39.625  33.720  36.489  1.00  0.00     0.064 A 
ATOM     80  C   UNL A   1      40.262  34.966  36.562  1.00  0.00     0.173 A 
ATOM     81  C   UNL A   1      38.842  33.321  37.583  1.00  0.00     0.173 A 
ATOM     82  F   UNL A   1      41.038  35.382  35.551  1.00  0.00    -0.203 F 
ATOM     83  C   UNL A   1      40.136  35.772  37.692  1.00  0.00     0.198 A 
ATOM     84  C   UNL A   1      38.695  34.140  38.699  1.00  0.00     0.198 A 
ATOM     85  F   UNL A   1      38.210  32.138  37.560  1.00  0.00    -0.203 F 
ATOM     86  F   UNL A   1      40.791  36.940  37.754  1.00  0.00    -0.200 F 
ATOM     87  C   UNL A   1      39.348  35.361  38.757  1.00  0.00     0.200 A 
ATOM     88  F   UNL A   1      37.922  33.745  39.721  1.00  0.00    -0.200 F 
ATOM     89  F   UNL A   1      39.225  36.139  39.841  1.00  0.00    -0.200 F 
ENDBRANCH  55  79
BRANCH  67  90
ATOM     90  C   UNL A   1      44.163  28.727  34.751  1.00  0.00     0.064 A 
ATOM     91  C   UNL A   1      44.077  27.600  35.581  1.00  0.00     0.173 A 
ATOM     92  C   UNL A   1      45.428  29.302  34.552  1.00  0.00     0.173 A 
ATOM     93  F   UNL A   1      42.888  27.024  35.816  1.00  0.00    -0.203 F 
ATOM     94  C   UNL A   1      45.209  27.082  36.205  1.00  0.00     0.198 A 
ATOM     95  C   UNL A   1      46.561  28.765  35.155  1.00  0.00     0.198 A 
ATOM     96  F   UNL A   1      45.565  30.379  33.763  1.00  0.00    -0.203 F 
ATOM     97  F   UNL A   1      45.097  26.032  37.030  1.00  0.00    -0.200 F 
ATOM     98  C   UNL A   1      46.451  27.661  35.986  1.00  0.00     0.200 A 
ATOM     99  F   UNL A   1      47.762  29.317  34.932  1.00  0.00    -0.200 F 
ATOM    100  F   UNL A   1      47.540  27.157  36.582  1.00  0.00    -0.200 F 
ENDBRANCH  67  90
ENDBRANCH  41  42
ENDBRANCH  33  36
ENDBRANCH  31  32
ENDBRANCH  30  31
ENDBRANCH  29  30
ENDBRANCH   1  29
TORSDOF 15
ENDMDL
MODEL 3
REMARK VINA RESULT:     -12.8      4.922      9.378
REMARK SMILES C[C@@H](NC(=O)CNC(=O)N1CC(=O)Nc2ccccc21)C(=O)NCCCCNC(=O)c1ccc(-c2c3nc(c(-c4c(F)c(F)c(F)c(F)c4F)c4ccc([nH]4)c(-c4c(F)c(F)c(F)c(F)c4F)c4nc(c(-c5c(F)c(F)c(F)c(F)c5F)c5ccc2[nH]5)C=C4)C=C3)cc1
REMARK SMILES IDX 24 1 23 2 21 3 22 4 2 6 1 7 3 8 4 9 5 11 6 12 7 13 8 14 9 16
REMARK SMILES IDX 10 17 11 18 20 19 12 20 15 21 19 22 13 23 14 24 16 25 18 26
REMARK SMILES IDX 17 28 25 29 26 30 27 31 28 32 29 33 30 35 31 36 32 37 93 38
REMARK SMILES IDX 33 39 92 40 34 41 35 42 36 43 86 44 37 45 91 46 85 47 87 48
REMARK SMILES IDX 38 49 90 50 84 51 83 52 39 54 71 55 51 56 70 57 52 58 55 59
REMARK SMILES IDX 69 60 88 61 53 62 54 63 68 65 89 66 56 67 40 68 41 69 49 70
REMARK SMILES IDX 42 71 43 72 47 73 50 74 44 75 45 76 48 77 46 78 72 79 73 80
REMARK SMILES IDX 81 81 74 82 75 83 79 84 82 85 76 86 77 87 80 88 78 89 57 90
REMARK SMILES IDX 58 91 66 92 59 93 60 94 64 95 67 96 61 97 62 98 65 99 63 100
REMARK H PARENT 23 5 3 10 7 15 14 27 28 34 87 53 55 64
REMARK Flexibility Score: inf
ROOT
ATOM      1  C   UNL A   1      32.122  29.646  25.551  1.00  0.00     0.116 C 
ENDROOT
BRANCH   1   2
ATOM      2  N   UNL A   1      33.163  29.694  24.546  1.00  0.00    -0.354 N 
ATOM      3  C   UNL A   1      33.303  28.949  23.413  1.00  0.00     0.242 C 
ATOM      4  O   UNL A   1      34.393  28.963  22.838  1.00  0.00    -0.273 OA
ATOM      5  H   UNL A   1      33.871  30.360  24.703  1.00  0.00     0.163 HD
BRANCH   3   6
ATOM      6  C   UNL A   1      32.215  27.967  22.945  1.00  0.00     0.168 C 
ATOM      7  C   UNL A   1      31.039  28.800  22.439  1.00  0.00     0.041 C 
BRANCH   6   8
ATOM      8  N   UNL A   1      32.639  26.993  21.942  1.00  0.00    -0.343 N 
ATOM      9  C   UNL A   1      32.420  25.645  21.921  1.00  0.00     0.240 C 
ATOM     10  H   UNL A   1      33.151  27.356  21.182  1.00  0.00     0.164 HD
ATOM     11  O   UNL A   1      32.908  24.996  20.993  1.00  0.00    -0.273 OA
BRANCH   9  12
ATOM     12  C   UNL A   1      31.753  24.947  23.108  1.00  0.00     0.218 C 
BRANCH  12  13
ATOM     13  N   UNL A   1      31.369  23.585  22.742  1.00  0.00    -0.329 N 
ATOM     14  C   UNL A   1      31.956  22.420  23.166  1.00  0.00     0.322 C 
ATOM     15  H   UNL A   1      30.607  23.495  22.125  1.00  0.00     0.165 HD
ATOM     16  O   UNL A   1      31.901  21.447  22.422  1.00  0.00    -0.248 OA
BRANCH  14  17
ATOM     17  N   UNL A   1      32.606  22.474  24.379  1.00  0.00    -0.283 N 
ATOM     18  C   UNL A   1      31.885  22.204  25.622  1.00  0.00     0.227 C 
ATOM     19  C   UNL A   1      33.995  22.765  24.520  1.00  0.00     0.070 A 
ATOM     20  C   UNL A   1      32.198  23.210  26.713  1.00  0.00     0.244 C 
ATOM     21  C   UNL A   1      34.407  23.412  25.706  1.00  0.00     0.065 A 
ATOM     22  C   UNL A   1      34.933  22.577  23.501  1.00  0.00     0.028 A 
ATOM     23  O   UNL A   1      31.415  23.465  27.624  1.00  0.00    -0.273 OA
ATOM     24  N   UNL A   1      33.483  23.684  26.729  1.00  0.00    -0.323 N 
ATOM     25  C   UNL A   1      35.712  23.888  25.850  1.00  0.00     0.028 A 
ATOM     26  C   UNL A   1      36.246  23.037  23.656  1.00  0.00     0.002 A 
ATOM     27  H   UNL A   1      33.772  24.238  27.489  1.00  0.00     0.170 HD
ATOM     28  C   UNL A   1      36.631  23.701  24.820  1.00  0.00     0.002 A 
ENDBRANCH  14  17
ENDBRANCH  12  13
ENDBRANCH   9  12
ENDBRANCH   6   8
ENDBRANCH   3   6
ENDBRANCH   1   2
BRANCH   1  29
ATOM     29  C   UNL A   1      31.168  30.833  25.447  1.00  0.00     0.023 C 
BRANCH  29  30
ATOM     30  C   UNL A   1      31.222  31.799  26.634  1.00  0.00     0.023 C 
BRANCH  30  31
ATOM     31  C   UNL A   1      32.581  32.454  26.876  1.00  0.00     0.116 C 
BRANCH  31  32
ATOM     32  N   UNL A   1      32.456  33.827  27.346  1.00  0.00    -0.352 N 
ATOM     33  C   UNL A   1      33.098  34.468  28.374  1.00  0.00     0.251 C 
ATOM     34  H   UNL A   1      31.811  34.380  26.848  1.00  0.00     0.163 HD
ATOM     35  O   UNL A   1      32.700  35.570  28.752  1.00  0.00    -0.269 OA
BRANCH  33  36
ATOM     36  C   UNL A   1      34.258  33.844  29.044  1.00  0.00     0.039 A 
ATOM     37  C   UNL A   1      34.028  32.896  30.045  1.00  0.00     0.014 A 
ATOM     38  C   UNL A   1      35.565  34.219  28.722  1.00  0.00     0.014 A 
ATOM     39  C   UNL A   1      35.109  32.283  30.682  1.00  0.00     0.010 A 
ATOM     40  C   UNL A   1      36.643  33.560  29.313  1.00  0.00     0.010 A 
ATOM     41  C   UNL A   1      36.425  32.589  30.301  1.00  0.00    -0.014 A 
BRANCH  41  42
ATOM     42  C   UNL A   1      37.582  31.901  30.930  1.00  0.00     0.031 A 
ATOM     43  C   UNL A   1      38.045  32.294  32.305  1.00  0.00     0.074 A 
ATOM     44  C   UNL A   1      38.247  30.954  30.241  1.00  0.00     0.049 A 
ATOM     45  N   UNL A   1      39.061  31.842  32.997  1.00  0.00    -0.248 NA
ATOM     46  C   UNL A   1      37.278  33.348  32.985  1.00  0.00     0.031 C 
ATOM     47  C   UNL A   1      37.924  30.516  28.883  1.00  0.00     0.029 A 
ATOM     48  N   UNL A   1      39.339  30.197  30.585  1.00  0.00    -0.354 N 
ATOM     49  C   UNL A   1      39.060  32.561  34.185  1.00  0.00     0.074 A 
ATOM     50  C   UNL A   1      37.974  33.514  34.100  1.00  0.00     0.031 C 
ATOM     51  C   UNL A   1      38.788  29.557  28.514  1.00  0.00     0.029 A 
ATOM     52  C   UNL A   1      39.745  29.336  29.595  1.00  0.00     0.049 A 
ATOM     53  H   UNL A   1      39.788  30.265  31.458  1.00  0.00     0.167 HD
ATOM     54  C   UNL A   1      39.876  32.424  35.257  1.00  0.00     0.037 A 
ATOM     55  C   UNL A   1      40.777  28.471  29.559  1.00  0.00     0.037 A 
ATOM     56  C   UNL A   1      40.945  31.464  35.347  1.00  0.00     0.049 A 
ATOM     57  C   UNL A   1      41.672  28.342  30.761  1.00  0.00     0.074 A 
ATOM     58  C   UNL A   1      41.795  31.215  36.412  1.00  0.00     0.029 A 
ATOM     59  N   UNL A   1      41.315  30.595  34.331  1.00  0.00    -0.354 N 
ATOM     60  N   UNL A   1      41.621  28.982  31.905  1.00  0.00    -0.248 NA
ATOM     61  C   UNL A   1      42.765  27.363  30.672  1.00  0.00     0.031 C 
ATOM     62  C   UNL A   1      42.703  30.224  36.025  1.00  0.00     0.029 A 
ATOM     63  C   UNL A   1      42.391  29.822  34.737  1.00  0.00     0.049 A 
ATOM     64  H   UNL A   1      40.876  30.536  33.451  1.00  0.00     0.167 HD
ATOM     65  C   UNL A   1      42.653  28.468  32.677  1.00  0.00     0.074 A 
ATOM     66  C   UNL A   1      43.306  27.451  31.879  1.00  0.00     0.031 C 
ATOM     67  C   UNL A   1      43.027  28.809  33.935  1.00  0.00     0.037 A 
BRANCH  54  68
ATOM     68  C   UNL A   1      39.640  33.334  36.427  1.00  0.00     0.064 A 
ATOM     69  C   UNL A   1      40.264  34.588  36.519  1.00  0.00     0.173 A 
ATOM     70  C   UNL A   1      38.750  32.968  37.449  1.00  0.00     0.173 A 
ATOM     71  F   UNL A   1      41.131  34.981  35.574  1.00  0.00    -0.203 F 
ATOM     72  C   UNL A   1      40.027  35.428  37.604  1.00  0.00     0.198 A 
ATOM     73  C   UNL A   1      38.493  33.823  38.517  1.00  0.00     0.198 A 
ATOM     74  F   UNL A   1      38.122  31.783  37.407  1.00  0.00    -0.203 F 
ATOM     75  F   UNL A   1      40.669  36.601  37.693  1.00  0.00    -0.200 F 
ATOM     76  C   UNL A   1      39.137  35.049  38.598  1.00  0.00     0.200 A 
ATOM     77  F   UNL A   1      37.623  33.461  39.469  1.00  0.00    -0.200 F 
ATOM     78  F   UNL A   1      38.905  35.862  39.637  1.00  0.00    -0.200 F 
ENDBRANCH  54  68
BRANCH  55  79
ATOM     79  C   UNL A   1      41.007  27.644  28.348  1.00  0.00     0.064 A 
ATOM     80  C   UNL A   1      40.356  26.413  28.182  1.00  0.00     0.173 A 
ATOM     81  C   UNL A   1      41.883  28.062  27.335  1.00  0.00     0.173 A 
ATOM     82  F   UNL A   1      39.527  25.961  29.133  1.00  0.00    -0.203 F 
ATOM     83  C   UNL A   1      40.587  25.624  27.057  1.00  0.00     0.198 A 
ATOM     84  C   UNL A   1      42.091  27.285  26.198  1.00  0.00     0.198 A 
ATOM     85  F   UNL A   1      42.527  29.233  27.445  1.00  0.00    -0.203 F 
ATOM     86  F   UNL A   1      39.986  24.432  26.944  1.00  0.00    -0.200 F 
ATOM     87  C   UNL A   1      41.450  26.063  26.063  1.00  0.00     0.200 A 
ATOM     88  F   UNL A   1      42.915  27.718  25.234  1.00  0.00    -0.200 F 
ATOM     89  F   UNL A   1      41.668  25.305  24.980  1.00  0.00    -0.200 F 
ENDBRANCH  55  79
BRANCH  67  90
ATOM     90  C   UNL A   1      44.175  28.055  34.539  1.00  0.00     0.064 A 
ATOM     91  C   UNL A   1      43.983  26.848  35.226  1.00  0.00     0.173 A 
ATOM     92  C   UNL A   1      45.489  28.527  34.394  1.00  0.00     0.173 A 
ATOM     93  F   UNL A   1      42.744  26.363  35.405  1.00  0.00    -0.203 F 
ATOM     94  C   UNL A   1      45.061  26.152  35.766  1.00  0.00     0.198 A 
ATOM     95  C   UNL A   1      46.567  27.815  34.911  1.00  0.00     0.198 A 
ATOM     96  F   UNL A   1      45.727  29.675  33.740  1.00  0.00    -0.203 F 
ATOM     97  F   UNL A   1      44.849  25.024  36.458  1.00  0.00    -0.200 F 
ATOM     98  C   UNL A   1      46.352  26.633  35.602  1.00  0.00     0.200 A 
ATOM     99  F   UNL A   1      47.814  28.273  34.741  1.00  0.00    -0.200 F 
ATOM    100  F   UNL A   1      47.388  25.958  36.118  1.00  0.00    -0.200 F 
ENDBRANCH  67  90
ENDBRANCH  41  42
ENDBRANCH  33  36
ENDBRANCH  31  32
ENDBRANCH  30  31
ENDBRANCH  29  30
ENDBRANCH   1  29
TORSDOF 15
ENDMDL
