MODEL 1
REMARK VINA RESULT:     -13.6      0.000      0.000
REMARK SMILES Cc1ccc(C(F)(F)F)cc1-c1ccc(/C=C/C(=O)NCCCCNC(=O)c2ccc(-c3c4nc(c(-c5c(F)c(F)c(F)c(F)c5F)c5ccc([nH]5)c(-c5c(F)c(F)c(F)c(F)c5F)c5nc(c(-c6c(F)c(F)c(F)c(F)c6F)c6ccc3[nH]6)C=C5)C=C4)cc2)s1
REMARK SMILES IDX 22 1 21 2 20 3 18 4 19 5 17 7 16 8 15 9 12 10 13 11 91 12
REMARK SMILES IDX 14 13 11 14 1 15 2 16 3 17 4 18 10 19 5 20 6 21 7 22 8 23
REMARK SMILES IDX 9 24 23 25 24 26 25 27 26 28 27 30 28 31 29 32 90 33 30 34
REMARK SMILES IDX 89 35 31 36 32 37 33 38 83 39 34 40 88 41 82 42 84 43 35 44
REMARK SMILES IDX 87 45 81 46 80 47 36 49 68 50 48 51 67 52 49 53 52 54 66 55
REMARK SMILES IDX 85 56 50 57 51 58 65 60 86 61 53 62 37 63 38 64 46 65 39 66
REMARK SMILES IDX 40 67 44 68 47 69 41 70 42 71 45 72 43 73 69 74 70 75 78 76
REMARK SMILES IDX 71 77 72 78 76 79 79 80 73 81 74 82 77 83 75 84 54 85 55 86
REMARK SMILES IDX 63 87 56 88 57 89 61 90 64 91 58 92 59 93 62 94 60 95
REMARK H PARENT 20 6 25 29 84 48 52 59
REMARK Flexibility Score: inf
ROOT
ATOM      1  C   UNL A   1      32.274  30.096  25.487  1.00  0.00     0.023 C 
ENDROOT
BRANCH   1   2
ATOM      2  C   UNL A   1      30.804  30.027  25.043  1.00  0.00     0.116 C 
BRANCH   2   3
ATOM      3  N   UNL A   1      30.658  29.720  23.627  1.00  0.00    -0.353 N 
ATOM      4  C   UNL A   1      30.784  28.547  22.947  1.00  0.00     0.244 C 
ATOM      5  O   UNL A   1      30.460  28.499  21.763  1.00  0.00    -0.270 OA
ATOM      6  H   UNL A   1      30.429  30.495  23.065  1.00  0.00     0.163 HD
BRANCH   4   7
ATOM      7  C   UNL A   1      31.229  27.312  23.629  1.00  0.00     0.072 C 
ATOM      8  C   UNL A   1      32.521  27.032  23.837  1.00  0.00     0.024 C 
BRANCH   8   9
ATOM      9  C   UNL A   1      32.986  25.869  24.507  1.00  0.00     0.028 A 
ATOM     10  C   UNL A   1      34.087  23.740  25.151  1.00  0.00     0.035 A 
ATOM     11  C   UNL A   1      33.621  24.435  26.245  1.00  0.00     0.021 A 
ATOM     12  S   UNL A   1      33.705  24.542  23.687  1.00  0.00    -0.136 S 
ATOM     13  C   UNL A   1      32.997  25.658  25.875  1.00  0.00     0.020 A 
BRANCH  10  14
ATOM     14  C   UNL A   1      34.840  22.482  25.122  1.00  0.00    -0.005 A 
ATOM     15  C   UNL A   1      37.080  23.663  25.513  1.00  0.00     0.045 C 
ATOM     16  C   UNL A   1      36.240  22.438  25.272  1.00  0.00    -0.042 A 
ATOM     17  C   UNL A   1      36.897  21.202  25.152  1.00  0.00     0.005 A 
ATOM     18  C   UNL A   1      36.183  20.025  24.915  1.00  0.00     0.013 A 
ATOM     19  C   UNL A   1      34.133  21.289  24.885  1.00  0.00     0.023 A 
ATOM     20  C   UNL A   1      34.791  20.055  24.786  1.00  0.00     0.056 A 
BRANCH  20  21
ATOM     21  C   UNL A   1      34.024  18.783  24.528  1.00  0.00     0.416 C 
ATOM     22  F   UNL A   1      34.839  17.747  24.181  1.00  0.00    -0.166 F 
ATOM     23  F   UNL A   1      33.330  18.361  25.622  1.00  0.00    -0.166 F 
ATOM     24  F   UNL A   1      33.110  18.888  23.523  1.00  0.00    -0.166 F 
ENDBRANCH  20  21
ENDBRANCH  10  14
ENDBRANCH   8   9
ENDBRANCH   4   7
ENDBRANCH   2   3
ENDBRANCH   1   2
BRANCH   1  25
ATOM     25  C   UNL A   1      32.529  30.956  26.729  1.00  0.00     0.023 C 
BRANCH  25  26
ATOM     26  C   UNL A   1      33.624  30.412  27.630  1.00  0.00     0.116 C 
BRANCH  26  27
ATOM     27  N   UNL A   1      34.309  31.422  28.441  1.00  0.00    -0.352 N 
ATOM     28  C   UNL A   1      35.502  31.331  29.126  1.00  0.00     0.251 C 
ATOM     29  H   UNL A   1      33.850  32.291  28.505  1.00  0.00     0.163 HD
ATOM     30  O   UNL A   1      35.898  32.257  29.809  1.00  0.00    -0.269 OA
BRANCH  28  31
ATOM     31  C   UNL A   1      36.372  30.142  28.915  1.00  0.00     0.039 A 
ATOM     32  C   UNL A   1      36.653  29.329  30.021  1.00  0.00     0.014 A 
ATOM     33  C   UNL A   1      37.065  29.965  27.719  1.00  0.00     0.014 A 
ATOM     34  C   UNL A   1      37.796  28.534  30.005  1.00  0.00     0.010 A 
ATOM     35  C   UNL A   1      38.252  29.260  27.741  1.00  0.00     0.010 A 
ATOM     36  C   UNL A   1      38.656  28.609  28.910  1.00  0.00    -0.014 A 
BRANCH  36  37
ATOM     37  C   UNL A   1      40.048  28.175  28.958  1.00  0.00     0.031 A 
ATOM     38  C   UNL A   1      40.434  26.806  28.560  1.00  0.00     0.074 A 
ATOM     39  C   UNL A   1      41.009  29.066  29.293  1.00  0.00     0.049 A 
ATOM     40  N   UNL A   1      41.552  26.257  28.897  1.00  0.00    -0.248 NA
ATOM     41  C   UNL A   1      39.559  25.901  27.821  1.00  0.00     0.031 C 
ATOM     42  C   UNL A   1      42.451  28.928  29.097  1.00  0.00     0.029 A 
ATOM     43  N   UNL A   1      40.879  30.218  30.090  1.00  0.00    -0.354 N 
ATOM     44  C   UNL A   1      41.683  25.095  28.178  1.00  0.00     0.074 A 
ATOM     45  C   UNL A   1      40.363  24.843  27.659  1.00  0.00     0.031 C 
ATOM     46  C   UNL A   1      43.087  29.725  29.966  1.00  0.00     0.029 A 
ATOM     47  C   UNL A   1      42.077  30.293  30.839  1.00  0.00     0.049 A 
ATOM     48  H   UNL A   1      40.116  30.841  30.121  1.00  0.00     0.167 HD
ATOM     49  C   UNL A   1      42.934  24.580  28.001  1.00  0.00     0.037 A 
ATOM     50  C   UNL A   1      42.090  30.218  32.200  1.00  0.00     0.037 A 
ATOM     51  C   UNL A   1      43.900  25.228  28.895  1.00  0.00     0.049 A 
ATOM     52  C   UNL A   1      42.961  29.119  32.759  1.00  0.00     0.074 A 
ATOM     53  C   UNL A   1      44.957  26.099  28.698  1.00  0.00     0.029 A 
ATOM     54  N   UNL A   1      43.696  25.162  30.271  1.00  0.00    -0.354 N 
ATOM     55  N   UNL A   1      43.389  28.104  32.063  1.00  0.00    -0.248 NA
ATOM     56  C   UNL A   1      43.384  29.055  34.154  1.00  0.00     0.031 C 
ATOM     57  C   UNL A   1      45.372  26.579  29.969  1.00  0.00     0.029 A 
ATOM     58  C   UNL A   1      44.583  25.981  30.938  1.00  0.00     0.049 A 
ATOM     59  H   UNL A   1      43.012  24.606  30.709  1.00  0.00     0.167 HD
ATOM     60  C   UNL A   1      44.087  27.245  32.877  1.00  0.00     0.074 A 
ATOM     61  C   UNL A   1      44.083  27.906  34.168  1.00  0.00     0.031 C 
ATOM     62  C   UNL A   1      44.573  26.060  32.395  1.00  0.00     0.037 A 
BRANCH  49  63
ATOM     63  C   UNL A   1      43.366  23.632  26.888  1.00  0.00     0.064 A 
ATOM     64  C   UNL A   1      43.004  22.264  26.944  1.00  0.00     0.173 A 
ATOM     65  C   UNL A   1      44.229  23.953  25.819  1.00  0.00     0.173 A 
ATOM     66  F   UNL A   1      42.170  21.799  27.884  1.00  0.00    -0.203 F 
ATOM     67  C   UNL A   1      43.499  21.309  26.046  1.00  0.00     0.198 A 
ATOM     68  C   UNL A   1      44.687  23.007  24.896  1.00  0.00     0.198 A 
ATOM     69  F   UNL A   1      44.717  25.180  25.632  1.00  0.00    -0.203 F 
ATOM     70  F   UNL A   1      43.169  20.019  26.195  1.00  0.00    -0.200 F 
ATOM     71  C   UNL A   1      44.339  21.682  25.019  1.00  0.00     0.200 A 
ATOM     72  F   UNL A   1      45.497  23.397  23.900  1.00  0.00    -0.200 F 
ATOM     73  F   UNL A   1      44.820  20.772  24.161  1.00  0.00    -0.200 F 
ENDBRANCH  49  63
BRANCH  50  74
ATOM     74  C   UNL A   1      40.846  30.723  32.829  1.00  0.00     0.064 A 
ATOM     75  C   UNL A   1      40.631  32.113  32.863  1.00  0.00     0.173 A 
ATOM     76  C   UNL A   1      39.738  29.890  33.028  1.00  0.00     0.173 A 
ATOM     77  F   UNL A   1      41.660  32.954  32.670  1.00  0.00    -0.203 F 
ATOM     78  C   UNL A   1      39.350  32.647  32.972  1.00  0.00     0.198 A 
ATOM     79  C   UNL A   1      38.456  30.429  33.150  1.00  0.00     0.198 A 
ATOM     80  F   UNL A   1      39.874  28.557  32.982  1.00  0.00    -0.203 F 
ATOM     81  F   UNL A   1      39.168  33.972  32.882  1.00  0.00    -0.200 F 
ATOM     82  C   UNL A   1      38.259  31.802  33.088  1.00  0.00     0.200 A 
ATOM     83  F   UNL A   1      37.396  29.612  33.228  1.00  0.00    -0.200 F 
ATOM     84  F   UNL A   1      37.017  32.306  33.093  1.00  0.00    -0.200 F 
ENDBRANCH  50  74
BRANCH  62  85
ATOM     85  C   UNL A   1      45.142  24.888  33.185  1.00  0.00     0.064 A 
ATOM     86  C   UNL A   1      44.463  23.689  33.463  1.00  0.00     0.173 A 
ATOM     87  C   UNL A   1      46.504  24.901  33.598  1.00  0.00     0.173 A 
ATOM     88  F   UNL A   1      43.218  23.468  33.030  1.00  0.00    -0.203 F 
ATOM     89  C   UNL A   1      45.068  22.626  34.146  1.00  0.00     0.198 A 
ATOM     90  C   UNL A   1      47.120  23.817  34.224  1.00  0.00     0.198 A 
ATOM     91  F   UNL A   1      47.298  25.958  33.381  1.00  0.00    -0.203 F 
ATOM     92  F   UNL A   1      44.353  21.523  34.417  1.00  0.00    -0.200 F 
ATOM     93  C   UNL A   1      46.397  22.683  34.514  1.00  0.00     0.200 A 
ATOM     94  F   UNL A   1      48.426  23.875  34.523  1.00  0.00    -0.200 F 
ATOM     95  F   UNL A   1      46.982  21.643  35.123  1.00  0.00    -0.200 F 
ENDBRANCH  62  85
ENDBRANCH  36  37
ENDBRANCH  28  31
ENDBRANCH  26  27
ENDBRANCH  25  26
ENDBRANCH   1  25
TORSDOF 14
ENDMDL
MODEL 2
REMARK VINA RESULT:     -13.5      4.529     10.450
REMARK SMILES Cc1ccc(C(F)(F)F)cc1-c1ccc(/C=C/C(=O)NCCCCNC(=O)c2ccc(-c3c4nc(c(-c5c(F)c(F)c(F)c(F)c5F)c5ccc([nH]5)c(-c5c(F)c(F)c(F)c(F)c5F)c5nc(c(-c6c(F)c(F)c(F)c(F)c6F)c6ccc3[nH]6)C=C5)C=C4)cc2)s1
REMARK SMILES IDX 22 1 21 2 20 3 18 4 19 5 17 7 16 8 15 9 12 10 13 11 91 12
REMARK SMILES IDX 14 13 11 14 1 15 2 16 3 17 4 18 10 19 5 20 6 21 7 22 8 23
REMARK SMILES IDX 9 24 23 25 24 26 25 27 26 28 27 30 28 31 29 32 90 33 30 34
REMARK SMILES IDX 89 35 31 36 32 37 33 38 83 39 34 40 88 41 82 42 84 43 35 44
REMARK SMILES IDX 87 45 81 46 80 47 36 49 68 50 48 51 67 52 49 53 52 54 66 55
REMARK SMILES IDX 85 56 50 57 51 58 65 60 86 61 53 62 37 63 38 64 46 65 39 66
REMARK SMILES IDX 40 67 44 68 47 69 41 70 42 71 45 72 43 73 69 74 70 75 78 76
REMARK SMILES IDX 71 77 72 78 76 79 79 80 73 81 74 82 77 83 75 84 54 85 55 86
REMARK SMILES IDX 63 87 56 88 57 89 61 90 64 91 58 92 59 93 62 94 60 95
REMARK H PARENT 20 6 25 29 84 48 52 59
REMARK Flexibility Score: inf
ROOT
ATOM      1  C   UNL A   1      36.902  20.966  25.009  1.00  0.00     0.023 C 
ENDROOT
BRANCH   1   2
ATOM      2  C   UNL A   1      35.606  21.023  25.834  1.00  0.00     0.116 C 
BRANCH   2   3
ATOM      3  N   UNL A   1      34.541  20.210  25.265  1.00  0.00    -0.353 N 
ATOM      4  C   UNL A   1      33.563  20.516  24.366  1.00  0.00     0.244 C 
ATOM      5  O   UNL A   1      32.861  19.617  23.910  1.00  0.00    -0.270 OA
ATOM      6  H   UNL A   1      34.524  19.279  25.585  1.00  0.00     0.163 HD
BRANCH   4   7
ATOM      7  C   UNL A   1      33.386  21.899  23.871  1.00  0.00     0.072 C 
ATOM      8  C   UNL A   1      32.181  22.470  23.753  1.00  0.00     0.024 C 
BRANCH   8   9
ATOM      9  C   UNL A   1      31.973  23.801  23.302  1.00  0.00     0.028 A 
ATOM     10  C   UNL A   1      31.422  26.212  23.088  1.00  0.00     0.035 A 
ATOM     11  C   UNL A   1      32.218  25.767  22.056  1.00  0.00     0.021 A 
ATOM     12  S   UNL A   1      31.018  24.941  24.161  1.00  0.00    -0.136 S 
ATOM     13  C   UNL A   1      32.540  24.388  22.184  1.00  0.00     0.020 A 
BRANCH  10  14
ATOM     14  C   UNL A   1      30.939  27.571  23.347  1.00  0.00    -0.005 A 
ATOM     15  C   UNL A   1      33.041  28.207  24.666  1.00  0.00     0.045 C 
ATOM     16  C   UNL A   1      31.679  28.505  24.098  1.00  0.00    -0.042 A 
ATOM     17  C   UNL A   1      31.112  29.761  24.371  1.00  0.00     0.005 A 
ATOM     18  C   UNL A   1      29.847  30.101  23.888  1.00  0.00     0.013 A 
ATOM     19  C   UNL A   1      29.665  27.928  22.864  1.00  0.00     0.023 A 
ATOM     20  C   UNL A   1      29.112  29.190  23.122  1.00  0.00     0.056 A 
BRANCH  20  21
ATOM     21  C   UNL A   1      27.745  29.560  22.604  1.00  0.00     0.416 C 
ATOM     22  F   UNL A   1      27.299  30.742  23.116  1.00  0.00    -0.166 F 
ATOM     23  F   UNL A   1      27.723  29.708  21.250  1.00  0.00    -0.166 F 
ATOM     24  F   UNL A   1      26.781  28.643  22.895  1.00  0.00    -0.166 F 
ENDBRANCH  20  21
ENDBRANCH  10  14
ENDBRANCH   8   9
ENDBRANCH   4   7
ENDBRANCH   2   3
ENDBRANCH   1   2
BRANCH   1  25
ATOM     25  C   UNL A   1      37.403  22.324  24.507  1.00  0.00     0.023 C 
BRANCH  25  26
ATOM     26  C   UNL A   1      37.857  23.253  25.621  1.00  0.00     0.116 C 
BRANCH  26  27
ATOM     27  N   UNL A   1      39.157  22.917  26.208  1.00  0.00    -0.352 N 
ATOM     28  C   UNL A   1      40.042  23.723  26.892  1.00  0.00     0.251 C 
ATOM     29  H   UNL A   1      39.438  21.980  26.098  1.00  0.00     0.163 HD
ATOM     30  O   UNL A   1      41.118  23.291  27.260  1.00  0.00    -0.269 OA
BRANCH  28  31
ATOM     31  C   UNL A   1      39.614  25.090  27.297  1.00  0.00     0.039 A 
ATOM     32  C   UNL A   1      40.064  26.173  26.531  1.00  0.00     0.014 A 
ATOM     33  C   UNL A   1      38.981  25.309  28.519  1.00  0.00     0.014 A 
ATOM     34  C   UNL A   1      40.114  27.438  27.109  1.00  0.00     0.010 A 
ATOM     35  C   UNL A   1      39.127  26.539  29.128  1.00  0.00     0.010 A 
ATOM     36  C   UNL A   1      39.765  27.582  28.451  1.00  0.00    -0.014 A 
BRANCH  36  37
ATOM     37  C   UNL A   1      40.172  28.725  29.262  1.00  0.00     0.031 A 
ATOM     38  C   UNL A   1      39.222  29.811  29.580  1.00  0.00     0.074 A 
ATOM     39  C   UNL A   1      41.412  28.747  29.802  1.00  0.00     0.049 A 
ATOM     40  N   UNL A   1      39.591  30.981  29.980  1.00  0.00    -0.248 NA
ATOM     41  C   UNL A   1      37.779  29.705  29.391  1.00  0.00     0.031 C 
ATOM     42  C   UNL A   1      41.895  29.615  30.875  1.00  0.00     0.029 A 
ATOM     43  N   UNL A   1      42.572  28.110  29.325  1.00  0.00    -0.354 N 
ATOM     44  C   UNL A   1      38.470  31.654  30.398  1.00  0.00     0.074 A 
ATOM     45  C   UNL A   1      37.372  30.890  29.864  1.00  0.00     0.031 C 
ATOM     46  C   UNL A   1      43.230  29.707  30.792  1.00  0.00     0.029 A 
ATOM     47  C   UNL A   1      43.629  29.016  29.582  1.00  0.00     0.049 A 
ATOM     48  H   UNL A   1      42.637  27.222  28.903  1.00  0.00     0.167 HD
ATOM     49  C   UNL A   1      38.624  32.694  31.268  1.00  0.00     0.037 A 
ATOM     50  C   UNL A   1      44.377  29.561  28.581  1.00  0.00     0.037 A 
ATOM     51  C   UNL A   1      40.031  33.096  31.360  1.00  0.00     0.049 A 
ATOM     52  C   UNL A   1      44.395  31.071  28.563  1.00  0.00     0.074 A 
ATOM     53  C   UNL A   1      40.995  33.000  32.348  1.00  0.00     0.029 A 
ATOM     54  N   UNL A   1      40.692  33.515  30.208  1.00  0.00    -0.354 N 
ATOM     55  N   UNL A   1      43.525  31.816  29.185  1.00  0.00    -0.248 NA
ATOM     56  C   UNL A   1      45.364  31.859  27.811  1.00  0.00     0.031 C 
ATOM     57  C   UNL A   1      42.249  33.340  31.773  1.00  0.00     0.029 A 
ATOM     58  C   UNL A   1      42.042  33.665  30.442  1.00  0.00     0.049 A 
ATOM     59  H   UNL A   1      40.253  33.682  29.342  1.00  0.00     0.167 HD
ATOM     60  C   UNL A   1      43.765  33.140  28.907  1.00  0.00     0.074 A 
ATOM     61  C   UNL A   1      44.950  33.111  28.070  1.00  0.00     0.031 C 
ATOM     62  C   UNL A   1      42.937  34.120  29.382  1.00  0.00     0.037 A 
BRANCH  49  63
ATOM     63  C   UNL A   1      37.559  33.244  32.209  1.00  0.00     0.064 A 
ATOM     64  C   UNL A   1      36.501  34.034  31.696  1.00  0.00     0.173 A 
ATOM     65  C   UNL A   1      37.574  33.152  33.616  1.00  0.00     0.173 A 
ATOM     66  F   UNL A   1      36.330  34.202  30.377  1.00  0.00    -0.203 F 
ATOM     67  C   UNL A   1      35.583  34.703  32.517  1.00  0.00     0.198 A 
ATOM     68  C   UNL A   1      36.630  33.783  34.434  1.00  0.00     0.198 A 
ATOM     69  F   UNL A   1      38.521  32.492  34.284  1.00  0.00    -0.203 F 
ATOM     70  F   UNL A   1      34.647  35.488  31.968  1.00  0.00    -0.200 F 
ATOM     71  C   UNL A   1      35.646  34.573  33.888  1.00  0.00     0.200 A 
ATOM     72  F   UNL A   1      36.708  33.635  35.765  1.00  0.00    -0.200 F 
ATOM     73  F   UNL A   1      34.775  35.216  34.678  1.00  0.00    -0.200 F 
ENDBRANCH  49  63
BRANCH  50  74
ATOM     74  C   UNL A   1      44.482  28.693  27.383  1.00  0.00     0.064 A 
ATOM     75  C   UNL A   1      45.326  27.569  27.445  1.00  0.00     0.173 A 
ATOM     76  C   UNL A   1      43.514  28.724  26.373  1.00  0.00     0.173 A 
ATOM     77  F   UNL A   1      46.265  27.489  28.401  1.00  0.00    -0.203 F 
ATOM     78  C   UNL A   1      45.133  26.471  26.610  1.00  0.00     0.198 A 
ATOM     79  C   UNL A   1      43.332  27.627  25.528  1.00  0.00     0.198 A 
ATOM     80  F   UNL A   1      42.665  29.757  26.277  1.00  0.00    -0.203 F 
ATOM     81  F   UNL A   1      45.877  25.369  26.774  1.00  0.00    -0.200 F 
ATOM     82  C   UNL A   1      44.117  26.491  25.670  1.00  0.00     0.200 A 
ATOM     83  F   UNL A   1      42.327  27.630  24.641  1.00  0.00    -0.200 F 
ATOM     84  F   UNL A   1      43.864  25.400  24.933  1.00  0.00    -0.200 F 
ENDBRANCH  50  74
BRANCH  62  85
ATOM     85  C   UNL A   1      42.896  35.589  28.984  1.00  0.00     0.064 A 
ATOM     86  C   UNL A   1      42.207  36.112  27.876  1.00  0.00     0.173 A 
ATOM     87  C   UNL A   1      43.483  36.573  29.828  1.00  0.00     0.173 A 
ATOM     88  F   UNL A   1      41.496  35.331  27.055  1.00  0.00    -0.203 F 
ATOM     89  C   UNL A   1      42.162  37.485  27.600  1.00  0.00     0.198 A 
ATOM     90  C   UNL A   1      43.384  37.944  29.582  1.00  0.00     0.198 A 
ATOM     91  F   UNL A   1      44.149  36.242  30.942  1.00  0.00    -0.203 F 
ATOM     92  F   UNL A   1      41.522  37.917  26.503  1.00  0.00    -0.200 F 
ATOM     93  C   UNL A   1      42.737  38.400  28.457  1.00  0.00     0.200 A 
ATOM     94  F   UNL A   1      43.903  38.816  30.459  1.00  0.00    -0.200 F 
ATOM     95  F   UNL A   1      42.647  39.715  28.213  1.00  0.00    -0.200 F 
ENDBRANCH  62  85
ENDBRANCH  36  37
ENDBRANCH  28  31
ENDBRANCH  26  27
ENDBRANCH  25  26
ENDBRANCH   1  25
TORSDOF 14
ENDMDL
MODEL 3
REMARK VINA RESULT:     -13.3      4.313     10.487
REMARK SMILES Cc1ccc(C(F)(F)F)cc1-c1ccc(/C=C/C(=O)NCCCCNC(=O)c2ccc(-c3c4nc(c(-c5c(F)c(F)c(F)c(F)c5F)c5ccc([nH]5)c(-c5c(F)c(F)c(F)c(F)c5F)c5nc(c(-c6c(F)c(F)c(F)c(F)c6F)c6ccc3[nH]6)C=C5)C=C4)cc2)s1
REMARK SMILES IDX 22 1 21 2 20 3 18 4 19 5 17 7 16 8 15 9 12 10 13 11 91 12
REMARK SMILES IDX 14 13 11 14 1 15 2 16 3 17 4 18 10 19 5 20 6 21 7 22 8 23
REMARK SMILES IDX 9 24 23 25 24 26 25 27 26 28 27 30 28 31 29 32 90 33 30 34
REMARK SMILES IDX 89 35 31 36 32 37 33 38 83 39 34 40 88 41 82 42 84 43 35 44
REMARK SMILES IDX 87 45 81 46 80 47 36 49 68 50 48 51 67 52 49 53 52 54 66 55
REMARK SMILES IDX 85 56 50 57 51 58 65 60 86 61 53 62 37 63 38 64 46 65 39 66
REMARK SMILES IDX 40 67 44 68 47 69 41 70 42 71 45 72 43 73 69 74 70 75 78 76
REMARK SMILES IDX 71 77 72 78 76 79 79 80 73 81 74 82 77 83 75 84 54 85 55 86
REMARK SMILES IDX 63 87 56 88 57 89 61 90 64 91 58 92 59 93 62 94 60 95
REMARK H PARENT 20 6 25 29 84 48 52 59
REMARK Flexibility Score: inf
ROOT
ATOM      1  C   UNL A   1      37.139  20.925  24.824  1.00  0.00     0.023 C 
ENDROOT
BRANCH   1   2
ATOM      2  C   UNL A   1      35.602  20.959  24.809  1.00  0.00     0.116 C 
BRANCH   2   3
ATOM      3  N   UNL A   1      35.027  21.040  26.144  1.00  0.00    -0.353 N 
ATOM      4  C   UNL A   1      34.397  22.062  26.787  1.00  0.00     0.244 C 
ATOM      5  O   UNL A   1      33.853  21.849  27.868  1.00  0.00    -0.270 OA
ATOM      6  H   UNL A   1      35.109  20.213  26.673  1.00  0.00     0.163 HD
BRANCH   4   7
ATOM      7  C   UNL A   1      34.289  23.402  26.170  1.00  0.00     0.072 C 
ATOM      8  C   UNL A   1      33.227  24.195  26.358  1.00  0.00     0.024 C 
BRANCH   8   9
ATOM      9  C   UNL A   1      33.097  25.496  25.801  1.00  0.00     0.028 A 
ATOM     10  C   UNL A   1      32.475  27.842  25.283  1.00  0.00     0.035 A 
ATOM     11  C   UNL A   1      33.636  27.460  24.648  1.00  0.00     0.021 A 
ATOM     12  S   UNL A   1      31.799  26.552  26.184  1.00  0.00    -0.136 S 
ATOM     13  C   UNL A   1      33.996  26.119  24.952  1.00  0.00     0.020 A 
BRANCH  10  14
ATOM     14  C   UNL A   1      31.820  29.154  25.278  1.00  0.00    -0.005 A 
ATOM     15  C   UNL A   1      33.226  30.007  27.243  1.00  0.00     0.045 C 
ATOM     16  C   UNL A   1      32.152  30.165  26.200  1.00  0.00    -0.042 A 
ATOM     17  C   UNL A   1      31.423  31.366  26.182  1.00  0.00     0.005 A 
ATOM     18  C   UNL A   1      30.403  31.577  25.252  1.00  0.00     0.013 A 
ATOM     19  C   UNL A   1      30.792  29.380  24.344  1.00  0.00     0.023 A 
ATOM     20  C   UNL A   1      30.080  30.588  24.317  1.00  0.00     0.056 A 
BRANCH  20  21
ATOM     21  C   UNL A   1      28.977  30.818  23.316  1.00  0.00     0.416 C 
ATOM     22  F   UNL A   1      28.351  29.662  22.958  1.00  0.00    -0.166 F 
ATOM     23  F   UNL A   1      28.000  31.637  23.796  1.00  0.00    -0.166 F 
ATOM     24  F   UNL A   1      29.401  31.385  22.152  1.00  0.00    -0.166 F 
ENDBRANCH  20  21
ENDBRANCH  10  14
ENDBRANCH   8   9
ENDBRANCH   4   7
ENDBRANCH   2   3
ENDBRANCH   1   2
BRANCH   1  25
ATOM     25  C   UNL A   1      37.785  21.663  25.999  1.00  0.00     0.023 C 
BRANCH  25  26
ATOM     26  C   UNL A   1      38.653  22.837  25.577  1.00  0.00     0.116 C 
BRANCH  26  27
ATOM     27  N   UNL A   1      40.041  22.772  26.041  1.00  0.00    -0.352 N 
ATOM     28  C   UNL A   1      40.834  23.768  26.568  1.00  0.00     0.251 C 
ATOM     29  H   UNL A   1      40.468  21.888  25.965  1.00  0.00     0.163 HD
ATOM     30  O   UNL A   1      41.999  23.553  26.845  1.00  0.00    -0.269 OA
BRANCH  28  31
ATOM     31  C   UNL A   1      40.217  25.075  26.923  1.00  0.00     0.039 A 
ATOM     32  C   UNL A   1      40.687  26.223  26.271  1.00  0.00     0.014 A 
ATOM     33  C   UNL A   1      39.367  25.191  28.021  1.00  0.00     0.014 A 
ATOM     34  C   UNL A   1      40.518  27.465  26.876  1.00  0.00     0.010 A 
ATOM     35  C   UNL A   1      39.290  26.405  28.674  1.00  0.00     0.010 A 
ATOM     36  C   UNL A   1      39.934  27.526  28.140  1.00  0.00    -0.014 A 
BRANCH  36  37
ATOM     37  C   UNL A   1      40.086  28.668  29.035  1.00  0.00     0.031 A 
ATOM     38  C   UNL A   1      39.072  29.741  29.082  1.00  0.00     0.074 A 
ATOM     39  C   UNL A   1      41.130  28.702  29.894  1.00  0.00     0.049 A 
ATOM     40  N   UNL A   1      39.301  30.913  29.571  1.00  0.00    -0.248 NA
ATOM     41  C   UNL A   1      37.737  29.618  28.504  1.00  0.00     0.031 C 
ATOM     42  C   UNL A   1      41.288  29.569  31.062  1.00  0.00     0.029 A 
ATOM     43  N   UNL A   1      42.385  28.082  29.754  1.00  0.00    -0.354 N 
ATOM     44  C   UNL A   1      38.099  31.570  29.666  1.00  0.00     0.074 A 
ATOM     45  C   UNL A   1      37.201  30.795  28.849  1.00  0.00     0.031 C 
ATOM     46  C   UNL A   1      42.593  29.678  31.349  1.00  0.00     0.029 A 
ATOM     47  C   UNL A   1      43.319  28.999  30.293  1.00  0.00     0.049 A 
ATOM     48  H   UNL A   1      42.574  27.198  29.364  1.00  0.00     0.167 HD
ATOM     49  C   UNL A   1      37.994  32.606  30.547  1.00  0.00     0.037 A 
ATOM     50  C   UNL A   1      44.305  29.559  29.539  1.00  0.00     0.037 A 
ATOM     51  C   UNL A   1      39.317  33.025  31.024  1.00  0.00     0.049 A 
ATOM     52  C   UNL A   1      44.307  31.069  29.529  1.00  0.00     0.074 A 
ATOM     53  C   UNL A   1      39.973  32.934  32.239  1.00  0.00     0.029 A 
ATOM     54  N   UNL A   1      40.263  33.459  30.099  1.00  0.00    -0.354 N 
ATOM     55  N   UNL A   1      43.291  31.800  29.890  1.00  0.00    -0.248 NA
ATOM     56  C   UNL A   1      45.436  31.873  29.075  1.00  0.00     0.031 C 
ATOM     57  C   UNL A   1      41.333  33.293  32.031  1.00  0.00     0.029 A 
ATOM     58  C   UNL A   1      41.495  33.623  30.696  1.00  0.00     0.049 A 
ATOM     59  H   UNL A   1      40.077  33.626  29.146  1.00  0.00     0.167 HD
ATOM     60  C   UNL A   1      43.581  33.128  29.692  1.00  0.00     0.074 A 
ATOM     61  C   UNL A   1      44.949  33.119  29.213  1.00  0.00     0.031 C 
ATOM     62  C   UNL A   1      42.640  34.095  29.924  1.00  0.00     0.037 A 
BRANCH  49  63
ATOM     63  C   UNL A   1      36.705  33.138  31.160  1.00  0.00     0.064 A 
ATOM     64  C   UNL A   1      35.833  33.943  30.387  1.00  0.00     0.173 A 
ATOM     65  C   UNL A   1      36.321  33.013  32.512  1.00  0.00     0.173 A 
ATOM     66  F   UNL A   1      36.041  34.142  29.078  1.00  0.00    -0.203 F 
ATOM     67  C   UNL A   1      34.717  34.595  30.931  1.00  0.00     0.198 A 
ATOM     68  C   UNL A   1      35.182  33.628  33.044  1.00  0.00     0.198 A 
ATOM     69  F   UNL A   1      37.043  32.336  33.406  1.00  0.00    -0.203 F 
ATOM     70  F   UNL A   1      33.972  35.396  30.157  1.00  0.00    -0.200 F 
ATOM     71  C   UNL A   1      34.390  34.434  32.259  1.00  0.00     0.200 A 
ATOM     72  F   UNL A   1      34.880  33.450  34.338  1.00  0.00    -0.200 F 
ATOM     73  F   UNL A   1      33.329  35.061  32.785  1.00  0.00    -0.200 F 
ENDBRANCH  49  63
BRANCH  50  74
ATOM     74  C   UNL A   1      44.747  28.700  28.413  1.00  0.00     0.064 A 
ATOM     75  C   UNL A   1      45.547  27.579  28.703  1.00  0.00     0.173 A 
ATOM     76  C   UNL A   1      44.100  28.732  27.172  1.00  0.00     0.173 A 
ATOM     77  F   UNL A   1      46.183  27.498  29.883  1.00  0.00    -0.203 F 
ATOM     78  C   UNL A   1      45.604  26.487  27.842  1.00  0.00     0.198 A 
ATOM     79  C   UNL A   1      44.169  27.640  26.305  1.00  0.00     0.198 A 
ATOM     80  F   UNL A   1      43.304  29.761  26.849  1.00  0.00    -0.203 F 
ATOM     81  F   UNL A   1      46.280  25.387  28.202  1.00  0.00    -0.200 F 
ATOM     82  C   UNL A   1      44.891  26.507  26.656  1.00  0.00     0.200 A 
ATOM     83  F   UNL A   1      43.452  27.643  25.173  1.00  0.00    -0.200 F 
ATOM     84  F   UNL A   1      44.861  25.420  25.872  1.00  0.00    -0.200 F 
ENDBRANCH  50  74
BRANCH  62  85
ATOM     85  C   UNL A   1      42.691  35.566  29.533  1.00  0.00     0.064 A 
ATOM     86  C   UNL A   1      43.428  36.560  30.200  1.00  0.00     0.173 A 
ATOM     87  C   UNL A   1      42.059  36.008  28.336  1.00  0.00     0.173 A 
ATOM     88  F   UNL A   1      44.181  36.280  31.268  1.00  0.00    -0.203 F 
ATOM     89  C   UNL A   1      43.478  37.886  29.750  1.00  0.00     0.198 A 
ATOM     90  C   UNL A   1      42.161  37.316  27.859  1.00  0.00     0.198 A 
ATOM     91  F   UNL A   1      41.343  35.177  27.567  1.00  0.00    -0.203 F 
ATOM     92  F   UNL A   1      44.166  38.796  30.455  1.00  0.00    -0.200 F 
ATOM     93  C   UNL A   1      42.858  38.261  28.576  1.00  0.00     0.200 A 
ATOM     94  F   UNL A   1      41.597  37.643  26.688  1.00  0.00    -0.200 F 
ATOM     95  F   UNL A   1      42.951  39.520  28.126  1.00  0.00    -0.200 F 
ENDBRANCH  62  85
ENDBRANCH  36  37
ENDBRANCH  28  31
ENDBRANCH  26  27
ENDBRANCH  25  26
ENDBRANCH   1  25
TORSDOF 14
ENDMDL
