MODEL 1
REMARK VINA RESULT:     -12.4      0.000      0.000
REMARK SMILES Cc1cccc(C[N@@H+](C)C[C@]2(C(=O)NCCCCNC(=O)c3ccc(-c4c5nc(c(-c6c(F)c(F)c(F)c(F)c6F)c6ccc([nH]6)c(-c6c(F)c(F)c(F)c(F)c6F)c6nc(c(-c7c(F)c(F)c(F)c(F)c7F)c7ccc4[nH]7)C=C6)C=C5)cc3)CCOC2)n1
REMARK SMILES IDX 15 1 14 2 12 3 13 4 11 6 85 7 88 8 86 9 87 10 10 11 8 12
REMARK SMILES IDX 9 13 7 15 6 16 1 17 2 18 3 19 89 20 4 21 5 22 16 23 17 24
REMARK SMILES IDX 18 25 19 26 20 27 21 29 22 30 23 31 84 32 24 33 83 34 25 35
REMARK SMILES IDX 26 36 27 37 77 38 28 39 82 40 76 41 78 42 29 43 81 44 75 45
REMARK SMILES IDX 74 46 30 48 62 49 42 50 61 51 43 52 46 53 60 54 79 55 44 56
REMARK SMILES IDX 45 57 59 59 80 60 47 61 31 62 32 63 40 64 33 65 34 66 38 67
REMARK SMILES IDX 41 68 35 69 36 70 39 71 37 72 63 73 64 74 72 75 65 76 66 77
REMARK SMILES IDX 70 78 73 79 67 80 68 81 71 82 69 83 48 84 49 85 57 86 50 87
REMARK SMILES IDX 51 88 55 89 58 90 52 91 53 92 56 93 54 94
REMARK H PARENT 14 5 8 14 19 28 78 47 46 58
REMARK Flexibility Score: inf
ROOT
ATOM      1  C   UNL A   1      32.906  29.985  26.244  1.00  0.00     0.116 C 
ENDROOT
BRANCH   1   2
ATOM      2  N   UNL A   1      33.118  29.897  24.815  1.00  0.00    -0.355 N 
ATOM      3  C   UNL A   1      33.135  28.885  23.922  1.00  0.00     0.234 C 
ATOM      4  O   UNL A   1      33.552  29.241  22.819  1.00  0.00    -0.274 OA
ATOM      5  H   UNL A   1      33.288  30.774  24.401  1.00  0.00     0.163 HD
BRANCH   3   6
ATOM      6  C   UNL A   1      32.638  27.463  24.209  1.00  0.00     0.123 C 
ATOM      7  C   UNL A   1      32.846  26.480  23.053  1.00  0.00     0.054 C 
ATOM      8  C   UNL A   1      33.536  26.881  25.329  1.00  0.00     0.183 C 
ATOM      9  C   UNL A   1      33.488  25.269  23.699  1.00  0.00     0.161 C 
ATOM     10  O   UNL A   1      34.270  25.780  24.775  1.00  0.00    -0.380 OA
BRANCH   6  11
ATOM     11  C   UNL A   1      31.161  27.438  24.745  1.00  0.00     0.281 C 
BRANCH  11  12
ATOM     12  N   UNL A   1      29.944  27.586  23.931  1.00  0.00    -0.331 N 
ATOM     13  C   UNL A   1      29.138  26.390  23.763  1.00  0.00     0.333 C 
ATOM     14  H   UNL A   1      29.423  28.209  24.548  1.00  0.00     0.348 HD
BRANCH  12  15
ATOM     15  C   UNL A   1      30.075  28.319  22.648  1.00  0.00     0.319 C 
BRANCH  15  16
ATOM     16  C   UNL A   1      29.485  29.723  22.595  1.00  0.00     0.095 A 
ATOM     17  C   UNL A   1      27.894  31.816  20.025  1.00  0.00     0.067 C 
ATOM     18  C   UNL A   1      28.403  31.374  21.362  1.00  0.00     0.038 A 
ATOM     19  C   UNL A   1      28.302  32.203  22.473  1.00  0.00     0.023 A 
ATOM     20  N   UNL A   1      28.973  30.146  21.411  1.00  0.00    -0.252 NA
ATOM     21  C   UNL A   1      28.836  31.769  23.679  1.00  0.00     0.004 A 
ATOM     22  C   UNL A   1      29.450  30.524  23.736  1.00  0.00     0.030 A 
ENDBRANCH  15  16
ENDBRANCH  12  15
ENDBRANCH  11  12
ENDBRANCH   6  11
ENDBRANCH   3   6
ENDBRANCH   1   2
BRANCH   1  23
ATOM     23  C   UNL A   1      31.528  30.579  26.542  1.00  0.00     0.023 C 
BRANCH  23  24
ATOM     24  C   UNL A   1      31.477  32.112  26.582  1.00  0.00     0.023 C 
BRANCH  24  25
ATOM     25  C   UNL A   1      32.661  32.795  27.256  1.00  0.00     0.116 C 
BRANCH  25  26
ATOM     26  N   UNL A   1      32.377  34.167  27.636  1.00  0.00    -0.352 N 
ATOM     27  C   UNL A   1      32.985  34.946  28.588  1.00  0.00     0.251 C 
ATOM     28  H   UNL A   1      31.646  34.599  27.139  1.00  0.00     0.163 HD
ATOM     29  O   UNL A   1      32.535  36.051  28.863  1.00  0.00    -0.269 OA
BRANCH  27  30
ATOM     30  C   UNL A   1      34.167  34.430  29.308  1.00  0.00     0.039 A 
ATOM     31  C   UNL A   1      33.969  33.748  30.511  1.00  0.00     0.014 A 
ATOM     32  C   UNL A   1      35.457  34.610  28.799  1.00  0.00     0.014 A 
ATOM     33  C   UNL A   1      35.061  33.192  31.177  1.00  0.00     0.010 A 
ATOM     34  C   UNL A   1      36.537  34.000  29.432  1.00  0.00     0.010 A 
ATOM     35  C   UNL A   1      36.349  33.287  30.626  1.00  0.00    -0.014 A 
BRANCH  35  36
ATOM     36  C   UNL A   1      37.512  32.646  31.287  1.00  0.00     0.031 A 
ATOM     37  C   UNL A   1      38.229  31.511  30.615  1.00  0.00     0.074 A 
ATOM     38  C   UNL A   1      37.878  33.045  32.521  1.00  0.00     0.049 A 
ATOM     39  N   UNL A   1      39.215  30.773  31.061  1.00  0.00    -0.248 NA
ATOM     40  C   UNL A   1      37.760  31.138  29.272  1.00  0.00     0.031 C 
ATOM     41  C   UNL A   1      37.231  34.106  33.293  1.00  0.00     0.029 A 
ATOM     42  N   UNL A   1      38.877  32.594  33.347  1.00  0.00    -0.354 N 
ATOM     43  C   UNL A   1      39.471  29.843  30.065  1.00  0.00     0.074 A 
ATOM     44  C   UNL A   1      38.507  30.076  29.010  1.00  0.00     0.031 C 
ATOM     45  C   UNL A   1      37.858  34.237  34.473  1.00  0.00     0.029 A 
ATOM     46  C   UNL A   1      38.926  33.245  34.556  1.00  0.00     0.049 A 
ATOM     47  H   UNL A   1      39.499  31.873  33.097  1.00  0.00     0.167 HD
ATOM     48  C   UNL A   1      40.436  28.894  30.024  1.00  0.00     0.037 A 
ATOM     49  C   UNL A   1      39.736  33.055  35.615  1.00  0.00     0.037 A 
ATOM     50  C   UNL A   1      41.409  28.684  31.063  1.00  0.00     0.049 A 
ATOM     51  C   UNL A   1      40.799  31.993  35.545  1.00  0.00     0.074 A 
ATOM     52  C   UNL A   1      42.467  27.793  31.088  1.00  0.00     0.029 A 
ATOM     53  N   UNL A   1      41.440  29.378  32.265  1.00  0.00    -0.354 N 
ATOM     54  N   UNL A   1      41.076  31.163  34.569  1.00  0.00    -0.248 NA
ATOM     55  C   UNL A   1      41.667  31.844  36.721  1.00  0.00     0.031 C 
ATOM     56  C   UNL A   1      43.113  27.916  32.323  1.00  0.00     0.029 A 
ATOM     57  C   UNL A   1      42.487  28.918  33.048  1.00  0.00     0.049 A 
ATOM     58  H   UNL A   1      40.813  30.091  32.523  1.00  0.00     0.167 HD
ATOM     59  C   UNL A   1      42.162  30.414  35.000  1.00  0.00     0.074 A 
ATOM     60  C   UNL A   1      42.502  30.897  36.322  1.00  0.00     0.031 C 
ATOM     61  C   UNL A   1      42.818  29.417  34.358  1.00  0.00     0.037 A 
BRANCH  48  62
ATOM     62  C   UNL A   1      40.488  28.009  28.812  1.00  0.00     0.064 A 
ATOM     63  C   UNL A   1      41.248  28.352  27.683  1.00  0.00     0.173 A 
ATOM     64  C   UNL A   1      39.798  26.787  28.791  1.00  0.00     0.173 A 
ATOM     65  F   UNL A   1      41.916  29.515  27.648  1.00  0.00    -0.203 F 
ATOM     66  C   UNL A   1      41.290  27.521  26.568  1.00  0.00     0.198 A 
ATOM     67  C   UNL A   1      39.867  25.944  27.686  1.00  0.00     0.198 A 
ATOM     68  F   UNL A   1      39.062  26.408  29.847  1.00  0.00    -0.203 F 
ATOM     69  F   UNL A   1      41.983  27.893  25.482  1.00  0.00    -0.200 F 
ATOM     70  C   UNL A   1      40.606  26.314  26.572  1.00  0.00     0.200 A 
ATOM     71  F   UNL A   1      39.215  24.773  27.697  1.00  0.00    -0.200 F 
ATOM     72  F   UNL A   1      40.654  25.511  25.501  1.00  0.00    -0.200 F 
ENDBRANCH  48  62
BRANCH  49  73
ATOM     73  C   UNL A   1      39.587  33.906  36.824  1.00  0.00     0.064 A 
ATOM     74  C   UNL A   1      40.212  35.157  36.904  1.00  0.00     0.173 A 
ATOM     75  C   UNL A   1      38.819  33.488  37.920  1.00  0.00     0.173 A 
ATOM     76  F   UNL A   1      40.974  35.591  35.888  1.00  0.00    -0.203 F 
ATOM     77  C   UNL A   1      40.091  35.951  38.043  1.00  0.00     0.198 A 
ATOM     78  C   UNL A   1      38.676  34.295  39.047  1.00  0.00     0.198 A 
ATOM     79  F   UNL A   1      38.196  32.301  37.891  1.00  0.00    -0.203 F 
ATOM     80  F   UNL A   1      40.734  37.124  38.109  1.00  0.00    -0.200 F 
ATOM     81  C   UNL A   1      39.318  35.522  39.111  1.00  0.00     0.200 A 
ATOM     82  F   UNL A   1      37.917  33.882  40.072  1.00  0.00    -0.200 F 
ATOM     83  F   UNL A   1      39.199  36.287  40.203  1.00  0.00    -0.200 F 
ENDBRANCH  49  73
BRANCH  61  84
ATOM     84  C   UNL A   1      43.992  28.802  35.061  1.00  0.00     0.064 A 
ATOM     85  C   UNL A   1      45.287  29.324  34.925  1.00  0.00     0.173 A 
ATOM     86  C   UNL A   1      43.811  27.704  35.916  1.00  0.00     0.173 A 
ATOM     87  F   UNL A   1      45.513  30.363  34.107  1.00  0.00    -0.203 F 
ATOM     88  C   UNL A   1      46.361  28.758  35.606  1.00  0.00     0.198 A 
ATOM     89  C   UNL A   1      44.882  27.158  36.617  1.00  0.00     0.198 A 
ATOM     90  F   UNL A   1      42.591  27.172  36.084  1.00  0.00    -0.203 F 
ATOM     91  F   UNL A   1      47.596  29.246  35.429  1.00  0.00    -0.200 F 
ATOM     92  C   UNL A   1      46.156  27.681  36.457  1.00  0.00     0.200 A 
ATOM     93  F   UNL A   1      44.681  26.126  37.448  1.00  0.00    -0.200 F 
ATOM     94  F   UNL A   1      47.190  27.143  37.117  1.00  0.00    -0.200 F 
ENDBRANCH  61  84
ENDBRANCH  35  36
ENDBRANCH  27  30
ENDBRANCH  25  26
ENDBRANCH  24  25
ENDBRANCH  23  24
ENDBRANCH   1  23
TORSDOF 15
ENDMDL
MODEL 2
REMARK VINA RESULT:     -12.1      1.077      2.093
REMARK SMILES Cc1cccc(C[N@@H+](C)C[C@]2(C(=O)NCCCCNC(=O)c3ccc(-c4c5nc(c(-c6c(F)c(F)c(F)c(F)c6F)c6ccc([nH]6)c(-c6c(F)c(F)c(F)c(F)c6F)c6nc(c(-c7c(F)c(F)c(F)c(F)c7F)c7ccc4[nH]7)C=C6)C=C5)cc3)CCOC2)n1
REMARK SMILES IDX 15 1 14 2 12 3 13 4 11 6 85 7 88 8 86 9 87 10 10 11 8 12
REMARK SMILES IDX 9 13 7 15 6 16 1 17 2 18 3 19 89 20 4 21 5 22 16 23 17 24
REMARK SMILES IDX 18 25 19 26 20 27 21 29 22 30 23 31 84 32 24 33 83 34 25 35
REMARK SMILES IDX 26 36 27 37 77 38 28 39 82 40 76 41 78 42 29 43 81 44 75 45
REMARK SMILES IDX 74 46 30 48 62 49 42 50 61 51 43 52 46 53 60 54 79 55 44 56
REMARK SMILES IDX 45 57 59 59 80 60 47 61 31 62 32 63 40 64 33 65 34 66 38 67
REMARK SMILES IDX 41 68 35 69 36 70 39 71 37 72 63 73 64 74 72 75 65 76 66 77
REMARK SMILES IDX 70 78 73 79 67 80 68 81 71 82 69 83 48 84 49 85 57 86 50 87
REMARK SMILES IDX 51 88 55 89 58 90 52 91 53 92 56 93 54 94
REMARK H PARENT 14 5 8 14 19 28 78 47 46 58
REMARK Flexibility Score: inf
ROOT
ATOM      1  C   UNL A   1      31.823  30.000  25.514  1.00  0.00     0.116 C 
ENDROOT
BRANCH   1   2
ATOM      2  N   UNL A   1      31.774  29.231  26.739  1.00  0.00    -0.355 N 
ATOM      3  C   UNL A   1      31.600  27.925  27.029  1.00  0.00     0.234 C 
ATOM      4  O   UNL A   1      31.432  27.731  28.234  1.00  0.00    -0.274 OA
ATOM      5  H   UNL A   1      31.895  29.788  27.542  1.00  0.00     0.163 HD
BRANCH   3   6
ATOM      6  C   UNL A   1      31.662  26.789  26.001  1.00  0.00     0.123 C 
ATOM      7  C   UNL A   1      32.605  25.645  26.385  1.00  0.00     0.054 C 
ATOM      8  C   UNL A   1      30.272  26.107  25.986  1.00  0.00     0.183 C 
ATOM      9  C   UNL A   1      31.781  24.392  26.175  1.00  0.00     0.161 C 
ATOM     10  O   UNL A   1      30.437  24.764  26.465  1.00  0.00    -0.380 OA
BRANCH   6  11
ATOM     11  C   UNL A   1      31.932  27.312  24.543  1.00  0.00     0.281 C 
BRANCH  11  12
ATOM     12  N   UNL A   1      31.235  26.870  23.324  1.00  0.00    -0.331 N 
ATOM     13  C   UNL A   1      31.790  25.706  22.657  1.00  0.00     0.333 C 
ATOM     14  H   UNL A   1      30.356  26.575  23.750  1.00  0.00     0.348 HD
BRANCH  12  15
ATOM     15  C   UNL A   1      30.866  27.917  22.340  1.00  0.00     0.319 C 
BRANCH  15  16
ATOM     16  C   UNL A   1      29.634  28.755  22.658  1.00  0.00     0.095 A 
ATOM     17  C   UNL A   1      28.817  32.340  22.663  1.00  0.00     0.067 C 
ATOM     18  C   UNL A   1      28.640  30.857  22.768  1.00  0.00     0.038 A 
ATOM     19  C   UNL A   1      27.408  30.308  23.106  1.00  0.00     0.023 A 
ATOM     20  N   UNL A   1      29.741  30.103  22.533  1.00  0.00    -0.252 NA
ATOM     21  C   UNL A   1      27.308  28.930  23.241  1.00  0.00     0.004 A 
ATOM     22  C   UNL A   1      28.437  28.147  23.033  1.00  0.00     0.030 A 
ENDBRANCH  15  16
ENDBRANCH  12  15
ENDBRANCH  11  12
ENDBRANCH   6  11
ENDBRANCH   3   6
ENDBRANCH   1   2
BRANCH   1  23
ATOM     23  C   UNL A   1      31.158  31.363  25.713  1.00  0.00     0.023 C 
BRANCH  23  24
ATOM     24  C   UNL A   1      31.384  32.001  27.090  1.00  0.00     0.023 C 
BRANCH  24  25
ATOM     25  C   UNL A   1      32.649  32.841  27.229  1.00  0.00     0.116 C 
BRANCH  25  26
ATOM     26  N   UNL A   1      32.372  34.216  27.603  1.00  0.00    -0.352 N 
ATOM     27  C   UNL A   1      32.982  34.995  28.554  1.00  0.00     0.251 C 
ATOM     28  H   UNL A   1      31.644  34.650  27.104  1.00  0.00     0.163 HD
ATOM     29  O   UNL A   1      32.537  36.103  28.824  1.00  0.00    -0.269 OA
BRANCH  27  30
ATOM     30  C   UNL A   1      34.159  34.475  29.279  1.00  0.00     0.039 A 
ATOM     31  C   UNL A   1      33.959  33.846  30.510  1.00  0.00     0.014 A 
ATOM     32  C   UNL A   1      35.446  34.598  28.746  1.00  0.00     0.014 A 
ATOM     33  C   UNL A   1      35.045  33.287  31.183  1.00  0.00     0.010 A 
ATOM     34  C   UNL A   1      36.518  33.984  29.388  1.00  0.00     0.010 A 
ATOM     35  C   UNL A   1      36.328  33.324  30.612  1.00  0.00    -0.014 A 
BRANCH  35  36
ATOM     36  C   UNL A   1      37.482  32.677  31.283  1.00  0.00     0.031 A 
ATOM     37  C   UNL A   1      38.202  31.541  30.615  1.00  0.00     0.074 A 
ATOM     38  C   UNL A   1      37.837  33.071  32.522  1.00  0.00     0.049 A 
ATOM     39  N   UNL A   1      39.181  30.800  31.069  1.00  0.00    -0.248 NA
ATOM     40  C   UNL A   1      37.746  31.174  29.266  1.00  0.00     0.031 C 
ATOM     41  C   UNL A   1      37.185  34.132  33.290  1.00  0.00     0.029 A 
ATOM     42  N   UNL A   1      38.826  32.614  33.356  1.00  0.00    -0.354 N 
ATOM     43  C   UNL A   1      39.444  29.871  30.072  1.00  0.00     0.074 A 
ATOM     44  C   UNL A   1      38.492  30.111  29.008  1.00  0.00     0.031 C 
ATOM     45  C   UNL A   1      37.800  34.256  34.477  1.00  0.00     0.029 A 
ATOM     46  C   UNL A   1      38.864  33.261  34.568  1.00  0.00     0.049 A 
ATOM     47  H   UNL A   1      39.448  31.893  33.110  1.00  0.00     0.167 HD
ATOM     48  C   UNL A   1      40.407  28.920  30.037  1.00  0.00     0.037 A 
ATOM     49  C   UNL A   1      39.663  33.065  35.635  1.00  0.00     0.037 A 
ATOM     50  C   UNL A   1      41.368  28.703  31.086  1.00  0.00     0.049 A 
ATOM     51  C   UNL A   1      40.724  32.000  35.571  1.00  0.00     0.074 A 
ATOM     52  C   UNL A   1      42.423  27.809  31.119  1.00  0.00     0.029 A 
ATOM     53  N   UNL A   1      41.390  29.393  32.290  1.00  0.00    -0.354 N 
ATOM     54  N   UNL A   1      41.008  31.173  34.596  1.00  0.00    -0.248 NA
ATOM     55  C   UNL A   1      41.578  31.845  36.756  1.00  0.00     0.031 C 
ATOM     56  C   UNL A   1      43.057  27.926  32.361  1.00  0.00     0.029 A 
ATOM     57  C   UNL A   1      42.427  28.928  33.082  1.00  0.00     0.049 A 
ATOM     58  H   UNL A   1      40.763  30.108  32.544  1.00  0.00     0.167 HD
ATOM     59  C   UNL A   1      42.087  30.419  35.035  1.00  0.00     0.074 A 
ATOM     60  C   UNL A   1      42.415  30.897  36.362  1.00  0.00     0.031 C 
ATOM     61  C   UNL A   1      42.746  29.422  34.397  1.00  0.00     0.037 A 
BRANCH  48  62
ATOM     62  C   UNL A   1      40.469  28.039  28.823  1.00  0.00     0.064 A 
ATOM     63  C   UNL A   1      39.764  26.827  28.757  1.00  0.00     0.173 A 
ATOM     64  C   UNL A   1      41.214  28.426  27.699  1.00  0.00     0.173 A 
ATOM     65  F   UNL A   1      39.046  26.406  29.810  1.00  0.00    -0.203 F 
ATOM     66  C   UNL A   1      39.828  26.022  27.624  1.00  0.00     0.198 A 
ATOM     67  C   UNL A   1      41.251  27.632  26.556  1.00  0.00     0.198 A 
ATOM     68  F   UNL A   1      41.901  29.578  27.707  1.00  0.00    -0.203 F 
ATOM     69  F   UNL A   1      39.186  24.845  27.603  1.00  0.00    -0.200 F 
ATOM     70  C   UNL A   1      40.565  26.428  26.521  1.00  0.00     0.200 A 
ATOM     71  F   UNL A   1      41.954  28.032  25.487  1.00  0.00    -0.200 F 
ATOM     72  F   UNL A   1      40.619  25.655  25.429  1.00  0.00    -0.200 F 
ENDBRANCH  48  62
BRANCH  49  73
ATOM     73  C   UNL A   1      39.504  33.913  36.844  1.00  0.00     0.064 A 
ATOM     74  C   UNL A   1      40.120  35.169  36.928  1.00  0.00     0.173 A 
ATOM     75  C   UNL A   1      38.737  33.487  37.938  1.00  0.00     0.173 A 
ATOM     76  F   UNL A   1      40.880  35.611  35.915  1.00  0.00    -0.203 F 
ATOM     77  C   UNL A   1      39.989  35.960  38.068  1.00  0.00     0.198 A 
ATOM     78  C   UNL A   1      38.585  34.291  39.066  1.00  0.00     0.198 A 
ATOM     79  F   UNL A   1      38.124  32.295  37.906  1.00  0.00    -0.203 F 
ATOM     80  F   UNL A   1      40.623  37.138  38.138  1.00  0.00    -0.200 F 
ATOM     81  C   UNL A   1      39.217  35.523  39.133  1.00  0.00     0.200 A 
ATOM     82  F   UNL A   1      37.828  33.869  40.088  1.00  0.00    -0.200 F 
ATOM     83  F   UNL A   1      39.089  36.285  40.227  1.00  0.00    -0.200 F 
ENDBRANCH  49  73
BRANCH  61  84
ATOM     84  C   UNL A   1      43.912  28.801  35.110  1.00  0.00     0.064 A 
ATOM     85  C   UNL A   1      43.753  27.685  35.945  1.00  0.00     0.173 A 
ATOM     86  C   UNL A   1      45.208  29.301  34.918  1.00  0.00     0.173 A 
ATOM     87  F   UNL A   1      42.531  27.180  36.172  1.00  0.00    -0.203 F 
ATOM     88  C   UNL A   1      44.849  27.104  36.577  1.00  0.00     0.198 A 
ATOM     89  C   UNL A   1      46.305  28.701  35.529  1.00  0.00     0.198 A 
ATOM     90  F   UNL A   1      45.413  30.363  34.124  1.00  0.00    -0.203 F 
ATOM     91  F   UNL A   1      44.669  26.066  37.404  1.00  0.00    -0.200 F 
ATOM     92  C   UNL A   1      46.124  27.607  36.362  1.00  0.00     0.200 A 
ATOM     93  F   UNL A   1      47.538  29.179  35.311  1.00  0.00    -0.200 F 
ATOM     94  F   UNL A   1      47.178  27.041  36.965  1.00  0.00    -0.200 F 
ENDBRANCH  61  84
ENDBRANCH  35  36
ENDBRANCH  27  30
ENDBRANCH  25  26
ENDBRANCH  24  25
ENDBRANCH  23  24
ENDBRANCH   1  23
TORSDOF 15
ENDMDL
MODEL 3
REMARK VINA RESULT:     -12.0      1.367      3.826
REMARK SMILES Cc1cccc(C[N@@H+](C)C[C@]2(C(=O)NCCCCNC(=O)c3ccc(-c4c5nc(c(-c6c(F)c(F)c(F)c(F)c6F)c6ccc([nH]6)c(-c6c(F)c(F)c(F)c(F)c6F)c6nc(c(-c7c(F)c(F)c(F)c(F)c7F)c7ccc4[nH]7)C=C6)C=C5)cc3)CCOC2)n1
REMARK SMILES IDX 15 1 14 2 12 3 13 4 11 6 85 7 88 8 86 9 87 10 10 11 8 12
REMARK SMILES IDX 9 13 7 15 6 16 1 17 2 18 3 19 89 20 4 21 5 22 16 23 17 24
REMARK SMILES IDX 18 25 19 26 20 27 21 29 22 30 23 31 84 32 24 33 83 34 25 35
REMARK SMILES IDX 26 36 27 37 77 38 28 39 82 40 76 41 78 42 29 43 81 44 75 45
REMARK SMILES IDX 74 46 30 48 62 49 42 50 61 51 43 52 46 53 60 54 79 55 44 56
REMARK SMILES IDX 45 57 59 59 80 60 47 61 31 62 32 63 40 64 33 65 34 66 38 67
REMARK SMILES IDX 41 68 35 69 36 70 39 71 37 72 63 73 64 74 72 75 65 76 66 77
REMARK SMILES IDX 70 78 73 79 67 80 68 81 71 82 69 83 48 84 49 85 57 86 50 87
REMARK SMILES IDX 51 88 55 89 58 90 52 91 53 92 56 93 54 94
REMARK H PARENT 14 5 8 14 19 28 78 47 46 58
REMARK Flexibility Score: inf
ROOT
ATOM      1  C   UNL A   1      32.925  30.076  26.275  1.00  0.00     0.116 C 
ENDROOT
BRANCH   1   2
ATOM      2  N   UNL A   1      33.313  29.931  24.889  1.00  0.00    -0.355 N 
ATOM      3  C   UNL A   1      33.058  29.021  23.925  1.00  0.00     0.234 C 
ATOM      4  O   UNL A   1      33.759  29.188  22.926  1.00  0.00    -0.274 OA
ATOM      5  H   UNL A   1      33.895  30.663  24.578  1.00  0.00     0.163 HD
BRANCH   3   6
ATOM      6  C   UNL A   1      31.979  27.935  24.018  1.00  0.00     0.123 C 
ATOM      7  C   UNL A   1      30.546  28.461  23.893  1.00  0.00     0.054 C 
ATOM      8  C   UNL A   1      32.131  27.031  22.769  1.00  0.00     0.183 C 
ATOM      9  C   UNL A   1      29.901  27.552  22.867  1.00  0.00     0.161 C 
ATOM     10  O   UNL A   1      30.946  27.179  21.974  1.00  0.00    -0.380 OA
BRANCH   6  11
ATOM     11  C   UNL A   1      32.161  27.012  25.277  1.00  0.00     0.281 C 
BRANCH  11  12
ATOM     12  N   UNL A   1      32.141  25.541  25.280  1.00  0.00    -0.331 N 
ATOM     13  C   UNL A   1      30.829  24.920  25.342  1.00  0.00     0.333 C 
ATOM     14  H   UNL A   1      32.499  25.382  24.339  1.00  0.00     0.348 HD
BRANCH  12  15
ATOM     15  C   UNL A   1      33.093  24.854  26.187  1.00  0.00     0.319 C 
BRANCH  15  16
ATOM     16  C   UNL A   1      34.075  23.882  25.544  1.00  0.00     0.095 A 
ATOM     17  C   UNL A   1      34.038  20.321  24.631  1.00  0.00     0.067 C 
ATOM     18  C   UNL A   1      34.512  21.735  24.759  1.00  0.00     0.038 A 
ATOM     19  C   UNL A   1      35.762  22.113  24.282  1.00  0.00     0.023 A 
ATOM     20  N   UNL A   1      33.666  22.599  25.371  1.00  0.00    -0.252 NA
ATOM     21  C   UNL A   1      36.176  23.425  24.470  1.00  0.00     0.004 A 
ATOM     22  C   UNL A   1      35.332  24.313  25.124  1.00  0.00     0.030 A 
ENDBRANCH  15  16
ENDBRANCH  12  15
ENDBRANCH  11  12
ENDBRANCH   6  11
ENDBRANCH   3   6
ENDBRANCH   1   2
BRANCH   1  23
ATOM     23  C   UNL A   1      31.512  30.656  26.375  1.00  0.00     0.023 C 
BRANCH  23  24
ATOM     24  C   UNL A   1      31.447  32.180  26.546  1.00  0.00     0.023 C 
BRANCH  24  25
ATOM     25  C   UNL A   1      32.595  32.806  27.329  1.00  0.00     0.116 C 
BRANCH  25  26
ATOM     26  N   UNL A   1      32.357  34.199  27.658  1.00  0.00    -0.352 N 
ATOM     27  C   UNL A   1      33.000  34.996  28.572  1.00  0.00     0.251 C 
ATOM     28  H   UNL A   1      31.633  34.633  27.153  1.00  0.00     0.163 HD
ATOM     29  O   UNL A   1      32.586  36.124  28.808  1.00  0.00    -0.269 OA
BRANCH  27  30
ATOM     30  C   UNL A   1      34.175  34.473  29.298  1.00  0.00     0.039 A 
ATOM     31  C   UNL A   1      33.971  33.836  30.524  1.00  0.00     0.014 A 
ATOM     32  C   UNL A   1      35.464  34.602  28.772  1.00  0.00     0.014 A 
ATOM     33  C   UNL A   1      35.054  33.274  31.198  1.00  0.00     0.010 A 
ATOM     34  C   UNL A   1      36.534  33.986  29.414  1.00  0.00     0.010 A 
ATOM     35  C   UNL A   1      36.340  33.317  30.633  1.00  0.00    -0.014 A 
BRANCH  35  36
ATOM     36  C   UNL A   1      37.492  32.667  31.305  1.00  0.00     0.031 A 
ATOM     37  C   UNL A   1      38.212  31.532  30.635  1.00  0.00     0.074 A 
ATOM     38  C   UNL A   1      37.845  33.058  32.545  1.00  0.00     0.049 A 
ATOM     39  N   UNL A   1      39.189  30.788  31.089  1.00  0.00    -0.248 NA
ATOM     40  C   UNL A   1      37.757  31.168  29.285  1.00  0.00     0.031 C 
ATOM     41  C   UNL A   1      37.193  34.119  33.314  1.00  0.00     0.029 A 
ATOM     42  N   UNL A   1      38.832  32.599  33.380  1.00  0.00    -0.354 N 
ATOM     43  C   UNL A   1      39.453  29.862  30.091  1.00  0.00     0.074 A 
ATOM     44  C   UNL A   1      38.502  30.104  29.026  1.00  0.00     0.031 C 
ATOM     45  C   UNL A   1      37.807  34.240  34.502  1.00  0.00     0.029 A 
ATOM     46  C   UNL A   1      38.869  33.243  34.593  1.00  0.00     0.049 A 
ATOM     47  H   UNL A   1      39.454  31.877  33.134  1.00  0.00     0.167 HD
ATOM     48  C   UNL A   1      40.414  28.909  30.056  1.00  0.00     0.037 A 
ATOM     49  C   UNL A   1      39.666  33.044  35.661  1.00  0.00     0.037 A 
ATOM     50  C   UNL A   1      41.374  28.689  31.106  1.00  0.00     0.049 A 
ATOM     51  C   UNL A   1      40.726  31.978  35.597  1.00  0.00     0.074 A 
ATOM     52  C   UNL A   1      42.427  27.793  31.139  1.00  0.00     0.029 A 
ATOM     53  N   UNL A   1      41.394  29.377  32.312  1.00  0.00    -0.354 N 
ATOM     54  N   UNL A   1      41.010  31.152  34.620  1.00  0.00    -0.248 NA
ATOM     55  C   UNL A   1      41.578  31.819  36.783  1.00  0.00     0.031 C 
ATOM     56  C   UNL A   1      43.060  27.907  32.382  1.00  0.00     0.029 A 
ATOM     57  C   UNL A   1      42.430  28.908  33.104  1.00  0.00     0.049 A 
ATOM     58  H   UNL A   1      40.767  30.091  32.566  1.00  0.00     0.167 HD
ATOM     59  C   UNL A   1      42.087  30.396  35.060  1.00  0.00     0.074 A 
ATOM     60  C   UNL A   1      42.414  30.871  36.389  1.00  0.00     0.031 C 
ATOM     61  C   UNL A   1      42.747  29.400  34.421  1.00  0.00     0.037 A 
BRANCH  48  62
ATOM     62  C   UNL A   1      40.477  28.030  28.841  1.00  0.00     0.064 A 
ATOM     63  C   UNL A   1      39.777  26.816  28.774  1.00  0.00     0.173 A 
ATOM     64  C   UNL A   1      41.219  28.422  27.716  1.00  0.00     0.173 A 
ATOM     65  F   UNL A   1      39.062  26.391  29.827  1.00  0.00    -0.203 F 
ATOM     66  C   UNL A   1      39.841  26.013  27.639  1.00  0.00     0.198 A 
ATOM     67  C   UNL A   1      41.257  27.631  26.571  1.00  0.00     0.198 A 
ATOM     68  F   UNL A   1      41.903  29.576  27.725  1.00  0.00    -0.203 F 
ATOM     69  F   UNL A   1      39.203  24.834  27.617  1.00  0.00    -0.200 F 
ATOM     70  C   UNL A   1      40.575  26.423  26.536  1.00  0.00     0.200 A 
ATOM     71  F   UNL A   1      41.957  28.034  25.502  1.00  0.00    -0.200 F 
ATOM     72  F   UNL A   1      40.630  25.653  25.442  1.00  0.00    -0.200 F 
ENDBRANCH  48  62
BRANCH  49  73
ATOM     73  C   UNL A   1      39.506  33.889  36.872  1.00  0.00     0.064 A 
ATOM     74  C   UNL A   1      38.751  33.444  37.965  1.00  0.00     0.173 A 
ATOM     75  C   UNL A   1      40.103  35.155  36.962  1.00  0.00     0.173 A 
ATOM     76  F   UNL A   1      38.145  32.248  37.916  1.00  0.00    -0.203 F 
ATOM     77  C   UNL A   1      38.583  34.240  39.096  1.00  0.00     0.198 A 
ATOM     78  C   UNL A   1      39.956  35.939  38.105  1.00  0.00     0.198 A 
ATOM     79  F   UNL A   1      40.839  35.625  35.946  1.00  0.00    -0.203 F 
ATOM     80  F   UNL A   1      37.821  33.806  40.109  1.00  0.00    -0.200 F 
ATOM     81  C   UNL A   1      39.190  35.484  39.168  1.00  0.00     0.200 A 
ATOM     82  F   UNL A   1      40.556  37.135  38.175  1.00  0.00    -0.200 F 
ATOM     83  F   UNL A   1      39.031  36.247  40.257  1.00  0.00    -0.200 F 
ENDBRANCH  49  73
BRANCH  61  84
ATOM     84  C   UNL A   1      43.910  28.775  35.135  1.00  0.00     0.064 A 
ATOM     85  C   UNL A   1      43.750  27.656  35.964  1.00  0.00     0.173 A 
ATOM     86  C   UNL A   1      45.207  29.277  34.949  1.00  0.00     0.173 A 
ATOM     87  F   UNL A   1      42.527  27.150  36.185  1.00  0.00    -0.203 F 
ATOM     88  C   UNL A   1      44.844  27.073  36.597  1.00  0.00     0.198 A 
ATOM     89  C   UNL A   1      46.302  28.674  35.560  1.00  0.00     0.198 A 
ATOM     90  F   UNL A   1      45.414  30.343  34.160  1.00  0.00    -0.203 F 
ATOM     91  F   UNL A   1      44.662  26.030  37.418  1.00  0.00    -0.200 F 
ATOM     92  C   UNL A   1      46.119  27.577  36.388  1.00  0.00     0.200 A 
ATOM     93  F   UNL A   1      47.536  29.154  35.348  1.00  0.00    -0.200 F 
ATOM     94  F   UNL A   1      47.172  27.009  36.992  1.00  0.00    -0.200 F 
ENDBRANCH  61  84
ENDBRANCH  35  36
ENDBRANCH  27  30
ENDBRANCH  25  26
ENDBRANCH  24  25
ENDBRANCH  23  24
ENDBRANCH   1  23
TORSDOF 15
ENDMDL
