MODEL 1
REMARK VINA RESULT:     -13.2      0.000      0.000
REMARK SMILES C[C@@H](C(=O)NCCCCNC(=O)c1ccc(-c2c3nc(c(-c4c(F)c(F)c(F)c(F)c4F)c4ccc([nH]4)c(-c4c(F)c(F)c(F)c(F)c4F)c4nc(c(-c5c(F)c(F)c(F)c(F)c5F)c5ccc2[nH]5)C=C4)C=C3)cc1)c1ccc(C[C@H]2CCC[C@H]2O)cc1-c1ccc(O)cc1
REMARK SMILES IDX 6 1 5 2 3 3 4 4 2 6 1 7 76 8 77 9 88 10 78 11 87 12 79 13
REMARK SMILES IDX 89 14 90 15 95 16 91 17 94 18 92 19 93 20 80 22 81 23 82 24
REMARK SMILES IDX 85 25 83 26 84 27 86 28 7 30 8 31 9 32 10 33 11 34 12 36
REMARK SMILES IDX 13 37 14 38 75 39 15 40 74 41 16 42 17 43 18 44 68 45 19 46
REMARK SMILES IDX 73 47 67 48 69 49 20 50 72 51 66 52 65 53 21 55 53 56 33 57
REMARK SMILES IDX 52 58 34 59 37 60 51 61 70 62 35 63 36 64 50 66 71 67 38 68
REMARK SMILES IDX 22 69 23 70 31 71 24 72 25 73 29 74 32 75 26 76 27 77 30 78
REMARK SMILES IDX 28 79 54 80 55 81 63 82 56 83 57 84 61 85 64 86 58 87 59 88
REMARK SMILES IDX 62 89 60 90 39 91 40 92 48 93 41 94 42 95 46 96 49 97 43 98
REMARK SMILES IDX 44 99 47 100 45 101
REMARK H PARENT 5 5 93 21 86 29 10 35 69 54 37 65
REMARK Flexibility Score: inf
ROOT
ATOM      1  C   UNL A   1      32.737  29.475  26.034  1.00  0.00     0.116 C 
ENDROOT
BRANCH   1   2
ATOM      2  N   UNL A   1      33.659  29.503  24.922  1.00  0.00    -0.356 N 
ATOM      3  C   UNL A   1      33.887  28.561  23.962  1.00  0.00     0.227 C 
ATOM      4  O   UNL A   1      34.800  28.801  23.169  1.00  0.00    -0.274 OA
ATOM      5  H   UNL A   1      34.202  30.321  24.847  1.00  0.00     0.163 HD
BRANCH   3   6
ATOM      6  C   UNL A   1      32.995  27.301  23.882  1.00  0.00     0.106 C 
ATOM      7  C   UNL A   1      33.602  26.221  22.976  1.00  0.00     0.023 C 
BRANCH   6   8
ATOM      8  C   UNL A   1      31.582  27.681  23.427  1.00  0.00    -0.028 A 
ATOM      9  C   UNL A   1      31.422  28.830  22.630  1.00  0.00     0.005 A 
ATOM     10  C   UNL A   1      30.430  26.959  23.825  1.00  0.00    -0.014 A 
ATOM     11  C   UNL A   1      30.166  29.276  22.249  1.00  0.00     0.004 A 
ATOM     12  C   UNL A   1      29.162  27.490  23.500  1.00  0.00     0.012 A 
ATOM     13  C   UNL A   1      29.022  28.669  22.751  1.00  0.00    -0.047 A 
BRANCH  10  14
ATOM     14  C   UNL A   1      30.501  25.647  24.497  1.00  0.00    -0.018 A 
ATOM     15  C   UNL A   1      30.647  24.482  23.722  1.00  0.00     0.012 A 
ATOM     16  C   UNL A   1      30.465  25.512  25.895  1.00  0.00     0.012 A 
ATOM     17  C   UNL A   1      30.788  23.228  24.321  1.00  0.00     0.047 A 
ATOM     18  C   UNL A   1      30.620  24.256  26.499  1.00  0.00     0.047 A 
ATOM     19  C   UNL A   1      30.787  23.127  25.705  1.00  0.00     0.115 A 
BRANCH  19  20
ATOM     20  O   UNL A   1      30.960  21.888  26.248  1.00  0.00    -0.508 OA
ATOM     21  H   UNL A   1      30.647  21.130  25.794  1.00  0.00     0.293 HD
ENDBRANCH  19  20
ENDBRANCH  10  14
BRANCH  13  22
ATOM     22  C   UNL A   1      27.677  29.305  22.509  1.00  0.00     0.041 C 
BRANCH  22  23
ATOM     23  C   UNL A   1      27.608  30.844  22.555  1.00  0.00     0.022 C 
ATOM     24  C   UNL A   1      28.453  31.513  23.653  1.00  0.00     0.007 C 
ATOM     25  C   UNL A   1      27.911  31.659  21.284  1.00  0.00     0.117 C 
ATOM     26  C   UNL A   1      28.804  32.909  23.126  1.00  0.00     0.003 C 
ATOM     27  C   UNL A   1      28.024  33.080  21.824  1.00  0.00     0.032 C 
BRANCH  25  28
ATOM     28  O   UNL A   1      29.128  31.350  20.628  1.00  0.00    -0.393 OA
ATOM     29  H   UNL A   1      29.871  31.702  21.143  1.00  0.00     0.210 HD
ENDBRANCH  25  28
ENDBRANCH  22  23
ENDBRANCH  13  22
ENDBRANCH   6   8
ENDBRANCH   3   6
ENDBRANCH   1   2
BRANCH   1  30
ATOM     30  C   UNL A   1      31.523  30.363  25.756  1.00  0.00     0.023 C 
BRANCH  30  31
ATOM     31  C   UNL A   1      31.403  31.580  26.675  1.00  0.00     0.023 C 
BRANCH  31  32
ATOM     32  C   UNL A   1      32.695  32.361  26.879  1.00  0.00     0.116 C 
BRANCH  32  33
ATOM     33  N   UNL A   1      32.466  33.712  27.365  1.00  0.00    -0.352 N 
ATOM     34  C   UNL A   1      33.099  34.386  28.379  1.00  0.00     0.251 C 
ATOM     35  H   UNL A   1      31.757  34.213  26.903  1.00  0.00     0.163 HD
ATOM     36  O   UNL A   1      32.676  35.474  28.752  1.00  0.00    -0.269 OA
BRANCH  34  37
ATOM     37  C   UNL A   1      34.278  33.784  29.039  1.00  0.00     0.039 A 
ATOM     38  C   UNL A   1      34.075  32.767  29.974  1.00  0.00     0.014 A 
ATOM     39  C   UNL A   1      35.571  34.222  28.744  1.00  0.00     0.014 A 
ATOM     40  C   UNL A   1      35.175  32.160  30.581  1.00  0.00     0.010 A 
ATOM     41  C   UNL A   1      36.667  33.558  29.284  1.00  0.00     0.010 A 
ATOM     42  C   UNL A   1      36.481  32.532  30.222  1.00  0.00    -0.014 A 
BRANCH  42  43
ATOM     43  C   UNL A   1      37.660  31.877  30.842  1.00  0.00     0.031 A 
ATOM     44  C   UNL A   1      38.093  32.260  32.230  1.00  0.00     0.074 A 
ATOM     45  C   UNL A   1      38.362  30.967  30.142  1.00  0.00     0.049 A 
ATOM     46  N   UNL A   1      39.100  31.813  32.939  1.00  0.00    -0.248 NA
ATOM     47  C   UNL A   1      37.309  33.308  32.904  1.00  0.00     0.031 C 
ATOM     48  C   UNL A   1      38.071  30.546  28.770  1.00  0.00     0.029 A 
ATOM     49  N   UNL A   1      39.466  30.228  30.487  1.00  0.00    -0.354 N 
ATOM     50  C   UNL A   1      39.076  32.533  34.127  1.00  0.00     0.074 A 
ATOM     51  C   UNL A   1      37.998  33.489  34.020  1.00  0.00     0.031 C 
ATOM     52  C   UNL A   1      38.947  29.597  28.406  1.00  0.00     0.029 A 
ATOM     53  C   UNL A   1      39.884  29.370  29.501  1.00  0.00     0.049 A 
ATOM     54  H   UNL A   1      39.916  30.308  31.360  1.00  0.00     0.167 HD
ATOM     55  C   UNL A   1      39.866  32.390  35.218  1.00  0.00     0.037 A 
ATOM     56  C   UNL A   1      40.908  28.495  29.486  1.00  0.00     0.037 A 
ATOM     57  C   UNL A   1      40.923  31.420  35.327  1.00  0.00     0.049 A 
ATOM     58  C   UNL A   1      41.778  28.364  30.709  1.00  0.00     0.074 A 
ATOM     59  C   UNL A   1      41.738  31.148  36.412  1.00  0.00     0.029 A 
ATOM     60  N   UNL A   1      41.319  30.566  34.307  1.00  0.00    -0.354 N 
ATOM     61  N   UNL A   1      41.694  28.990  31.858  1.00  0.00    -0.248 NA
ATOM     62  C   UNL A   1      42.880  27.396  30.632  1.00  0.00     0.031 C 
ATOM     63  C   UNL A   1      42.666  30.174  36.028  1.00  0.00     0.029 A 
ATOM     64  C   UNL A   1      42.387  29.789  34.727  1.00  0.00     0.049 A 
ATOM     65  H   UNL A   1      40.902  30.520  33.415  1.00  0.00     0.167 HD
ATOM     66  C   UNL A   1      42.705  28.466  32.653  1.00  0.00     0.074 A 
ATOM     67  C   UNL A   1      43.379  27.460  31.858  1.00  0.00     0.031 C 
ATOM     68  C   UNL A   1      43.042  28.784  33.927  1.00  0.00     0.037 A 
BRANCH  55  69
ATOM     69  C   UNL A   1      39.618  33.314  36.379  1.00  0.00     0.064 A 
ATOM     70  C   UNL A   1      40.246  34.565  36.478  1.00  0.00     0.173 A 
ATOM     71  C   UNL A   1      38.721  32.950  37.396  1.00  0.00     0.173 A 
ATOM     72  F   UNL A   1      41.120  34.960  35.539  1.00  0.00    -0.203 F 
ATOM     73  C   UNL A   1      40.018  35.398  37.572  1.00  0.00     0.198 A 
ATOM     74  C   UNL A   1      38.469  33.801  38.468  1.00  0.00     0.198 A 
ATOM     75  F   UNL A   1      38.089  31.769  37.350  1.00  0.00    -0.203 F 
ATOM     76  F   UNL A   1      40.679  36.560  37.675  1.00  0.00    -0.200 F 
ATOM     77  C   UNL A   1      39.124  35.019  38.562  1.00  0.00     0.200 A 
ATOM     78  F   UNL A   1      37.593  33.440  39.417  1.00  0.00    -0.200 F 
ATOM     79  F   UNL A   1      38.903  35.824  39.610  1.00  0.00    -0.200 F 
ENDBRANCH  55  69
BRANCH  56  80
ATOM     80  C   UNL A   1      41.144  27.642  28.291  1.00  0.00     0.064 A 
ATOM     81  C   UNL A   1      40.510  26.399  28.159  1.00  0.00     0.173 A 
ATOM     82  C   UNL A   1      42.013  28.041  27.264  1.00  0.00     0.173 A 
ATOM     83  F   UNL A   1      39.685  25.963  29.124  1.00  0.00    -0.203 F 
ATOM     84  C   UNL A   1      40.755  25.576  27.063  1.00  0.00     0.198 A 
ATOM     85  C   UNL A   1      42.233  27.231  26.153  1.00  0.00     0.198 A 
ATOM     86  F   UNL A   1      42.641  29.224  27.337  1.00  0.00    -0.203 F 
ATOM     87  F   UNL A   1      40.175  24.369  26.991  1.00  0.00    -0.200 F 
ATOM     88  C   UNL A   1      41.612  25.995  26.057  1.00  0.00     0.200 A 
ATOM     89  F   UNL A   1      43.050  27.647  25.174  1.00  0.00    -0.200 F 
ATOM     90  F   UNL A   1      41.846  25.204  25.001  1.00  0.00    -0.200 F 
ENDBRANCH  56  80
BRANCH  68  91
ATOM     91  C   UNL A   1      44.160  28.004  34.560  1.00  0.00     0.064 A 
ATOM     92  C   UNL A   1      45.498  28.412  34.465  1.00  0.00     0.173 A 
ATOM     93  C   UNL A   1      43.882  26.837  35.291  1.00  0.00     0.173 A 
ATOM     94  F   UNL A   1      45.821  29.512  33.766  1.00  0.00    -0.203 F 
ATOM     95  C   UNL A   1      46.519  27.665  35.047  1.00  0.00     0.198 A 
ATOM     96  C   UNL A   1      44.900  26.114  35.903  1.00  0.00     0.198 A 
ATOM     97  F   UNL A   1      42.618  26.406  35.420  1.00  0.00    -0.203 F 
ATOM     98  F   UNL A   1      47.795  28.041  34.889  1.00  0.00    -0.200 F 
ATOM     99  C   UNL A   1      46.219  26.520  35.771  1.00  0.00     0.200 A 
ATOM    100  F   UNL A   1      44.605  25.019  36.617  1.00  0.00    -0.200 F 
ATOM    101  F   UNL A   1      47.201  25.804  36.333  1.00  0.00    -0.200 F 
ENDBRANCH  68  91
ENDBRANCH  42  43
ENDBRANCH  34  37
ENDBRANCH  32  33
ENDBRANCH  31  32
ENDBRANCH  30  31
ENDBRANCH   1  30
TORSDOF 17
ENDMDL
MODEL 2
REMARK VINA RESULT:     -13.1      5.175     11.020
REMARK SMILES C[C@@H](C(=O)NCCCCNC(=O)c1ccc(-c2c3nc(c(-c4c(F)c(F)c(F)c(F)c4F)c4ccc([nH]4)c(-c4c(F)c(F)c(F)c(F)c4F)c4nc(c(-c5c(F)c(F)c(F)c(F)c5F)c5ccc2[nH]5)C=C4)C=C3)cc1)c1ccc(C[C@H]2CCC[C@H]2O)cc1-c1ccc(O)cc1
REMARK SMILES IDX 6 1 5 2 3 3 4 4 2 6 1 7 76 8 77 9 88 10 78 11 87 12 79 13
REMARK SMILES IDX 89 14 90 15 95 16 91 17 94 18 92 19 93 20 80 22 81 23 82 24
REMARK SMILES IDX 85 25 83 26 84 27 86 28 7 30 8 31 9 32 10 33 11 34 12 36
REMARK SMILES IDX 13 37 14 38 75 39 15 40 74 41 16 42 17 43 18 44 68 45 19 46
REMARK SMILES IDX 73 47 67 48 69 49 20 50 72 51 66 52 65 53 21 55 53 56 33 57
REMARK SMILES IDX 52 58 34 59 37 60 51 61 70 62 35 63 36 64 50 66 71 67 38 68
REMARK SMILES IDX 22 69 23 70 31 71 24 72 25 73 29 74 32 75 26 76 27 77 30 78
REMARK SMILES IDX 28 79 54 80 55 81 63 82 56 83 57 84 61 85 64 86 58 87 59 88
REMARK SMILES IDX 62 89 60 90 39 91 40 92 48 93 41 94 42 95 46 96 49 97 43 98
REMARK SMILES IDX 44 99 47 100 45 101
REMARK H PARENT 5 5 93 21 86 29 10 35 69 54 37 65
REMARK Flexibility Score: inf
ROOT
ATOM      1  C   UNL A   1      35.969  23.340  25.184  1.00  0.00     0.116 C 
ENDROOT
BRANCH   1   2
ATOM      2  N   UNL A   1      35.561  23.009  26.530  1.00  0.00    -0.356 N 
ATOM      3  C   UNL A   1      34.310  22.984  27.074  1.00  0.00     0.227 C 
ATOM      4  O   UNL A   1      34.247  22.750  28.283  1.00  0.00    -0.274 OA
ATOM      5  H   UNL A   1      36.292  22.766  27.143  1.00  0.00     0.163 HD
BRANCH   3   6
ATOM      6  C   UNL A   1      33.068  23.198  26.179  1.00  0.00     0.106 C 
ATOM      7  C   UNL A   1      31.849  23.666  26.986  1.00  0.00     0.023 C 
BRANCH   6   8
ATOM      8  C   UNL A   1      32.759  21.922  25.390  1.00  0.00    -0.028 A 
ATOM      9  C   UNL A   1      32.812  20.689  26.065  1.00  0.00     0.005 A 
ATOM     10  C   UNL A   1      32.482  21.930  24.001  1.00  0.00    -0.014 A 
ATOM     11  C   UNL A   1      32.621  19.489  25.396  1.00  0.00     0.004 A 
ATOM     12  C   UNL A   1      32.384  20.690  23.330  1.00  0.00     0.012 A 
ATOM     13  C   UNL A   1      32.496  19.468  24.013  1.00  0.00    -0.047 A 
BRANCH  10  14
ATOM     14  C   UNL A   1      32.220  23.169  23.244  1.00  0.00    -0.018 A 
ATOM     15  C   UNL A   1      31.020  23.871  23.462  1.00  0.00     0.012 A 
ATOM     16  C   UNL A   1      33.144  23.707  22.332  1.00  0.00     0.012 A 
ATOM     17  C   UNL A   1      30.764  25.083  22.819  1.00  0.00     0.047 A 
ATOM     18  C   UNL A   1      32.896  24.930  21.695  1.00  0.00     0.047 A 
ATOM     19  C   UNL A   1      31.710  25.610  21.951  1.00  0.00     0.115 A 
BRANCH  19  20
ATOM     20  O   UNL A   1      31.434  26.813  21.370  1.00  0.00    -0.508 OA
ATOM     21  H   UNL A   1      31.385  27.587  21.896  1.00  0.00     0.293 HD
ENDBRANCH  19  20
ENDBRANCH  10  14
BRANCH  13  22
ATOM     22  C   UNL A   1      32.517  18.148  23.286  1.00  0.00     0.041 C 
BRANCH  22  23
ATOM     23  C   UNL A   1      33.598  17.131  23.704  1.00  0.00     0.022 C 
ATOM     24  C   UNL A   1      34.897  17.736  24.265  1.00  0.00     0.007 C 
ATOM     25  C   UNL A   1      33.242  16.003  24.690  1.00  0.00     0.117 C 
ATOM     26  C   UNL A   1      35.482  16.683  25.211  1.00  0.00     0.003 C 
ATOM     27  C   UNL A   1      34.611  15.439  25.051  1.00  0.00     0.032 C 
BRANCH  25  28
ATOM     28  O   UNL A   1      32.612  16.409  25.892  1.00  0.00    -0.393 OA
ATOM     29  H   UNL A   1      32.497  15.641  26.473  1.00  0.00     0.210 HD
ENDBRANCH  25  28
ENDBRANCH  22  23
ENDBRANCH  13  22
ENDBRANCH   6   8
ENDBRANCH   3   6
ENDBRANCH   1   2
BRANCH   1  30
ATOM     30  C   UNL A   1      36.182  22.073  24.354  1.00  0.00     0.023 C 
BRANCH  30  31
ATOM     31  C   UNL A   1      37.044  21.007  25.033  1.00  0.00     0.023 C 
BRANCH  31  32
ATOM     32  C   UNL A   1      38.492  21.411  25.275  1.00  0.00     0.116 C 
BRANCH  32  33
ATOM     33  N   UNL A   1      39.194  20.492  26.157  1.00  0.00    -0.352 N 
ATOM     34  C   UNL A   1      40.226  20.743  27.026  1.00  0.00     0.251 C 
ATOM     35  H   UNL A   1      38.885  19.558  26.126  1.00  0.00     0.163 HD
ATOM     36  O   UNL A   1      40.796  19.815  27.587  1.00  0.00    -0.269 OA
BRANCH  34  37
ATOM     37  C   UNL A   1      40.666  22.134  27.263  1.00  0.00     0.039 A 
ATOM     38  C   UNL A   1      41.655  22.370  28.220  1.00  0.00     0.014 A 
ATOM     39  C   UNL A   1      40.106  23.199  26.553  1.00  0.00     0.014 A 
ATOM     40  C   UNL A   1      42.112  23.671  28.433  1.00  0.00     0.010 A 
ATOM     41  C   UNL A   1      40.623  24.481  26.704  1.00  0.00     0.010 A 
ATOM     42  C   UNL A   1      41.618  24.734  27.659  1.00  0.00    -0.014 A 
BRANCH  42  43
ATOM     43  C   UNL A   1      42.114  26.119  27.860  1.00  0.00     0.031 A 
ATOM     44  C   UNL A   1      43.446  26.533  27.298  1.00  0.00     0.074 A 
ATOM     45  C   UNL A   1      41.384  26.991  28.581  1.00  0.00     0.049 A 
ATOM     46  N   UNL A   1      44.057  27.688  27.375  1.00  0.00    -0.248 NA
ATOM     47  C   UNL A   1      44.209  25.502  26.576  1.00  0.00     0.031 C 
ATOM     48  C   UNL A   1      40.099  26.695  29.218  1.00  0.00     0.029 A 
ATOM     49  N   UNL A   1      41.616  28.305  28.898  1.00  0.00    -0.354 N 
ATOM     50  C   UNL A   1      45.275  27.517  26.729  1.00  0.00     0.074 A 
ATOM     51  C   UNL A   1      45.345  26.132  26.321  1.00  0.00     0.031 C 
ATOM     52  C   UNL A   1      39.638  27.805  29.815  1.00  0.00     0.029 A 
ATOM     53  C   UNL A   1      40.611  28.879  29.636  1.00  0.00     0.049 A 
ATOM     54  H   UNL A   1      42.428  28.791  28.622  1.00  0.00     0.167 HD
ATOM     55  C   UNL A   1      46.234  28.439  26.475  1.00  0.00     0.037 A 
ATOM     56  C   UNL A   1      40.488  30.133  30.112  1.00  0.00     0.037 A 
ATOM     57  C   UNL A   1      46.147  29.822  26.863  1.00  0.00     0.049 A 
ATOM     58  C   UNL A   1      41.575  31.135  29.826  1.00  0.00     0.074 A 
ATOM     59  C   UNL A   1      47.032  30.852  26.597  1.00  0.00     0.029 A 
ATOM     60  N   UNL A   1      45.113  30.368  27.611  1.00  0.00    -0.354 N 
ATOM     61  N   UNL A   1      42.683  30.985  29.140  1.00  0.00    -0.248 NA
ATOM     62  C   UNL A   1      41.387  32.485  30.373  1.00  0.00     0.031 C 
ATOM     63  C   UNL A   1      46.565  32.006  27.236  1.00  0.00     0.029 A 
ATOM     64  C   UNL A   1      45.354  31.713  27.843  1.00  0.00     0.049 A 
ATOM     65  H   UNL A   1      44.324  29.872  27.931  1.00  0.00     0.167 HD
ATOM     66  C   UNL A   1      43.304  32.227  29.141  1.00  0.00     0.074 A 
ATOM     67  C   UNL A   1      42.440  33.122  29.883  1.00  0.00     0.031 C 
ATOM     68  C   UNL A   1      44.480  32.595  28.575  1.00  0.00     0.037 A 
BRANCH  55  69
ATOM     69  C   UNL A   1      47.466  27.975  25.748  1.00  0.00     0.064 A 
ATOM     70  C   UNL A   1      47.507  27.869  24.349  1.00  0.00     0.173 A 
ATOM     71  C   UNL A   1      48.632  27.652  26.461  1.00  0.00     0.173 A 
ATOM     72  F   UNL A   1      46.418  28.155  23.618  1.00  0.00    -0.203 F 
ATOM     73  C   UNL A   1      48.652  27.419  23.695  1.00  0.00     0.198 A 
ATOM     74  C   UNL A   1      49.785  27.238  25.802  1.00  0.00     0.198 A 
ATOM     75  F   UNL A   1      48.653  27.741  27.799  1.00  0.00    -0.203 F 
ATOM     76  F   UNL A   1      48.643  27.264  22.364  1.00  0.00    -0.200 F 
ATOM     77  C   UNL A   1      49.792  27.111  24.421  1.00  0.00     0.200 A 
ATOM     78  F   UNL A   1      50.892  26.955  26.504  1.00  0.00    -0.200 F 
ATOM     79  F   UNL A   1      50.894  26.682  23.791  1.00  0.00    -0.200 F 
ENDBRANCH  55  69
BRANCH  56  80
ATOM     80  C   UNL A   1      39.272  30.527  30.872  1.00  0.00     0.064 A 
ATOM     81  C   UNL A   1      39.204  30.345  32.261  1.00  0.00     0.173 A 
ATOM     82  C   UNL A   1      38.152  31.079  30.233  1.00  0.00     0.173 A 
ATOM     83  F   UNL A   1      40.241  29.802  32.916  1.00  0.00    -0.203 F 
ATOM     84  C   UNL A   1      38.055  30.673  32.976  1.00  0.00     0.198 A 
ATOM     85  C   UNL A   1      37.016  31.437  30.954  1.00  0.00     0.198 A 
ATOM     86  F   UNL A   1      38.167  31.280  28.907  1.00  0.00    -0.203 F 
ATOM     87  F   UNL A   1      37.999  30.438  34.294  1.00  0.00    -0.200 F 
ATOM     88  C   UNL A   1      36.964  31.225  32.323  1.00  0.00     0.200 A 
ATOM     89  F   UNL A   1      35.969  31.985  30.321  1.00  0.00    -0.200 F 
ATOM     90  F   UNL A   1      35.859  31.543  33.012  1.00  0.00    -0.200 F 
ENDBRANCH  56  80
BRANCH  68  91
ATOM     91  C   UNL A   1      44.880  34.039  28.693  1.00  0.00     0.064 A 
ATOM     92  C   UNL A   1      44.471  35.002  27.759  1.00  0.00     0.173 A 
ATOM     93  C   UNL A   1      45.668  34.467  29.773  1.00  0.00     0.173 A 
ATOM     94  F   UNL A   1      43.728  34.644  26.700  1.00  0.00    -0.203 F 
ATOM     95  C   UNL A   1      44.867  36.331  27.881  1.00  0.00     0.198 A 
ATOM     96  C   UNL A   1      46.029  35.804  29.913  1.00  0.00     0.198 A 
ATOM     97  F   UNL A   1      46.079  33.590  30.701  1.00  0.00    -0.203 F 
ATOM     98  F   UNL A   1      44.517  37.221  26.942  1.00  0.00    -0.200 F 
ATOM     99  C   UNL A   1      45.639  36.733  28.961  1.00  0.00     0.200 A 
ATOM    100  F   UNL A   1      46.760  36.191  30.967  1.00  0.00    -0.200 F 
ATOM    101  F   UNL A   1      46.016  38.013  29.079  1.00  0.00    -0.200 F 
ENDBRANCH  68  91
ENDBRANCH  42  43
ENDBRANCH  34  37
ENDBRANCH  32  33
ENDBRANCH  31  32
ENDBRANCH  30  31
ENDBRANCH   1  30
TORSDOF 17
ENDMDL
MODEL 3
REMARK VINA RESULT:     -13.1      1.098      2.294
REMARK SMILES C[C@@H](C(=O)NCCCCNC(=O)c1ccc(-c2c3nc(c(-c4c(F)c(F)c(F)c(F)c4F)c4ccc([nH]4)c(-c4c(F)c(F)c(F)c(F)c4F)c4nc(c(-c5c(F)c(F)c(F)c(F)c5F)c5ccc2[nH]5)C=C4)C=C3)cc1)c1ccc(C[C@H]2CCC[C@H]2O)cc1-c1ccc(O)cc1
REMARK SMILES IDX 6 1 5 2 3 3 4 4 2 6 1 7 76 8 77 9 88 10 78 11 87 12 79 13
REMARK SMILES IDX 89 14 90 15 95 16 91 17 94 18 92 19 93 20 80 22 81 23 82 24
REMARK SMILES IDX 85 25 83 26 84 27 86 28 7 30 8 31 9 32 10 33 11 34 12 36
REMARK SMILES IDX 13 37 14 38 75 39 15 40 74 41 16 42 17 43 18 44 68 45 19 46
REMARK SMILES IDX 73 47 67 48 69 49 20 50 72 51 66 52 65 53 21 55 53 56 33 57
REMARK SMILES IDX 52 58 34 59 37 60 51 61 70 62 35 63 36 64 50 66 71 67 38 68
REMARK SMILES IDX 22 69 23 70 31 71 24 72 25 73 29 74 32 75 26 76 27 77 30 78
REMARK SMILES IDX 28 79 54 80 55 81 63 82 56 83 57 84 61 85 64 86 58 87 59 88
REMARK SMILES IDX 62 89 60 90 39 91 40 92 48 93 41 94 42 95 46 96 49 97 43 98
REMARK SMILES IDX 44 99 47 100 45 101
REMARK H PARENT 5 5 93 21 86 29 10 35 69 54 37 65
REMARK Flexibility Score: inf
ROOT
ATOM      1  C   UNL A   1      33.481  28.279  26.069  1.00  0.00     0.116 C 
ENDROOT
BRANCH   1   2
ATOM      2  N   UNL A   1      34.073  28.736  24.832  1.00  0.00    -0.356 N 
ATOM      3  C   UNL A   1      33.984  28.200  23.581  1.00  0.00     0.227 C 
ATOM      4  O   UNL A   1      34.663  28.742  22.706  1.00  0.00    -0.274 OA
ATOM      5  H   UNL A   1      34.620  29.552  24.903  1.00  0.00     0.163 HD
BRANCH   3   6
ATOM      6  C   UNL A   1      33.035  27.010  23.310  1.00  0.00     0.106 C 
ATOM      7  C   UNL A   1      33.518  26.142  22.139  1.00  0.00     0.023 C 
BRANCH   6   8
ATOM      8  C   UNL A   1      31.607  27.512  23.080  1.00  0.00    -0.028 A 
ATOM      9  C   UNL A   1      31.423  28.676  22.311  1.00  0.00     0.005 A 
ATOM     10  C   UNL A   1      30.474  26.888  23.659  1.00  0.00    -0.014 A 
ATOM     11  C   UNL A   1      30.166  29.231  22.129  1.00  0.00     0.004 A 
ATOM     12  C   UNL A   1      29.221  27.528  23.534  1.00  0.00     0.012 A 
ATOM     13  C   UNL A   1      29.066  28.721  22.809  1.00  0.00    -0.047 A 
BRANCH  10  14
ATOM     14  C   UNL A   1      30.536  25.571  24.320  1.00  0.00    -0.018 A 
ATOM     15  C   UNL A   1      30.699  24.413  23.537  1.00  0.00     0.012 A 
ATOM     16  C   UNL A   1      30.477  25.422  25.716  1.00  0.00     0.012 A 
ATOM     17  C   UNL A   1      30.833  23.154  24.127  1.00  0.00     0.047 A 
ATOM     18  C   UNL A   1      30.624  24.162  26.311  1.00  0.00     0.047 A 
ATOM     19  C   UNL A   1      30.808  23.040  25.509  1.00  0.00     0.115 A 
BRANCH  19  20
ATOM     20  O   UNL A   1      30.975  21.797  26.044  1.00  0.00    -0.508 OA
ATOM     21  H   UNL A   1      31.113  21.060  25.481  1.00  0.00     0.293 HD
ENDBRANCH  19  20
ENDBRANCH  10  14
BRANCH  13  22
ATOM     22  C   UNL A   1      27.760  29.471  22.776  1.00  0.00     0.041 C 
BRANCH  22  23
ATOM     23  C   UNL A   1      27.817  30.995  23.006  1.00  0.00     0.022 C 
ATOM     24  C   UNL A   1      28.950  31.484  23.925  1.00  0.00     0.007 C 
ATOM     25  C   UNL A   1      27.862  31.947  21.797  1.00  0.00     0.117 C 
ATOM     26  C   UNL A   1      29.264  32.917  23.483  1.00  0.00     0.003 C 
ATOM     27  C   UNL A   1      28.207  33.283  22.444  1.00  0.00     0.032 C 
BRANCH  25  28
ATOM     28  O   UNL A   1      28.858  31.668  20.829  1.00  0.00    -0.393 OA
ATOM     29  H   UNL A   1      29.616  32.258  20.965  1.00  0.00     0.210 HD
ENDBRANCH  25  28
ENDBRANCH  22  23
ENDBRANCH  13  22
ENDBRANCH   6   8
ENDBRANCH   3   6
ENDBRANCH   1   2
BRANCH   1  30
ATOM     30  C   UNL A   1      32.133  28.959  26.309  1.00  0.00     0.023 C 
BRANCH  30  31
ATOM     31  C   UNL A   1      32.158  30.484  26.180  1.00  0.00     0.023 C 
BRANCH  31  32
ATOM     32  C   UNL A   1      32.569  31.229  27.443  1.00  0.00     0.116 C 
BRANCH  32  33
ATOM     33  N   UNL A   1      32.887  32.626  27.195  1.00  0.00    -0.352 N 
ATOM     34  C   UNL A   1      33.988  33.346  27.585  1.00  0.00     0.251 C 
ATOM     35  H   UNL A   1      32.218  33.126  26.674  1.00  0.00     0.163 HD
ATOM     36  O   UNL A   1      34.023  34.558  27.411  1.00  0.00    -0.269 OA
BRANCH  34  37
ATOM     37  C   UNL A   1      35.122  32.659  28.239  1.00  0.00     0.039 A 
ATOM     38  C   UNL A   1      36.339  33.335  28.352  1.00  0.00     0.014 A 
ATOM     39  C   UNL A   1      34.991  31.358  28.732  1.00  0.00     0.014 A 
ATOM     40  C   UNL A   1      37.412  32.719  28.999  1.00  0.00     0.010 A 
ATOM     41  C   UNL A   1      36.032  30.782  29.452  1.00  0.00     0.010 A 
ATOM     42  C   UNL A   1      37.260  31.448  29.577  1.00  0.00    -0.014 A 
BRANCH  42  43
ATOM     43  C   UNL A   1      38.385  30.793  30.289  1.00  0.00     0.031 A 
ATOM     44  C   UNL A   1      38.652  31.113  31.735  1.00  0.00     0.074 A 
ATOM     45  C   UNL A   1      39.191  29.943  29.625  1.00  0.00     0.049 A 
ATOM     46  N   UNL A   1      39.590  30.657  32.526  1.00  0.00    -0.248 NA
ATOM     47  C   UNL A   1      37.763  32.099  32.370  1.00  0.00     0.031 C 
ATOM     48  C   UNL A   1      39.065  29.590  28.209  1.00  0.00     0.029 A 
ATOM     49  N   UNL A   1      40.275  29.219  30.052  1.00  0.00    -0.354 N 
ATOM     50  C   UNL A   1      39.413  31.309  33.739  1.00  0.00     0.074 A 
ATOM     51  C   UNL A   1      38.320  32.239  33.563  1.00  0.00     0.031 C 
ATOM     52  C   UNL A   1      40.007  28.688  27.896  1.00  0.00     0.029 A 
ATOM     53  C   UNL A   1      40.827  28.428  29.075  1.00  0.00     0.049 A 
ATOM     54  H   UNL A   1      40.624  29.263  30.972  1.00  0.00     0.167 HD
ATOM     55  C   UNL A   1      40.083  31.129  34.902  1.00  0.00     0.037 A 
ATOM     56  C   UNL A   1      41.876  27.584  29.129  1.00  0.00     0.037 A 
ATOM     57  C   UNL A   1      41.155  30.185  35.078  1.00  0.00     0.049 A 
ATOM     58  C   UNL A   1      42.611  27.412  30.431  1.00  0.00     0.074 A 
ATOM     59  C   UNL A   1      41.856  29.878  36.231  1.00  0.00     0.029 A 
ATOM     60  N   UNL A   1      41.688  29.400  34.065  1.00  0.00    -0.354 N 
ATOM     61  N   UNL A   1      42.381  27.971  31.595  1.00  0.00    -0.248 NA
ATOM     62  C   UNL A   1      43.748  26.481  30.427  1.00  0.00     0.031 C 
ATOM     63  C   UNL A   1      42.853  28.952  35.903  1.00  0.00     0.029 A 
ATOM     64  C   UNL A   1      42.730  28.631  34.560  1.00  0.00     0.049 A 
ATOM     65  H   UNL A   1      41.373  29.391  33.132  1.00  0.00     0.167 HD
ATOM     66  C   UNL A   1      43.317  27.433  32.469  1.00  0.00     0.074 A 
ATOM     67  C   UNL A   1      44.108  26.492  31.702  1.00  0.00     0.031 C 
ATOM     68  C   UNL A   1      43.502  27.691  33.787  1.00  0.00     0.037 A 
BRANCH  55  69
ATOM     69  C   UNL A   1      39.679  31.980  36.075  1.00  0.00     0.064 A 
ATOM     70  C   UNL A   1      38.585  31.649  36.890  1.00  0.00     0.173 A 
ATOM     71  C   UNL A   1      40.410  33.133  36.401  1.00  0.00     0.173 A 
ATOM     72  F   UNL A   1      37.844  30.563  36.618  1.00  0.00    -0.203 F 
ATOM     73  C   UNL A   1      38.214  32.460  37.960  1.00  0.00     0.198 A 
ATOM     74  C   UNL A   1      40.058  33.921  37.493  1.00  0.00     0.198 A 
ATOM     75  F   UNL A   1      41.468  33.495  35.660  1.00  0.00    -0.203 F 
ATOM     76  F   UNL A   1      37.127  32.156  38.683  1.00  0.00    -0.200 F 
ATOM     77  C   UNL A   1      38.955  33.591  38.265  1.00  0.00     0.200 A 
ATOM     78  F   UNL A   1      40.785  35.007  37.796  1.00  0.00    -0.200 F 
ATOM     79  F   UNL A   1      38.600  34.368  39.297  1.00  0.00    -0.200 F 
ENDBRANCH  55  69
BRANCH  56  80
ATOM     80  C   UNL A   1      42.269  26.805  27.925  1.00  0.00     0.064 A 
ATOM     81  C   UNL A   1      43.209  27.314  27.016  1.00  0.00     0.173 A 
ATOM     82  C   UNL A   1      41.710  25.549  27.648  1.00  0.00     0.173 A 
ATOM     83  F   UNL A   1      43.757  28.520  27.226  1.00  0.00    -0.203 F 
ATOM     84  C   UNL A   1      43.554  26.610  25.865  1.00  0.00     0.198 A 
ATOM     85  C   UNL A   1      42.080  24.831  26.512  1.00  0.00     0.198 A 
ATOM     86  F   UNL A   1      40.811  25.014  28.487  1.00  0.00    -0.203 F 
ATOM     87  F   UNL A   1      44.415  27.145  24.989  1.00  0.00    -0.200 F 
ATOM     88  C   UNL A   1      42.994  25.366  25.617  1.00  0.00     0.200 A 
ATOM     89  F   UNL A   1      41.549  23.622  26.284  1.00  0.00    -0.200 F 
ATOM     90  F   UNL A   1      43.328  24.688  24.511  1.00  0.00    -0.200 F 
ENDBRANCH  56  80
BRANCH  68  91
ATOM     91  C   UNL A   1      44.571  26.909  34.499  1.00  0.00     0.064 A 
ATOM     92  C   UNL A   1      44.315  25.657  35.077  1.00  0.00     0.173 A 
ATOM     93  C   UNL A   1      45.878  27.414  34.583  1.00  0.00     0.173 A 
ATOM     94  F   UNL A   1      43.080  25.133  35.037  1.00  0.00    -0.203 F 
ATOM     95  C   UNL A   1      45.317  24.958  35.744  1.00  0.00     0.198 A 
ATOM     96  C   UNL A   1      46.886  26.695  35.218  1.00  0.00     0.198 A 
ATOM     97  F   UNL A   1      46.180  28.603  34.040  1.00  0.00    -0.203 F 
ATOM     98  F   UNL A   1      45.034  23.794  36.344  1.00  0.00    -0.200 F 
ATOM     99  C   UNL A   1      46.603  25.474  35.808  1.00  0.00     0.200 A 
ATOM    100  F   UNL A   1      48.132  27.188  35.261  1.00  0.00    -0.200 F 
ATOM    101  F   UNL A   1      47.568  24.798  36.447  1.00  0.00    -0.200 F 
ENDBRANCH  68  91
ENDBRANCH  42  43
ENDBRANCH  34  37
ENDBRANCH  32  33
ENDBRANCH  31  32
ENDBRANCH  30  31
ENDBRANCH   1  30
TORSDOF 17
ENDMDL
