MODEL 1
REMARK VINA RESULT:     -13.5      0.000      0.000
REMARK SMILES CC(=O)Nc1cccc(-c2ccc(F)c(C(=O)NCCCCNC(=O)c3ccc(-c4c5nc(c(-c6c(F)c(F)c(F)c(F)c6F)c6ccc([nH]6)c(-c6c(F)c(F)c(F)c(F)c6F)c6nc(c(-c7c(F)c(F)c(F)c(F)c7F)c7ccc4[nH]7)C=C6)C=C5)cc3)c2)c1
REMARK SMILES IDX 20 1 19 2 18 3 16 4 17 5 15 7 10 8 11 9 89 10 12 11 13 12
REMARK SMILES IDX 14 13 9 14 5 15 6 16 90 17 7 18 8 19 4 20 1 21 2 22 3 23
REMARK SMILES IDX 21 25 22 26 23 27 24 28 25 30 26 31 27 32 88 33 28 34 87 35
REMARK SMILES IDX 29 36 30 37 31 38 81 39 32 40 86 41 80 42 82 43 33 44 85 45
REMARK SMILES IDX 79 46 78 47 34 49 66 50 46 51 65 52 47 53 50 54 64 55 83 56
REMARK SMILES IDX 48 57 49 58 63 60 84 61 51 62 35 63 36 64 44 65 37 66 38 67
REMARK SMILES IDX 42 68 45 69 39 70 40 71 43 72 41 73 67 74 68 75 76 76 69 77
REMARK SMILES IDX 70 78 74 79 77 80 71 81 72 82 75 83 73 84 52 85 53 86 61 87
REMARK SMILES IDX 54 88 55 89 59 90 62 91 56 92 57 93 60 94 58 95
REMARK H PARENT 18 6 4 24 23 29 82 48 50 59
REMARK Flexibility Score: inf
ROOT
ATOM      1  C   UNL A   1      31.800  30.432  26.868  1.00  0.00     0.023 C 
ENDROOT
BRANCH   1   2
ATOM      2  C   UNL A   1      33.228  29.919  26.741  1.00  0.00     0.116 C 
BRANCH   2   3
ATOM      3  N   UNL A   1      33.665  29.624  25.383  1.00  0.00    -0.352 N 
ATOM      4  C   UNL A   1      33.460  28.518  24.578  1.00  0.00     0.254 C 
ATOM      5  O   UNL A   1      33.885  28.550  23.425  1.00  0.00    -0.269 OA
ATOM      6  H   UNL A   1      34.200  30.337  24.965  1.00  0.00     0.163 HD
BRANCH   4   7
ATOM      7  C   UNL A   1      32.773  27.302  25.081  1.00  0.00     0.076 A 
ATOM      8  C   UNL A   1      32.882  24.933  25.674  1.00  0.00    -0.017 A 
ATOM      9  C   UNL A   1      31.482  24.879  25.648  1.00  0.00     0.012 A 
ATOM     10  C   UNL A   1      33.495  26.188  25.512  1.00  0.00     0.025 A 
ATOM     11  C   UNL A   1      30.734  26.032  25.385  1.00  0.00     0.041 A 
ATOM     12  C   UNL A   1      31.381  27.226  25.066  1.00  0.00     0.135 A 
ATOM     13  F   UNL A   1      30.627  28.270  24.697  1.00  0.00    -0.206 F 
BRANCH   8  14
ATOM     14  C   UNL A   1      33.730  23.725  25.667  1.00  0.00    -0.016 A 
ATOM     15  C   UNL A   1      33.974  21.319  26.047  1.00  0.00     0.041 A 
ATOM     16  C   UNL A   1      35.356  21.485  26.167  1.00  0.00     0.026 A 
ATOM     17  C   UNL A   1      33.175  22.440  25.805  1.00  0.00     0.034 A 
ATOM     18  C   UNL A   1      35.935  22.739  25.981  1.00  0.00     0.003 A 
ATOM     19  C   UNL A   1      35.129  23.849  25.729  1.00  0.00     0.009 A 
BRANCH  15  20
ATOM     20  N   UNL A   1      33.460  20.034  26.281  1.00  0.00    -0.326 N 
ATOM     21  C   UNL A   1      32.932  19.289  23.961  1.00  0.00     0.114 C 
ATOM     22  C   UNL A   1      32.858  19.130  25.455  1.00  0.00     0.221 C 
ATOM     23  O   UNL A   1      32.301  18.149  25.952  1.00  0.00    -0.275 OA
ATOM     24  H   UNL A   1      33.550  19.728  27.212  1.00  0.00     0.169 HD
ENDBRANCH  15  20
ENDBRANCH   8  14
ENDBRANCH   4   7
ENDBRANCH   2   3
ENDBRANCH   1   2
BRANCH   1  25
ATOM     25  C   UNL A   1      31.606  31.940  26.808  1.00  0.00     0.023 C 
BRANCH  25  26
ATOM     26  C   UNL A   1      32.774  32.793  27.284  1.00  0.00     0.116 C 
BRANCH  26  27
ATOM     27  N   UNL A   1      32.407  34.150  27.661  1.00  0.00    -0.352 N 
ATOM     28  C   UNL A   1      32.966  34.991  28.598  1.00  0.00     0.251 C 
ATOM     29  H   UNL A   1      31.640  34.525  27.170  1.00  0.00     0.163 HD
ATOM     30  O   UNL A   1      32.461  36.084  28.819  1.00  0.00    -0.269 OA
BRANCH  28  31
ATOM     31  C   UNL A   1      34.146  34.556  29.377  1.00  0.00     0.039 A 
ATOM     32  C   UNL A   1      33.947  34.014  30.651  1.00  0.00     0.014 A 
ATOM     33  C   UNL A   1      35.438  34.652  28.854  1.00  0.00     0.014 A 
ATOM     34  C   UNL A   1      35.030  33.478  31.355  1.00  0.00     0.010 A 
ATOM     35  C   UNL A   1      36.499  34.043  29.517  1.00  0.00     0.010 A 
ATOM     36  C   UNL A   1      36.306  33.443  30.771  1.00  0.00    -0.014 A 
BRANCH  36  37
ATOM     37  C   UNL A   1      37.447  32.774  31.447  1.00  0.00     0.031 A 
ATOM     38  C   UNL A   1      38.145  31.618  30.785  1.00  0.00     0.074 A 
ATOM     39  C   UNL A   1      37.805  33.154  32.689  1.00  0.00     0.049 A 
ATOM     40  N   UNL A   1      39.103  30.854  31.247  1.00  0.00    -0.248 NA
ATOM     41  C   UNL A   1      37.684  31.255  29.436  1.00  0.00     0.031 C 
ATOM     42  C   UNL A   1      37.172  34.224  33.462  1.00  0.00     0.029 A 
ATOM     43  N   UNL A   1      38.783  32.676  33.526  1.00  0.00    -0.354 N 
ATOM     44  C   UNL A   1      39.343  29.911  30.256  1.00  0.00     0.074 A 
ATOM     45  C   UNL A   1      38.395  30.165  29.192  1.00  0.00     0.031 C 
ATOM     46  C   UNL A   1      37.793  34.338  34.647  1.00  0.00     0.029 A 
ATOM     47  C   UNL A   1      38.843  33.327  34.734  1.00  0.00     0.049 A 
ATOM     48  H   UNL A   1      39.384  31.935  33.283  1.00  0.00     0.167 HD
ATOM     49  C   UNL A   1      40.286  28.940  30.223  1.00  0.00     0.037 A 
ATOM     50  C   UNL A   1      39.651  33.129  35.792  1.00  0.00     0.037 A 
ATOM     51  C   UNL A   1      41.248  28.708  31.268  1.00  0.00     0.049 A 
ATOM     52  C   UNL A   1      40.695  32.047  35.728  1.00  0.00     0.074 A 
ATOM     53  C   UNL A   1      42.280  27.786  31.304  1.00  0.00     0.029 A 
ATOM     54  N   UNL A   1      41.294  29.408  32.465  1.00  0.00    -0.354 N 
ATOM     55  N   UNL A   1      40.958  31.207  34.758  1.00  0.00    -0.248 NA
ATOM     56  C   UNL A   1      41.561  31.893  36.905  1.00  0.00     0.031 C 
ATOM     57  C   UNL A   1      42.929  27.904  32.537  1.00  0.00     0.029 A 
ATOM     58  C   UNL A   1      42.330  28.929  33.253  1.00  0.00     0.049 A 
ATOM     59  H   UNL A   1      40.684  30.137  32.718  1.00  0.00     0.167 HD
ATOM     60  C   UNL A   1      42.033  30.445  35.193  1.00  0.00     0.074 A 
ATOM     61  C   UNL A   1      42.385  30.932  36.510  1.00  0.00     0.031 C 
ATOM     62  C   UNL A   1      42.674  29.434  34.557  1.00  0.00     0.037 A 
BRANCH  49  63
ATOM     63  C   UNL A   1      40.327  28.057  29.009  1.00  0.00     0.064 A 
ATOM     64  C   UNL A   1      39.614  26.849  28.956  1.00  0.00     0.173 A 
ATOM     65  C   UNL A   1      41.068  28.432  27.879  1.00  0.00     0.173 A 
ATOM     66  F   UNL A   1      38.900  26.440  30.016  1.00  0.00    -0.203 F 
ATOM     67  C   UNL A   1      39.667  26.034  27.829  1.00  0.00     0.198 A 
ATOM     68  C   UNL A   1      41.095  27.628  26.741  1.00  0.00     0.198 A 
ATOM     69  F   UNL A   1      41.763  29.579  27.874  1.00  0.00    -0.203 F 
ATOM     70  F   UNL A   1      39.021  24.860  27.822  1.00  0.00    -0.200 F 
ATOM     71  C   UNL A   1      40.403  26.426  26.721  1.00  0.00     0.200 A 
ATOM     72  F   UNL A   1      41.796  28.015  25.666  1.00  0.00    -0.200 F 
ATOM     73  F   UNL A   1      40.451  25.643  25.635  1.00  0.00    -0.200 F 
ENDBRANCH  49  63
BRANCH  50  74
ATOM     74  C   UNL A   1      39.534  33.999  36.991  1.00  0.00     0.064 A 
ATOM     75  C   UNL A   1      40.181  35.242  37.041  1.00  0.00     0.173 A 
ATOM     76  C   UNL A   1      38.783  33.609  38.109  1.00  0.00     0.173 A 
ATOM     77  F   UNL A   1      40.928  35.648  36.004  1.00  0.00    -0.203 F 
ATOM     78  C   UNL A   1      40.099  36.052  38.170  1.00  0.00     0.198 A 
ATOM     79  C   UNL A   1      38.680  34.433  39.229  1.00  0.00     0.198 A 
ATOM     80  F   UNL A   1      38.141  32.431  38.110  1.00  0.00    -0.203 F 
ATOM     81  F   UNL A   1      40.765  37.214  38.208  1.00  0.00    -0.200 F 
ATOM     82  C   UNL A   1      39.344  35.650  39.262  1.00  0.00     0.200 A 
ATOM     83  F   UNL A   1      37.939  34.046  40.277  1.00  0.00    -0.200 F 
ATOM     84  F   UNL A   1      39.264  36.430  40.348  1.00  0.00    -0.200 F 
ENDBRANCH  50  74
BRANCH  62  85
ATOM     85  C   UNL A   1      43.844  28.812  35.260  1.00  0.00     0.064 A 
ATOM     86  C   UNL A   1      45.133  29.360  35.170  1.00  0.00     0.173 A 
ATOM     87  C   UNL A   1      43.667  27.675  36.063  1.00  0.00     0.173 A 
ATOM     88  F   UNL A   1      45.356  30.437  34.402  1.00  0.00    -0.203 F 
ATOM     89  C   UNL A   1      46.206  28.776  35.839  1.00  0.00     0.198 A 
ATOM     90  C   UNL A   1      44.735  27.112  36.753  1.00  0.00     0.198 A 
ATOM     91  F   UNL A   1      42.454  27.117  36.185  1.00  0.00    -0.203 F 
ATOM     92  F   UNL A   1      47.436  29.288  35.703  1.00  0.00    -0.200 F 
ATOM     93  C   UNL A   1      46.005  27.658  36.635  1.00  0.00     0.200 A 
ATOM     94  F   UNL A   1      44.538  26.039  37.531  1.00  0.00    -0.200 F 
ATOM     95  F   UNL A   1      47.038  27.102  37.283  1.00  0.00    -0.200 F 
ENDBRANCH  62  85
ENDBRANCH  36  37
ENDBRANCH  28  31
ENDBRANCH  26  27
ENDBRANCH  25  26
ENDBRANCH   1  25
TORSDOF 13
ENDMDL
MODEL 2
REMARK VINA RESULT:     -13.4      0.565      7.288
REMARK SMILES CC(=O)Nc1cccc(-c2ccc(F)c(C(=O)NCCCCNC(=O)c3ccc(-c4c5nc(c(-c6c(F)c(F)c(F)c(F)c6F)c6ccc([nH]6)c(-c6c(F)c(F)c(F)c(F)c6F)c6nc(c(-c7c(F)c(F)c(F)c(F)c7F)c7ccc4[nH]7)C=C6)C=C5)cc3)c2)c1
REMARK SMILES IDX 20 1 19 2 18 3 16 4 17 5 15 7 10 8 11 9 89 10 12 11 13 12
REMARK SMILES IDX 14 13 9 14 5 15 6 16 90 17 7 18 8 19 4 20 1 21 2 22 3 23
REMARK SMILES IDX 21 25 22 26 23 27 24 28 25 30 26 31 27 32 88 33 28 34 87 35
REMARK SMILES IDX 29 36 30 37 31 38 81 39 32 40 86 41 80 42 82 43 33 44 85 45
REMARK SMILES IDX 79 46 78 47 34 49 66 50 46 51 65 52 47 53 50 54 64 55 83 56
REMARK SMILES IDX 48 57 49 58 63 60 84 61 51 62 35 63 36 64 44 65 37 66 38 67
REMARK SMILES IDX 42 68 45 69 39 70 40 71 43 72 41 73 67 74 68 75 76 76 69 77
REMARK SMILES IDX 70 78 74 79 77 80 71 81 72 82 75 83 73 84 52 85 53 86 61 87
REMARK SMILES IDX 54 88 55 89 59 90 62 91 56 92 57 93 60 94 58 95
REMARK H PARENT 18 6 4 24 23 29 82 48 50 59
REMARK Flexibility Score: inf
ROOT
ATOM      1  C   UNL A   1      31.588  30.691  26.255  1.00  0.00     0.023 C 
ENDROOT
BRANCH   1   2
ATOM      2  C   UNL A   1      33.005  30.142  26.348  1.00  0.00     0.116 C 
BRANCH   2   3
ATOM      3  N   UNL A   1      33.594  29.723  25.083  1.00  0.00    -0.352 N 
ATOM      4  C   UNL A   1      33.523  28.523  24.397  1.00  0.00     0.254 C 
ATOM      5  O   UNL A   1      34.065  28.450  23.297  1.00  0.00    -0.269 OA
ATOM      6  H   UNL A   1      34.138  30.413  24.640  1.00  0.00     0.163 HD
BRANCH   4   7
ATOM      7  C   UNL A   1      32.841  27.335  24.969  1.00  0.00     0.076 A 
ATOM      8  C   UNL A   1      32.947  24.990  25.651  1.00  0.00    -0.017 A 
ATOM      9  C   UNL A   1      31.547  24.949  25.670  1.00  0.00     0.012 A 
ATOM     10  C   UNL A   1      33.566  26.231  25.420  1.00  0.00     0.025 A 
ATOM     11  C   UNL A   1      30.801  26.099  25.385  1.00  0.00     0.041 A 
ATOM     12  C   UNL A   1      31.449  27.273  24.999  1.00  0.00     0.135 A 
ATOM     13  F   UNL A   1      30.693  28.310  24.614  1.00  0.00    -0.206 F 
BRANCH   8  14
ATOM     14  C   UNL A   1      33.784  23.774  25.665  1.00  0.00    -0.016 A 
ATOM     15  C   UNL A   1      33.997  21.367  26.058  1.00  0.00     0.041 A 
ATOM     16  C   UNL A   1      35.378  21.520  26.205  1.00  0.00     0.026 A 
ATOM     17  C   UNL A   1      33.213  22.495  25.796  1.00  0.00     0.034 A 
ATOM     18  C   UNL A   1      35.972  22.768  26.027  1.00  0.00     0.003 A 
ATOM     19  C   UNL A   1      35.182  23.885  25.755  1.00  0.00     0.009 A 
BRANCH  15  20
ATOM     20  N   UNL A   1      33.466  20.088  26.286  1.00  0.00    -0.326 N 
ATOM     21  C   UNL A   1      32.987  19.336  23.957  1.00  0.00     0.114 C 
ATOM     22  C   UNL A   1      32.875  19.185  25.449  1.00  0.00     0.221 C 
ATOM     23  O   UNL A   1      32.298  18.211  25.938  1.00  0.00    -0.275 OA
ATOM     24  H   UNL A   1      33.531  19.786  27.220  1.00  0.00     0.169 HD
ENDBRANCH  15  20
ENDBRANCH   8  14
ENDBRANCH   4   7
ENDBRANCH   2   3
ENDBRANCH   1   2
BRANCH   1  25
ATOM     25  C   UNL A   1      31.377  32.127  26.712  1.00  0.00     0.023 C 
BRANCH  25  26
ATOM     26  C   UNL A   1      32.607  32.860  27.230  1.00  0.00     0.116 C 
BRANCH  26  27
ATOM     27  N   UNL A   1      32.351  34.229  27.651  1.00  0.00    -0.352 N 
ATOM     28  C   UNL A   1      32.996  35.001  28.593  1.00  0.00     0.251 C 
ATOM     29  H   UNL A   1      31.601  34.673  27.193  1.00  0.00     0.163 HD
ATOM     30  O   UNL A   1      32.580  36.123  28.856  1.00  0.00    -0.269 OA
BRANCH  28  31
ATOM     31  C   UNL A   1      34.161  34.460  29.327  1.00  0.00     0.039 A 
ATOM     32  C   UNL A   1      33.939  33.768  30.522  1.00  0.00     0.014 A 
ATOM     33  C   UNL A   1      35.460  34.604  28.836  1.00  0.00     0.014 A 
ATOM     34  C   UNL A   1      35.007  33.138  31.168  1.00  0.00     0.010 A 
ATOM     35  C   UNL A   1      36.507  33.906  29.431  1.00  0.00     0.010 A 
ATOM     36  C   UNL A   1      36.290  33.159  30.600  1.00  0.00    -0.014 A 
BRANCH  36  37
ATOM     37  C   UNL A   1      37.415  32.398  31.202  1.00  0.00     0.031 A 
ATOM     38  C   UNL A   1      37.928  32.762  32.567  1.00  0.00     0.074 A 
ATOM     39  C   UNL A   1      38.026  31.432  30.489  1.00  0.00     0.049 A 
ATOM     40  N   UNL A   1      38.949  32.274  33.227  1.00  0.00    -0.248 NA
ATOM     41  C   UNL A   1      37.216  33.838  33.273  1.00  0.00     0.031 C 
ATOM     42  C   UNL A   1      37.661  31.021  29.132  1.00  0.00     0.029 A 
ATOM     43  N   UNL A   1      39.093  30.626  30.803  1.00  0.00    -0.354 N 
ATOM     44  C   UNL A   1      39.012  32.996  34.411  1.00  0.00     0.074 A 
ATOM     45  C   UNL A   1      37.962  33.990  34.357  1.00  0.00     0.031 C 
ATOM     46  C   UNL A   1      38.471  30.024  28.740  1.00  0.00     0.029 A 
ATOM     47  C   UNL A   1      39.436  29.750  29.801  1.00  0.00     0.049 A 
ATOM     48  H   UNL A   1      39.568  30.672  31.663  1.00  0.00     0.167 HD
ATOM     49  C   UNL A   1      39.851  32.828  35.460  1.00  0.00     0.037 A 
ATOM     50  C   UNL A   1      40.419  28.832  29.745  1.00  0.00     0.037 A 
ATOM     51  C   UNL A   1      40.875  31.819  35.526  1.00  0.00     0.049 A 
ATOM     52  C   UNL A   1      41.334  28.660  30.927  1.00  0.00     0.074 A 
ATOM     53  C   UNL A   1      41.739  31.530  36.570  1.00  0.00     0.029 A 
ATOM     54  N   UNL A   1      41.173  30.932  34.503  1.00  0.00    -0.354 N 
ATOM     55  N   UNL A   1      41.341  29.302  32.069  1.00  0.00    -0.248 NA
ATOM     56  C   UNL A   1      42.375  27.628  30.814  1.00  0.00     0.031 C 
ATOM     57  C   UNL A   1      42.583  30.492  36.163  1.00  0.00     0.029 A 
ATOM     58  C   UNL A   1      42.217  30.103  34.884  1.00  0.00     0.049 A 
ATOM     59  H   UNL A   1      40.711  30.894  33.634  1.00  0.00     0.167 HD
ATOM     60  C   UNL A   1      42.361  28.736  32.820  1.00  0.00     0.074 A 
ATOM     61  C   UNL A   1      42.944  27.688  32.009  1.00  0.00     0.031 C 
ATOM     62  C   UNL A   1      42.777  29.056  34.070  1.00  0.00     0.037 A 
BRANCH  49  63
ATOM     63  C   UNL A   1      39.689  33.755  36.630  1.00  0.00     0.064 A 
ATOM     64  C   UNL A   1      38.881  33.417  37.728  1.00  0.00     0.173 A 
ATOM     65  C   UNL A   1      40.362  34.985  36.667  1.00  0.00     0.173 A 
ATOM     66  F   UNL A   1      38.206  32.258  37.736  1.00  0.00    -0.203 F 
ATOM     67  C   UNL A   1      38.730  34.289  38.802  1.00  0.00     0.198 A 
ATOM     68  C   UNL A   1      40.232  35.842  37.757  1.00  0.00     0.198 A 
ATOM     69  F   UNL A   1      41.151  35.356  35.647  1.00  0.00    -0.203 F 
ATOM     70  F   UNL A   1      37.912  33.966  39.814  1.00  0.00    -0.200 F 
ATOM     71  C   UNL A   1      39.409  35.498  38.819  1.00  0.00     0.200 A 
ATOM     72  F   UNL A   1      40.900  37.004  37.778  1.00  0.00    -0.200 F 
ATOM     73  F   UNL A   1      39.266  36.334  39.855  1.00  0.00    -0.200 F 
ENDBRANCH  49  63
BRANCH  50  74
ATOM     74  C   UNL A   1      40.568  27.974  28.540  1.00  0.00     0.064 A 
ATOM     75  C   UNL A   1      41.328  28.406  27.443  1.00  0.00     0.173 A 
ATOM     76  C   UNL A   1      39.956  26.716  28.456  1.00  0.00     0.173 A 
ATOM     77  F   UNL A   1      41.914  29.611  27.469  1.00  0.00    -0.203 F 
ATOM     78  C   UNL A   1      41.451  27.621  26.299  1.00  0.00     0.198 A 
ATOM     79  C   UNL A   1      40.103  25.919  27.321  1.00  0.00     0.198 A 
ATOM     80  F   UNL A   1      39.223  26.254  29.480  1.00  0.00    -0.203 F 
ATOM     81  F   UNL A   1      42.144  28.078  25.248  1.00  0.00    -0.200 F 
ATOM     82  C   UNL A   1      40.843  26.376  26.241  1.00  0.00     0.200 A 
ATOM     83  F   UNL A   1      39.524  24.712  27.272  1.00  0.00    -0.200 F 
ATOM     84  F   UNL A   1      40.963  25.620  25.141  1.00  0.00    -0.200 F 
ENDBRANCH  50  74
BRANCH  62  85
ATOM     85  C   UNL A   1      43.890  28.237  34.654  1.00  0.00     0.064 A 
ATOM     86  C   UNL A   1      43.649  27.004  35.279  1.00  0.00     0.173 A 
ATOM     87  C   UNL A   1      45.220  28.674  34.554  1.00  0.00     0.173 A 
ATOM     88  F   UNL A   1      42.393  26.550  35.413  1.00  0.00    -0.203 F 
ATOM     89  C   UNL A   1      44.695  26.252  35.804  1.00  0.00     0.198 A 
ATOM     90  C   UNL A   1      46.266  27.906  35.055  1.00  0.00     0.198 A 
ATOM     91  F   UNL A   1      45.504  29.843  33.961  1.00  0.00    -0.203 F 
ATOM     92  F   UNL A   1      44.438  25.099  36.438  1.00  0.00    -0.200 F 
ATOM     93  C   UNL A   1      46.003  26.700  35.685  1.00  0.00     0.200 A 
ATOM     94  F   UNL A   1      47.530  28.335  34.929  1.00  0.00    -0.200 F 
ATOM     95  F   UNL A   1      47.010  25.971  36.187  1.00  0.00    -0.200 F 
ENDBRANCH  62  85
ENDBRANCH  36  37
ENDBRANCH  28  31
ENDBRANCH  26  27
ENDBRANCH  25  26
ENDBRANCH   1  25
TORSDOF 13
ENDMDL
MODEL 3
REMARK VINA RESULT:     -13.3      2.564      8.422
REMARK SMILES CC(=O)Nc1cccc(-c2ccc(F)c(C(=O)NCCCCNC(=O)c3ccc(-c4c5nc(c(-c6c(F)c(F)c(F)c(F)c6F)c6ccc([nH]6)c(-c6c(F)c(F)c(F)c(F)c6F)c6nc(c(-c7c(F)c(F)c(F)c(F)c7F)c7ccc4[nH]7)C=C6)C=C5)cc3)c2)c1
REMARK SMILES IDX 20 1 19 2 18 3 16 4 17 5 15 7 10 8 11 9 89 10 12 11 13 12
REMARK SMILES IDX 14 13 9 14 5 15 6 16 90 17 7 18 8 19 4 20 1 21 2 22 3 23
REMARK SMILES IDX 21 25 22 26 23 27 24 28 25 30 26 31 27 32 88 33 28 34 87 35
REMARK SMILES IDX 29 36 30 37 31 38 81 39 32 40 86 41 80 42 82 43 33 44 85 45
REMARK SMILES IDX 79 46 78 47 34 49 66 50 46 51 65 52 47 53 50 54 64 55 83 56
REMARK SMILES IDX 48 57 49 58 63 60 84 61 51 62 35 63 36 64 44 65 37 66 38 67
REMARK SMILES IDX 42 68 45 69 39 70 40 71 43 72 41 73 67 74 68 75 76 76 69 77
REMARK SMILES IDX 70 78 74 79 77 80 71 81 72 82 75 83 73 84 52 85 53 86 61 87
REMARK SMILES IDX 54 88 55 89 59 90 62 91 56 92 57 93 60 94 58 95
REMARK H PARENT 18 6 4 24 23 29 82 48 50 59
REMARK Flexibility Score: inf
ROOT
ATOM      1  C   UNL A   1      34.599  31.188  27.783  1.00  0.00     0.023 C 
ENDROOT
BRANCH   1   2
ATOM      2  C   UNL A   1      34.521  29.733  27.342  1.00  0.00     0.116 C 
BRANCH   2   3
ATOM      3  N   UNL A   1      33.391  28.982  27.872  1.00  0.00    -0.352 N 
ATOM      4  C   UNL A   1      32.456  28.177  27.246  1.00  0.00     0.254 C 
ATOM      5  O   UNL A   1      31.631  27.591  27.944  1.00  0.00    -0.269 OA
ATOM      6  H   UNL A   1      33.272  29.061  28.846  1.00  0.00     0.163 HD
BRANCH   4   7
ATOM      7  C   UNL A   1      32.413  28.032  25.769  1.00  0.00     0.076 A 
ATOM      8  C   UNL A   1      31.158  28.249  23.683  1.00  0.00    -0.017 A 
ATOM      9  C   UNL A   1      32.104  27.433  23.048  1.00  0.00     0.012 A 
ATOM     10  C   UNL A   1      31.407  28.635  25.012  1.00  0.00     0.025 A 
ATOM     11  C   UNL A   1      33.215  26.958  23.753  1.00  0.00     0.041 A 
ATOM     12  C   UNL A   1      33.344  27.227  25.116  1.00  0.00     0.135 A 
ATOM     13  F   UNL A   1      34.355  26.647  25.777  1.00  0.00    -0.206 F 
BRANCH   8  14
ATOM     14  C   UNL A   1      29.839  28.552  23.094  1.00  0.00    -0.016 A 
ATOM     15  C   UNL A   1      28.360  30.121  21.934  1.00  0.00     0.041 A 
ATOM     16  C   UNL A   1      27.251  29.412  22.402  1.00  0.00     0.026 A 
ATOM     17  C   UNL A   1      29.641  29.689  22.289  1.00  0.00     0.034 A 
ATOM     18  C   UNL A   1      27.422  28.253  23.157  1.00  0.00     0.003 A 
ATOM     19  C   UNL A   1      28.706  27.825  23.496  1.00  0.00     0.009 A 
BRANCH  15  20
ATOM     20  N   UNL A   1      28.110  31.297  21.209  1.00  0.00    -0.326 N 
ATOM     21  C   UNL A   1      28.751  33.042  22.870  1.00  0.00     0.114 C 
ATOM     22  C   UNL A   1      28.120  32.612  21.574  1.00  0.00     0.221 C 
ATOM     23  O   UNL A   1      27.655  33.448  20.797  1.00  0.00    -0.275 OA
ATOM     24  H   UNL A   1      27.886  31.146  20.263  1.00  0.00     0.169 HD
ENDBRANCH  15  20
ENDBRANCH   8  14
ENDBRANCH   4   7
ENDBRANCH   2   3
ENDBRANCH   1   2
BRANCH   1  25
ATOM     25  C   UNL A   1      33.279  31.931  27.931  1.00  0.00     0.023 C 
BRANCH  25  26
ATOM     26  C   UNL A   1      33.070  33.129  27.014  1.00  0.00     0.116 C 
BRANCH  26  27
ATOM     27  N   UNL A   1      32.622  34.333  27.698  1.00  0.00    -0.352 N 
ATOM     28  C   UNL A   1      33.098  34.930  28.845  1.00  0.00     0.251 C 
ATOM     29  H   UNL A   1      31.860  34.792  27.276  1.00  0.00     0.163 HD
ATOM     30  O   UNL A   1      32.533  35.913  29.305  1.00  0.00    -0.269 OA
BRANCH  28  31
ATOM     31  C   UNL A   1      34.263  34.354  29.554  1.00  0.00     0.039 A 
ATOM     32  C   UNL A   1      34.038  33.576  30.693  1.00  0.00     0.014 A 
ATOM     33  C   UNL A   1      35.566  34.552  29.090  1.00  0.00     0.014 A 
ATOM     34  C   UNL A   1      35.108  32.916  31.306  1.00  0.00     0.010 A 
ATOM     35  C   UNL A   1      36.616  33.828  29.648  1.00  0.00     0.010 A 
ATOM     36  C   UNL A   1      36.398  32.997  30.757  1.00  0.00    -0.014 A 
BRANCH  36  37
ATOM     37  C   UNL A   1      37.527  32.212  31.318  1.00  0.00     0.031 A 
ATOM     38  C   UNL A   1      38.053  32.520  32.692  1.00  0.00     0.074 A 
ATOM     39  C   UNL A   1      38.130  31.274  30.561  1.00  0.00     0.049 A 
ATOM     40  N   UNL A   1      39.080  32.005  33.322  1.00  0.00    -0.248 NA
ATOM     41  C   UNL A   1      37.349  33.568  33.447  1.00  0.00     0.031 C 
ATOM     42  C   UNL A   1      37.751  30.918  29.193  1.00  0.00     0.029 A 
ATOM     43  N   UNL A   1      39.199  30.455  30.833  1.00  0.00    -0.354 N 
ATOM     44  C   UNL A   1      39.154  32.680  34.534  1.00  0.00     0.074 A 
ATOM     45  C   UNL A   1      38.105  33.676  34.529  1.00  0.00     0.031 C 
ATOM     46  C   UNL A   1      38.557  29.937  28.754  1.00  0.00     0.029 A 
ATOM     47  C   UNL A   1      39.531  29.620  29.794  1.00  0.00     0.049 A 
ATOM     48  H   UNL A   1      39.682  30.466  31.690  1.00  0.00     0.167 HD
ATOM     49  C   UNL A   1      40.003  32.469  35.568  1.00  0.00     0.037 A 
ATOM     50  C   UNL A   1      40.512  28.703  29.692  1.00  0.00     0.037 A 
ATOM     51  C   UNL A   1      41.026  31.458  35.584  1.00  0.00     0.049 A 
ATOM     52  C   UNL A   1      41.438  28.484  30.858  1.00  0.00     0.074 A 
ATOM     53  C   UNL A   1      41.899  31.126  36.606  1.00  0.00     0.029 A 
ATOM     54  N   UNL A   1      41.313  30.611  34.523  1.00  0.00    -0.354 N 
ATOM     55  N   UNL A   1      41.456  29.080  32.024  1.00  0.00    -0.248 NA
ATOM     56  C   UNL A   1      42.476  27.456  30.694  1.00  0.00     0.031 C 
ATOM     57  C   UNL A   1      42.738  30.104  36.151  1.00  0.00     0.029 A 
ATOM     58  C   UNL A   1      42.360  29.767  34.861  1.00  0.00     0.049 A 
ATOM     59  H   UNL A   1      40.844  30.609  33.658  1.00  0.00     0.167 HD
ATOM     60  C   UNL A   1      42.483  28.483  32.743  1.00  0.00     0.074 A 
ATOM     61  C   UNL A   1      43.057  27.468  31.886  1.00  0.00     0.031 C 
ATOM     62  C   UNL A   1      42.910  28.752  34.000  1.00  0.00     0.037 A 
BRANCH  49  63
ATOM     63  C   UNL A   1      39.853  33.349  36.775  1.00  0.00     0.064 A 
ATOM     64  C   UNL A   1      38.946  33.039  37.801  1.00  0.00     0.173 A 
ATOM     65  C   UNL A   1      40.637  34.503  36.920  1.00  0.00     0.173 A 
ATOM     66  F   UNL A   1      38.164  31.953  37.703  1.00  0.00    -0.203 F 
ATOM     67  C   UNL A   1      38.807  33.867  38.910  1.00  0.00     0.198 A 
ATOM     68  C   UNL A   1      40.517  35.314  38.047  1.00  0.00     0.198 A 
ATOM     69  F   UNL A   1      41.523  34.844  35.973  1.00  0.00    -0.203 F 
ATOM     70  F   UNL A   1      37.897  33.578  39.850  1.00  0.00    -0.200 F 
ATOM     71  C   UNL A   1      39.597  35.001  39.035  1.00  0.00     0.200 A 
ATOM     72  F   UNL A   1      41.290  36.402  38.173  1.00  0.00    -0.200 F 
ATOM     73  F   UNL A   1      39.465  35.795  40.106  1.00  0.00    -0.200 F 
ENDBRANCH  49  63
BRANCH  50  74
ATOM     74  C   UNL A   1      40.649  27.894  28.453  1.00  0.00     0.064 A 
ATOM     75  C   UNL A   1      39.987  26.665  28.323  1.00  0.00     0.173 A 
ATOM     76  C   UNL A   1      41.442  28.325  27.380  1.00  0.00     0.173 A 
ATOM     77  F   UNL A   1      39.234  26.202  29.332  1.00  0.00    -0.203 F 
ATOM     78  C   UNL A   1      40.130  25.887  27.178  1.00  0.00     0.198 A 
ATOM     79  C   UNL A   1      41.563  27.557  26.222  1.00  0.00     0.198 A 
ATOM     80  F   UNL A   1      42.093  29.496  27.452  1.00  0.00    -0.203 F 
ATOM     81  F   UNL A   1      39.523  24.695  27.099  1.00  0.00    -0.200 F 
ATOM     82  C   UNL A   1      40.914  26.336  26.125  1.00  0.00     0.200 A 
ATOM     83  F   UNL A   1      42.312  28.000  25.203  1.00  0.00    -0.200 F 
ATOM     84  F   UNL A   1      41.050  25.588  25.022  1.00  0.00    -0.200 F 
ENDBRANCH  50  74
BRANCH  62  85
ATOM     85  C   UNL A   1      44.028  27.909  34.541  1.00  0.00     0.064 A 
ATOM     86  C   UNL A   1      45.367  28.317  34.453  1.00  0.00     0.173 A 
ATOM     87  C   UNL A   1      43.751  26.695  35.187  1.00  0.00     0.173 A 
ATOM     88  F   UNL A   1      45.684  29.463  33.831  1.00  0.00    -0.203 F 
ATOM     89  C   UNL A   1      46.390  27.528  34.971  1.00  0.00     0.198 A 
ATOM     90  C   UNL A   1      44.773  25.923  35.729  1.00  0.00     0.198 A 
ATOM     91  F   UNL A   1      42.486  26.263  35.301  1.00  0.00    -0.203 F 
ATOM     92  F   UNL A   1      47.666  27.914  34.836  1.00  0.00    -0.200 F 
ATOM     93  C   UNL A   1      46.092  26.335  35.615  1.00  0.00     0.200 A 
ATOM     94  F   UNL A   1      44.482  24.776  36.360  1.00  0.00    -0.200 F 
ATOM     95  F   UNL A   1      47.078  25.580  36.117  1.00  0.00    -0.200 F 
ENDBRANCH  62  85
ENDBRANCH  36  37
ENDBRANCH  28  31
ENDBRANCH  26  27
ENDBRANCH  25  26
ENDBRANCH   1  25
TORSDOF 13
ENDMDL
