MODEL 1
REMARK VINA RESULT:     -12.5      0.000      0.000
REMARK SMILES Cc1ccc(C(=O)N[C@@H](CC(=O)NCCCCNC(=O)c2ccc(-c3c4nc(c(-c5c(F)c(F)c(F)c(F)c5F)c5ccc([nH]5)c(-c5c(F)c(F)c(F)c(F)c5F)c5nc(c(-c6c(F)c(F)c(F)c(F)c6F)c6ccc3[nH]6)C=C5)C=C4)cc2)c2cccs2)o1
REMARK SMILES IDX 15 1 14 2 13 3 11 4 12 5 10 7 9 8 8 9 6 10 7 11 5 13 1 14
REMARK SMILES IDX 2 15 3 16 89 17 4 18 84 19 85 20 88 21 86 22 87 23 16 24
REMARK SMILES IDX 17 25 18 26 19 27 20 29 21 30 22 31 83 32 23 33 82 34 24 35
REMARK SMILES IDX 25 36 26 37 76 38 27 39 81 40 75 41 77 42 28 43 80 44 74 45
REMARK SMILES IDX 73 46 29 48 61 49 41 50 60 51 42 52 45 53 59 54 78 55 43 56
REMARK SMILES IDX 44 57 58 59 79 60 46 61 30 62 31 63 39 64 32 65 33 66 37 67
REMARK SMILES IDX 40 68 34 69 35 70 38 71 36 72 62 73 63 74 71 75 64 76 65 77
REMARK SMILES IDX 69 78 72 79 66 80 67 81 70 82 68 83 47 84 48 85 56 86 49 87
REMARK SMILES IDX 50 88 54 89 57 90 51 91 52 92 55 93 53 94
REMARK H PARENT 13 6 8 12 18 28 77 47 45 58
REMARK Flexibility Score: inf
ROOT
ATOM      1  C   UNL A   1      32.117  30.495  26.665  1.00  0.00     0.023 C 
ENDROOT
BRANCH   1   2
ATOM      2  C   UNL A   1      31.583  29.969  25.334  1.00  0.00     0.116 C 
BRANCH   2   3
ATOM      3  N   UNL A   1      32.662  29.562  24.455  1.00  0.00    -0.356 N 
ATOM      4  C   UNL A   1      32.930  28.347  23.905  1.00  0.00     0.222 C 
ATOM      5  O   UNL A   1      33.921  28.247  23.179  1.00  0.00    -0.275 OA
ATOM      6  H   UNL A   1      33.298  30.275  24.220  1.00  0.00     0.163 HD
BRANCH   4   7
ATOM      7  C   UNL A   1      32.012  27.162  24.129  1.00  0.00     0.130 C 
BRANCH   7   8
ATOM      8  C   UNL A   1      31.015  26.823  23.013  1.00  0.00     0.132 C 
BRANCH   8   9
ATOM      9  N   UNL A   1      31.650  26.482  21.755  1.00  0.00    -0.341 N 
ATOM     10  C   UNL A   1      32.636  25.627  21.355  1.00  0.00     0.287 C 
ATOM     11  O   UNL A   1      33.092  25.872  20.233  1.00  0.00    -0.266 OA
ATOM     12  H   UNL A   1      31.276  26.994  21.002  1.00  0.00     0.164 HD
BRANCH  10  13
ATOM     13  C   UNL A   1      33.077  24.498  22.144  1.00  0.00     0.191 A 
ATOM     14  C   UNL A   1      35.945  23.458  24.030  1.00  0.00     0.087 C 
ATOM     15  C   UNL A   1      34.627  23.490  23.369  1.00  0.00     0.101 A 
ATOM     16  C   UNL A   1      33.637  22.561  23.164  1.00  0.00     0.046 A 
ATOM     17  O   UNL A   1      34.283  24.665  22.786  1.00  0.00    -0.456 OA
ATOM     18  C   UNL A   1      32.647  23.203  22.375  1.00  0.00     0.056 A 
ENDBRANCH  10  13
ENDBRANCH   8   9
BRANCH   8  19
ATOM     19  C   UNL A   1      29.974  27.887  22.737  1.00  0.00     0.027 A 
ATOM     20  C   UNL A   1      30.141  29.062  22.027  1.00  0.00     0.017 A 
ATOM     21  S   UNL A   1      28.376  27.781  23.373  1.00  0.00    -0.147 S 
ATOM     22  C   UNL A   1      28.974  29.881  22.036  1.00  0.00     0.012 A 
ATOM     23  C   UNL A   1      27.943  29.302  22.738  1.00  0.00     0.065 A 
ENDBRANCH   8  19
ENDBRANCH   7   8
ENDBRANCH   4   7
ENDBRANCH   2   3
ENDBRANCH   1   2
BRANCH   1  24
ATOM     24  C   UNL A   1      31.734  31.928  27.001  1.00  0.00     0.023 C 
BRANCH  24  25
ATOM     25  C   UNL A   1      32.890  32.799  27.453  1.00  0.00     0.116 C 
BRANCH  25  26
ATOM     26  N   UNL A   1      32.504  34.178  27.720  1.00  0.00    -0.352 N 
ATOM     27  C   UNL A   1      33.037  35.054  28.636  1.00  0.00     0.251 C 
ATOM     28  H   UNL A   1      31.767  34.529  27.170  1.00  0.00     0.163 HD
ATOM     29  O   UNL A   1      32.544  36.158  28.819  1.00  0.00    -0.269 OA
BRANCH  27  30
ATOM     30  C   UNL A   1      34.198  34.617  29.435  1.00  0.00     0.039 A 
ATOM     31  C   UNL A   1      33.984  34.101  30.714  1.00  0.00     0.014 A 
ATOM     32  C   UNL A   1      35.480  34.642  28.879  1.00  0.00     0.014 A 
ATOM     33  C   UNL A   1      35.053  33.534  31.408  1.00  0.00     0.010 A 
ATOM     34  C   UNL A   1      36.517  33.988  29.528  1.00  0.00     0.010 A 
ATOM     35  C   UNL A   1      36.315  33.436  30.802  1.00  0.00    -0.014 A 
BRANCH  35  36
ATOM     36  C   UNL A   1      37.454  32.779  31.487  1.00  0.00     0.031 A 
ATOM     37  C   UNL A   1      38.160  31.634  30.818  1.00  0.00     0.074 A 
ATOM     38  C   UNL A   1      37.793  33.153  32.735  1.00  0.00     0.049 A 
ATOM     39  N   UNL A   1      39.111  30.862  31.279  1.00  0.00    -0.248 NA
ATOM     40  C   UNL A   1      37.708  31.284  29.462  1.00  0.00     0.031 C 
ATOM     41  C   UNL A   1      37.136  34.205  33.513  1.00  0.00     0.029 A 
ATOM     42  N   UNL A   1      38.768  32.678  33.576  1.00  0.00    -0.354 N 
ATOM     43  C   UNL A   1      39.347  29.924  30.283  1.00  0.00     0.074 A 
ATOM     44  C   UNL A   1      38.398  30.180  29.222  1.00  0.00     0.031 C 
ATOM     45  C   UNL A   1      37.744  34.314  34.706  1.00  0.00     0.029 A 
ATOM     46  C   UNL A   1      38.808  33.319  34.790  1.00  0.00     0.049 A 
ATOM     47  H   UNL A   1      39.381  31.947  33.331  1.00  0.00     0.167 HD
ATOM     48  C   UNL A   1      40.290  28.955  30.243  1.00  0.00     0.037 A 
ATOM     49  C   UNL A   1      39.614  33.122  35.849  1.00  0.00     0.037 A 
ATOM     50  C   UNL A   1      41.257  28.733  31.283  1.00  0.00     0.049 A 
ATOM     51  C   UNL A   1      40.675  32.059  35.771  1.00  0.00     0.074 A 
ATOM     52  C   UNL A   1      42.303  27.829  31.313  1.00  0.00     0.029 A 
ATOM     53  N   UNL A   1      41.294  29.430  32.483  1.00  0.00    -0.354 N 
ATOM     54  N   UNL A   1      40.940  31.224  34.795  1.00  0.00    -0.248 NA
ATOM     55  C   UNL A   1      41.556  31.914  36.939  1.00  0.00     0.031 C 
ATOM     56  C   UNL A   1      42.952  27.954  32.547  1.00  0.00     0.029 A 
ATOM     57  C   UNL A   1      42.337  28.966  33.267  1.00  0.00     0.049 A 
ATOM     58  H   UNL A   1      40.672  30.150  32.739  1.00  0.00     0.167 HD
ATOM     59  C   UNL A   1      42.029  30.475  35.217  1.00  0.00     0.074 A 
ATOM     60  C   UNL A   1      42.385  30.963  36.534  1.00  0.00     0.031 C 
ATOM     61  C   UNL A   1      42.676  29.472  34.573  1.00  0.00     0.037 A 
BRANCH  48  62
ATOM     62  C   UNL A   1      40.320  28.072  29.029  1.00  0.00     0.064 A 
ATOM     63  C   UNL A   1      41.043  28.427  27.878  1.00  0.00     0.173 A 
ATOM     64  C   UNL A   1      39.621  26.857  29.014  1.00  0.00     0.173 A 
ATOM     65  F   UNL A   1      41.717  29.587  27.835  1.00  0.00    -0.203 F 
ATOM     66  C   UNL A   1      41.031  27.618  26.746  1.00  0.00     0.198 A 
ATOM     67  C   UNL A   1      39.639  26.034  27.890  1.00  0.00     0.198 A 
ATOM     68  F   UNL A   1      38.917  26.467  30.087  1.00  0.00    -0.203 F 
ATOM     69  F   UNL A   1      41.676  28.010  25.638  1.00  0.00    -0.200 F 
ATOM     70  C   UNL A   1      40.334  26.421  26.754  1.00  0.00     0.200 A 
ATOM     71  F   UNL A   1      38.974  24.871  27.903  1.00  0.00    -0.200 F 
ATOM     72  F   UNL A   1      40.323  25.643  25.663  1.00  0.00    -0.200 F 
ENDBRANCH  48  62
BRANCH  49  73
ATOM     73  C   UNL A   1      39.472  33.977  37.055  1.00  0.00     0.064 A 
ATOM     74  C   UNL A   1      40.061  35.248  37.105  1.00  0.00     0.173 A 
ATOM     75  C   UNL A   1      38.736  33.555  38.171  1.00  0.00     0.173 A 
ATOM     76  F   UNL A   1      40.791  35.689  36.069  1.00  0.00    -0.203 F 
ATOM     77  C   UNL A   1      39.932  36.058  38.231  1.00  0.00     0.198 A 
ATOM     78  C   UNL A   1      38.586  34.376  39.287  1.00  0.00     0.198 A 
ATOM     79  F   UNL A   1      38.148  32.350  38.170  1.00  0.00    -0.203 F 
ATOM     80  F   UNL A   1      40.536  37.254  38.267  1.00  0.00    -0.200 F 
ATOM     81  C   UNL A   1      39.189  35.624  39.319  1.00  0.00     0.200 A 
ATOM     82  F   UNL A   1      37.856  33.959  40.330  1.00  0.00    -0.200 F 
ATOM     83  F   UNL A   1      39.058  36.407  40.399  1.00  0.00    -0.200 F 
ENDBRANCH  49  73
BRANCH  61  84
ATOM     84  C   UNL A   1      43.853  28.857  35.271  1.00  0.00     0.064 A 
ATOM     85  C   UNL A   1      45.150  29.362  35.108  1.00  0.00     0.173 A 
ATOM     86  C   UNL A   1      43.671  27.779  36.152  1.00  0.00     0.173 A 
ATOM     87  F   UNL A   1      45.377  30.380  34.265  1.00  0.00    -0.203 F 
ATOM     88  C   UNL A   1      46.227  28.796  35.785  1.00  0.00     0.198 A 
ATOM     89  C   UNL A   1      44.745  27.235  36.849  1.00  0.00     0.198 A 
ATOM     90  F   UNL A   1      42.447  27.265  36.348  1.00  0.00    -0.203 F 
ATOM     91  F   UNL A   1      47.465  29.267  35.580  1.00  0.00    -0.200 F 
ATOM     92  C   UNL A   1      46.022  27.740  36.660  1.00  0.00     0.200 A 
ATOM     93  F   UNL A   1      44.543  26.223  37.704  1.00  0.00    -0.200 F 
ATOM     94  F   UNL A   1      47.059  27.202  37.317  1.00  0.00    -0.200 F 
ENDBRANCH  61  84
ENDBRANCH  35  36
ENDBRANCH  27  30
ENDBRANCH  25  26
ENDBRANCH  24  25
ENDBRANCH   1  24
TORSDOF 15
ENDMDL
MODEL 2
REMARK VINA RESULT:     -12.4      5.950     10.449
REMARK SMILES Cc1ccc(C(=O)N[C@@H](CC(=O)NCCCCNC(=O)c2ccc(-c3c4nc(c(-c5c(F)c(F)c(F)c(F)c5F)c5ccc([nH]5)c(-c5c(F)c(F)c(F)c(F)c5F)c5nc(c(-c6c(F)c(F)c(F)c(F)c6F)c6ccc3[nH]6)C=C5)C=C4)cc2)c2cccs2)o1
REMARK SMILES IDX 15 1 14 2 13 3 11 4 12 5 10 7 9 8 8 9 6 10 7 11 5 13 1 14
REMARK SMILES IDX 2 15 3 16 89 17 4 18 84 19 85 20 88 21 86 22 87 23 16 24
REMARK SMILES IDX 17 25 18 26 19 27 20 29 21 30 22 31 83 32 23 33 82 34 24 35
REMARK SMILES IDX 25 36 26 37 76 38 27 39 81 40 75 41 77 42 28 43 80 44 74 45
REMARK SMILES IDX 73 46 29 48 61 49 41 50 60 51 42 52 45 53 59 54 78 55 43 56
REMARK SMILES IDX 44 57 58 59 79 60 46 61 30 62 31 63 39 64 32 65 33 66 37 67
REMARK SMILES IDX 40 68 34 69 35 70 38 71 36 72 62 73 63 74 71 75 64 76 65 77
REMARK SMILES IDX 69 78 72 79 66 80 67 81 70 82 68 83 47 84 48 85 56 86 49 87
REMARK SMILES IDX 50 88 54 89 57 90 51 91 52 92 55 93 53 94
REMARK H PARENT 13 6 8 12 18 28 77 47 45 58
REMARK Flexibility Score: inf
ROOT
ATOM      1  C   UNL A   1      37.642  20.983  24.908  1.00  0.00     0.023 C 
ENDROOT
BRANCH   1   2
ATOM      2  C   UNL A   1      36.150  20.689  25.053  1.00  0.00     0.116 C 
BRANCH   2   3
ATOM      3  N   UNL A   1      35.587  21.367  26.204  1.00  0.00    -0.356 N 
ATOM      4  C   UNL A   1      34.574  22.273  26.277  1.00  0.00     0.222 C 
ATOM      5  O   UNL A   1      34.272  22.714  27.387  1.00  0.00    -0.275 OA
ATOM      6  H   UNL A   1      36.002  21.137  27.067  1.00  0.00     0.163 HD
BRANCH   4   7
ATOM      7  C   UNL A   1      33.801  22.687  25.041  1.00  0.00     0.130 C 
BRANCH   7   8
ATOM      8  C   UNL A   1      32.445  22.011  24.800  1.00  0.00     0.132 C 
BRANCH   8   9
ATOM      9  N   UNL A   1      31.519  22.162  25.906  1.00  0.00    -0.341 N 
ATOM     10  C   UNL A   1      30.968  23.208  26.588  1.00  0.00     0.287 C 
ATOM     11  O   UNL A   1      30.466  22.895  27.672  1.00  0.00    -0.266 OA
ATOM     12  H   UNL A   1      31.210  21.293  26.250  1.00  0.00     0.164 HD
BRANCH  10  13
ATOM     13  C   UNL A   1      30.922  24.557  26.069  1.00  0.00     0.191 A 
ATOM     14  C   UNL A   1      31.510  27.916  27.182  1.00  0.00     0.087 C 
ATOM     15  C   UNL A   1      31.157  26.744  26.360  1.00  0.00     0.101 A 
ATOM     16  C   UNL A   1      30.594  26.581  25.117  1.00  0.00     0.046 A 
ATOM     17  O   UNL A   1      31.385  25.532  26.924  1.00  0.00    -0.456 OA
ATOM     18  C   UNL A   1      30.437  25.182  24.933  1.00  0.00     0.056 A 
ENDBRANCH  10  13
ENDBRANCH   8   9
BRANCH   8  19
ATOM     19  C   UNL A   1      32.514  20.542  24.446  1.00  0.00     0.027 A 
ATOM     20  C   UNL A   1      32.443  19.975  23.186  1.00  0.00     0.017 A 
ATOM     21  S   UNL A   1      32.632  19.321  25.656  1.00  0.00    -0.147 S 
ATOM     22  C   UNL A   1      32.450  18.550  23.222  1.00  0.00     0.012 A 
ATOM     23  C   UNL A   1      32.545  18.066  24.506  1.00  0.00     0.065 A 
ENDBRANCH   8  19
ENDBRANCH   7   8
ENDBRANCH   4   7
ENDBRANCH   2   3
ENDBRANCH   1   2
BRANCH   1  24
ATOM     24  C   UNL A   1      38.560  19.777  25.044  1.00  0.00     0.023 C 
BRANCH  24  25
ATOM     25  C   UNL A   1      39.627  19.916  26.113  1.00  0.00     0.116 C 
BRANCH  25  26
ATOM     26  N   UNL A   1      40.666  18.899  26.027  1.00  0.00    -0.352 N 
ATOM     27  C   UNL A   1      42.030  19.061  26.095  1.00  0.00     0.251 C 
ATOM     28  H   UNL A   1      40.350  17.975  25.906  1.00  0.00     0.163 HD
ATOM     29  O   UNL A   1      42.791  18.123  25.907  1.00  0.00    -0.269 OA
BRANCH  27  30
ATOM     30  C   UNL A   1      42.566  20.411  26.356  1.00  0.00     0.039 A 
ATOM     31  C   UNL A   1      42.942  21.211  25.275  1.00  0.00     0.014 A 
ATOM     32  C   UNL A   1      42.612  20.905  27.662  1.00  0.00     0.014 A 
ATOM     33  C   UNL A   1      43.291  22.542  25.501  1.00  0.00     0.010 A 
ATOM     34  C   UNL A   1      42.861  22.254  27.871  1.00  0.00     0.010 A 
ATOM     35  C   UNL A   1      43.212  23.083  26.795  1.00  0.00    -0.014 A 
BRANCH  35  36
ATOM     36  C   UNL A   1      43.512  24.511  27.057  1.00  0.00     0.031 A 
ATOM     37  C   UNL A   1      44.900  25.032  26.815  1.00  0.00     0.074 A 
ATOM     38  C   UNL A   1      42.567  25.309  27.588  1.00  0.00     0.049 A 
ATOM     39  N   UNL A   1      45.398  26.215  27.067  1.00  0.00    -0.248 NA
ATOM     40  C   UNL A   1      45.872  24.081  26.250  1.00  0.00     0.031 C 
ATOM     41  C   UNL A   1      41.204  24.898  27.929  1.00  0.00     0.029 A 
ATOM     42  N   UNL A   1      42.615  26.632  27.947  1.00  0.00    -0.354 N 
ATOM     43  C   UNL A   1      46.740  26.139  26.719  1.00  0.00     0.074 A 
ATOM     44  C   UNL A   1      46.995  24.779  26.300  1.00  0.00     0.031 C 
ATOM     45  C   UNL A   1      40.537  25.954  28.423  1.00  0.00     0.029 A 
ATOM     46  C   UNL A   1      41.434  27.105  28.465  1.00  0.00     0.049 A 
ATOM     47  H   UNL A   1      43.420  27.189  27.844  1.00  0.00     0.167 HD
ATOM     48  C   UNL A   1      47.669  27.123  26.720  1.00  0.00     0.037 A 
ATOM     49  C   UNL A   1      41.116  28.330  28.923  1.00  0.00     0.037 A 
ATOM     50  C   UNL A   1      47.397  28.483  27.098  1.00  0.00     0.049 A 
ATOM     51  C   UNL A   1      42.156  29.416  28.886  1.00  0.00     0.074 A 
ATOM     52  C   UNL A   1      48.244  29.575  27.064  1.00  0.00     0.029 A 
ATOM     53  N   UNL A   1      46.176  28.936  27.578  1.00  0.00    -0.354 N 
ATOM     54  N   UNL A   1      43.403  29.354  28.486  1.00  0.00    -0.248 NA
ATOM     55  C   UNL A   1      41.743  30.744  29.358  1.00  0.00     0.031 C 
ATOM     56  C   UNL A   1      47.547  30.683  27.560  1.00  0.00     0.029 A 
ATOM     57  C   UNL A   1      46.252  30.289  27.860  1.00  0.00     0.049 A 
ATOM     58  H   UNL A   1      45.374  28.378  27.700  1.00  0.00     0.167 HD
ATOM     59  C   UNL A   1      43.916  30.635  28.631  1.00  0.00     0.074 A 
ATOM     60  C   UNL A   1      42.840  31.458  29.145  1.00  0.00     0.031 C 
ATOM     61  C   UNL A   1      45.165  31.089  28.365  1.00  0.00     0.037 A 
BRANCH  48  62
ATOM     62  C   UNL A   1      49.060  26.757  26.290  1.00  0.00     0.064 A 
ATOM     63  C   UNL A   1      49.492  26.936  24.966  1.00  0.00     0.173 A 
ATOM     64  C   UNL A   1      49.973  26.223  27.210  1.00  0.00     0.173 A 
ATOM     65  F   UNL A   1      48.652  27.429  24.042  1.00  0.00    -0.203 F 
ATOM     66  C   UNL A   1      50.772  26.557  24.571  1.00  0.00     0.198 A 
ATOM     67  C   UNL A   1      51.264  25.876  26.819  1.00  0.00     0.198 A 
ATOM     68  F   UNL A   1      49.614  26.035  28.488  1.00  0.00    -0.203 F 
ATOM     69  F   UNL A   1      51.139  26.677  23.288  1.00  0.00    -0.200 F 
ATOM     70  C   UNL A   1      51.658  26.032  25.498  1.00  0.00     0.200 A 
ATOM     71  F   UNL A   1      52.124  25.380  27.718  1.00  0.00    -0.200 F 
ATOM     72  F   UNL A   1      52.890  25.667  25.117  1.00  0.00    -0.200 F 
ENDBRANCH  48  62
BRANCH  49  73
ATOM     73  C   UNL A   1      39.741  28.600  29.416  1.00  0.00     0.064 A 
ATOM     74  C   UNL A   1      39.400  28.363  30.754  1.00  0.00     0.173 A 
ATOM     75  C   UNL A   1      38.747  29.114  28.570  1.00  0.00     0.173 A 
ATOM     76  F   UNL A   1      40.311  27.854  31.597  1.00  0.00    -0.203 F 
ATOM     77  C   UNL A   1      38.113  28.614  31.226  1.00  0.00     0.198 A 
ATOM     78  C   UNL A   1      37.468  29.389  29.048  1.00  0.00     0.198 A 
ATOM     79  F   UNL A   1      39.025  29.364  27.283  1.00  0.00    -0.203 F 
ATOM     80  F   UNL A   1      37.804  28.344  32.502  1.00  0.00    -0.200 F 
ATOM     81  C   UNL A   1      37.150  29.134  30.374  1.00  0.00     0.200 A 
ATOM     82  F   UNL A   1      36.544  29.904  28.226  1.00  0.00    -0.200 F 
ATOM     83  F   UNL A   1      35.915  29.383  30.830  1.00  0.00    -0.200 F 
ENDBRANCH  49  73
BRANCH  61  84
ATOM     84  C   UNL A   1      45.427  32.549  28.596  1.00  0.00     0.064 A 
ATOM     85  C   UNL A   1      45.967  33.016  29.802  1.00  0.00     0.173 A 
ATOM     86  C   UNL A   1      45.179  33.483  27.578  1.00  0.00     0.173 A 
ATOM     87  F   UNL A   1      46.207  32.164  30.809  1.00  0.00    -0.203 F 
ATOM     88  C   UNL A   1      46.230  34.371  29.989  1.00  0.00     0.198 A 
ATOM     89  C   UNL A   1      45.469  34.831  27.758  1.00  0.00     0.198 A 
ATOM     90  F   UNL A   1      44.669  33.083  26.403  1.00  0.00    -0.203 F 
ATOM     91  F   UNL A   1      46.706  34.802  31.165  1.00  0.00    -0.200 F 
ATOM     92  C   UNL A   1      45.989  35.275  28.965  1.00  0.00     0.200 A 
ATOM     93  F   UNL A   1      45.248  35.701  26.763  1.00  0.00    -0.200 F 
ATOM     94  F   UNL A   1      46.250  36.577  29.144  1.00  0.00    -0.200 F 
ENDBRANCH  61  84
ENDBRANCH  35  36
ENDBRANCH  27  30
ENDBRANCH  25  26
ENDBRANCH  24  25
ENDBRANCH   1  24
TORSDOF 15
ENDMDL
MODEL 3
REMARK VINA RESULT:     -12.4      5.790     11.221
REMARK SMILES Cc1ccc(C(=O)N[C@@H](CC(=O)NCCCCNC(=O)c2ccc(-c3c4nc(c(-c5c(F)c(F)c(F)c(F)c5F)c5ccc([nH]5)c(-c5c(F)c(F)c(F)c(F)c5F)c5nc(c(-c6c(F)c(F)c(F)c(F)c6F)c6ccc3[nH]6)C=C5)C=C4)cc2)c2cccs2)o1
REMARK SMILES IDX 15 1 14 2 13 3 11 4 12 5 10 7 9 8 8 9 6 10 7 11 5 13 1 14
REMARK SMILES IDX 2 15 3 16 89 17 4 18 84 19 85 20 88 21 86 22 87 23 16 24
REMARK SMILES IDX 17 25 18 26 19 27 20 29 21 30 22 31 83 32 23 33 82 34 24 35
REMARK SMILES IDX 25 36 26 37 76 38 27 39 81 40 75 41 77 42 28 43 80 44 74 45
REMARK SMILES IDX 73 46 29 48 61 49 41 50 60 51 42 52 45 53 59 54 78 55 43 56
REMARK SMILES IDX 44 57 58 59 79 60 46 61 30 62 31 63 39 64 32 65 33 66 37 67
REMARK SMILES IDX 40 68 34 69 35 70 38 71 36 72 62 73 63 74 71 75 64 76 65 77
REMARK SMILES IDX 69 78 72 79 66 80 67 81 70 82 68 83 47 84 48 85 56 86 49 87
REMARK SMILES IDX 50 88 54 89 57 90 51 91 52 92 55 93 53 94
REMARK H PARENT 13 6 8 12 18 28 77 47 45 58
REMARK Flexibility Score: inf
ROOT
ATOM      1  C   UNL A   1      36.651  20.389  24.776  1.00  0.00     0.023 C 
ENDROOT
BRANCH   1   2
ATOM      2  C   UNL A   1      36.726  21.692  25.571  1.00  0.00     0.116 C 
BRANCH   2   3
ATOM      3  N   UNL A   1      35.764  21.704  26.656  1.00  0.00    -0.356 N 
ATOM      4  C   UNL A   1      34.474  22.134  26.676  1.00  0.00     0.222 C 
ATOM      5  O   UNL A   1      33.849  22.040  27.735  1.00  0.00    -0.275 OA
ATOM      6  H   UNL A   1      36.097  21.346  27.511  1.00  0.00     0.163 HD
BRANCH   4   7
ATOM      7  C   UNL A   1      33.801  22.661  25.424  1.00  0.00     0.130 C 
BRANCH   7   8
ATOM      8  C   UNL A   1      32.458  22.034  25.029  1.00  0.00     0.132 C 
BRANCH   8   9
ATOM      9  N   UNL A   1      31.419  22.221  26.024  1.00  0.00    -0.341 N 
ATOM     10  C   UNL A   1      30.837  23.288  26.646  1.00  0.00     0.287 C 
ATOM     11  O   UNL A   1      30.202  22.994  27.664  1.00  0.00    -0.266 OA
ATOM     12  H   UNL A   1      31.038  21.365  26.324  1.00  0.00     0.164 HD
BRANCH  10  13
ATOM     13  C   UNL A   1      30.907  24.639  26.134  1.00  0.00     0.191 A 
ATOM     14  C   UNL A   1      31.551  27.962  27.321  1.00  0.00     0.087 C 
ATOM     15  C   UNL A   1      31.220  26.810  26.462  1.00  0.00     0.101 A 
ATOM     16  C   UNL A   1      30.769  26.679  25.171  1.00  0.00     0.046 A 
ATOM     17  O   UNL A   1      31.335  25.587  27.036  1.00  0.00    -0.456 OA
ATOM     18  C   UNL A   1      30.562  25.290  24.963  1.00  0.00     0.056 A 
ENDBRANCH  10  13
ENDBRANCH   8   9
BRANCH   8  19
ATOM     19  C   UNL A   1      32.513  20.563  24.683  1.00  0.00     0.027 A 
ATOM     20  C   UNL A   1      32.761  19.505  25.540  1.00  0.00     0.017 A 
ATOM     21  S   UNL A   1      32.326  20.002  23.064  1.00  0.00    -0.147 S 
ATOM     22  C   UNL A   1      32.829  18.252  24.863  1.00  0.00     0.012 A 
ATOM     23  C   UNL A   1      32.616  18.383  23.511  1.00  0.00     0.065 A 
ENDBRANCH   8  19
ENDBRANCH   7   8
ENDBRANCH   4   7
ENDBRANCH   2   3
ENDBRANCH   1   2
BRANCH   1  24
ATOM     24  C   UNL A   1      37.916  19.545  24.788  1.00  0.00     0.023 C 
BRANCH  24  25
ATOM     25  C   UNL A   1      38.941  19.961  25.825  1.00  0.00     0.116 C 
BRANCH  25  26
ATOM     26  N   UNL A   1      40.108  19.090  25.866  1.00  0.00    -0.352 N 
ATOM     27  C   UNL A   1      41.412  19.418  26.154  1.00  0.00     0.251 C 
ATOM     28  H   UNL A   1      39.940  18.142  25.663  1.00  0.00     0.163 HD
ATOM     29  O   UNL A   1      42.310  18.596  26.053  1.00  0.00    -0.269 OA
BRANCH  27  30
ATOM     30  C   UNL A   1      41.717  20.808  26.546  1.00  0.00     0.039 A 
ATOM     31  C   UNL A   1      42.119  21.068  27.857  1.00  0.00     0.014 A 
ATOM     32  C   UNL A   1      41.685  21.828  25.591  1.00  0.00     0.014 A 
ATOM     33  C   UNL A   1      42.567  22.346  28.192  1.00  0.00     0.010 A 
ATOM     34  C   UNL A   1      42.226  23.068  25.901  1.00  0.00     0.010 A 
ATOM     35  C   UNL A   1      42.663  23.341  27.206  1.00  0.00    -0.014 A 
BRANCH  35  36
ATOM     36  C   UNL A   1      43.198  24.689  27.515  1.00  0.00     0.031 A 
ATOM     37  C   UNL A   1      42.289  25.728  28.105  1.00  0.00     0.074 A 
ATOM     38  C   UNL A   1      44.467  24.998  27.189  1.00  0.00     0.049 A 
ATOM     39  N   UNL A   1      42.527  26.990  28.361  1.00  0.00    -0.248 NA
ATOM     40  C   UNL A   1      40.913  25.304  28.411  1.00  0.00     0.031 C 
ATOM     41  C   UNL A   1      45.423  24.092  26.551  1.00  0.00     0.029 A 
ATOM     42  N   UNL A   1      45.167  26.169  27.338  1.00  0.00    -0.354 N 
ATOM     43  C   UNL A   1      41.326  27.509  28.828  1.00  0.00     0.074 A 
ATOM     44  C   UNL A   1      40.347  26.448  28.760  1.00  0.00     0.031 C 
ATOM     45  C   UNL A   1      46.593  24.732  26.387  1.00  0.00     0.029 A 
ATOM     46  C   UNL A   1      46.459  26.101  26.877  1.00  0.00     0.049 A 
ATOM     47  H   UNL A   1      44.779  26.981  27.738  1.00  0.00     0.167 HD
ATOM     48  C   UNL A   1      41.073  28.752  29.301  1.00  0.00     0.037 A 
ATOM     49  C   UNL A   1      47.423  27.039  26.853  1.00  0.00     0.037 A 
ATOM     50  C   UNL A   1      42.062  29.788  29.405  1.00  0.00     0.049 A 
ATOM     51  C   UNL A   1      47.126  28.404  27.411  1.00  0.00     0.074 A 
ATOM     52  C   UNL A   1      41.932  31.058  29.938  1.00  0.00     0.029 A 
ATOM     53  N   UNL A   1      43.374  29.670  28.966  1.00  0.00    -0.354 N 
ATOM     54  N   UNL A   1      46.009  28.866  27.920  1.00  0.00    -0.248 NA
ATOM     55  C   UNL A   1      48.226  29.378  27.399  1.00  0.00     0.031 C 
ATOM     56  C   UNL A   1      43.155  31.722  29.788  1.00  0.00     0.029 A 
ATOM     57  C   UNL A   1      44.059  30.850  29.202  1.00  0.00     0.049 A 
ATOM     58  H   UNL A   1      43.760  28.866  28.550  1.00  0.00     0.167 HD
ATOM     59  C   UNL A   1      46.276  30.169  28.312  1.00  0.00     0.074 A 
ATOM     60  C   UNL A   1      47.667  30.423  27.994  1.00  0.00     0.031 C 
ATOM     61  C   UNL A   1      45.446  31.077  28.882  1.00  0.00     0.037 A 
BRANCH  48  62
ATOM     62  C   UNL A   1      39.669  29.045  29.747  1.00  0.00     0.064 A 
ATOM     63  C   UNL A   1      39.248  28.799  31.064  1.00  0.00     0.173 A 
ATOM     64  C   UNL A   1      38.733  29.579  28.850  1.00  0.00     0.173 A 
ATOM     65  F   UNL A   1      40.101  28.274  31.958  1.00  0.00    -0.203 F 
ATOM     66  C   UNL A   1      37.934  29.040  31.454  1.00  0.00     0.198 A 
ATOM     67  C   UNL A   1      37.428  29.849  29.252  1.00  0.00     0.198 A 
ATOM     68  F   UNL A   1      39.082  29.836  27.581  1.00  0.00    -0.203 F 
ATOM     69  F   UNL A   1      37.540  28.736  32.698  1.00  0.00    -0.200 F 
ATOM     70  C   UNL A   1      37.027  29.569  30.551  1.00  0.00     0.200 A 
ATOM     71  F   UNL A   1      36.554  30.372  28.382  1.00  0.00    -0.200 F 
ATOM     72  F   UNL A   1      35.761  29.800  30.927  1.00  0.00    -0.200 F 
ENDBRANCH  48  62
BRANCH  49  73
ATOM     73  C   UNL A   1      48.767  26.705  26.317  1.00  0.00     0.064 A 
ATOM     74  C   UNL A   1      49.101  26.996  24.988  1.00  0.00     0.173 A 
ATOM     75  C   UNL A   1      49.747  26.105  27.120  1.00  0.00     0.173 A 
ATOM     76  F   UNL A   1      48.191  27.554  24.175  1.00  0.00    -0.203 F 
ATOM     77  C   UNL A   1      50.360  26.687  24.477  1.00  0.00     0.198 A 
ATOM     78  C   UNL A   1      51.014  25.819  26.616  1.00  0.00     0.198 A 
ATOM     79  F   UNL A   1      49.478  25.812  28.401  1.00  0.00    -0.203 F 
ATOM     80  F   UNL A   1      50.641  26.944  23.192  1.00  0.00    -0.200 F 
ATOM     81  C   UNL A   1      51.318  26.105  25.294  1.00  0.00     0.200 A 
ATOM     82  F   UNL A   1      51.941  25.269  27.412  1.00  0.00    -0.200 F 
ATOM     83  F   UNL A   1      52.531  25.815  24.804  1.00  0.00    -0.200 F 
ENDBRANCH  49  73
BRANCH  61  84
ATOM     84  C   UNL A   1      46.027  32.416  29.227  1.00  0.00     0.064 A 
ATOM     85  C   UNL A   1      45.966  33.495  28.334  1.00  0.00     0.173 A 
ATOM     86  C   UNL A   1      46.607  32.634  30.486  1.00  0.00     0.173 A 
ATOM     87  F   UNL A   1      45.435  33.331  27.113  1.00  0.00    -0.203 F 
ATOM     88  C   UNL A   1      46.486  34.739  28.681  1.00  0.00     0.198 A 
ATOM     89  C   UNL A   1      47.099  33.886  30.841  1.00  0.00     0.198 A 
ATOM     90  F   UNL A   1      46.681  31.635  31.379  1.00  0.00    -0.203 F 
ATOM     91  F   UNL A   1      46.457  35.745  27.795  1.00  0.00    -0.200 F 
ATOM     92  C   UNL A   1      47.044  34.935  29.935  1.00  0.00     0.200 A 
ATOM     93  F   UNL A   1      47.626  34.078  32.058  1.00  0.00    -0.200 F 
ATOM     94  F   UNL A   1      47.536  36.136  30.270  1.00  0.00    -0.200 F 
ENDBRANCH  61  84
ENDBRANCH  35  36
ENDBRANCH  27  30
ENDBRANCH  25  26
ENDBRANCH  24  25
ENDBRANCH   1  24
TORSDOF 15
ENDMDL
