MODEL 1
REMARK VINA RESULT:     -12.8      0.000      0.000
REMARK SMILES Cc1noc(C)c1[C@H](C)NC(=O)c1cccc(C(=O)NCCCCNC(=O)c2ccc(-c3c4nc(c(-c5c(F)c(F)c(F)c(F)c5F)c5ccc([nH]5)c(-c5c(F)c(F)c(F)c(F)c5F)c5nc(c(-c6c(F)c(F)c(F)c(F)c6F)c6ccc3[nH]6)C=C5)C=C4)cc2)n1
REMARK SMILES IDX 22 1 21 2 20 3 18 4 19 5 17 7 13 8 14 9 91 10 15 11 16 12
REMARK SMILES IDX 11 13 10 14 12 16 8 17 9 18 7 19 1 20 2 21 3 22 4 23 5 24
REMARK SMILES IDX 6 25 23 26 24 27 25 28 26 29 27 31 28 32 29 33 90 34 30 35
REMARK SMILES IDX 89 36 31 37 32 38 33 39 83 40 34 41 88 42 82 43 84 44 35 45
REMARK SMILES IDX 87 46 81 47 80 48 36 50 68 51 48 52 67 53 49 54 52 55 66 56
REMARK SMILES IDX 85 57 50 58 51 59 65 61 86 62 53 63 37 64 38 65 46 66 39 67
REMARK SMILES IDX 40 68 44 69 47 70 41 71 42 72 45 73 43 74 69 75 70 76 78 77
REMARK SMILES IDX 71 78 72 79 76 80 79 81 73 82 74 83 77 84 75 85 54 86 55 87
REMARK SMILES IDX 63 88 56 89 57 90 61 91 64 92 58 93 59 94 62 95 60 96
REMARK H PARENT 20 6 10 15 25 30 84 49 52 60
REMARK Flexibility Score: inf
ROOT
ATOM      1  C   UNL A   1      31.832  30.555  26.209  1.00  0.00     0.023 C 
ENDROOT
BRANCH   1   2
ATOM      2  C   UNL A   1      32.031  29.453  27.257  1.00  0.00     0.116 C 
BRANCH   2   3
ATOM      3  N   UNL A   1      33.149  28.592  26.929  1.00  0.00    -0.351 N 
ATOM      4  C   UNL A   1      33.236  27.397  26.244  1.00  0.00     0.269 C 
ATOM      5  O   UNL A   1      34.377  26.982  26.028  1.00  0.00    -0.268 OA
ATOM      6  H   UNL A   1      34.015  28.924  27.260  1.00  0.00     0.163 HD
BRANCH   4   7
ATOM      7  C   UNL A   1      32.041  26.597  25.775  1.00  0.00     0.129 A 
ATOM      8  C   UNL A   1      30.781  24.667  26.061  1.00  0.00     0.129 A 
ATOM      9  C   UNL A   1      29.793  25.140  25.210  1.00  0.00     0.034 A 
ATOM     10  N   UNL A   1      31.900  25.370  26.355  1.00  0.00    -0.237 NA
ATOM     11  C   UNL A   1      29.962  26.357  24.587  1.00  0.00     0.005 A 
ATOM     12  C   UNL A   1      31.091  27.099  24.890  1.00  0.00     0.034 A 
BRANCH   8  13
ATOM     13  C   UNL A   1      30.534  23.378  26.782  1.00  0.00     0.270 C 
ATOM     14  N   UNL A   1      31.231  22.236  26.423  1.00  0.00    -0.344 N 
ATOM     15  H   UNL A   1      30.780  21.378  26.599  1.00  0.00     0.164 HD
ATOM     16  O   UNL A   1      29.658  23.296  27.638  1.00  0.00    -0.267 OA
BRANCH  14  17
ATOM     17  C   UNL A   1      32.555  22.152  25.814  1.00  0.00     0.115 C 
ATOM     18  C   UNL A   1      33.468  21.387  26.775  1.00  0.00     0.036 C 
BRANCH  17  19
ATOM     19  C   UNL A   1      32.436  21.575  24.426  1.00  0.00     0.040 A 
ATOM     20  C   UNL A   1      32.530  18.955  24.855  1.00  0.00     0.071 C 
ATOM     21  C   UNL A   1      32.405  20.186  24.043  1.00  0.00     0.086 A 
ATOM     22  N   UNL A   1      32.207  20.038  22.730  1.00  0.00    -0.085 NA
ATOM     23  O   UNL A   1      32.125  21.302  22.215  1.00  0.00    -0.361 OA
ATOM     24  C   UNL A   1      32.259  22.216  23.208  1.00  0.00     0.139 A 
ATOM     25  C   UNL A   1      32.172  23.617  22.747  1.00  0.00     0.091 C 
ENDBRANCH  17  19
ENDBRANCH  14  17
ENDBRANCH   8  13
ENDBRANCH   4   7
ENDBRANCH   2   3
ENDBRANCH   1   2
BRANCH   1  26
ATOM     26  C   UNL A   1      31.492  31.936  26.766  1.00  0.00     0.023 C 
BRANCH  26  27
ATOM     27  C   UNL A   1      32.684  32.740  27.261  1.00  0.00     0.116 C 
BRANCH  27  28
ATOM     28  N   UNL A   1      32.364  34.116  27.608  1.00  0.00    -0.352 N 
ATOM     29  C   UNL A   1      32.977  34.915  28.549  1.00  0.00     0.251 C 
ATOM     30  H   UNL A   1      31.619  34.525  27.110  1.00  0.00     0.163 HD
ATOM     31  O   UNL A   1      32.558  36.029  28.795  1.00  0.00    -0.269 OA
BRANCH  29  32
ATOM     32  C   UNL A   1      34.127  34.359  29.293  1.00  0.00     0.039 A 
ATOM     33  C   UNL A   1      33.877  33.556  30.407  1.00  0.00     0.014 A 
ATOM     34  C   UNL A   1      35.433  34.573  28.844  1.00  0.00     0.014 A 
ATOM     35  C   UNL A   1      34.939  32.902  31.031  1.00  0.00     0.010 A 
ATOM     36  C   UNL A   1      36.480  33.865  29.423  1.00  0.00     0.010 A 
ATOM     37  C   UNL A   1      36.241  33.020  30.517  1.00  0.00    -0.014 A 
BRANCH  37  38
ATOM     38  C   UNL A   1      37.372  32.268  31.111  1.00  0.00     0.031 A 
ATOM     39  C   UNL A   1      37.878  32.633  32.477  1.00  0.00     0.074 A 
ATOM     40  C   UNL A   1      37.982  31.306  30.393  1.00  0.00     0.049 A 
ATOM     41  N   UNL A   1      38.903  32.155  33.136  1.00  0.00    -0.248 NA
ATOM     42  C   UNL A   1      37.150  33.698  33.186  1.00  0.00     0.031 C 
ATOM     43  C   UNL A   1      37.611  30.893  29.038  1.00  0.00     0.029 A 
ATOM     44  N   UNL A   1      39.054  30.505  30.701  1.00  0.00    -0.354 N 
ATOM     45  C   UNL A   1      38.945  32.865  34.328  1.00  0.00     0.074 A 
ATOM     46  C   UNL A   1      37.883  33.844  34.279  1.00  0.00     0.031 C 
ATOM     47  C   UNL A   1      38.425  29.902  28.641  1.00  0.00     0.029 A 
ATOM     48  C   UNL A   1      39.396  29.632  29.696  1.00  0.00     0.049 A 
ATOM     49  H   UNL A   1      39.532  30.551  31.559  1.00  0.00     0.167 HD
ATOM     50  C   UNL A   1      39.779  32.694  35.381  1.00  0.00     0.037 A 
ATOM     51  C   UNL A   1      40.385  28.721  29.638  1.00  0.00     0.037 A 
ATOM     52  C   UNL A   1      40.821  31.704  35.435  1.00  0.00     0.049 A 
ATOM     53  C   UNL A   1      41.302  28.559  30.819  1.00  0.00     0.074 A 
ATOM     54  C   UNL A   1      41.700  31.430  36.468  1.00  0.00     0.029 A 
ATOM     55  N   UNL A   1      41.122  30.821  34.409  1.00  0.00    -0.354 N 
ATOM     56  N   UNL A   1      41.300  29.199  31.963  1.00  0.00    -0.248 NA
ATOM     57  C   UNL A   1      42.357  27.543  30.704  1.00  0.00     0.031 C 
ATOM     58  C   UNL A   1      42.550  30.398  36.057  1.00  0.00     0.029 A 
ATOM     59  C   UNL A   1      42.176  30.005  34.782  1.00  0.00     0.049 A 
ATOM     60  H   UNL A   1      40.654  30.781  33.543  1.00  0.00     0.167 HD
ATOM     61  C   UNL A   1      42.327  28.643  32.714  1.00  0.00     0.074 A 
ATOM     62  C   UNL A   1      42.924  27.605  31.899  1.00  0.00     0.031 C 
ATOM     63  C   UNL A   1      42.741  28.964  33.963  1.00  0.00     0.037 A 
BRANCH  50  64
ATOM     64  C   UNL A   1      39.581  33.590  36.568  1.00  0.00     0.064 A 
ATOM     65  C   UNL A   1      40.202  34.846  36.643  1.00  0.00     0.173 A 
ATOM     66  C   UNL A   1      38.744  33.206  37.625  1.00  0.00     0.173 A 
ATOM     67  F   UNL A   1      41.024  35.253  35.665  1.00  0.00    -0.203 F 
ATOM     68  C   UNL A   1      40.012  35.674  37.746  1.00  0.00     0.198 A 
ATOM     69  C   UNL A   1      38.535  34.048  38.714  1.00  0.00     0.198 A 
ATOM     70  F   UNL A   1      38.126  32.016  37.601  1.00  0.00    -0.203 F 
ATOM     71  F   UNL A   1      40.653  36.849  37.818  1.00  0.00    -0.200 F 
ATOM     72  C   UNL A   1      39.173  35.278  38.776  1.00  0.00     0.200 A 
ATOM     73  F   UNL A   1      37.717  33.669  39.705  1.00  0.00    -0.200 F 
ATOM     74  F   UNL A   1      38.987  36.078  39.836  1.00  0.00    -0.200 F 
ENDBRANCH  50  64
BRANCH  51  75
ATOM     75  C   UNL A   1      40.544  27.865  28.433  1.00  0.00     0.064 A 
ATOM     76  C   UNL A   1      41.308  28.303  27.342  1.00  0.00     0.173 A 
ATOM     77  C   UNL A   1      39.922  26.613  28.335  1.00  0.00     0.173 A 
ATOM     78  F   UNL A   1      41.905  29.503  27.381  1.00  0.00    -0.203 F 
ATOM     79  C   UNL A   1      41.422  27.532  26.187  1.00  0.00     0.198 A 
ATOM     80  C   UNL A   1      40.059  25.830  27.190  1.00  0.00     0.198 A 
ATOM     81  F   UNL A   1      39.185  26.147  29.354  1.00  0.00    -0.203 F 
ATOM     82  F   UNL A   1      42.117  27.996  25.140  1.00  0.00    -0.200 F 
ATOM     83  C   UNL A   1      40.801  26.294  26.114  1.00  0.00     0.200 A 
ATOM     84  F   UNL A   1      39.468  24.630  27.127  1.00  0.00    -0.200 F 
ATOM     85  F   UNL A   1      40.909  25.554  25.003  1.00  0.00    -0.200 F 
ENDBRANCH  51  75
BRANCH  63  86
ATOM     86  C   UNL A   1      43.861  28.153  34.544  1.00  0.00     0.064 A 
ATOM     87  C   UNL A   1      45.200  28.549  34.411  1.00  0.00     0.173 A 
ATOM     88  C   UNL A   1      43.587  26.987  35.273  1.00  0.00     0.173 A 
ATOM     89  F   UNL A   1      45.512  29.648  33.709  1.00  0.00    -0.203 F 
ATOM     90  C   UNL A   1      46.226  27.793  34.970  1.00  0.00     0.198 A 
ATOM     91  C   UNL A   1      44.613  26.248  35.853  1.00  0.00     0.198 A 
ATOM     92  F   UNL A   1      42.321  26.571  35.432  1.00  0.00    -0.203 F 
ATOM     93  F   UNL A   1      47.502  28.164  34.794  1.00  0.00    -0.200 F 
ATOM     94  C   UNL A   1      45.931  26.648  35.696  1.00  0.00     0.200 A 
ATOM     95  F   UNL A   1      44.326  25.148  36.563  1.00  0.00    -0.200 F 
ATOM     96  F   UNL A   1      46.921  25.924  36.238  1.00  0.00    -0.200 F 
ENDBRANCH  63  86
ENDBRANCH  37  38
ENDBRANCH  29  32
ENDBRANCH  27  28
ENDBRANCH  26  27
ENDBRANCH   1  26
TORSDOF 14
ENDMDL
MODEL 2
REMARK VINA RESULT:     -12.8      1.107      2.650
REMARK SMILES Cc1noc(C)c1[C@H](C)NC(=O)c1cccc(C(=O)NCCCCNC(=O)c2ccc(-c3c4nc(c(-c5c(F)c(F)c(F)c(F)c5F)c5ccc([nH]5)c(-c5c(F)c(F)c(F)c(F)c5F)c5nc(c(-c6c(F)c(F)c(F)c(F)c6F)c6ccc3[nH]6)C=C5)C=C4)cc2)n1
REMARK SMILES IDX 22 1 21 2 20 3 18 4 19 5 17 7 13 8 14 9 91 10 15 11 16 12
REMARK SMILES IDX 11 13 10 14 12 16 8 17 9 18 7 19 1 20 2 21 3 22 4 23 5 24
REMARK SMILES IDX 6 25 23 26 24 27 25 28 26 29 27 31 28 32 29 33 90 34 30 35
REMARK SMILES IDX 89 36 31 37 32 38 33 39 83 40 34 41 88 42 82 43 84 44 35 45
REMARK SMILES IDX 87 46 81 47 80 48 36 50 68 51 48 52 67 53 49 54 52 55 66 56
REMARK SMILES IDX 85 57 50 58 51 59 65 61 86 62 53 63 37 64 38 65 46 66 39 67
REMARK SMILES IDX 40 68 44 69 47 70 41 71 42 72 45 73 43 74 69 75 70 76 78 77
REMARK SMILES IDX 71 78 72 79 76 80 79 81 73 82 74 83 77 84 75 85 54 86 55 87
REMARK SMILES IDX 63 88 56 89 57 90 61 91 64 92 58 93 59 94 62 95 60 96
REMARK H PARENT 20 6 10 15 25 30 84 49 52 60
REMARK Flexibility Score: inf
ROOT
ATOM      1  C   UNL A   1      31.734  30.582  26.580  1.00  0.00     0.023 C 
ENDROOT
BRANCH   1   2
ATOM      2  C   UNL A   1      32.991  30.164  25.807  1.00  0.00     0.116 C 
BRANCH   2   3
ATOM      3  N   UNL A   1      33.507  28.890  26.264  1.00  0.00    -0.351 N 
ATOM      4  C   UNL A   1      33.363  27.602  25.790  1.00  0.00     0.269 C 
ATOM      5  O   UNL A   1      34.050  26.743  26.347  1.00  0.00    -0.268 OA
ATOM      6  H   UNL A   1      34.070  28.956  27.069  1.00  0.00     0.163 HD
BRANCH   4   7
ATOM      7  C   UNL A   1      32.427  27.209  24.669  1.00  0.00     0.129 A 
ATOM      8  C   UNL A   1      32.169  25.983  22.713  1.00  0.00     0.129 A 
ATOM      9  C   UNL A   1      30.802  26.216  22.702  1.00  0.00     0.034 A 
ATOM     10  N   UNL A   1      32.991  26.463  23.675  1.00  0.00    -0.237 NA
ATOM     11  C   UNL A   1      30.242  27.010  23.679  1.00  0.00     0.005 A 
ATOM     12  C   UNL A   1      31.065  27.495  24.682  1.00  0.00     0.034 A 
BRANCH   8  13
ATOM     13  C   UNL A   1      32.736  25.054  21.684  1.00  0.00     0.270 C 
ATOM     14  N   UNL A   1      32.914  23.713  21.980  1.00  0.00    -0.344 N 
ATOM     15  H   UNL A   1      33.629  23.250  21.486  1.00  0.00     0.164 HD
ATOM     16  O   UNL A   1      33.125  25.481  20.601  1.00  0.00    -0.267 OA
BRANCH  14  17
ATOM     17  C   UNL A   1      32.168  22.904  22.939  1.00  0.00     0.115 C 
ATOM     18  C   UNL A   1      32.129  21.467  22.413  1.00  0.00     0.036 C 
BRANCH  17  19
ATOM     19  C   UNL A   1      32.759  23.080  24.315  1.00  0.00     0.040 A 
ATOM     20  C   UNL A   1      35.325  22.501  23.945  1.00  0.00     0.071 C 
ATOM     21  C   UNL A   1      34.134  22.921  24.716  1.00  0.00     0.086 A 
ATOM     22  N   UNL A   1      34.315  23.237  26.002  1.00  0.00    -0.085 NA
ATOM     23  O   UNL A   1      33.083  23.586  26.482  1.00  0.00    -0.361 OA
ATOM     24  C   UNL A   1      32.158  23.496  25.494  1.00  0.00     0.139 A 
ATOM     25  C   UNL A   1      30.793  23.868  25.918  1.00  0.00     0.091 C 
ENDBRANCH  17  19
ENDBRANCH  14  17
ENDBRANCH   8  13
ENDBRANCH   4   7
ENDBRANCH   2   3
ENDBRANCH   1   2
BRANCH   1  26
ATOM     26  C   UNL A   1      31.514  32.087  26.711  1.00  0.00     0.023 C 
BRANCH  26  27
ATOM     27  C   UNL A   1      32.669  32.853  27.336  1.00  0.00     0.116 C 
BRANCH  27  28
ATOM     28  N   UNL A   1      32.346  34.228  27.682  1.00  0.00    -0.352 N 
ATOM     29  C   UNL A   1      32.973  35.037  28.607  1.00  0.00     0.251 C 
ATOM     30  H   UNL A   1      31.590  34.630  27.197  1.00  0.00     0.163 HD
ATOM     31  O   UNL A   1      32.550  36.149  28.856  1.00  0.00    -0.269 OA
BRANCH  29  32
ATOM     32  C   UNL A   1      34.141  34.493  29.331  1.00  0.00     0.039 A 
ATOM     33  C   UNL A   1      33.925  33.811  30.530  1.00  0.00     0.014 A 
ATOM     34  C   UNL A   1      35.423  34.595  28.787  1.00  0.00     0.014 A 
ATOM     35  C   UNL A   1      34.994  33.163  31.150  1.00  0.00     0.010 A 
ATOM     36  C   UNL A   1      36.471  33.890  29.368  1.00  0.00     0.010 A 
ATOM     37  C   UNL A   1      36.264  33.163  30.550  1.00  0.00    -0.014 A 
BRANCH  37  38
ATOM     38  C   UNL A   1      37.394  32.411  31.146  1.00  0.00     0.031 A 
ATOM     39  C   UNL A   1      37.900  32.778  32.511  1.00  0.00     0.074 A 
ATOM     40  C   UNL A   1      38.004  31.448  30.429  1.00  0.00     0.049 A 
ATOM     41  N   UNL A   1      38.924  32.300  33.171  1.00  0.00    -0.248 NA
ATOM     42  C   UNL A   1      37.172  33.844  33.219  1.00  0.00     0.031 C 
ATOM     43  C   UNL A   1      37.633  31.035  29.074  1.00  0.00     0.029 A 
ATOM     44  N   UNL A   1      39.075  30.647  30.738  1.00  0.00    -0.354 N 
ATOM     45  C   UNL A   1      38.967  33.011  34.362  1.00  0.00     0.074 A 
ATOM     46  C   UNL A   1      37.905  33.991  34.312  1.00  0.00     0.031 C 
ATOM     47  C   UNL A   1      38.447  30.043  28.678  1.00  0.00     0.029 A 
ATOM     48  C   UNL A   1      39.417  29.773  29.734  1.00  0.00     0.049 A 
ATOM     49  H   UNL A   1      39.553  30.694  31.596  1.00  0.00     0.167 HD
ATOM     50  C   UNL A   1      39.800  32.840  35.416  1.00  0.00     0.037 A 
ATOM     51  C   UNL A   1      40.406  28.861  29.677  1.00  0.00     0.037 A 
ATOM     52  C   UNL A   1      40.841  31.850  35.471  1.00  0.00     0.049 A 
ATOM     53  C   UNL A   1      41.323  28.701  30.858  1.00  0.00     0.074 A 
ATOM     54  C   UNL A   1      41.720  31.576  36.505  1.00  0.00     0.029 A 
ATOM     55  N   UNL A   1      41.142  30.966  34.446  1.00  0.00    -0.354 N 
ATOM     56  N   UNL A   1      41.321  29.341  32.002  1.00  0.00    -0.248 NA
ATOM     57  C   UNL A   1      42.377  27.684  30.744  1.00  0.00     0.031 C 
ATOM     58  C   UNL A   1      42.570  30.544  36.095  1.00  0.00     0.029 A 
ATOM     59  C   UNL A   1      42.196  30.150  34.820  1.00  0.00     0.049 A 
ATOM     60  H   UNL A   1      40.674  30.925  33.580  1.00  0.00     0.167 HD
ATOM     61  C   UNL A   1      42.347  28.786  32.753  1.00  0.00     0.074 A 
ATOM     62  C   UNL A   1      42.943  27.746  31.940  1.00  0.00     0.031 C 
ATOM     63  C   UNL A   1      42.760  29.108  34.003  1.00  0.00     0.037 A 
BRANCH  50  64
ATOM     64  C   UNL A   1      39.602  33.737  36.602  1.00  0.00     0.064 A 
ATOM     65  C   UNL A   1      38.813  33.340  37.692  1.00  0.00     0.173 A 
ATOM     66  C   UNL A   1      40.228  34.990  36.666  1.00  0.00     0.173 A 
ATOM     67  F   UNL A   1      38.181  32.157  37.673  1.00  0.00    -0.203 F 
ATOM     68  C   UNL A   1      38.637  34.176  38.792  1.00  0.00     0.198 A 
ATOM     69  C   UNL A   1      40.072  35.812  37.779  1.00  0.00     0.198 A 
ATOM     70  F   UNL A   1      40.995  35.416  35.651  1.00  0.00    -0.203 F 
ATOM     71  F   UNL A   1      37.841  33.795  39.800  1.00  0.00    -0.200 F 
ATOM     72  C   UNL A   1      39.272  35.407  38.837  1.00  0.00     0.200 A 
ATOM     73  F   UNL A   1      40.693  36.998  37.827  1.00  0.00    -0.200 F 
ATOM     74  F   UNL A   1      39.106  36.209  39.898  1.00  0.00    -0.200 F 
ENDBRANCH  50  64
BRANCH  51  75
ATOM     75  C   UNL A   1      40.565  28.005  28.472  1.00  0.00     0.064 A 
ATOM     76  C   UNL A   1      39.961  26.741  28.409  1.00  0.00     0.173 A 
ATOM     77  C   UNL A   1      41.338  28.417  27.378  1.00  0.00     0.173 A 
ATOM     78  F   UNL A   1      39.229  26.297  29.440  1.00  0.00    -0.203 F 
ATOM     79  C   UNL A   1      40.145  25.911  27.306  1.00  0.00     0.198 A 
ATOM     80  C   UNL A   1      41.499  27.595  26.263  1.00  0.00     0.198 A 
ATOM     81  F   UNL A   1      41.932  29.618  27.388  1.00  0.00    -0.203 F 
ATOM     82  F   UNL A   1      39.598  24.688  27.293  1.00  0.00    -0.200 F 
ATOM     83  C   UNL A   1      40.911  26.339  26.232  1.00  0.00     0.200 A 
ATOM     84  F   UNL A   1      42.230  28.017  25.223  1.00  0.00    -0.200 F 
ATOM     85  F   UNL A   1      41.090  25.539  25.173  1.00  0.00    -0.200 F 
ENDBRANCH  51  75
BRANCH  63  86
ATOM     86  C   UNL A   1      43.880  28.297  34.584  1.00  0.00     0.064 A 
ATOM     87  C   UNL A   1      43.639  27.102  35.277  1.00  0.00     0.173 A 
ATOM     88  C   UNL A   1      45.212  28.703  34.412  1.00  0.00     0.173 A 
ATOM     89  F   UNL A   1      42.381  26.682  35.480  1.00  0.00    -0.203 F 
ATOM     90  C   UNL A   1      44.691  26.353  35.796  1.00  0.00     0.198 A 
ATOM     91  C   UNL A   1      46.263  27.938  34.909  1.00  0.00     0.198 A 
ATOM     92  F   UNL A   1      45.493  29.836  33.751  1.00  0.00    -0.203 F 
ATOM     93  F   UNL A   1      44.437  25.237  36.493  1.00  0.00    -0.200 F 
ATOM     94  C   UNL A   1      46.001  26.768  35.606  1.00  0.00     0.200 A 
ATOM     95  F   UNL A   1      47.528  28.335  34.715  1.00  0.00    -0.200 F 
ATOM     96  F   UNL A   1      47.014  26.042  36.102  1.00  0.00    -0.200 F 
ENDBRANCH  63  86
ENDBRANCH  37  38
ENDBRANCH  29  32
ENDBRANCH  27  28
ENDBRANCH  26  27
ENDBRANCH   1  26
TORSDOF 14
ENDMDL
MODEL 3
REMARK VINA RESULT:     -12.8      0.989      2.119
REMARK SMILES Cc1noc(C)c1[C@H](C)NC(=O)c1cccc(C(=O)NCCCCNC(=O)c2ccc(-c3c4nc(c(-c5c(F)c(F)c(F)c(F)c5F)c5ccc([nH]5)c(-c5c(F)c(F)c(F)c(F)c5F)c5nc(c(-c6c(F)c(F)c(F)c(F)c6F)c6ccc3[nH]6)C=C5)C=C4)cc2)n1
REMARK SMILES IDX 22 1 21 2 20 3 18 4 19 5 17 7 13 8 14 9 91 10 15 11 16 12
REMARK SMILES IDX 11 13 10 14 12 16 8 17 9 18 7 19 1 20 2 21 3 22 4 23 5 24
REMARK SMILES IDX 6 25 23 26 24 27 25 28 26 29 27 31 28 32 29 33 90 34 30 35
REMARK SMILES IDX 89 36 31 37 32 38 33 39 83 40 34 41 88 42 82 43 84 44 35 45
REMARK SMILES IDX 87 46 81 47 80 48 36 50 68 51 48 52 67 53 49 54 52 55 66 56
REMARK SMILES IDX 85 57 50 58 51 59 65 61 86 62 53 63 37 64 38 65 46 66 39 67
REMARK SMILES IDX 40 68 44 69 47 70 41 71 42 72 45 73 43 74 69 75 70 76 78 77
REMARK SMILES IDX 71 78 72 79 76 80 79 81 73 82 74 83 77 84 75 85 54 86 55 87
REMARK SMILES IDX 63 88 56 89 57 90 61 91 64 92 58 93 59 94 62 95 60 96
REMARK H PARENT 20 6 10 15 25 30 84 49 52 60
REMARK Flexibility Score: inf
ROOT
ATOM      1  C   UNL A   1      31.500  30.628  26.637  1.00  0.00     0.023 C 
ENDROOT
BRANCH   1   2
ATOM      2  C   UNL A   1      32.845  29.891  26.677  1.00  0.00     0.116 C 
BRANCH   2   3
ATOM      3  N   UNL A   1      33.429  29.761  25.358  1.00  0.00    -0.351 N 
ATOM      4  C   UNL A   1      32.992  29.146  24.202  1.00  0.00     0.269 C 
ATOM      5  O   UNL A   1      33.685  29.333  23.199  1.00  0.00    -0.268 OA
ATOM      6  H   UNL A   1      34.308  30.195  25.270  1.00  0.00     0.163 HD
BRANCH   4   7
ATOM      7  C   UNL A   1      31.758  28.278  24.115  1.00  0.00     0.129 A 
ATOM      8  C   UNL A   1      30.644  26.420  24.955  1.00  0.00     0.129 A 
ATOM      9  C   UNL A   1      29.495  26.743  24.249  1.00  0.00     0.034 A 
ATOM     10  N   UNL A   1      31.774  27.164  24.903  1.00  0.00    -0.237 NA
ATOM     11  C   UNL A   1      29.497  27.840  23.415  1.00  0.00     0.005 A 
ATOM     12  C   UNL A   1      30.638  28.623  23.364  1.00  0.00     0.034 A 
BRANCH   8  13
ATOM     13  C   UNL A   1      30.587  25.269  25.911  1.00  0.00     0.270 C 
ATOM     14  N   UNL A   1      31.515  24.245  25.823  1.00  0.00    -0.344 N 
ATOM     15  H   UNL A   1      31.221  23.363  26.149  1.00  0.00     0.164 HD
ATOM     16  O   UNL A   1      29.673  25.176  26.725  1.00  0.00    -0.267 OA
BRANCH  14  17
ATOM     17  C   UNL A   1      32.877  24.317  25.303  1.00  0.00     0.115 C 
ATOM     18  C   UNL A   1      33.812  23.698  26.345  1.00  0.00     0.036 C 
BRANCH  17  19
ATOM     19  C   UNL A   1      32.926  23.695  23.930  1.00  0.00     0.040 A 
ATOM     20  C   UNL A   1      33.632  25.729  22.374  1.00  0.00     0.071 C 
ATOM     21  C   UNL A   1      33.278  24.325  22.684  1.00  0.00     0.086 A 
ATOM     22  N   UNL A   1      33.295  23.451  21.673  1.00  0.00    -0.085 NA
ATOM     23  O   UNL A   1      32.939  22.245  22.211  1.00  0.00    -0.361 OA
ATOM     24  C   UNL A   1      32.719  22.378  23.543  1.00  0.00     0.139 A 
ATOM     25  C   UNL A   1      32.340  21.119  24.215  1.00  0.00     0.091 C 
ENDBRANCH  17  19
ENDBRANCH  14  17
ENDBRANCH   8  13
ENDBRANCH   4   7
ENDBRANCH   2   3
ENDBRANCH   1   2
BRANCH   1  26
ATOM     26  C   UNL A   1      31.589  32.146  26.499  1.00  0.00     0.023 C 
BRANCH  26  27
ATOM     27  C   UNL A   1      32.618  32.814  27.398  1.00  0.00     0.116 C 
BRANCH  27  28
ATOM     28  N   UNL A   1      32.321  34.205  27.700  1.00  0.00    -0.352 N 
ATOM     29  C   UNL A   1      32.968  35.032  28.595  1.00  0.00     0.251 C 
ATOM     30  H   UNL A   1      31.569  34.604  27.207  1.00  0.00     0.163 HD
ATOM     31  O   UNL A   1      32.568  36.160  28.809  1.00  0.00    -0.269 OA
BRANCH  29  32
ATOM     32  C   UNL A   1      34.131  34.491  29.329  1.00  0.00     0.039 A 
ATOM     33  C   UNL A   1      33.908  33.821  30.533  1.00  0.00     0.014 A 
ATOM     34  C   UNL A   1      35.417  34.584  28.791  1.00  0.00     0.014 A 
ATOM     35  C   UNL A   1      34.971  33.174  31.163  1.00  0.00     0.010 A 
ATOM     36  C   UNL A   1      36.459  33.881  29.383  1.00  0.00     0.010 A 
ATOM     37  C   UNL A   1      36.244  33.166  30.570  1.00  0.00    -0.014 A 
BRANCH  37  38
ATOM     38  C   UNL A   1      37.369  32.416  31.178  1.00  0.00     0.031 A 
ATOM     39  C   UNL A   1      37.869  32.792  32.543  1.00  0.00     0.074 A 
ATOM     40  C   UNL A   1      37.980  31.445  30.472  1.00  0.00     0.049 A 
ATOM     41  N   UNL A   1      38.888  32.317  33.212  1.00  0.00    -0.248 NA
ATOM     42  C   UNL A   1      37.141  33.867  33.238  1.00  0.00     0.031 C 
ATOM     43  C   UNL A   1      37.614  31.021  29.119  1.00  0.00     0.029 A 
ATOM     44  N   UNL A   1      39.047  30.643  30.793  1.00  0.00    -0.354 N 
ATOM     45  C   UNL A   1      38.927  33.038  34.398  1.00  0.00     0.074 A 
ATOM     46  C   UNL A   1      37.868  34.021  34.334  1.00  0.00     0.031 C 
ATOM     47  C   UNL A   1      38.427  30.023  28.736  1.00  0.00     0.029 A 
ATOM     48  C   UNL A   1      39.392  29.760  29.799  1.00  0.00     0.049 A 
ATOM     49  H   UNL A   1      39.521  30.696  31.654  1.00  0.00     0.167 HD
ATOM     50  C   UNL A   1      39.754  32.874  35.457  1.00  0.00     0.037 A 
ATOM     51  C   UNL A   1      40.378  28.845  29.755  1.00  0.00     0.037 A 
ATOM     52  C   UNL A   1      40.792  31.882  35.526  1.00  0.00     0.049 A 
ATOM     53  C   UNL A   1      41.288  28.691  30.942  1.00  0.00     0.074 A 
ATOM     54  C   UNL A   1      41.665  31.614  36.566  1.00  0.00     0.029 A 
ATOM     55  N   UNL A   1      41.096  30.988  34.510  1.00  0.00    -0.354 N 
ATOM     56  N   UNL A   1      41.282  29.342  32.080  1.00  0.00    -0.248 NA
ATOM     57  C   UNL A   1      42.341  27.670  30.842  1.00  0.00     0.031 C 
ATOM     58  C   UNL A   1      42.514  30.576  36.169  1.00  0.00     0.029 A 
ATOM     59  C   UNL A   1      42.145  30.172  34.896  1.00  0.00     0.049 A 
ATOM     60  H   UNL A   1      40.632  30.941  33.642  1.00  0.00     0.167 HD
ATOM     61  C   UNL A   1      42.303  28.790  32.842  1.00  0.00     0.074 A 
ATOM     62  C   UNL A   1      42.901  27.742  32.040  1.00  0.00     0.031 C 
ATOM     63  C   UNL A   1      42.711  29.121  34.090  1.00  0.00     0.037 A 
BRANCH  50  64
ATOM     64  C   UNL A   1      39.553  33.782  36.634  1.00  0.00     0.064 A 
ATOM     65  C   UNL A   1      38.770  33.390  37.731  1.00  0.00     0.173 A 
ATOM     66  C   UNL A   1      40.170  35.040  36.684  1.00  0.00     0.173 A 
ATOM     67  F   UNL A   1      38.147  32.202  37.725  1.00  0.00    -0.203 F 
ATOM     68  C   UNL A   1      38.590  34.235  38.822  1.00  0.00     0.198 A 
ATOM     69  C   UNL A   1      40.011  35.872  37.788  1.00  0.00     0.198 A 
ATOM     70  F   UNL A   1      40.931  35.461  35.662  1.00  0.00    -0.203 F 
ATOM     71  F   UNL A   1      37.800  33.859  39.836  1.00  0.00    -0.200 F 
ATOM     72  C   UNL A   1      39.217  35.472  38.853  1.00  0.00     0.200 A 
ATOM     73  F   UNL A   1      40.624  37.063  37.823  1.00  0.00    -0.200 F 
ATOM     74  F   UNL A   1      39.048  36.284  39.906  1.00  0.00    -0.200 F 
ENDBRANCH  50  64
BRANCH  51  75
ATOM     75  C   UNL A   1      40.541  27.978  28.559  1.00  0.00     0.064 A 
ATOM     76  C   UNL A   1      41.305  28.406  27.464  1.00  0.00     0.173 A 
ATOM     77  C   UNL A   1      39.922  26.723  28.473  1.00  0.00     0.173 A 
ATOM     78  F   UNL A   1      41.899  29.608  27.492  1.00  0.00    -0.203 F 
ATOM     79  C   UNL A   1      41.422  27.623  26.318  1.00  0.00     0.198 A 
ATOM     80  C   UNL A   1      40.062  25.929  27.336  1.00  0.00     0.198 A 
ATOM     81  F   UNL A   1      39.185  26.266  29.495  1.00  0.00    -0.203 F 
ATOM     82  F   UNL A   1      42.117  28.079  25.266  1.00  0.00    -0.200 F 
ATOM     83  C   UNL A   1      40.805  26.383  26.256  1.00  0.00     0.200 A 
ATOM     84  F   UNL A   1      39.474  24.726  27.284  1.00  0.00    -0.200 F 
ATOM     85  F   UNL A   1      40.915  25.632  25.153  1.00  0.00    -0.200 F 
ENDBRANCH  51  75
BRANCH  63  86
ATOM     86  C   UNL A   1      43.825  28.312  34.685  1.00  0.00     0.064 A 
ATOM     87  C   UNL A   1      43.575  27.138  35.410  1.00  0.00     0.173 A 
ATOM     88  C   UNL A   1      45.160  28.697  34.492  1.00  0.00     0.173 A 
ATOM     89  F   UNL A   1      42.314  26.739  35.634  1.00  0.00    -0.203 F 
ATOM     90  C   UNL A   1      44.623  26.391  35.940  1.00  0.00     0.198 A 
ATOM     91  C   UNL A   1      46.206  27.932  35.001  1.00  0.00     0.198 A 
ATOM     92  F   UNL A   1      45.450  29.810  33.800  1.00  0.00    -0.203 F 
ATOM     93  F   UNL A   1      44.361  25.296  36.668  1.00  0.00    -0.200 F 
ATOM     94  C   UNL A   1      45.936  26.785  35.730  1.00  0.00     0.200 A 
ATOM     95  F   UNL A   1      47.475  28.309  34.788  1.00  0.00    -0.200 F 
ATOM     96  F   UNL A   1      46.943  26.059  36.237  1.00  0.00    -0.200 F 
ENDBRANCH  63  86
ENDBRANCH  37  38
ENDBRANCH  29  32
ENDBRANCH  27  28
ENDBRANCH  26  27
ENDBRANCH   1  26
TORSDOF 14
ENDMDL
