MODEL 1
REMARK VINA RESULT:     -10.3      0.000      0.000
REMARK SMILES Cc1ccc(N2C(=O)/C(=C3\C(=O)N(CC(=O)NCCCCNC(=O)c4ccc(-c5c6nc(c(-c7c(F)c(F)c(F)c(F)c7F)c7ccc([nH]7)c(-c7c(F)c(F)c(F)c(F)c7F)c7nc(c(-c8c(F)c(F)c(F)c(F)c8F)c8ccc5[nH]8)C=C7)C=C6)cc4)c4ccccc43)SC2=S)c(C)c1
REMARK SMILES IDX 19 1 18 2 17 3 15 4 16 5 14 7 13 8 6 9 7 10 95 11 8 12 9 13
REMARK SMILES IDX 94 14 96 15 10 16 11 17 93 18 12 19 88 20 92 21 89 22 91 23
REMARK SMILES IDX 90 24 5 25 1 26 2 27 3 28 99 29 4 30 97 31 98 32 20 33 21 34
REMARK SMILES IDX 22 35 23 36 24 38 25 39 26 40 87 41 27 42 86 43 28 44 29 45
REMARK SMILES IDX 30 46 80 47 31 48 85 49 79 50 81 51 32 52 84 53 78 54 77 55
REMARK SMILES IDX 33 57 65 58 45 59 64 60 46 61 49 62 63 63 82 64 47 65 48 66
REMARK SMILES IDX 62 68 83 69 50 70 34 71 35 72 43 73 36 74 37 75 41 76 44 77
REMARK SMILES IDX 38 78 39 79 42 80 40 81 66 82 67 83 75 84 68 85 69 86 73 87
REMARK SMILES IDX 76 88 70 89 71 90 74 91 72 92 51 93 52 94 60 95 53 96 54 97
REMARK SMILES IDX 58 98 61 99 55 100 56 101 59 102 57 103
REMARK H PARENT 17 6 22 37 81 56 49 67
REMARK Flexibility Score: inf
ROOT
ATOM      1  C   UNL A   1      42.316  22.694  25.680  1.00  0.00     0.023 C 
ENDROOT
BRANCH   1   2
ATOM      2  C   UNL A   1      43.783  22.577  26.087  1.00  0.00     0.116 C 
BRANCH   2   3
ATOM      3  N   UNL A   1      44.646  23.358  25.225  1.00  0.00    -0.355 N 
ATOM      4  C   UNL A   1      45.221  24.571  25.471  1.00  0.00     0.240 C 
ATOM      5  O   UNL A   1      45.966  25.045  24.609  1.00  0.00    -0.273 OA
ATOM      6  H   UNL A   1      44.844  22.961  24.346  1.00  0.00     0.163 HD
BRANCH   4   7
ATOM      7  C   UNL A   1      44.999  25.288  26.807  1.00  0.00     0.225 C 
BRANCH   7   8
ATOM      8  N   UNL A   1      45.871  26.427  27.020  1.00  0.00    -0.298 N 
ATOM      9  N   UNL A   1      46.024  32.044  27.531  1.00  0.00    -0.261 N 
ATOM     10  C   UNL A   1      45.693  30.887  26.819  1.00  0.00     0.271 C 
ATOM     11  C   UNL A   1      47.373  32.221  27.795  1.00  0.00     0.152 C 
ATOM     12  O   UNL A   1      44.703  30.719  26.128  1.00  0.00    -0.268 OA
ATOM     13  C   UNL A   1      46.817  29.909  26.963  1.00  0.00     0.094 C 
ATOM     14  S   UNL A   1      48.259  30.845  27.156  1.00  0.00    -0.053 SA
ATOM     15  S   UNL A   1      48.180  33.385  28.682  1.00  0.00    -0.051 S 
ATOM     16  C   UNL A   1      46.724  28.575  27.100  1.00  0.00     0.069 C 
ATOM     17  C   UNL A   1      45.484  27.751  26.837  1.00  0.00     0.260 C 
ATOM     18  C   UNL A   1      47.756  27.619  27.567  1.00  0.00     0.012 A 
ATOM     19  O   UNL A   1      44.377  28.137  26.515  1.00  0.00    -0.269 OA
ATOM     20  C   UNL A   1      47.186  26.342  27.496  1.00  0.00     0.053 A 
ATOM     21  C   UNL A   1      49.017  27.770  28.130  1.00  0.00     0.011 A 
ATOM     22  C   UNL A   1      47.862  25.207  27.918  1.00  0.00     0.027 A 
ATOM     23  C   UNL A   1      49.704  26.638  28.577  1.00  0.00     0.001 A 
ATOM     24  C   UNL A   1      49.135  25.365  28.463  1.00  0.00     0.002 A 
BRANCH   9  25
ATOM     25  C   UNL A   1      45.006  32.950  27.956  1.00  0.00     0.054 A 
ATOM     26  C   UNL A   1      41.606  35.373  29.104  1.00  0.00     0.044 C 
ATOM     27  C   UNL A   1      42.805  34.549  28.740  1.00  0.00    -0.051 A 
ATOM     28  C   UNL A   1      43.216  33.483  29.534  1.00  0.00     0.005 A 
ATOM     29  C   UNL A   1      43.521  34.838  27.573  1.00  0.00     0.009 A 
ATOM     30  C   UNL A   1      44.309  32.701  29.151  1.00  0.00     0.027 A 
ATOM     31  C   UNL A   1      44.610  34.046  27.156  1.00  0.00    -0.027 A 
ATOM     32  C   UNL A   1      45.239  34.417  25.838  1.00  0.00     0.046 C 
ENDBRANCH   9  25
ENDBRANCH   7   8
ENDBRANCH   4   7
ENDBRANCH   2   3
ENDBRANCH   1   2
BRANCH   1  33
ATOM     33  C   UNL A   1      41.458  21.482  26.041  1.00  0.00     0.023 C 
BRANCH  33  34
ATOM     34  C   UNL A   1      40.213  21.795  26.858  1.00  0.00     0.116 C 
BRANCH  34  35
ATOM     35  N   UNL A   1      39.140  22.394  26.076  1.00  0.00    -0.352 N 
ATOM     36  C   UNL A   1      38.670  23.688  26.098  1.00  0.00     0.251 C 
ATOM     37  H   UNL A   1      38.688  21.790  25.444  1.00  0.00     0.163 HD
ATOM     38  O   UNL A   1      37.675  24.004  25.457  1.00  0.00    -0.269 OA
BRANCH  36  39
ATOM     39  C   UNL A   1      39.352  24.687  26.949  1.00  0.00     0.039 A 
ATOM     40  C   UNL A   1      39.112  24.724  28.322  1.00  0.00     0.014 A 
ATOM     41  C   UNL A   1      40.178  25.641  26.352  1.00  0.00     0.014 A 
ATOM     42  C   UNL A   1      39.522  25.828  29.058  1.00  0.00     0.010 A 
ATOM     43  C   UNL A   1      40.680  26.696  27.118  1.00  0.00     0.010 A 
ATOM     44  C   UNL A   1      40.304  26.833  28.464  1.00  0.00    -0.014 A 
BRANCH  44  45
ATOM     45  C   UNL A   1      40.700  28.021  29.265  1.00  0.00     0.031 A 
ATOM     46  C   UNL A   1      39.724  29.138  29.523  1.00  0.00     0.074 A 
ATOM     47  C   UNL A   1      41.930  28.065  29.811  1.00  0.00     0.049 A 
ATOM     48  N   UNL A   1      39.897  30.248  30.199  1.00  0.00    -0.248 NA
ATOM     49  C   UNL A   1      38.377  28.999  28.947  1.00  0.00     0.031 C 
ATOM     50  C   UNL A   1      42.957  27.034  29.652  1.00  0.00     0.029 A 
ATOM     51  N   UNL A   1      42.520  28.997  30.627  1.00  0.00    -0.354 N 
ATOM     52  C   UNL A   1      38.694  30.939  30.116  1.00  0.00     0.074 A 
ATOM     53  C   UNL A   1      37.808  30.146  29.293  1.00  0.00     0.031 C 
ATOM     54  C   UNL A   1      44.027  27.362  30.389  1.00  0.00     0.029 A 
ATOM     55  C   UNL A   1      43.795  28.662  31.009  1.00  0.00     0.049 A 
ATOM     56  H   UNL A   1      42.071  29.827  30.910  1.00  0.00     0.167 HD
ATOM     57  C   UNL A   1      38.357  32.119  30.691  1.00  0.00     0.037 A 
ATOM     58  C   UNL A   1      44.690  29.333  31.759  1.00  0.00     0.037 A 
ATOM     59  C   UNL A   1      39.238  32.896  31.526  1.00  0.00     0.049 A 
ATOM     60  C   UNL A   1      44.312  30.672  32.325  1.00  0.00     0.074 A 
ATOM     61  C   UNL A   1      38.980  34.096  32.166  1.00  0.00     0.029 A 
ATOM     62  N   UNL A   1      40.545  32.551  31.837  1.00  0.00    -0.354 N 
ATOM     63  N   UNL A   1      43.169  31.309  32.248  1.00  0.00    -0.248 NA
ATOM     64  C   UNL A   1      45.350  31.390  33.077  1.00  0.00     0.031 C 
ATOM     65  C   UNL A   1      40.147  34.505  32.816  1.00  0.00     0.029 A 
ATOM     66  C   UNL A   1      41.114  33.530  32.637  1.00  0.00     0.049 A 
ATOM     67  H   UNL A   1      41.001  31.732  31.535  1.00  0.00     0.167 HD
ATOM     68  C   UNL A   1      43.342  32.490  32.956  1.00  0.00     0.074 A 
ATOM     69  C   UNL A   1      44.694  32.472  33.473  1.00  0.00     0.031 C 
ATOM     70  C   UNL A   1      42.459  33.500  33.153  1.00  0.00     0.037 A 
BRANCH  57  71
ATOM     71  C   UNL A   1      36.977  32.658  30.440  1.00  0.00     0.064 A 
ATOM     72  C   UNL A   1      35.948  32.518  31.385  1.00  0.00     0.173 A 
ATOM     73  C   UNL A   1      36.701  33.399  29.279  1.00  0.00     0.173 A 
ATOM     74  F   UNL A   1      36.153  31.812  32.507  1.00  0.00    -0.203 F 
ATOM     75  C   UNL A   1      34.695  33.086  31.170  1.00  0.00     0.198 A 
ATOM     76  C   UNL A   1      35.457  33.992  29.083  1.00  0.00     0.198 A 
ATOM     77  F   UNL A   1      37.651  33.572  28.347  1.00  0.00    -0.203 F 
ATOM     78  F   UNL A   1      33.718  32.909  32.071  1.00  0.00    -0.200 F 
ATOM     79  C   UNL A   1      34.454  33.832  30.026  1.00  0.00     0.200 A 
ATOM     80  F   UNL A   1      35.232  34.728  27.985  1.00  0.00    -0.200 F 
ATOM     81  F   UNL A   1      33.253  34.395  29.832  1.00  0.00    -0.200 F 
ENDBRANCH  57  71
BRANCH  58  82
ATOM     82  C   UNL A   1      46.028  28.737  32.012  1.00  0.00     0.064 A 
ATOM     83  C   UNL A   1      46.189  27.698  32.937  1.00  0.00     0.173 A 
ATOM     84  C   UNL A   1      47.166  29.172  31.314  1.00  0.00     0.173 A 
ATOM     85  F   UNL A   1      45.136  27.260  33.643  1.00  0.00    -0.203 F 
ATOM     86  C   UNL A   1      47.437  27.119  33.157  1.00  0.00     0.198 A 
ATOM     87  C   UNL A   1      48.405  28.570  31.511  1.00  0.00     0.198 A 
ATOM     88  F   UNL A   1      47.064  30.162  30.415  1.00  0.00    -0.203 F 
ATOM     89  F   UNL A   1      47.570  26.149  34.073  1.00  0.00    -0.200 F 
ATOM     90  C   UNL A   1      48.542  27.549  32.437  1.00  0.00     0.200 A 
ATOM     91  F   UNL A   1      49.464  28.975  30.797  1.00  0.00    -0.200 F 
ATOM     92  F   UNL A   1      49.738  26.979  32.637  1.00  0.00    -0.200 F 
ENDBRANCH  58  82
BRANCH  70  93
ATOM     93  C   UNL A   1      42.912  34.668  33.981  1.00  0.00     0.064 A 
ATOM     94  C   UNL A   1      43.426  35.831  33.393  1.00  0.00     0.173 A 
ATOM     95  C   UNL A   1      42.760  34.650  35.377  1.00  0.00     0.173 A 
ATOM     96  F   UNL A   1      43.603  35.894  32.064  1.00  0.00    -0.203 F 
ATOM     97  C   UNL A   1      43.786  36.929  34.170  1.00  0.00     0.198 A 
ATOM     98  C   UNL A   1      43.090  35.760  36.149  1.00  0.00     0.198 A 
ATOM     99  F   UNL A   1      42.266  33.564  35.990  1.00  0.00    -0.203 F 
ATOM    100  F   UNL A   1      44.312  38.015  33.590  1.00  0.00    -0.200 F 
ATOM    101  C   UNL A   1      43.607  36.897  35.546  1.00  0.00     0.200 A 
ATOM    102  F   UNL A   1      42.898  35.734  37.475  1.00  0.00    -0.200 F 
ATOM    103  F   UNL A   1      43.935  37.961  36.290  1.00  0.00    -0.200 F 
ENDBRANCH  70  93
ENDBRANCH  44  45
ENDBRANCH  36  39
ENDBRANCH  34  35
ENDBRANCH  33  34
ENDBRANCH   1  33
TORSDOF 13
ENDMDL
MODEL 2
REMARK VINA RESULT:     -10.3      3.913     10.247
REMARK SMILES Cc1ccc(N2C(=O)/C(=C3\C(=O)N(CC(=O)NCCCCNC(=O)c4ccc(-c5c6nc(c(-c7c(F)c(F)c(F)c(F)c7F)c7ccc([nH]7)c(-c7c(F)c(F)c(F)c(F)c7F)c7nc(c(-c8c(F)c(F)c(F)c(F)c8F)c8ccc5[nH]8)C=C7)C=C6)cc4)c4ccccc43)SC2=S)c(C)c1
REMARK SMILES IDX 19 1 18 2 17 3 15 4 16 5 14 7 13 8 6 9 7 10 95 11 8 12 9 13
REMARK SMILES IDX 94 14 96 15 10 16 11 17 93 18 12 19 88 20 92 21 89 22 91 23
REMARK SMILES IDX 90 24 5 25 1 26 2 27 3 28 99 29 4 30 97 31 98 32 20 33 21 34
REMARK SMILES IDX 22 35 23 36 24 38 25 39 26 40 87 41 27 42 86 43 28 44 29 45
REMARK SMILES IDX 30 46 80 47 31 48 85 49 79 50 81 51 32 52 84 53 78 54 77 55
REMARK SMILES IDX 33 57 65 58 45 59 64 60 46 61 49 62 63 63 82 64 47 65 48 66
REMARK SMILES IDX 62 68 83 69 50 70 34 71 35 72 43 73 36 74 37 75 41 76 44 77
REMARK SMILES IDX 38 78 39 79 42 80 40 81 66 82 67 83 75 84 68 85 69 86 73 87
REMARK SMILES IDX 76 88 70 89 71 90 74 91 72 92 51 93 52 94 60 95 53 96 54 97
REMARK SMILES IDX 58 98 61 99 55 100 56 101 59 102 57 103
REMARK H PARENT 17 6 22 37 81 56 49 67
REMARK Flexibility Score: inf
ROOT
ATOM      1  C   UNL A   1      34.815  32.576  30.630  1.00  0.00     0.023 C 
ENDROOT
BRANCH   1   2
ATOM      2  C   UNL A   1      35.519  33.657  31.447  1.00  0.00     0.116 C 
BRANCH   2   3
ATOM      3  N   UNL A   1      35.621  33.294  32.846  1.00  0.00    -0.355 N 
ATOM      4  C   UNL A   1      36.685  32.754  33.509  1.00  0.00     0.240 C 
ATOM      5  O   UNL A   1      36.575  32.562  34.723  1.00  0.00    -0.273 OA
ATOM      6  H   UNL A   1      34.818  33.460  33.390  1.00  0.00     0.163 HD
BRANCH   4   7
ATOM      7  C   UNL A   1      37.998  32.459  32.776  1.00  0.00     0.225 C 
BRANCH   7   8
ATOM      8  N   UNL A   1      39.123  32.207  33.656  1.00  0.00    -0.298 N 
ATOM      9  N   UNL A   1      42.922  28.347  35.240  1.00  0.00    -0.261 N 
ATOM     10  C   UNL A   1      41.600  28.760  35.051  1.00  0.00     0.271 C 
ATOM     11  C   UNL A   1      43.662  29.100  36.140  1.00  0.00     0.152 C 
ATOM     12  O   UNL A   1      40.670  28.066  34.674  1.00  0.00    -0.268 OA
ATOM     13  C   UNL A   1      41.484  30.186  35.491  1.00  0.00     0.094 C 
ATOM     14  S   UNL A   1      42.659  30.410  36.740  1.00  0.00    -0.053 SA
ATOM     15  S   UNL A   1      45.273  29.022  36.580  1.00  0.00    -0.051 S 
ATOM     16  C   UNL A   1      40.752  31.157  34.919  1.00  0.00     0.069 C 
ATOM     17  C   UNL A   1      39.660  30.945  33.896  1.00  0.00     0.260 C 
ATOM     18  C   UNL A   1      40.855  32.624  35.105  1.00  0.00     0.012 A 
ATOM     19  O   UNL A   1      39.295  29.902  33.389  1.00  0.00    -0.269 OA
ATOM     20  C   UNL A   1      39.849  33.203  34.322  1.00  0.00     0.053 A 
ATOM     21  C   UNL A   1      41.769  33.446  35.754  1.00  0.00     0.011 A 
ATOM     22  C   UNL A   1      39.696  34.578  34.214  1.00  0.00     0.027 A 
ATOM     23  C   UNL A   1      41.639  34.833  35.641  1.00  0.00     0.001 A 
ATOM     24  C   UNL A   1      40.605  35.395  34.884  1.00  0.00     0.002 A 
BRANCH   9  25
ATOM     25  C   UNL A   1      43.444  27.231  34.520  1.00  0.00     0.054 A 
ATOM     26  C   UNL A   1      44.648  23.882  32.055  1.00  0.00     0.044 C 
ATOM     27  C   UNL A   1      44.273  25.052  32.914  1.00  0.00    -0.051 A 
ATOM     28  C   UNL A   1      44.453  26.360  32.471  1.00  0.00     0.005 A 
ATOM     29  C   UNL A   1      43.713  24.838  34.178  1.00  0.00     0.009 A 
ATOM     30  C   UNL A   1      44.053  27.434  33.270  1.00  0.00     0.027 A 
ATOM     31  C   UNL A   1      43.280  25.907  34.988  1.00  0.00    -0.027 A 
ATOM     32  C   UNL A   1      42.619  25.533  36.289  1.00  0.00     0.046 C 
ENDBRANCH   9  25
ENDBRANCH   7   8
ENDBRANCH   4   7
ENDBRANCH   2   3
ENDBRANCH   1   2
BRANCH   1  33
ATOM     33  C   UNL A   1      34.206  33.068  29.318  1.00  0.00     0.023 C 
BRANCH  33  34
ATOM     34  C   UNL A   1      34.725  32.373  28.067  1.00  0.00     0.116 C 
BRANCH  34  35
ATOM     35  N   UNL A   1      34.196  31.029  27.887  1.00  0.00    -0.352 N 
ATOM     36  C   UNL A   1      34.858  29.823  27.943  1.00  0.00     0.251 C 
ATOM     37  H   UNL A   1      33.231  30.974  27.698  1.00  0.00     0.163 HD
ATOM     38  O   UNL A   1      34.285  28.780  27.649  1.00  0.00    -0.269 OA
BRANCH  36  39
ATOM     39  C   UNL A   1      36.289  29.803  28.312  1.00  0.00     0.039 A 
ATOM     40  C   UNL A   1      37.266  30.099  27.363  1.00  0.00     0.014 A 
ATOM     41  C   UNL A   1      36.655  29.410  29.602  1.00  0.00     0.014 A 
ATOM     42  C   UNL A   1      38.595  29.801  27.634  1.00  0.00     0.010 A 
ATOM     43  C   UNL A   1      38.004  29.213  29.906  1.00  0.00     0.010 A 
ATOM     44  C   UNL A   1      38.981  29.346  28.907  1.00  0.00    -0.014 A 
BRANCH  44  45
ATOM     45  C   UNL A   1      40.404  29.001  29.159  1.00  0.00     0.031 A 
ATOM     46  C   UNL A   1      40.982  27.700  28.669  1.00  0.00     0.074 A 
ATOM     47  C   UNL A   1      41.195  29.893  29.786  1.00  0.00     0.049 A 
ATOM     48  N   UNL A   1      42.201  27.235  28.799  1.00  0.00    -0.248 NA
ATOM     49  C   UNL A   1      40.078  26.797  27.939  1.00  0.00     0.031 C 
ATOM     50  C   UNL A   1      40.758  31.196  30.288  1.00  0.00     0.029 A 
ATOM     51  N   UNL A   1      42.533  29.854  30.088  1.00  0.00    -0.354 N 
ATOM     52  C   UNL A   1      42.204  25.989  28.184  1.00  0.00     0.074 A 
ATOM     53  C   UNL A   1      40.858  25.748  27.713  1.00  0.00     0.031 C 
ATOM     54  C   UNL A   1      41.815  31.853  30.786  1.00  0.00     0.029 A 
ATOM     55  C   UNL A   1      42.988  30.989  30.710  1.00  0.00     0.049 A 
ATOM     56  H   UNL A   1      43.111  29.084  29.878  1.00  0.00     0.167 HD
ATOM     57  C   UNL A   1      43.241  25.133  28.014  1.00  0.00     0.037 A 
ATOM     58  C   UNL A   1      44.209  31.298  31.187  1.00  0.00     0.037 A 
ATOM     59  C   UNL A   1      44.585  25.387  28.468  1.00  0.00     0.049 A 
ATOM     60  C   UNL A   1      45.323  30.300  31.046  1.00  0.00     0.074 A 
ATOM     61  C   UNL A   1      45.706  24.587  28.327  1.00  0.00     0.029 A 
ATOM     62  N   UNL A   1      44.990  26.525  29.151  1.00  0.00    -0.354 N 
ATOM     63  N   UNL A   1      45.314  29.131  30.453  1.00  0.00    -0.248 NA
ATOM     64  C   UNL A   1      46.615  30.662  31.645  1.00  0.00     0.031 C 
ATOM     65  C   UNL A   1      46.774  25.213  28.974  1.00  0.00     0.029 A 
ATOM     66  C   UNL A   1      46.338  26.433  29.463  1.00  0.00     0.049 A 
ATOM     67  H   UNL A   1      44.407  27.284  29.381  1.00  0.00     0.167 HD
ATOM     68  C   UNL A   1      46.600  28.626  30.590  1.00  0.00     0.074 A 
ATOM     69  C   UNL A   1      47.367  29.625  31.303  1.00  0.00     0.031 C 
ATOM     70  C   UNL A   1      47.095  27.437  30.167  1.00  0.00     0.037 A 
BRANCH  57  71
ATOM     71  C   UNL A   1      42.976  23.833  27.309  1.00  0.00     0.064 A 
ATOM     72  C   UNL A   1      43.297  23.650  25.955  1.00  0.00     0.173 A 
ATOM     73  C   UNL A   1      42.475  22.728  28.017  1.00  0.00     0.173 A 
ATOM     74  F   UNL A   1      43.770  24.674  25.229  1.00  0.00    -0.203 F 
ATOM     75  C   UNL A   1      43.113  22.417  25.334  1.00  0.00     0.198 A 
ATOM     76  C   UNL A   1      42.322  21.489  27.400  1.00  0.00     0.198 A 
ATOM     77  F   UNL A   1      42.159  22.844  29.316  1.00  0.00    -0.203 F 
ATOM     78  F   UNL A   1      43.395  22.276  24.032  1.00  0.00    -0.200 F 
ATOM     79  C   UNL A   1      42.637  21.335  26.060  1.00  0.00     0.200 A 
ATOM     80  F   UNL A   1      41.879  20.440  28.109  1.00  0.00    -0.200 F 
ATOM     81  F   UNL A   1      42.481  20.144  25.466  1.00  0.00    -0.200 F 
ENDBRANCH  57  71
BRANCH  58  82
ATOM     82  C   UNL A   1      44.429  32.615  31.839  1.00  0.00     0.064 A 
ATOM     83  C   UNL A   1      44.520  32.723  33.232  1.00  0.00     0.173 A 
ATOM     84  C   UNL A   1      44.585  33.788  31.082  1.00  0.00     0.173 A 
ATOM     85  F   UNL A   1      44.359  31.635  34.000  1.00  0.00    -0.203 F 
ATOM     86  C   UNL A   1      44.752  33.953  33.845  1.00  0.00     0.198 A 
ATOM     87  C   UNL A   1      44.850  35.010  31.694  1.00  0.00     0.198 A 
ATOM     88  F   UNL A   1      44.510  33.738  29.744  1.00  0.00    -0.203 F 
ATOM     89  F   UNL A   1      44.800  34.033  35.182  1.00  0.00    -0.200 F 
ATOM     90  C   UNL A   1      44.928  35.093  33.075  1.00  0.00     0.200 A 
ATOM     91  F   UNL A   1      45.040  36.104  30.944  1.00  0.00    -0.200 F 
ATOM     92  F   UNL A   1      45.169  36.271  33.665  1.00  0.00    -0.200 F 
ENDBRANCH  58  82
BRANCH  70  93
ATOM     93  C   UNL A   1      48.544  27.150  30.440  1.00  0.00     0.064 A 
ATOM     94  C   UNL A   1      48.946  26.378  31.539  1.00  0.00     0.173 A 
ATOM     95  C   UNL A   1      49.536  27.591  29.549  1.00  0.00     0.173 A 
ATOM     96  F   UNL A   1      48.038  25.944  32.427  1.00  0.00    -0.203 F 
ATOM     97  C   UNL A   1      50.288  26.071  31.746  1.00  0.00     0.198 A 
ATOM     98  C   UNL A   1      50.872  27.254  29.740  1.00  0.00     0.198 A 
ATOM     99  F   UNL A   1      49.204  28.326  28.477  1.00  0.00    -0.203 F 
ATOM    100  F   UNL A   1      50.653  25.365  32.824  1.00  0.00    -0.200 F 
ATOM    101  C   UNL A   1      51.248  26.498  30.840  1.00  0.00     0.200 A 
ATOM    102  F   UNL A   1      51.796  27.652  28.854  1.00  0.00    -0.200 F 
ATOM    103  F   UNL A   1      52.537  26.184  31.030  1.00  0.00    -0.200 F 
ENDBRANCH  70  93
ENDBRANCH  44  45
ENDBRANCH  36  39
ENDBRANCH  34  35
ENDBRANCH  33  34
ENDBRANCH   1  33
TORSDOF 13
ENDMDL
MODEL 3
REMARK VINA RESULT:     -10.3      0.221      7.094
REMARK SMILES Cc1ccc(N2C(=O)/C(=C3\C(=O)N(CC(=O)NCCCCNC(=O)c4ccc(-c5c6nc(c(-c7c(F)c(F)c(F)c(F)c7F)c7ccc([nH]7)c(-c7c(F)c(F)c(F)c(F)c7F)c7nc(c(-c8c(F)c(F)c(F)c(F)c8F)c8ccc5[nH]8)C=C7)C=C6)cc4)c4ccccc43)SC2=S)c(C)c1
REMARK SMILES IDX 19 1 18 2 17 3 15 4 16 5 14 7 13 8 6 9 7 10 95 11 8 12 9 13
REMARK SMILES IDX 94 14 96 15 10 16 11 17 93 18 12 19 88 20 92 21 89 22 91 23
REMARK SMILES IDX 90 24 5 25 1 26 2 27 3 28 99 29 4 30 97 31 98 32 20 33 21 34
REMARK SMILES IDX 22 35 23 36 24 38 25 39 26 40 87 41 27 42 86 43 28 44 29 45
REMARK SMILES IDX 30 46 80 47 31 48 85 49 79 50 81 51 32 52 84 53 78 54 77 55
REMARK SMILES IDX 33 57 65 58 45 59 64 60 46 61 49 62 63 63 82 64 47 65 48 66
REMARK SMILES IDX 62 68 83 69 50 70 34 71 35 72 43 73 36 74 37 75 41 76 44 77
REMARK SMILES IDX 38 78 39 79 42 80 40 81 66 82 67 83 75 84 68 85 69 86 73 87
REMARK SMILES IDX 76 88 70 89 71 90 74 91 72 92 51 93 52 94 60 95 53 96 54 97
REMARK SMILES IDX 58 98 61 99 55 100 56 101 59 102 57 103
REMARK H PARENT 17 6 22 37 81 56 49 67
REMARK Flexibility Score: inf
ROOT
ATOM      1  C   UNL A   1      42.353  22.776  25.800  1.00  0.00     0.023 C 
ENDROOT
BRANCH   1   2
ATOM      2  C   UNL A   1      43.830  22.536  26.104  1.00  0.00     0.116 C 
BRANCH   2   3
ATOM      3  N   UNL A   1      44.691  23.323  25.244  1.00  0.00    -0.355 N 
ATOM      4  C   UNL A   1      45.224  24.558  25.476  1.00  0.00     0.240 C 
ATOM      5  O   UNL A   1      45.977  25.034  24.622  1.00  0.00    -0.273 OA
ATOM      6  H   UNL A   1      44.922  22.913  24.380  1.00  0.00     0.163 HD
BRANCH   4   7
ATOM      7  C   UNL A   1      44.948  25.298  26.790  1.00  0.00     0.225 C 
BRANCH   7   8
ATOM      8  N   UNL A   1      45.807  26.444  27.015  1.00  0.00    -0.298 N 
ATOM      9  N   UNL A   1      45.901  32.060  27.554  1.00  0.00    -0.261 N 
ATOM     10  C   UNL A   1      45.588  30.903  26.834  1.00  0.00     0.271 C 
ATOM     11  C   UNL A   1      47.247  32.248  27.831  1.00  0.00     0.152 C 
ATOM     12  O   UNL A   1      44.606  30.729  26.132  1.00  0.00    -0.268 OA
ATOM     13  C   UNL A   1      46.720  29.935  26.983  1.00  0.00     0.094 C 
ATOM     14  S   UNL A   1      48.151  30.884  27.194  1.00  0.00    -0.053 SA
ATOM     15  S   UNL A   1      48.035  33.416  28.731  1.00  0.00    -0.051 S 
ATOM     16  C   UNL A   1      46.638  28.600  27.114  1.00  0.00     0.069 C 
ATOM     17  C   UNL A   1      45.409  27.766  26.836  1.00  0.00     0.260 C 
ATOM     18  C   UNL A   1      47.675  27.651  27.585  1.00  0.00     0.012 A 
ATOM     19  O   UNL A   1      44.301  28.143  26.505  1.00  0.00    -0.269 OA
ATOM     20  C   UNL A   1      47.118  26.370  27.503  1.00  0.00     0.053 A 
ATOM     21  C   UNL A   1      48.930  27.812  28.160  1.00  0.00     0.011 A 
ATOM     22  C   UNL A   1      47.801  25.238  27.926  1.00  0.00     0.027 A 
ATOM     23  C   UNL A   1      49.624  26.684  28.608  1.00  0.00     0.001 A 
ATOM     24  C   UNL A   1      49.068  25.406  28.484  1.00  0.00     0.002 A 
BRANCH   9  25
ATOM     25  C   UNL A   1      44.871  32.955  27.974  1.00  0.00     0.054 A 
ATOM     26  C   UNL A   1      41.438  35.345  29.089  1.00  0.00     0.044 C 
ATOM     27  C   UNL A   1      42.648  34.532  28.737  1.00  0.00    -0.051 A 
ATOM     28  C   UNL A   1      43.040  33.446  29.516  1.00  0.00     0.005 A 
ATOM     29  C   UNL A   1      43.395  34.850  27.597  1.00  0.00     0.009 A 
ATOM     30  C   UNL A   1      44.144  32.676  29.143  1.00  0.00     0.027 A 
ATOM     31  C   UNL A   1      44.495  34.069  27.190  1.00  0.00    -0.027 A 
ATOM     32  C   UNL A   1      45.158  34.474  25.899  1.00  0.00     0.046 C 
ENDBRANCH   9  25
ENDBRANCH   7   8
ENDBRANCH   4   7
ENDBRANCH   2   3
ENDBRANCH   1   2
BRANCH   1  33
ATOM     33  C   UNL A   1      41.446  21.576  26.068  1.00  0.00     0.023 C 
BRANCH  33  34
ATOM     34  C   UNL A   1      40.192  21.883  26.875  1.00  0.00     0.116 C 
BRANCH  34  35
ATOM     35  N   UNL A   1      39.124  22.480  26.084  1.00  0.00    -0.352 N 
ATOM     36  C   UNL A   1      38.621  23.760  26.135  1.00  0.00     0.251 C 
ATOM     37  H   UNL A   1      38.704  21.885  25.421  1.00  0.00     0.163 HD
ATOM     38  O   UNL A   1      37.634  24.071  25.478  1.00  0.00    -0.269 OA
BRANCH  36  39
ATOM     39  C   UNL A   1      39.254  24.748  27.035  1.00  0.00     0.039 A 
ATOM     40  C   UNL A   1      38.904  24.798  28.384  1.00  0.00     0.014 A 
ATOM     41  C   UNL A   1      40.149  25.679  26.503  1.00  0.00     0.014 A 
ATOM     42  C   UNL A   1      39.279  25.896  29.146  1.00  0.00     0.010 A 
ATOM     43  C   UNL A   1      40.611  26.726  27.304  1.00  0.00     0.010 A 
ATOM     44  C   UNL A   1      40.130  26.879  28.615  1.00  0.00    -0.014 A 
BRANCH  44  45
ATOM     45  C   UNL A   1      40.487  28.062  29.441  1.00  0.00     0.031 A 
ATOM     46  C   UNL A   1      41.855  28.188  30.058  1.00  0.00     0.074 A 
ATOM     47  C   UNL A   1      39.589  29.055  29.590  1.00  0.00     0.049 A 
ATOM     48  N   UNL A   1      42.339  29.149  30.807  1.00  0.00    -0.248 NA
ATOM     49  C   UNL A   1      42.808  27.095  29.807  1.00  0.00     0.031 C 
ATOM     50  C   UNL A   1      38.240  29.059  29.023  1.00  0.00     0.029 A 
ATOM     51  N   UNL A   1      39.679  30.260  30.239  1.00  0.00    -0.354 N 
ATOM     52  C   UNL A   1      43.637  28.770  31.126  1.00  0.00     0.074 A 
ATOM     53  C   UNL A   1      43.858  27.474  30.522  1.00  0.00     0.031 C 
ATOM     54  C   UNL A   1      37.649  30.229  29.303  1.00  0.00     0.029 A 
ATOM     55  C   UNL A   1      38.545  31.026  30.133  1.00  0.00     0.049 A 
ATOM     56  H   UNL A   1      40.481  30.548  30.734  1.00  0.00     0.167 HD
ATOM     57  C   UNL A   1      44.564  29.452  31.841  1.00  0.00     0.037 A 
ATOM     58  C   UNL A   1      38.248  32.228  30.661  1.00  0.00     0.037 A 
ATOM     59  C   UNL A   1      44.345  30.752  32.423  1.00  0.00     0.049 A 
ATOM     60  C   UNL A   1      39.271  32.929  31.508  1.00  0.00     0.074 A 
ATOM     61  C   UNL A   1      45.231  31.529  33.151  1.00  0.00     0.029 A 
ATOM     62  N   UNL A   1      43.159  31.466  32.345  1.00  0.00    -0.354 N 
ATOM     63  N   UNL A   1      40.498  32.565  31.792  1.00  0.00    -0.248 NA
ATOM     64  C   UNL A   1      38.867  34.205  32.114  1.00  0.00     0.031 C 
ATOM     65  C   UNL A   1      44.563  32.685  33.561  1.00  0.00     0.029 A 
ATOM     66  C   UNL A   1      43.282  32.662  33.036  1.00  0.00     0.049 A 
ATOM     67  H   UNL A   1      42.350  31.169  31.870  1.00  0.00     0.167 HD
ATOM     68  C   UNL A   1      41.019  33.573  32.591  1.00  0.00     0.074 A 
ATOM     69  C   UNL A   1      39.982  34.574  32.729  1.00  0.00     0.031 C 
ATOM     70  C   UNL A   1      42.245  33.656  33.162  1.00  0.00     0.037 A 
BRANCH  57  71
ATOM     71  C   UNL A   1      45.909  28.813  32.045  1.00  0.00     0.064 A 
ATOM     72  C   UNL A   1      47.048  29.254  31.353  1.00  0.00     0.173 A 
ATOM     73  C   UNL A   1      46.080  27.805  33.008  1.00  0.00     0.173 A 
ATOM     74  F   UNL A   1      46.941  30.207  30.415  1.00  0.00    -0.203 F 
ATOM     75  C   UNL A   1      48.301  28.700  31.606  1.00  0.00     0.198 A 
ATOM     76  C   UNL A   1      47.339  27.277  33.281  1.00  0.00     0.198 A 
ATOM     77  F   UNL A   1      45.027  27.352  33.706  1.00  0.00    -0.203 F 
ATOM     78  F   UNL A   1      49.367  29.114  30.908  1.00  0.00    -0.200 F 
ATOM     79  C   UNL A   1      48.447  27.721  32.578  1.00  0.00     0.200 A 
ATOM     80  F   UNL A   1      47.481  26.344  34.233  1.00  0.00    -0.200 F 
ATOM     81  F   UNL A   1      49.657  27.206  32.834  1.00  0.00    -0.200 F 
ENDBRANCH  57  71
BRANCH  58  82
ATOM     82  C   UNL A   1      36.918  32.837  30.394  1.00  0.00     0.064 A 
ATOM     83  C   UNL A   1      36.637  33.441  29.162  1.00  0.00     0.173 A 
ATOM     84  C   UNL A   1      35.891  32.800  31.351  1.00  0.00     0.173 A 
ATOM     85  F   UNL A   1      37.590  33.519  28.222  1.00  0.00    -0.203 F 
ATOM     86  C   UNL A   1      35.383  33.989  28.899  1.00  0.00     0.198 A 
ATOM     87  C   UNL A   1      34.629  33.317  31.075  1.00  0.00     0.198 A 
ATOM     88  F   UNL A   1      36.108  32.229  32.546  1.00  0.00    -0.203 F 
ATOM     89  F   UNL A   1      35.152  34.592  27.725  1.00  0.00    -0.200 F 
ATOM     90  C   UNL A   1      34.378  33.918  29.852  1.00  0.00     0.200 A 
ATOM     91  F   UNL A   1      33.656  33.227  31.991  1.00  0.00    -0.200 F 
ATOM     92  F   UNL A   1      33.168  34.429  29.590  1.00  0.00    -0.200 F 
ENDBRANCH  58  82
BRANCH  70  93
ATOM     93  C   UNL A   1      42.553  34.880  33.976  1.00  0.00     0.064 A 
ATOM     94  C   UNL A   1      42.420  34.887  35.372  1.00  0.00     0.173 A 
ATOM     95  C   UNL A   1      43.056  36.036  33.358  1.00  0.00     0.173 A 
ATOM     96  F   UNL A   1      41.930  33.813  36.009  1.00  0.00    -0.203 F 
ATOM     97  C   UNL A   1      42.765  36.011  36.118  1.00  0.00     0.198 A 
ATOM     98  C   UNL A   1      43.432  37.145  34.110  1.00  0.00     0.198 A 
ATOM     99  F   UNL A   1      43.210  36.079  32.026  1.00  0.00    -0.203 F 
ATOM    100  F   UNL A   1      42.593  36.009  37.447  1.00  0.00    -0.200 F 
ATOM    101  C   UNL A   1      43.281  37.134  35.489  1.00  0.00     0.200 A 
ATOM    102  F   UNL A   1      43.948  38.222  33.501  1.00  0.00    -0.200 F 
ATOM    103  F   UNL A   1      43.632  38.206  36.211  1.00  0.00    -0.200 F 
ENDBRANCH  70  93
ENDBRANCH  44  45
ENDBRANCH  36  39
ENDBRANCH  34  35
ENDBRANCH  33  34
ENDBRANCH   1  33
TORSDOF 13
ENDMDL
