MODEL 1
REMARK VINA RESULT:     -12.6      0.000      0.000
REMARK SMILES CC(C)(C)OC(=O)Nc1ccc(-c2cccc(Cl)c2C(=O)NCCCCNC(=O)c2ccc(-c3c4nc(c(-c5c(F)c(F)c(F)c(F)c5F)c5ccc([nH]5)c(-c5c(F)c(F)c(F)c(F)c5F)c5nc(c(-c6c(F)c(F)c(F)c(F)c6F)c6ccc3[nH]6)C=C5)C=C4)cc2)cc1
REMARK SMILES IDX 23 1 22 2 20 3 21 4 19 6 13 7 14 8 15 9 17 10 16 11 18 12
REMARK SMILES IDX 12 13 9 14 10 15 94 16 11 17 93 18 8 19 6 20 7 21 5 23 2 24
REMARK SMILES IDX 1 25 3 26 4 27 24 28 25 29 26 30 27 31 28 32 29 34 30 35
REMARK SMILES IDX 31 36 92 37 32 38 91 39 33 40 34 41 35 42 85 43 36 44 90 45
REMARK SMILES IDX 84 46 86 47 37 48 89 49 83 50 82 51 38 53 70 54 50 55 69 56
REMARK SMILES IDX 51 57 54 58 68 59 87 60 52 61 53 62 67 64 88 65 55 66 39 67
REMARK SMILES IDX 40 68 48 69 41 70 42 71 46 72 49 73 43 74 44 75 47 76 45 77
REMARK SMILES IDX 71 78 72 79 80 80 73 81 74 82 78 83 81 84 75 85 76 86 79 87
REMARK SMILES IDX 77 88 56 89 57 90 65 91 58 92 59 93 63 94 66 95 60 96 61 97
REMARK SMILES IDX 64 98 62 99
REMARK H PARENT 22 5 8 22 27 33 86 52 54 63
REMARK Flexibility Score: inf
ROOT
ATOM      1  C   UNL A   1      35.592  21.018  25.629  1.00  0.00     0.116 C 
ENDROOT
BRANCH   1   2
ATOM      2  N   UNL A   1      34.433  21.776  26.001  1.00  0.00    -0.352 N 
ATOM      3  C   UNL A   1      33.115  21.483  25.697  1.00  0.00     0.253 C 
ATOM      4  O   UNL A   1      32.267  21.914  26.483  1.00  0.00    -0.269 OA
ATOM      5  H   UNL A   1      34.593  22.592  26.529  1.00  0.00     0.163 HD
BRANCH   3   6
ATOM      6  C   UNL A   1      32.640  20.748  24.469  1.00  0.00     0.066 A 
ATOM      7  C   UNL A   1      32.328  21.320  23.201  1.00  0.00    -0.004 A 
ATOM      8  C   UNL A   1      32.067  20.460  22.103  1.00  0.00     0.009 A 
ATOM      9  C   UNL A   1      32.106  19.078  22.217  1.00  0.00     0.002 A 
ATOM     10  C   UNL A   1      32.636  19.330  24.565  1.00  0.00     0.054 A 
ATOM     11  C   UNL A   1      32.382  18.513  23.450  1.00  0.00     0.021 A 
ATOM     12  Cl  UNL A   1      32.866  18.465  26.057  1.00  0.00    -0.083 Cl
BRANCH   7  13
ATOM     13  C   UNL A   1      32.205  22.751  22.891  1.00  0.00    -0.017 A 
ATOM     14  C   UNL A   1      31.990  25.554  22.515  1.00  0.00     0.044 A 
ATOM     15  C   UNL A   1      31.000  24.859  23.210  1.00  0.00     0.027 A 
ATOM     16  C   UNL A   1      33.049  24.825  21.959  1.00  0.00     0.027 A 
ATOM     17  C   UNL A   1      31.090  23.474  23.368  1.00  0.00     0.011 A 
ATOM     18  C   UNL A   1      33.158  23.437  22.142  1.00  0.00     0.011 A 
BRANCH  14  19
ATOM     19  N   UNL A   1      31.866  26.955  22.477  1.00  0.00    -0.291 N 
ATOM     20  C   UNL A   1      32.467  27.940  23.219  1.00  0.00     0.412 C 
ATOM     21  O   UNL A   1      32.215  29.120  23.032  1.00  0.00    -0.224 OA
ATOM     22  H   UNL A   1      31.235  27.288  21.798  1.00  0.00     0.173 HD
BRANCH  20  23
ATOM     23  O   UNL A   1      33.371  27.476  24.104  1.00  0.00    -0.444 OA
BRANCH  23  24
ATOM     24  C   UNL A   1      33.040  27.250  25.491  1.00  0.00     0.106 C 
ATOM     25  C   UNL A   1      33.910  28.273  26.233  1.00  0.00     0.056 C 
ATOM     26  C   UNL A   1      33.450  25.835  25.902  1.00  0.00     0.056 C 
ATOM     27  C   UNL A   1      31.567  27.537  25.797  1.00  0.00     0.056 C 
ENDBRANCH  23  24
ENDBRANCH  20  23
ENDBRANCH  14  19
ENDBRANCH   7  13
ENDBRANCH   3   6
ENDBRANCH   1   2
BRANCH   1  28
ATOM     28  C   UNL A   1      36.851  21.744  25.190  1.00  0.00     0.023 C 
BRANCH  28  29
ATOM     29  C   UNL A   1      38.110  20.909  24.978  1.00  0.00     0.023 C 
BRANCH  29  30
ATOM     30  C   UNL A   1      39.183  20.986  26.063  1.00  0.00     0.116 C 
BRANCH  30  31
ATOM     31  N   UNL A   1      40.004  19.785  26.128  1.00  0.00    -0.352 N 
ATOM     32  C   UNL A   1      41.370  19.634  26.115  1.00  0.00     0.251 C 
ATOM     33  H   UNL A   1      39.499  18.943  26.192  1.00  0.00     0.163 HD
ATOM     34  O   UNL A   1      41.842  18.569  25.725  1.00  0.00    -0.269 OA
BRANCH  32  35
ATOM     35  C   UNL A   1      42.264  20.750  26.507  1.00  0.00     0.039 A 
ATOM     36  C   UNL A   1      42.853  21.527  25.504  1.00  0.00     0.014 A 
ATOM     37  C   UNL A   1      42.472  21.081  27.846  1.00  0.00     0.014 A 
ATOM     38  C   UNL A   1      43.482  22.725  25.837  1.00  0.00     0.010 A 
ATOM     39  C   UNL A   1      42.983  22.332  28.171  1.00  0.00     0.010 A 
ATOM     40  C   UNL A   1      43.448  23.186  27.163  1.00  0.00    -0.014 A 
BRANCH  40  41
ATOM     41  C   UNL A   1      43.784  24.595  27.488  1.00  0.00     0.031 A 
ATOM     42  C   UNL A   1      45.211  25.054  27.533  1.00  0.00     0.074 A 
ATOM     43  C   UNL A   1      42.783  25.428  27.840  1.00  0.00     0.049 A 
ATOM     44  N   UNL A   1      45.689  26.233  27.838  1.00  0.00    -0.248 NA
ATOM     45  C   UNL A   1      46.242  24.049  27.230  1.00  0.00     0.031 C 
ATOM     46  C   UNL A   1      41.366  25.058  27.925  1.00  0.00     0.029 A 
ATOM     47  N   UNL A   1      42.795  26.753  28.196  1.00  0.00    -0.354 N 
ATOM     48  C   UNL A   1      47.068  26.109  27.768  1.00  0.00     0.074 A 
ATOM     49  C   UNL A   1      47.355  24.724  27.468  1.00  0.00     0.031 C 
ATOM     50  C   UNL A   1      40.644  26.137  28.259  1.00  0.00     0.029 A 
ATOM     51  C   UNL A   1      41.546  27.264  28.461  1.00  0.00     0.049 A 
ATOM     52  H   UNL A   1      43.619  27.287  28.256  1.00  0.00     0.167 HD
ATOM     53  C   UNL A   1      48.008  27.075  27.909  1.00  0.00     0.037 A 
ATOM     54  C   UNL A   1      41.172  28.505  28.826  1.00  0.00     0.037 A 
ATOM     55  C   UNL A   1      47.703  28.450  28.205  1.00  0.00     0.049 A 
ATOM     56  C   UNL A   1      42.236  29.558  28.973  1.00  0.00     0.074 A 
ATOM     57  C   UNL A   1      48.568  29.522  28.324  1.00  0.00     0.029 A 
ATOM     58  N   UNL A   1      46.424  28.940  28.441  1.00  0.00    -0.354 N 
ATOM     59  N   UNL A   1      43.533  29.451  28.812  1.00  0.00    -0.248 NA
ATOM     60  C   UNL A   1      41.784  30.905  29.340  1.00  0.00     0.031 C 
ATOM     61  C   UNL A   1      47.820  30.647  28.686  1.00  0.00     0.029 A 
ATOM     62  C   UNL A   1      46.480  30.294  28.726  1.00  0.00     0.049 A 
ATOM     63  H   UNL A   1      45.599  28.402  28.409  1.00  0.00     0.167 HD
ATOM     64  C   UNL A   1      44.050  30.720  29.028  1.00  0.00     0.074 A 
ATOM     65  C   UNL A   1      42.922  31.585  29.310  1.00  0.00     0.031 C 
ATOM     66  C   UNL A   1      45.340  31.134  28.997  1.00  0.00     0.037 A 
BRANCH  53  67
ATOM     67  C   UNL A   1      49.446  26.671  27.737  1.00  0.00     0.064 A 
ATOM     68  C   UNL A   1      50.015  26.500  26.465  1.00  0.00     0.173 A 
ATOM     69  C   UNL A   1      50.272  26.469  28.854  1.00  0.00     0.173 A 
ATOM     70  F   UNL A   1      49.269  26.668  25.362  1.00  0.00    -0.203 F 
ATOM     71  C   UNL A   1      51.342  26.103  26.318  1.00  0.00     0.198 A 
ATOM     72  C   UNL A   1      51.609  26.108  28.702  1.00  0.00     0.198 A 
ATOM     73  F   UNL A   1      49.785  26.624  30.093  1.00  0.00    -0.203 F 
ATOM     74  F   UNL A   1      51.842  25.884  25.094  1.00  0.00    -0.200 F 
ATOM     75  C   UNL A   1      52.140  25.914  27.436  1.00  0.00     0.200 A 
ATOM     76  F   UNL A   1      52.383  25.940  29.783  1.00  0.00    -0.200 F 
ATOM     77  F   UNL A   1      53.418  25.536  27.292  1.00  0.00    -0.200 F 
ENDBRANCH  53  67
BRANCH  54  78
ATOM     78  C   UNL A   1      39.734  28.822  29.045  1.00  0.00     0.064 A 
ATOM     79  C   UNL A   1      39.148  28.686  30.313  1.00  0.00     0.173 A 
ATOM     80  C   UNL A   1      38.912  29.261  27.997  1.00  0.00     0.173 A 
ATOM     81  F   UNL A   1      39.886  28.257  31.348  1.00  0.00    -0.203 F 
ATOM     82  C   UNL A   1      37.795  28.947  30.516  1.00  0.00     0.198 A 
ATOM     83  C   UNL A   1      37.565  29.554  28.207  1.00  0.00     0.198 A 
ATOM     84  F   UNL A   1      39.420  29.420  26.765  1.00  0.00    -0.203 F 
ATOM     85  F   UNL A   1      37.252  28.754  31.726  1.00  0.00    -0.200 F 
ATOM     86  C   UNL A   1      37.005  29.385  29.464  1.00  0.00     0.200 A 
ATOM     87  F   UNL A   1      36.812  29.996  27.192  1.00  0.00    -0.200 F 
ATOM     88  F   UNL A   1      35.704  29.638  29.660  1.00  0.00    -0.200 F 
ENDBRANCH  54  78
BRANCH  66  89
ATOM     89  C   UNL A   1      45.593  32.596  29.234  1.00  0.00     0.064 A 
ATOM     90  C   UNL A   1      45.579  33.529  28.187  1.00  0.00     0.173 A 
ATOM     91  C   UNL A   1      45.820  33.070  30.535  1.00  0.00     0.173 A 
ATOM     92  F   UNL A   1      45.381  33.124  26.923  1.00  0.00    -0.203 F 
ATOM     93  C   UNL A   1      45.821  34.878  28.430  1.00  0.00     0.198 A 
ATOM     94  C   UNL A   1      46.022  34.425  30.778  1.00  0.00     0.198 A 
ATOM     95  F   UNL A   1      45.834  32.221  31.573  1.00  0.00    -0.203 F 
ATOM     96  F   UNL A   1      45.865  35.742  27.406  1.00  0.00    -0.200 F 
ATOM     97  C   UNL A   1      46.033  35.327  29.724  1.00  0.00     0.200 A 
ATOM     98  F   UNL A   1      46.208  34.858  32.032  1.00  0.00    -0.200 F 
ATOM     99  F   UNL A   1      46.258  36.627  29.957  1.00  0.00    -0.200 F 
ENDBRANCH  66  89
ENDBRANCH  40  41
ENDBRANCH  32  35
ENDBRANCH  30  31
ENDBRANCH  29  30
ENDBRANCH  28  29
ENDBRANCH   1  28
TORSDOF 15
ENDMDL
MODEL 2
REMARK VINA RESULT:     -12.5      0.798      7.244
REMARK SMILES CC(C)(C)OC(=O)Nc1ccc(-c2cccc(Cl)c2C(=O)NCCCCNC(=O)c2ccc(-c3c4nc(c(-c5c(F)c(F)c(F)c(F)c5F)c5ccc([nH]5)c(-c5c(F)c(F)c(F)c(F)c5F)c5nc(c(-c6c(F)c(F)c(F)c(F)c6F)c6ccc3[nH]6)C=C5)C=C4)cc2)cc1
REMARK SMILES IDX 23 1 22 2 20 3 21 4 19 6 13 7 14 8 15 9 17 10 16 11 18 12
REMARK SMILES IDX 12 13 9 14 10 15 94 16 11 17 93 18 8 19 6 20 7 21 5 23 2 24
REMARK SMILES IDX 1 25 3 26 4 27 24 28 25 29 26 30 27 31 28 32 29 34 30 35
REMARK SMILES IDX 31 36 92 37 32 38 91 39 33 40 34 41 35 42 85 43 36 44 90 45
REMARK SMILES IDX 84 46 86 47 37 48 89 49 83 50 82 51 38 53 70 54 50 55 69 56
REMARK SMILES IDX 51 57 54 58 68 59 87 60 52 61 53 62 67 64 88 65 55 66 39 67
REMARK SMILES IDX 40 68 48 69 41 70 42 71 46 72 49 73 43 74 44 75 47 76 45 77
REMARK SMILES IDX 71 78 72 79 80 80 73 81 74 82 78 83 81 84 75 85 76 86 79 87
REMARK SMILES IDX 77 88 56 89 57 90 65 91 58 92 59 93 63 94 66 95 60 96 61 97
REMARK SMILES IDX 64 98 62 99
REMARK H PARENT 22 5 8 22 27 33 86 52 54 63
REMARK Flexibility Score: inf
ROOT
ATOM      1  C   UNL A   1      35.529  21.075  25.757  1.00  0.00     0.116 C 
ENDROOT
BRANCH   1   2
ATOM      2  N   UNL A   1      34.341  21.819  26.055  1.00  0.00    -0.352 N 
ATOM      3  C   UNL A   1      33.044  21.490  25.704  1.00  0.00     0.253 C 
ATOM      4  O   UNL A   1      32.154  21.927  26.438  1.00  0.00    -0.269 OA
ATOM      5  H   UNL A   1      34.461  22.653  26.565  1.00  0.00     0.163 HD
BRANCH   3   6
ATOM      6  C   UNL A   1      32.638  20.709  24.478  1.00  0.00     0.066 A 
ATOM      7  C   UNL A   1      32.346  21.240  23.188  1.00  0.00    -0.004 A 
ATOM      8  C   UNL A   1      32.155  20.345  22.103  1.00  0.00     0.009 A 
ATOM      9  C   UNL A   1      32.243  18.969  22.252  1.00  0.00     0.002 A 
ATOM     10  C   UNL A   1      32.685  19.294  24.609  1.00  0.00     0.054 A 
ATOM     11  C   UNL A   1      32.499  18.444  23.506  1.00  0.00     0.021 A 
ATOM     12  Cl  UNL A   1      32.899  18.473  26.127  1.00  0.00    -0.083 Cl
BRANCH   7  13
ATOM     13  C   UNL A   1      32.178  22.658  22.840  1.00  0.00    -0.017 A 
ATOM     14  C   UNL A   1      31.882  25.442  22.388  1.00  0.00     0.044 A 
ATOM     15  C   UNL A   1      30.930  24.744  23.131  1.00  0.00     0.027 A 
ATOM     16  C   UNL A   1      32.944  24.723  21.824  1.00  0.00     0.027 A 
ATOM     17  C   UNL A   1      31.059  23.367  23.327  1.00  0.00     0.011 A 
ATOM     18  C   UNL A   1      33.093  23.344  22.044  1.00  0.00     0.011 A 
BRANCH  14  19
ATOM     19  N   UNL A   1      31.722  26.838  22.313  1.00  0.00    -0.291 N 
ATOM     20  C   UNL A   1      32.324  27.859  23.004  1.00  0.00     0.412 C 
ATOM     21  O   UNL A   1      32.036  29.026  22.790  1.00  0.00    -0.224 OA
ATOM     22  H   UNL A   1      31.059  27.134  21.648  1.00  0.00     0.173 HD
BRANCH  20  23
ATOM     23  O   UNL A   1      33.269  27.444  23.869  1.00  0.00    -0.444 OA
BRANCH  23  24
ATOM     24  C   UNL A   1      33.045  27.415  25.295  1.00  0.00     0.106 C 
ATOM     25  C   UNL A   1      33.523  26.014  25.699  1.00  0.00     0.056 C 
ATOM     26  C   UNL A   1      31.551  27.552  25.592  1.00  0.00     0.056 C 
ATOM     27  C   UNL A   1      33.882  28.459  26.042  1.00  0.00     0.056 C 
ENDBRANCH  23  24
ENDBRANCH  20  23
ENDBRANCH  14  19
ENDBRANCH   7  13
ENDBRANCH   3   6
ENDBRANCH   1   2
BRANCH   1  28
ATOM     28  C   UNL A   1      36.703  21.774  25.095  1.00  0.00     0.023 C 
BRANCH  28  29
ATOM     29  C   UNL A   1      37.984  20.969  24.895  1.00  0.00     0.023 C 
BRANCH  29  30
ATOM     30  C   UNL A   1      39.035  21.054  26.000  1.00  0.00     0.116 C 
BRANCH  30  31
ATOM     31  N   UNL A   1      39.811  19.828  26.132  1.00  0.00    -0.352 N 
ATOM     32  C   UNL A   1      41.170  19.624  26.118  1.00  0.00     0.251 C 
ATOM     33  H   UNL A   1      39.275  19.011  26.254  1.00  0.00     0.163 HD
ATOM     34  O   UNL A   1      41.597  18.520  25.792  1.00  0.00    -0.269 OA
BRANCH  32  35
ATOM     35  C   UNL A   1      42.109  20.727  26.431  1.00  0.00     0.039 A 
ATOM     36  C   UNL A   1      42.719  21.414  25.377  1.00  0.00     0.014 A 
ATOM     37  C   UNL A   1      42.342  21.135  27.745  1.00  0.00     0.014 A 
ATOM     38  C   UNL A   1      43.397  22.606  25.629  1.00  0.00     0.010 A 
ATOM     39  C   UNL A   1      42.903  22.383  27.986  1.00  0.00     0.010 A 
ATOM     40  C   UNL A   1      43.393  23.151  26.922  1.00  0.00    -0.014 A 
BRANCH  40  41
ATOM     41  C   UNL A   1      43.786  24.564  27.153  1.00  0.00     0.031 A 
ATOM     42  C   UNL A   1      42.781  25.576  27.613  1.00  0.00     0.074 A 
ATOM     43  C   UNL A   1      45.046  24.938  26.843  1.00  0.00     0.049 A 
ATOM     44  N   UNL A   1      42.938  26.858  27.825  1.00  0.00    -0.248 NA
ATOM     45  C   UNL A   1      41.407  25.096  27.831  1.00  0.00     0.031 C 
ATOM     46  C   UNL A   1      46.079  24.054  26.294  1.00  0.00     0.029 A 
ATOM     47  N   UNL A   1      45.675  26.154  26.938  1.00  0.00    -0.354 N 
ATOM     48  C   UNL A   1      41.688  27.333  28.196  1.00  0.00     0.074 A 
ATOM     49  C   UNL A   1      40.768  26.223  28.105  1.00  0.00     0.031 C 
ATOM     50  C   UNL A   1      47.221  24.742  26.148  1.00  0.00     0.029 A 
ATOM     51  C   UNL A   1      46.992  26.125  26.545  1.00  0.00     0.049 A 
ATOM     52  H   UNL A   1      45.226  26.969  27.258  1.00  0.00     0.167 HD
ATOM     53  C   UNL A   1      41.351  28.579  28.607  1.00  0.00     0.037 A 
ATOM     54  C   UNL A   1      47.912  27.107  26.508  1.00  0.00     0.037 A 
ATOM     55  C   UNL A   1      42.282  29.673  28.693  1.00  0.00     0.049 A 
ATOM     56  C   UNL A   1      47.510  28.481  26.972  1.00  0.00     0.074 A 
ATOM     57  C   UNL A   1      42.064  30.964  29.138  1.00  0.00     0.029 A 
ATOM     58  N   UNL A   1      43.617  29.602  28.312  1.00  0.00    -0.354 N 
ATOM     59  N   UNL A   1      46.346  28.898  27.410  1.00  0.00    -0.248 NA
ATOM     60  C   UNL A   1      48.550  29.516  26.948  1.00  0.00     0.031 C 
ATOM     61  C   UNL A   1      43.249  31.688  28.975  1.00  0.00     0.029 A 
ATOM     62  C   UNL A   1      44.227  30.833  28.492  1.00  0.00     0.049 A 
ATOM     63  H   UNL A   1      44.063  28.796  27.965  1.00  0.00     0.167 HD
ATOM     64  C   UNL A   1      46.520  30.234  27.742  1.00  0.00     0.074 A 
ATOM     65  C   UNL A   1      47.909  30.550  27.474  1.00  0.00     0.031 C 
ATOM     66  C   UNL A   1      45.614  31.120  28.223  1.00  0.00     0.037 A 
BRANCH  53  67
ATOM     67  C   UNL A   1      39.918  28.815  28.996  1.00  0.00     0.064 A 
ATOM     68  C   UNL A   1      39.473  28.626  30.315  1.00  0.00     0.173 A 
ATOM     69  C   UNL A   1      38.979  29.250  28.047  1.00  0.00     0.173 A 
ATOM     70  F   UNL A   1      40.324  28.200  31.261  1.00  0.00    -0.203 F 
ATOM     71  C   UNL A   1      38.139  28.824  30.659  1.00  0.00     0.198 A 
ATOM     72  C   UNL A   1      37.652  29.482  28.404  1.00  0.00     0.198 A 
ATOM     73  F   UNL A   1      39.347  29.452  26.774  1.00  0.00    -0.203 F 
ATOM     74  F   UNL A   1      37.728  28.575  31.910  1.00  0.00    -0.200 F 
ATOM     75  C   UNL A   1      37.231  29.259  29.706  1.00  0.00     0.200 A 
ATOM     76  F   UNL A   1      36.779  29.917  27.485  1.00  0.00    -0.200 F 
ATOM     77  F   UNL A   1      35.947  29.453  30.040  1.00  0.00    -0.200 F 
ENDBRANCH  53  67
BRANCH  54  78
ATOM     78  C   UNL A   1      49.299  26.821  26.048  1.00  0.00     0.064 A 
ATOM     79  C   UNL A   1      49.669  27.011  24.708  1.00  0.00     0.173 A 
ATOM     80  C   UNL A   1      50.281  26.348  26.931  1.00  0.00     0.173 A 
ATOM     81  F   UNL A   1      48.765  27.450  23.819  1.00  0.00    -0.203 F 
ATOM     82  C   UNL A   1      50.956  26.711  24.265  1.00  0.00     0.198 A 
ATOM     83  C   UNL A   1      51.577  26.079  26.493  1.00  0.00     0.198 A 
ATOM     84  F   UNL A   1      49.986  26.159  28.226  1.00  0.00    -0.203 F 
ATOM     85  F   UNL A   1      51.264  26.849  22.968  1.00  0.00    -0.200 F 
ATOM     86  C   UNL A   1      51.910  26.249  25.158  1.00  0.00     0.200 A 
ATOM     87  F   UNL A   1      52.501  25.654  27.365  1.00  0.00    -0.200 F 
ATOM     88  F   UNL A   1      53.148  25.963  24.732  1.00  0.00    -0.200 F 
ENDBRANCH  54  78
BRANCH  66  89
ATOM     89  C   UNL A   1      46.112  32.503  28.531  1.00  0.00     0.064 A 
ATOM     90  C   UNL A   1      46.067  33.535  27.581  1.00  0.00     0.173 A 
ATOM     91  C   UNL A   1      46.612  32.806  29.806  1.00  0.00     0.173 A 
ATOM     92  F   UNL A   1      45.611  33.293  26.342  1.00  0.00    -0.203 F 
ATOM     93  C   UNL A   1      46.538  34.809  27.886  1.00  0.00     0.198 A 
ATOM     94  C   UNL A   1      47.045  34.090  30.119  1.00  0.00     0.198 A 
ATOM     95  F   UNL A   1      46.668  31.859  30.754  1.00  0.00    -0.203 F 
ATOM     96  F   UNL A   1      46.543  35.761  26.944  1.00  0.00    -0.200 F 
ATOM     97  C   UNL A   1      47.019  35.088  29.156  1.00  0.00     0.200 A 
ATOM     98  F   UNL A   1      47.491  34.362  31.354  1.00  0.00    -0.200 F 
ATOM     99  F   UNL A   1      47.464  36.317  29.451  1.00  0.00    -0.200 F 
ENDBRANCH  66  89
ENDBRANCH  40  41
ENDBRANCH  32  35
ENDBRANCH  30  31
ENDBRANCH  29  30
ENDBRANCH  28  29
ENDBRANCH   1  28
TORSDOF 15
ENDMDL
MODEL 3
REMARK VINA RESULT:     -12.5      1.795      3.037
REMARK SMILES CC(C)(C)OC(=O)Nc1ccc(-c2cccc(Cl)c2C(=O)NCCCCNC(=O)c2ccc(-c3c4nc(c(-c5c(F)c(F)c(F)c(F)c5F)c5ccc([nH]5)c(-c5c(F)c(F)c(F)c(F)c5F)c5nc(c(-c6c(F)c(F)c(F)c(F)c6F)c6ccc3[nH]6)C=C5)C=C4)cc2)cc1
REMARK SMILES IDX 23 1 22 2 20 3 21 4 19 6 13 7 14 8 15 9 17 10 16 11 18 12
REMARK SMILES IDX 12 13 9 14 10 15 94 16 11 17 93 18 8 19 6 20 7 21 5 23 2 24
REMARK SMILES IDX 1 25 3 26 4 27 24 28 25 29 26 30 27 31 28 32 29 34 30 35
REMARK SMILES IDX 31 36 92 37 32 38 91 39 33 40 34 41 35 42 85 43 36 44 90 45
REMARK SMILES IDX 84 46 86 47 37 48 89 49 83 50 82 51 38 53 70 54 50 55 69 56
REMARK SMILES IDX 51 57 54 58 68 59 87 60 52 61 53 62 67 64 88 65 55 66 39 67
REMARK SMILES IDX 40 68 48 69 41 70 42 71 46 72 49 73 43 74 44 75 47 76 45 77
REMARK SMILES IDX 71 78 72 79 80 80 73 81 74 82 78 83 81 84 75 85 76 86 79 87
REMARK SMILES IDX 77 88 56 89 57 90 65 91 58 92 59 93 63 94 66 95 60 96 61 97
REMARK SMILES IDX 64 98 62 99
REMARK H PARENT 22 5 8 22 27 33 86 52 54 63
REMARK Flexibility Score: inf
ROOT
ATOM      1  C   UNL A   1      35.535  22.009  25.201  1.00  0.00     0.116 C 
ENDROOT
BRANCH   1   2
ATOM      2  N   UNL A   1      34.313  22.354  25.866  1.00  0.00    -0.352 N 
ATOM      3  C   UNL A   1      33.074  21.764  25.687  1.00  0.00     0.253 C 
ATOM      4  O   UNL A   1      32.301  21.819  26.647  1.00  0.00    -0.269 OA
ATOM      5  H   UNL A   1      34.360  23.089  26.519  1.00  0.00     0.163 HD
BRANCH   3   6
ATOM      6  C   UNL A   1      32.581  21.128  24.410  1.00  0.00     0.066 A 
ATOM      7  C   UNL A   1      32.199  21.803  23.215  1.00  0.00    -0.004 A 
ATOM      8  C   UNL A   1      31.930  21.039  22.049  1.00  0.00     0.009 A 
ATOM      9  C   UNL A   1      32.026  19.655  22.030  1.00  0.00     0.002 A 
ATOM     10  C   UNL A   1      32.635  19.708  24.372  1.00  0.00     0.054 A 
ATOM     11  C   UNL A   1      32.370  18.990  23.193  1.00  0.00     0.021 A 
ATOM     12  Cl  UNL A   1      32.954  18.717  25.765  1.00  0.00    -0.083 Cl
BRANCH   7  13
ATOM     13  C   UNL A   1      32.010  23.250  23.046  1.00  0.00    -0.017 A 
ATOM     14  C   UNL A   1      31.606  26.056  22.945  1.00  0.00     0.044 A 
ATOM     15  C   UNL A   1      30.551  25.204  23.271  1.00  0.00     0.027 A 
ATOM     16  C   UNL A   1      32.842  25.487  22.611  1.00  0.00     0.027 A 
ATOM     17  C   UNL A   1      30.742  23.820  23.290  1.00  0.00     0.011 A 
ATOM     18  C   UNL A   1      33.045  24.098  22.658  1.00  0.00     0.011 A 
BRANCH  14  19
ATOM     19  N   UNL A   1      31.350  27.436  23.034  1.00  0.00    -0.291 N 
ATOM     20  C   UNL A   1      31.072  28.241  24.111  1.00  0.00     0.412 C 
ATOM     21  O   UNL A   1      30.871  29.437  23.975  1.00  0.00    -0.224 OA
ATOM     22  H   UNL A   1      31.373  27.910  22.171  1.00  0.00     0.173 HD
BRANCH  20  23
ATOM     23  O   UNL A   1      31.101  27.593  25.293  1.00  0.00    -0.444 OA
BRANCH  23  24
ATOM     24  C   UNL A   1      32.251  27.639  26.165  1.00  0.00     0.106 C 
ATOM     25  C   UNL A   1      32.621  26.160  26.338  1.00  0.00     0.056 C 
ATOM     26  C   UNL A   1      31.857  28.230  27.519  1.00  0.00     0.056 C 
ATOM     27  C   UNL A   1      33.436  28.376  25.534  1.00  0.00     0.056 C 
ENDBRANCH  23  24
ENDBRANCH  20  23
ENDBRANCH  14  19
ENDBRANCH   7  13
ENDBRANCH   3   6
ENDBRANCH   1   2
BRANCH   1  28
ATOM     28  C   UNL A   1      35.901  20.546  25.021  1.00  0.00     0.023 C 
BRANCH  28  29
ATOM     29  C   UNL A   1      37.363  20.213  24.739  1.00  0.00     0.023 C 
BRANCH  29  30
ATOM     30  C   UNL A   1      38.415  21.122  25.372  1.00  0.00     0.116 C 
BRANCH  30  31
ATOM     31  N   UNL A   1      39.497  20.376  26.000  1.00  0.00    -0.352 N 
ATOM     32  C   UNL A   1      40.632  20.814  26.641  1.00  0.00     0.251 C 
ATOM     33  H   UNL A   1      39.400  19.397  25.961  1.00  0.00     0.163 HD
ATOM     34  O   UNL A   1      41.606  20.068  26.689  1.00  0.00    -0.269 OA
BRANCH  32  35
ATOM     35  C   UNL A   1      40.704  22.180  27.212  1.00  0.00     0.039 A 
ATOM     36  C   UNL A   1      41.597  22.426  28.259  1.00  0.00     0.014 A 
ATOM     37  C   UNL A   1      39.956  23.231  26.684  1.00  0.00     0.014 A 
ATOM     38  C   UNL A   1      41.872  23.739  28.639  1.00  0.00     0.010 A 
ATOM     39  C   UNL A   1      40.318  24.542  26.968  1.00  0.00     0.010 A 
ATOM     40  C   UNL A   1      41.315  24.806  27.916  1.00  0.00    -0.014 A 
BRANCH  40  41
ATOM     41  C   UNL A   1      41.852  26.183  28.057  1.00  0.00     0.031 A 
ATOM     42  C   UNL A   1      43.207  26.538  27.524  1.00  0.00     0.074 A 
ATOM     43  C   UNL A   1      41.134  27.082  28.763  1.00  0.00     0.049 A 
ATOM     44  N   UNL A   1      43.850  27.675  27.594  1.00  0.00    -0.248 NA
ATOM     45  C   UNL A   1      43.959  25.465  26.854  1.00  0.00     0.031 C 
ATOM     46  C   UNL A   1      39.846  26.814  29.410  1.00  0.00     0.029 A 
ATOM     47  N   UNL A   1      41.381  28.398  29.063  1.00  0.00    -0.354 N 
ATOM     48  C   UNL A   1      45.075  27.453  26.984  1.00  0.00     0.074 A 
ATOM     49  C   UNL A   1      45.120  26.056  26.618  1.00  0.00     0.031 C 
ATOM     50  C   UNL A   1      39.394  27.938  29.985  1.00  0.00     0.029 A 
ATOM     51  C   UNL A   1      40.380  28.994  29.793  1.00  0.00     0.049 A 
ATOM     52  H   UNL A   1      42.197  28.870  28.781  1.00  0.00     0.167 HD
ATOM     53  C   UNL A   1      46.060  28.347  26.724  1.00  0.00     0.037 A 
ATOM     54  C   UNL A   1      40.271  30.253  30.256  1.00  0.00     0.037 A 
ATOM     55  C   UNL A   1      45.996  29.737  27.094  1.00  0.00     0.049 A 
ATOM     56  C   UNL A   1      41.377  31.225  29.950  1.00  0.00     0.074 A 
ATOM     57  C   UNL A   1      46.911  30.743  26.841  1.00  0.00     0.029 A 
ATOM     58  N   UNL A   1      44.954  30.315  27.809  1.00  0.00    -0.354 N 
ATOM     59  N   UNL A   1      42.492  31.027  29.289  1.00  0.00    -0.248 NA
ATOM     60  C   UNL A   1      41.205  32.597  30.444  1.00  0.00     0.031 C 
ATOM     61  C   UNL A   1      46.450  31.914  27.451  1.00  0.00     0.029 A 
ATOM     62  C   UNL A   1      45.215  31.657  28.025  1.00  0.00     0.049 A 
ATOM     63  H   UNL A   1      44.148  29.838  28.117  1.00  0.00     0.167 HD
ATOM     64  C   UNL A   1      43.142  32.253  29.261  1.00  0.00     0.074 A 
ATOM     65  C   UNL A   1      42.282  33.193  29.953  1.00  0.00     0.031 C 
ATOM     66  C   UNL A   1      44.339  32.574  28.713  1.00  0.00     0.037 A 
BRANCH  53  67
ATOM     67  C   UNL A   1      47.279  27.844  26.002  1.00  0.00     0.064 A 
ATOM     68  C   UNL A   1      48.433  27.445  26.697  1.00  0.00     0.173 A 
ATOM     69  C   UNL A   1      47.292  27.740  24.603  1.00  0.00     0.173 A 
ATOM     70  F   UNL A   1      48.480  27.533  28.035  1.00  0.00    -0.203 F 
ATOM     71  C   UNL A   1      49.564  27.003  26.018  1.00  0.00     0.198 A 
ATOM     72  C   UNL A   1      48.414  27.262  23.929  1.00  0.00     0.198 A 
ATOM     73  F   UNL A   1      46.217  28.101  23.887  1.00  0.00    -0.203 F 
ATOM     74  F   UNL A   1      50.674  26.690  26.701  1.00  0.00    -0.200 F 
ATOM     75  C   UNL A   1      49.551  26.904  24.635  1.00  0.00     0.200 A 
ATOM     76  F   UNL A   1      48.395  27.154  22.593  1.00  0.00    -0.200 F 
ATOM     77  F   UNL A   1      50.641  26.474  23.982  1.00  0.00    -0.200 F 
ENDBRANCH  53  67
BRANCH  54  78
ATOM     78  C   UNL A   1      39.064  30.671  31.022  1.00  0.00     0.064 A 
ATOM     79  C   UNL A   1      37.952  31.227  30.373  1.00  0.00     0.173 A 
ATOM     80  C   UNL A   1      38.996  30.529  32.416  1.00  0.00     0.173 A 
ATOM     81  F   UNL A   1      37.970  31.397  29.042  1.00  0.00    -0.203 F 
ATOM     82  C   UNL A   1      36.835  31.653  31.089  1.00  0.00     0.198 A 
ATOM     83  C   UNL A   1      37.865  30.925  33.129  1.00  0.00     0.198 A 
ATOM     84  F   UNL A   1      40.025  29.992  33.088  1.00  0.00    -0.203 F 
ATOM     85  F   UNL A   1      35.812  32.232  30.447  1.00  0.00    -0.200 F 
ATOM     86  C   UNL A   1      36.790  31.497  32.466  1.00  0.00     0.200 A 
ATOM     87  F   UNL A   1      37.818  30.752  34.456  1.00  0.00    -0.200 F 
ATOM     88  F   UNL A   1      35.715  31.904  33.154  1.00  0.00    -0.200 F 
ENDBRANCH  54  78
BRANCH  66  89
ATOM     89  C   UNL A   1      44.768  34.010  28.806  1.00  0.00     0.064 A 
ATOM     90  C   UNL A   1      45.586  34.474  29.847  1.00  0.00     0.173 A 
ATOM     91  C   UNL A   1      44.378  34.928  27.818  1.00  0.00     0.173 A 
ATOM     92  F   UNL A   1      45.974  33.640  30.824  1.00  0.00    -0.203 F 
ATOM     93  C   UNL A   1      45.967  35.811  29.915  1.00  0.00     0.198 A 
ATOM     94  C   UNL A   1      44.794  36.254  27.869  1.00  0.00     0.198 A 
ATOM     95  F   UNL A   1      43.605  34.535  26.796  1.00  0.00    -0.203 F 
ATOM     96  F   UNL A   1      46.696  36.244  30.953  1.00  0.00    -0.200 F 
ATOM     97  C   UNL A   1      45.579  36.698  28.923  1.00  0.00     0.200 A 
ATOM     98  F   UNL A   1      44.433  37.105  26.898  1.00  0.00    -0.200 F 
ATOM     99  F   UNL A   1      45.953  37.983  28.985  1.00  0.00    -0.200 F 
ENDBRANCH  66  89
ENDBRANCH  40  41
ENDBRANCH  32  35
ENDBRANCH  30  31
ENDBRANCH  29  30
ENDBRANCH  28  29
ENDBRANCH   1  28
TORSDOF 15
ENDMDL
