MODEL 1
REMARK VINA RESULT:     -12.8      0.000      0.000
REMARK SMILES Cc1cc(C)nc(N2CCCC[C@H]2C(=O)NCCCCNC(=O)c2ccc(-c3c4nc(c(-c5c(F)c(F)c(F)c(F)c5F)c5ccc([nH]5)c(-c5c(F)c(F)c(F)c(F)c5F)c5nc(c(-c6c(F)c(F)c(F)c(F)c6F)c6ccc3[nH]6)C=C5)C=C4)cc2)n1
REMARK SMILES IDX 19 1 18 2 17 3 16 4 14 5 15 6 13 8 8 9 9 10 10 11 12 12
REMARK SMILES IDX 11 13 7 14 1 15 2 16 3 17 87 18 4 19 5 20 6 21 20 22 21 23
REMARK SMILES IDX 22 24 23 26 24 27 25 28 86 29 26 30 85 31 27 32 28 33 29 34
REMARK SMILES IDX 79 35 30 36 84 37 78 38 80 39 31 40 83 41 77 42 76 43 32 45
REMARK SMILES IDX 64 46 44 47 63 48 45 49 48 50 62 51 81 52 46 53 47 54 61 56
REMARK SMILES IDX 82 57 49 58 33 59 34 60 42 61 35 62 36 63 40 64 43 65 37 66
REMARK SMILES IDX 38 67 41 68 39 69 65 70 66 71 74 72 67 73 68 74 72 75 75 76
REMARK SMILES IDX 69 77 70 78 73 79 71 80 50 81 51 82 59 83 52 84 53 85 57 86
REMARK SMILES IDX 60 87 54 88 55 89 58 90 56 91
REMARK H PARENT 16 7 21 25 80 44 48 55
REMARK Flexibility Score: inf
ROOT
ATOM      1  C   UNL A   1      31.770  31.787  26.558  1.00  0.00     0.023 C 
ENDROOT
BRANCH   1   2
ATOM      2  C   UNL A   1      31.756  30.283  26.838  1.00  0.00     0.023 C 
BRANCH   2   3
ATOM      3  C   UNL A   1      33.089  29.568  26.647  1.00  0.00     0.116 C 
BRANCH   3   4
ATOM      4  N   UNL A   1      33.564  29.581  25.281  1.00  0.00    -0.354 N 
ATOM      5  C   UNL A   1      32.971  29.028  24.177  1.00  0.00     0.242 C 
ATOM      6  O   UNL A   1      33.463  29.321  23.083  1.00  0.00    -0.273 OA
ATOM      7  H   UNL A   1      34.419  30.043  25.127  1.00  0.00     0.163 HD
BRANCH   5   8
ATOM      8  C   UNL A   1      31.754  28.070  24.323  1.00  0.00     0.174 C 
ATOM      9  N   UNL A   1      31.097  27.835  23.042  1.00  0.00    -0.329 N 
ATOM     10  C   UNL A   1      31.726  27.021  22.029  1.00  0.00     0.120 C 
ATOM     11  C   UNL A   1      32.081  25.657  22.619  1.00  0.00     0.022 C 
ATOM     12  C   UNL A   1      32.186  26.713  24.916  1.00  0.00     0.035 C 
ATOM     13  C   UNL A   1      32.886  25.793  23.909  1.00  0.00     0.004 C 
BRANCH   9  14
ATOM     14  C   UNL A   1      29.867  28.374  22.794  1.00  0.00     0.226 A 
ATOM     15  C   UNL A   1      28.601  31.363  21.105  1.00  0.00     0.067 C 
ATOM     16  C   UNL A   1      28.615  30.071  21.861  1.00  0.00     0.043 A 
ATOM     17  C   UNL A   1      27.465  29.581  22.433  1.00  0.00     0.047 A 
ATOM     18  N   UNL A   1      29.809  29.465  22.019  1.00  0.00    -0.218 NA
ATOM     19  C   UNL A   1      27.600  28.427  23.176  1.00  0.00     0.043 A 
ATOM     20  C   UNL A   1      26.394  27.811  23.821  1.00  0.00     0.067 C 
ATOM     21  N   UNL A   1      28.794  27.832  23.385  1.00  0.00    -0.218 NA
ENDBRANCH   9  14
ENDBRANCH   5   8
ENDBRANCH   3   4
ENDBRANCH   2   3
ENDBRANCH   1   2
BRANCH   1  22
ATOM     22  C   UNL A   1      32.842  32.605  27.276  1.00  0.00     0.116 C 
BRANCH  22  23
ATOM     23  N   UNL A   1      32.417  33.945  27.652  1.00  0.00    -0.352 N 
ATOM     24  C   UNL A   1      32.994  34.840  28.526  1.00  0.00     0.251 C 
ATOM     25  H   UNL A   1      31.592  34.259  27.216  1.00  0.00     0.163 HD
ATOM     26  O   UNL A   1      32.486  35.941  28.698  1.00  0.00    -0.269 OA
BRANCH  24  27
ATOM     27  C   UNL A   1      34.184  34.445  29.313  1.00  0.00     0.039 A 
ATOM     28  C   UNL A   1      33.981  33.843  30.560  1.00  0.00     0.014 A 
ATOM     29  C   UNL A   1      35.479  34.603  28.815  1.00  0.00     0.014 A 
ATOM     30  C   UNL A   1      35.065  33.295  31.249  1.00  0.00     0.010 A 
ATOM     31  C   UNL A   1      36.551  33.999  29.471  1.00  0.00     0.010 A 
ATOM     32  C   UNL A   1      36.348  33.313  30.679  1.00  0.00    -0.014 A 
BRANCH  32  33
ATOM     33  C   UNL A   1      37.470  32.565  31.303  1.00  0.00     0.031 A 
ATOM     34  C   UNL A   1      37.967  32.933  32.671  1.00  0.00     0.074 A 
ATOM     35  C   UNL A   1      38.084  31.592  30.600  1.00  0.00     0.049 A 
ATOM     36  N   UNL A   1      38.972  32.433  33.347  1.00  0.00    -0.248 NA
ATOM     37  C   UNL A   1      37.257  34.018  33.363  1.00  0.00     0.031 C 
ATOM     38  C   UNL A   1      37.733  31.182  29.238  1.00  0.00     0.029 A 
ATOM     39  N   UNL A   1      39.139  30.777  30.929  1.00  0.00    -0.354 N 
ATOM     40  C   UNL A   1      39.018  33.146  34.537  1.00  0.00     0.074 A 
ATOM     41  C   UNL A   1      37.971  34.144  34.473  1.00  0.00     0.031 C 
ATOM     42  C   UNL A   1      38.543  30.181  28.856  1.00  0.00     0.029 A 
ATOM     43  C   UNL A   1      39.487  29.896  29.933  1.00  0.00     0.049 A 
ATOM     44  H   UNL A   1      39.602  30.819  31.796  1.00  0.00     0.167 HD
ATOM     45  C   UNL A   1      39.845  32.971  35.595  1.00  0.00     0.037 A 
ATOM     46  C   UNL A   1      40.457  28.964  29.892  1.00  0.00     0.037 A 
ATOM     47  C   UNL A   1      40.879  31.971  35.665  1.00  0.00     0.049 A 
ATOM     48  C   UNL A   1      41.338  28.769  31.096  1.00  0.00     0.074 A 
ATOM     49  C   UNL A   1      41.768  31.715  36.694  1.00  0.00     0.029 A 
ATOM     50  N   UNL A   1      41.153  31.054  34.661  1.00  0.00    -0.354 N 
ATOM     51  N   UNL A   1      41.340  29.421  32.233  1.00  0.00    -0.248 NA
ATOM     52  C   UNL A   1      42.339  27.696  31.019  1.00  0.00     0.031 C 
ATOM     53  C   UNL A   1      42.590  30.650  36.309  1.00  0.00     0.029 A 
ATOM     54  C   UNL A   1      42.192  30.223  35.053  1.00  0.00     0.049 A 
ATOM     55  H   UNL A   1      40.681  31.000  33.800  1.00  0.00     0.167 HD
ATOM     56  C   UNL A   1      42.316  28.820  33.014  1.00  0.00     0.074 A 
ATOM     57  C   UNL A   1      42.877  27.742  32.228  1.00  0.00     0.031 C 
ATOM     58  C   UNL A   1      42.714  29.136  34.270  1.00  0.00     0.037 A 
BRANCH  45  59
ATOM     59  C   UNL A   1      39.650  33.872  36.778  1.00  0.00     0.064 A 
ATOM     60  C   UNL A   1      38.838  33.489  37.855  1.00  0.00     0.173 A 
ATOM     61  C   UNL A   1      40.311  35.107  36.856  1.00  0.00     0.173 A 
ATOM     62  F   UNL A   1      38.176  32.323  37.820  1.00  0.00    -0.203 F 
ATOM     63  C   UNL A   1      38.677  34.320  38.960  1.00  0.00     0.198 A 
ATOM     64  C   UNL A   1      40.166  35.924  37.974  1.00  0.00     0.198 A 
ATOM     65  F   UNL A   1      41.102  35.516  35.853  1.00  0.00    -0.203 F 
ATOM     66  F   UNL A   1      37.866  33.950  39.960  1.00  0.00    -0.200 F 
ATOM     67  C   UNL A   1      39.346  35.533  39.022  1.00  0.00     0.200 A 
ATOM     68  F   UNL A   1      40.821  37.092  38.038  1.00  0.00    -0.200 F 
ATOM     69  F   UNL A   1      39.197  36.328  40.090  1.00  0.00    -0.200 F 
ENDBRANCH  45  59
BRANCH  46  70
ATOM     70  C   UNL A   1      40.628  28.114  28.686  1.00  0.00     0.064 A 
ATOM     71  C   UNL A   1      41.443  28.531  27.623  1.00  0.00     0.173 A 
ATOM     72  C   UNL A   1      39.966  26.886  28.558  1.00  0.00     0.173 A 
ATOM     73  F   UNL A   1      42.081  29.709  27.693  1.00  0.00    -0.203 F 
ATOM     74  C   UNL A   1      41.566  27.765  26.467  1.00  0.00     0.198 A 
ATOM     75  C   UNL A   1      40.110  26.108  27.411  1.00  0.00     0.198 A 
ATOM     76  F   UNL A   1      39.180  26.440  29.549  1.00  0.00    -0.203 F 
ATOM     77  F   UNL A   1      42.309  28.212  25.446  1.00  0.00    -0.200 F 
ATOM     78  C   UNL A   1      40.901  26.552  26.363  1.00  0.00     0.200 A 
ATOM     79  F   UNL A   1      39.475  24.931  27.318  1.00  0.00    -0.200 F 
ATOM     80  F   UNL A   1      41.015  25.818  25.248  1.00  0.00    -0.200 F 
ENDBRANCH  46  70
BRANCH  58  81
ATOM     81  C   UNL A   1      43.768  28.270  34.892  1.00  0.00     0.064 A 
ATOM     82  C   UNL A   1      45.131  28.573  34.779  1.00  0.00     0.173 A 
ATOM     83  C   UNL A   1      43.402  27.137  35.635  1.00  0.00     0.173 A 
ATOM     84  F   UNL A   1      45.529  29.637  34.065  1.00  0.00    -0.203 F 
ATOM     85  C   UNL A   1      46.094  27.758  35.368  1.00  0.00     0.198 A 
ATOM     86  C   UNL A   1      44.366  26.338  36.241  1.00  0.00     0.198 A 
ATOM     87  F   UNL A   1      42.109  26.808  35.773  1.00  0.00    -0.203 F 
ATOM     88  F   UNL A   1      47.395  28.042  35.212  1.00  0.00    -0.200 F 
ATOM     89  C   UNL A   1      45.711  26.645  36.102  1.00  0.00     0.200 A 
ATOM     90  F   UNL A   1      43.994  25.268  36.957  1.00  0.00    -0.200 F 
ATOM     91  F   UNL A   1      46.640  25.864  36.669  1.00  0.00    -0.200 F 
ENDBRANCH  58  81
ENDBRANCH  32  33
ENDBRANCH  24  27
ENDBRANCH  22  23
ENDBRANCH   1  22
TORSDOF 12
ENDMDL
MODEL 2
REMARK VINA RESULT:     -12.8      2.534      4.390
REMARK SMILES Cc1cc(C)nc(N2CCCC[C@H]2C(=O)NCCCCNC(=O)c2ccc(-c3c4nc(c(-c5c(F)c(F)c(F)c(F)c5F)c5ccc([nH]5)c(-c5c(F)c(F)c(F)c(F)c5F)c5nc(c(-c6c(F)c(F)c(F)c(F)c6F)c6ccc3[nH]6)C=C5)C=C4)cc2)n1
REMARK SMILES IDX 19 1 18 2 17 3 16 4 14 5 15 6 13 8 8 9 9 10 10 11 12 12
REMARK SMILES IDX 11 13 7 14 1 15 2 16 3 17 87 18 4 19 5 20 6 21 20 22 21 23
REMARK SMILES IDX 22 24 23 26 24 27 25 28 86 29 26 30 85 31 27 32 28 33 29 34
REMARK SMILES IDX 79 35 30 36 84 37 78 38 80 39 31 40 83 41 77 42 76 43 32 45
REMARK SMILES IDX 64 46 44 47 63 48 45 49 48 50 62 51 81 52 46 53 47 54 61 56
REMARK SMILES IDX 82 57 49 58 33 59 34 60 42 61 35 62 36 63 40 64 43 65 37 66
REMARK SMILES IDX 38 67 41 68 39 69 65 70 66 71 74 72 67 73 68 74 72 75 75 76
REMARK SMILES IDX 69 77 70 78 73 79 71 80 50 81 51 82 59 83 52 84 53 85 57 86
REMARK SMILES IDX 60 87 54 88 55 89 58 90 56 91
REMARK H PARENT 16 7 21 25 80 44 48 55
REMARK Flexibility Score: inf
ROOT
ATOM      1  C   UNL A   1      31.897  29.674  25.463  1.00  0.00     0.023 C 
ENDROOT
BRANCH   1   2
ATOM      2  C   UNL A   1      32.970  28.943  24.655  1.00  0.00     0.023 C 
BRANCH   2   3
ATOM      3  C   UNL A   1      33.759  27.884  25.418  1.00  0.00     0.116 C 
BRANCH   3   4
ATOM      4  N   UNL A   1      32.971  26.730  25.788  1.00  0.00    -0.354 N 
ATOM      5  C   UNL A   1      33.166  25.423  25.423  1.00  0.00     0.242 C 
ATOM      6  O   UNL A   1      32.477  24.580  26.006  1.00  0.00    -0.273 OA
ATOM      7  H   UNL A   1      32.198  26.904  26.373  1.00  0.00     0.163 HD
BRANCH   5   8
ATOM      8  C   UNL A   1      34.193  25.051  24.315  1.00  0.00     0.174 C 
ATOM      9  N   UNL A   1      34.494  23.623  24.319  1.00  0.00    -0.329 N 
ATOM     10  C   UNL A   1      33.519  22.664  23.856  1.00  0.00     0.120 C 
ATOM     11  C   UNL A   1      33.067  23.035  22.445  1.00  0.00     0.022 C 
ATOM     12  C   UNL A   1      33.669  25.446  22.919  1.00  0.00     0.035 C 
ATOM     13  C   UNL A   1      32.610  24.488  22.363  1.00  0.00     0.004 C 
BRANCH   9  14
ATOM     14  C   UNL A   1      35.713  23.182  24.746  1.00  0.00     0.226 A 
ATOM     15  C   UNL A   1      37.475  19.974  24.794  1.00  0.00     0.067 C 
ATOM     16  C   UNL A   1      37.195  21.432  24.992  1.00  0.00     0.043 A 
ATOM     17  C   UNL A   1      38.044  22.214  25.739  1.00  0.00     0.047 A 
ATOM     18  N   UNL A   1      36.045  21.912  24.478  1.00  0.00    -0.218 NA
ATOM     19  C   UNL A   1      37.656  23.524  25.928  1.00  0.00     0.043 A 
ATOM     20  C   UNL A   1      38.531  24.454  26.715  1.00  0.00     0.067 C 
ATOM     21  N   UNL A   1      36.486  24.009  25.462  1.00  0.00    -0.218 NA
ENDBRANCH   9  14
ENDBRANCH   5   8
ENDBRANCH   3   4
ENDBRANCH   2   3
ENDBRANCH   1   2
BRANCH   1  22
ATOM     22  C   UNL A   1      32.278  30.092  26.882  1.00  0.00     0.116 C 
BRANCH  22  23
ATOM     23  N   UNL A   1      32.329  31.532  27.087  1.00  0.00    -0.352 N 
ATOM     24  C   UNL A   1      33.366  32.324  27.527  1.00  0.00     0.251 C 
ATOM     25  H   UNL A   1      31.495  32.012  26.880  1.00  0.00     0.163 HD
ATOM     26  O   UNL A   1      33.214  33.535  27.619  1.00  0.00    -0.269 OA
BRANCH  24  27
ATOM     27  C   UNL A   1      34.640  31.704  27.961  1.00  0.00     0.039 A 
ATOM     28  C   UNL A   1      35.744  32.538  28.166  1.00  0.00     0.014 A 
ATOM     29  C   UNL A   1      34.738  30.336  28.225  1.00  0.00     0.014 A 
ATOM     30  C   UNL A   1      36.904  32.022  28.746  1.00  0.00     0.010 A 
ATOM     31  C   UNL A   1      35.870  29.834  28.863  1.00  0.00     0.010 A 
ATOM     32  C   UNL A   1      36.953  30.680  29.157  1.00  0.00    -0.014 A 
BRANCH  32  33
ATOM     33  C   UNL A   1      38.099  30.166  29.949  1.00  0.00     0.031 A 
ATOM     34  C   UNL A   1      38.321  30.625  31.362  1.00  0.00     0.074 A 
ATOM     35  C   UNL A   1      38.982  29.331  29.364  1.00  0.00     0.049 A 
ATOM     36  N   UNL A   1      39.299  30.332  32.182  1.00  0.00    -0.248 NA
ATOM     37  C   UNL A   1      37.325  31.551  31.919  1.00  0.00     0.031 C 
ATOM     38  C   UNL A   1      38.911  28.859  27.980  1.00  0.00     0.029 A 
ATOM     39  N   UNL A   1      40.118  28.738  29.857  1.00  0.00    -0.354 N 
ATOM     40  C   UNL A   1      39.040  31.041  33.346  1.00  0.00     0.074 A 
ATOM     41  C   UNL A   1      37.839  31.815  33.112  1.00  0.00     0.031 C 
ATOM     42  C   UNL A   1      39.944  28.036  27.740  1.00  0.00     0.029 A 
ATOM     43  C   UNL A   1      40.765  27.942  28.942  1.00  0.00     0.049 A 
ATOM     44  H   UNL A   1      40.439  28.871  30.777  1.00  0.00     0.167 HD
ATOM     45  C   UNL A   1      39.729  31.032  34.512  1.00  0.00     0.037 A 
ATOM     46  C   UNL A   1      41.893  27.217  29.061  1.00  0.00     0.037 A 
ATOM     47  C   UNL A   1      40.917  30.253  34.750  1.00  0.00     0.049 A 
ATOM     48  C   UNL A   1      42.619  27.199  30.379  1.00  0.00     0.074 A 
ATOM     49  C   UNL A   1      41.687  30.176  35.898  1.00  0.00     0.029 A 
ATOM     50  N   UNL A   1      41.501  29.406  33.820  1.00  0.00    -0.354 N 
ATOM     51  N   UNL A   1      42.337  27.840  31.486  1.00  0.00    -0.248 NA
ATOM     52  C   UNL A   1      43.809  26.342  30.469  1.00  0.00     0.031 C 
ATOM     53  C   UNL A   1      42.745  29.293  35.659  1.00  0.00     0.029 A 
ATOM     54  C   UNL A   1      42.616  28.795  34.373  1.00  0.00     0.049 A 
ATOM     55  H   UNL A   1      41.173  29.261  32.904  1.00  0.00     0.167 HD
ATOM     56  C   UNL A   1      43.292  27.442  32.410  1.00  0.00     0.074 A 
ATOM     57  C   UNL A   1      44.155  26.493  31.739  1.00  0.00     0.031 C 
ATOM     58  C   UNL A   1      43.442  27.831  33.699  1.00  0.00     0.037 A 
BRANCH  45  59
ATOM     59  C   UNL A   1      39.201  31.878  35.632  1.00  0.00     0.064 A 
ATOM     60  C   UNL A   1      38.329  31.347  36.593  1.00  0.00     0.173 A 
ATOM     61  C   UNL A   1      39.600  33.216  35.770  1.00  0.00     0.173 A 
ATOM     62  F   UNL A   1      37.909  30.077  36.495  1.00  0.00    -0.203 F 
ATOM     63  C   UNL A   1      37.858  32.132  37.642  1.00  0.00     0.198 A 
ATOM     64  C   UNL A   1      39.146  33.989  36.835  1.00  0.00     0.198 A 
ATOM     65  F   UNL A   1      40.437  33.769  34.879  1.00  0.00    -0.203 F 
ATOM     66  F   UNL A   1      36.995  31.614  38.526  1.00  0.00    -0.200 F 
ATOM     67  C   UNL A   1      38.272  33.450  37.767  1.00  0.00     0.200 A 
ATOM     68  F   UNL A   1      39.554  35.260  36.960  1.00  0.00    -0.200 F 
ATOM     69  F   UNL A   1      37.824  34.200  38.781  1.00  0.00    -0.200 F 
ENDBRANCH  45  59
BRANCH  46  70
ATOM     70  C   UNL A   1      42.392  26.416  27.914  1.00  0.00     0.064 A 
ATOM     71  C   UNL A   1      43.226  26.992  26.944  1.00  0.00     0.173 A 
ATOM     72  C   UNL A   1      42.029  25.073  27.747  1.00  0.00     0.173 A 
ATOM     73  F   UNL A   1      43.585  28.280  27.051  1.00  0.00    -0.203 F 
ATOM     74  C   UNL A   1      43.655  26.262  25.838  1.00  0.00     0.198 A 
ATOM     75  C   UNL A   1      42.478  24.337  26.653  1.00  0.00     0.198 A 
ATOM     76  F   UNL A   1      41.237  24.475  28.650  1.00  0.00    -0.203 F 
ATOM     77  F   UNL A   1      44.408  26.852  24.900  1.00  0.00    -0.200 F 
ATOM     78  C   UNL A   1      43.282  24.934  25.695  1.00  0.00     0.200 A 
ATOM     79  F   UNL A   1      42.126  23.050  26.524  1.00  0.00    -0.200 F 
ATOM     80  F   UNL A   1      43.689  24.235  24.627  1.00  0.00    -0.200 F 
ENDBRANCH  46  70
BRANCH  58  81
ATOM     81  C   UNL A   1      44.546  27.187  34.484  1.00  0.00     0.064 A 
ATOM     82  C   UNL A   1      45.823  27.761  34.564  1.00  0.00     0.173 A 
ATOM     83  C   UNL A   1      44.311  25.995  35.185  1.00  0.00     0.173 A 
ATOM     84  F   UNL A   1      46.098  28.891  33.896  1.00  0.00    -0.203 F 
ATOM     85  C   UNL A   1      46.833  27.150  35.302  1.00  0.00     0.198 A 
ATOM     86  C   UNL A   1      45.318  25.401  35.940  1.00  0.00     0.198 A 
ATOM     87  F   UNL A   1      43.105  25.411  35.140  1.00  0.00    -0.203 F 
ATOM     88  F   UNL A   1      48.059  27.692  35.331  1.00  0.00    -0.200 F 
ATOM     89  C   UNL A   1      46.579  25.974  35.992  1.00  0.00     0.200 A 
ATOM     90  F   UNL A   1      45.068  24.270  36.613  1.00  0.00    -0.200 F 
ATOM     91  F   UNL A   1      47.553  25.389  36.702  1.00  0.00    -0.200 F 
ENDBRANCH  58  81
ENDBRANCH  32  33
ENDBRANCH  24  27
ENDBRANCH  22  23
ENDBRANCH   1  22
TORSDOF 12
ENDMDL
MODEL 3
REMARK VINA RESULT:     -12.8      2.551      4.689
REMARK SMILES Cc1cc(C)nc(N2CCCC[C@H]2C(=O)NCCCCNC(=O)c2ccc(-c3c4nc(c(-c5c(F)c(F)c(F)c(F)c5F)c5ccc([nH]5)c(-c5c(F)c(F)c(F)c(F)c5F)c5nc(c(-c6c(F)c(F)c(F)c(F)c6F)c6ccc3[nH]6)C=C5)C=C4)cc2)n1
REMARK SMILES IDX 19 1 18 2 17 3 16 4 14 5 15 6 13 8 8 9 9 10 10 11 12 12
REMARK SMILES IDX 11 13 7 14 1 15 2 16 3 17 87 18 4 19 5 20 6 21 20 22 21 23
REMARK SMILES IDX 22 24 23 26 24 27 25 28 86 29 26 30 85 31 27 32 28 33 29 34
REMARK SMILES IDX 79 35 30 36 84 37 78 38 80 39 31 40 83 41 77 42 76 43 32 45
REMARK SMILES IDX 64 46 44 47 63 48 45 49 48 50 62 51 81 52 46 53 47 54 61 56
REMARK SMILES IDX 82 57 49 58 33 59 34 60 42 61 35 62 36 63 40 64 43 65 37 66
REMARK SMILES IDX 38 67 41 68 39 69 65 70 66 71 74 72 67 73 68 74 72 75 75 76
REMARK SMILES IDX 69 77 70 78 73 79 71 80 50 81 51 82 59 83 52 84 53 85 57 86
REMARK SMILES IDX 60 87 54 88 55 89 58 90 56 91
REMARK H PARENT 16 7 21 25 80 44 48 55
REMARK Flexibility Score: inf
ROOT
ATOM      1  C   UNL A   1      31.890  29.686  25.425  1.00  0.00     0.023 C 
ENDROOT
BRANCH   1   2
ATOM      2  C   UNL A   1      32.924  28.878  24.640  1.00  0.00     0.023 C 
BRANCH   2   3
ATOM      3  C   UNL A   1      33.707  27.850  25.449  1.00  0.00     0.116 C 
BRANCH   3   4
ATOM      4  N   UNL A   1      32.930  26.685  25.811  1.00  0.00    -0.354 N 
ATOM      5  C   UNL A   1      33.140  25.383  25.439  1.00  0.00     0.242 C 
ATOM      6  O   UNL A   1      32.459  24.529  26.016  1.00  0.00    -0.273 OA
ATOM      7  H   UNL A   1      32.154  26.848  26.395  1.00  0.00     0.163 HD
BRANCH   5   8
ATOM      8  C   UNL A   1      34.174  25.028  24.332  1.00  0.00     0.174 C 
ATOM      9  N   UNL A   1      34.484  23.602  24.323  1.00  0.00    -0.329 N 
ATOM     10  C   UNL A   1      33.517  22.641  23.847  1.00  0.00     0.120 C 
ATOM     11  C   UNL A   1      33.068  23.023  22.438  1.00  0.00     0.022 C 
ATOM     12  C   UNL A   1      33.653  25.433  22.938  1.00  0.00     0.035 C 
ATOM     13  C   UNL A   1      32.601  24.474  22.368  1.00  0.00     0.004 C 
BRANCH   9  14
ATOM     14  C   UNL A   1      35.704  23.164  24.750  1.00  0.00     0.226 A 
ATOM     15  C   UNL A   1      37.464  19.956  24.824  1.00  0.00     0.067 C 
ATOM     16  C   UNL A   1      37.186  21.416  25.008  1.00  0.00     0.043 A 
ATOM     17  C   UNL A   1      38.038  22.205  25.745  1.00  0.00     0.047 A 
ATOM     18  N   UNL A   1      36.034  21.891  24.494  1.00  0.00    -0.218 NA
ATOM     19  C   UNL A   1      37.650  23.516  25.924  1.00  0.00     0.043 A 
ATOM     20  C   UNL A   1      38.528  24.453  26.698  1.00  0.00     0.067 C 
ATOM     21  N   UNL A   1      36.479  23.997  25.456  1.00  0.00    -0.218 NA
ENDBRANCH   9  14
ENDBRANCH   5   8
ENDBRANCH   3   4
ENDBRANCH   2   3
ENDBRANCH   1   2
BRANCH   1  22
ATOM     22  C   UNL A   1      32.275  30.088  26.847  1.00  0.00     0.116 C 
BRANCH  22  23
ATOM     23  N   UNL A   1      32.317  31.525  27.071  1.00  0.00    -0.352 N 
ATOM     24  C   UNL A   1      33.349  32.319  27.518  1.00  0.00     0.251 C 
ATOM     25  H   UNL A   1      31.479  32.002  26.873  1.00  0.00     0.163 HD
ATOM     26  O   UNL A   1      33.189  33.528  27.626  1.00  0.00    -0.269 OA
BRANCH  24  27
ATOM     27  C   UNL A   1      34.629  31.703  27.940  1.00  0.00     0.039 A 
ATOM     28  C   UNL A   1      35.730  32.541  28.143  1.00  0.00     0.014 A 
ATOM     29  C   UNL A   1      34.735  30.334  28.196  1.00  0.00     0.014 A 
ATOM     30  C   UNL A   1      36.897  32.027  28.712  1.00  0.00     0.010 A 
ATOM     31  C   UNL A   1      35.874  29.834  28.823  1.00  0.00     0.010 A 
ATOM     32  C   UNL A   1      36.954  30.683  29.115  1.00  0.00    -0.014 A 
BRANCH  32  33
ATOM     33  C   UNL A   1      38.109  30.170  29.897  1.00  0.00     0.031 A 
ATOM     34  C   UNL A   1      38.340  30.626  31.308  1.00  0.00     0.074 A 
ATOM     35  C   UNL A   1      38.989  29.340  29.302  1.00  0.00     0.049 A 
ATOM     36  N   UNL A   1      39.325  30.333  32.120  1.00  0.00    -0.248 NA
ATOM     37  C   UNL A   1      37.346  31.548  31.876  1.00  0.00     0.031 C 
ATOM     38  C   UNL A   1      38.908  28.871  27.917  1.00  0.00     0.029 A 
ATOM     39  N   UNL A   1      40.131  28.748  29.784  1.00  0.00    -0.354 N 
ATOM     40  C   UNL A   1      39.074  31.039  33.288  1.00  0.00     0.074 A 
ATOM     41  C   UNL A   1      37.869  31.810  33.066  1.00  0.00     0.031 C 
ATOM     42  C   UNL A   1      39.941  28.051  27.666  1.00  0.00     0.029 A 
ATOM     43  C   UNL A   1      40.773  27.956  28.862  1.00  0.00     0.049 A 
ATOM     44  H   UNL A   1      40.459  28.879  30.702  1.00  0.00     0.167 HD
ATOM     45  C   UNL A   1      39.773  31.028  34.449  1.00  0.00     0.037 A 
ATOM     46  C   UNL A   1      41.903  27.234  28.970  1.00  0.00     0.037 A 
ATOM     47  C   UNL A   1      40.964  30.252  34.675  1.00  0.00     0.049 A 
ATOM     48  C   UNL A   1      42.639  27.214  30.282  1.00  0.00     0.074 A 
ATOM     49  C   UNL A   1      41.743  30.174  35.817  1.00  0.00     0.029 A 
ATOM     50  N   UNL A   1      41.543  29.409  33.738  1.00  0.00    -0.354 N 
ATOM     51  N   UNL A   1      42.364  27.852  31.393  1.00  0.00    -0.248 NA
ATOM     52  C   UNL A   1      43.833  26.360  30.360  1.00  0.00     0.031 C 
ATOM     53  C   UNL A   1      42.802  29.294  35.567  1.00  0.00     0.029 A 
ATOM     54  C   UNL A   1      42.664  28.800  34.280  1.00  0.00     0.049 A 
ATOM     55  H   UNL A   1      41.208  29.265  32.824  1.00  0.00     0.167 HD
ATOM     56  C   UNL A   1      43.328  27.453  32.308  1.00  0.00     0.074 A 
ATOM     57  C   UNL A   1      44.188  26.509  31.627  1.00  0.00     0.031 C 
ATOM     58  C   UNL A   1      43.488  27.839  33.597  1.00  0.00     0.037 A 
BRANCH  45  59
ATOM     59  C   UNL A   1      39.251  31.870  35.574  1.00  0.00     0.064 A 
ATOM     60  C   UNL A   1      38.367  31.341  36.526  1.00  0.00     0.173 A 
ATOM     61  C   UNL A   1      39.668  33.200  35.729  1.00  0.00     0.173 A 
ATOM     62  F   UNL A   1      37.930  30.078  36.413  1.00  0.00    -0.203 F 
ATOM     63  C   UNL A   1      37.902  32.121  37.582  1.00  0.00     0.198 A 
ATOM     64  C   UNL A   1      39.220  33.969  36.800  1.00  0.00     0.198 A 
ATOM     65  F   UNL A   1      40.516  33.750  34.847  1.00  0.00    -0.203 F 
ATOM     66  F   UNL A   1      37.028  31.606  38.457  1.00  0.00    -0.200 F 
ATOM     67  C   UNL A   1      38.334  33.432  37.722  1.00  0.00     0.200 A 
ATOM     68  F   UNL A   1      39.645  35.233  36.940  1.00  0.00    -0.200 F 
ATOM     69  F   UNL A   1      37.892  34.178  38.742  1.00  0.00    -0.200 F 
ENDBRANCH  45  59
BRANCH  46  70
ATOM     70  C   UNL A   1      42.395  26.438  27.816  1.00  0.00     0.064 A 
ATOM     71  C   UNL A   1      42.013  25.099  27.652  1.00  0.00     0.173 A 
ATOM     72  C   UNL A   1      43.274  26.986  26.872  1.00  0.00     0.173 A 
ATOM     73  F   UNL A   1      41.189  24.525  28.542  1.00  0.00    -0.203 F 
ATOM     74  C   UNL A   1      42.512  24.330  26.603  1.00  0.00     0.198 A 
ATOM     75  C   UNL A   1      43.753  26.224  25.808  1.00  0.00     0.198 A 
ATOM     76  F   UNL A   1      43.665  28.265  26.981  1.00  0.00    -0.203 F 
ATOM     77  F   UNL A   1      42.171  23.039  26.500  1.00  0.00    -0.200 F 
ATOM     78  C   UNL A   1      43.380  24.895  25.680  1.00  0.00     0.200 A 
ATOM     79  F   UNL A   1      44.582  26.776  24.911  1.00  0.00    -0.200 F 
ATOM     80  F   UNL A   1      43.864  24.154  24.675  1.00  0.00    -0.200 F 
ENDBRANCH  46  70
BRANCH  58  81
ATOM     81  C   UNL A   1      44.600  27.196  34.371  1.00  0.00     0.064 A 
ATOM     82  C   UNL A   1      44.432  25.961  35.011  1.00  0.00     0.173 A 
ATOM     83  C   UNL A   1      45.856  27.816  34.447  1.00  0.00     0.173 A 
ATOM     84  F   UNL A   1      43.244  25.339  34.979  1.00  0.00    -0.203 F 
ATOM     85  C   UNL A   1      45.479  25.379  35.720  1.00  0.00     0.198 A 
ATOM     86  C   UNL A   1      46.906  27.220  35.138  1.00  0.00     0.198 A 
ATOM     87  F   UNL A   1      46.064  28.999  33.849  1.00  0.00    -0.203 F 
ATOM     88  F   UNL A   1      45.287  24.217  36.362  1.00  0.00    -0.200 F 
ATOM     89  C   UNL A   1      46.715  26.006  35.780  1.00  0.00     0.200 A 
ATOM     90  F   UNL A   1      48.102  27.822  35.188  1.00  0.00    -0.200 F 
ATOM     91  F   UNL A   1      47.721  25.442  36.463  1.00  0.00    -0.200 F 
ENDBRANCH  58  81
ENDBRANCH  32  33
ENDBRANCH  24  27
ENDBRANCH  22  23
ENDBRANCH   1  22
TORSDOF 12
ENDMDL
