MODEL 1
REMARK VINA RESULT:     -12.0      0.000      0.000
REMARK SMILES COCC(=O)N1[C@@H](C(=O)NCCCCNC(=O)c2ccc(-c3c4nc(c(-c5c(F)c(F)c(F)c(F)c5F)c5ccc([nH]5)c(-c5c(F)c(F)c(F)c(F)c5F)c5nc(c(-c6c(F)c(F)c(F)c(F)c6F)c6ccc3[nH]6)C=C5)C=C4)cc2)CC[C@@H]2CCCC[C@H]21
REMARK SMILES IDX 12 1 11 2 10 3 8 4 9 5 7 7 6 8 88 9 81 10 83 11 87 12 82 13
REMARK SMILES IDX 84 14 86 15 85 16 4 17 5 18 3 19 2 20 1 21 13 22 14 23 15 24
REMARK SMILES IDX 16 25 17 27 18 28 19 29 80 30 20 31 79 32 21 33 22 34 23 35
REMARK SMILES IDX 73 36 24 37 78 38 72 39 74 40 25 41 77 42 71 43 70 44 26 46
REMARK SMILES IDX 58 47 38 48 57 49 39 50 42 51 56 52 75 53 40 54 41 55 55 57
REMARK SMILES IDX 76 58 43 59 27 60 28 61 36 62 29 63 30 64 34 65 37 66 31 67
REMARK SMILES IDX 32 68 35 69 33 70 59 71 60 72 68 73 61 74 62 75 66 76 69 77
REMARK SMILES IDX 63 78 64 79 67 80 65 81 44 82 45 83 53 84 46 85 47 86 51 87
REMARK SMILES IDX 54 88 48 89 49 90 52 91 50 92
REMARK H PARENT 10 6 15 26 74 45 42 56
REMARK Flexibility Score: inf
ROOT
ATOM      1  C   UNL A   1      31.586  31.096  26.126  1.00  0.00     0.023 C 
ENDROOT
BRANCH   1   2
ATOM      2  C   UNL A   1      32.507  30.117  26.849  1.00  0.00     0.116 C 
BRANCH   2   3
ATOM      3  N   UNL A   1      31.778  28.949  27.309  1.00  0.00    -0.354 N 
ATOM      4  C   UNL A   1      31.738  27.685  26.797  1.00  0.00     0.242 C 
ATOM      5  O   UNL A   1      30.903  26.907  27.268  1.00  0.00    -0.273 OA
ATOM      6  H   UNL A   1      31.226  29.091  28.113  1.00  0.00     0.163 HD
BRANCH   4   7
ATOM      7  C   UNL A   1      32.535  27.305  25.528  1.00  0.00     0.174 C 
ATOM      8  N   UNL A   1      31.757  26.867  24.340  1.00  0.00    -0.325 N 
ATOM      9  C   UNL A   1      32.549  26.178  23.287  1.00  0.00     0.089 C 
ATOM     10  C   UNL A   1      33.498  26.205  26.047  1.00  0.00     0.036 C 
ATOM     11  C   UNL A   1      33.261  24.944  23.872  1.00  0.00     0.012 C 
ATOM     12  C   UNL A   1      31.815  25.844  21.974  1.00  0.00     0.025 C 
ATOM     13  C   UNL A   1      34.213  25.398  24.981  1.00  0.00     0.008 C 
ATOM     14  C   UNL A   1      34.062  24.143  22.832  1.00  0.00     0.006 C 
ATOM     15  C   UNL A   1      32.731  25.149  20.970  1.00  0.00     0.002 C 
ATOM     16  C   UNL A   1      33.278  23.859  21.559  1.00  0.00     0.000 C 
BRANCH   8  17
ATOM     17  C   UNL A   1      30.562  27.494  23.967  1.00  0.00     0.249 C 
ATOM     18  O   UNL A   1      29.465  26.963  24.171  1.00  0.00    -0.272 OA
BRANCH  17  19
ATOM     19  C   UNL A   1      30.615  28.857  23.254  1.00  0.00     0.259 C 
BRANCH  19  20
ATOM     20  O   UNL A   1      29.972  28.964  22.001  1.00  0.00    -0.375 OA
ATOM     21  C   UNL A   1      29.313  30.205  21.807  1.00  0.00     0.195 C 
ENDBRANCH  19  20
ENDBRANCH  17  19
ENDBRANCH   8  17
ENDBRANCH   4   7
ENDBRANCH   2   3
ENDBRANCH   1   2
BRANCH   1  22
ATOM     22  C   UNL A   1      31.411  32.442  26.831  1.00  0.00     0.023 C 
BRANCH  22  23
ATOM     23  C   UNL A   1      32.710  33.089  27.299  1.00  0.00     0.116 C 
BRANCH  23  24
ATOM     24  N   UNL A   1      32.525  34.474  27.706  1.00  0.00    -0.352 N 
ATOM     25  C   UNL A   1      33.112  35.145  28.751  1.00  0.00     0.251 C 
ATOM     26  H   UNL A   1      31.897  34.999  27.159  1.00  0.00     0.163 HD
ATOM     27  O   UNL A   1      32.725  36.261  29.081  1.00  0.00    -0.269 OA
BRANCH  25  28
ATOM     28  C   UNL A   1      34.207  34.492  29.494  1.00  0.00     0.039 A 
ATOM     29  C   UNL A   1      33.908  33.752  30.641  1.00  0.00     0.014 A 
ATOM     30  C   UNL A   1      35.519  34.578  29.024  1.00  0.00     0.014 A 
ATOM     31  C   UNL A   1      34.921  33.032  31.277  1.00  0.00     0.010 A 
ATOM     32  C   UNL A   1      36.511  33.804  29.616  1.00  0.00     0.010 A 
ATOM     33  C   UNL A   1      36.221  33.022  30.745  1.00  0.00    -0.014 A 
BRANCH  33  34
ATOM     34  C   UNL A   1      37.309  32.213  31.348  1.00  0.00     0.031 A 
ATOM     35  C   UNL A   1      37.821  32.564  32.716  1.00  0.00     0.074 A 
ATOM     36  C   UNL A   1      37.901  31.236  30.633  1.00  0.00     0.049 A 
ATOM     37  N   UNL A   1      38.867  32.105  33.355  1.00  0.00    -0.248 NA
ATOM     38  C   UNL A   1      37.073  33.596  33.450  1.00  0.00     0.031 C 
ATOM     39  C   UNL A   1      37.513  30.819  29.286  1.00  0.00     0.029 A 
ATOM     40  N   UNL A   1      38.976  30.435  30.932  1.00  0.00    -0.354 N 
ATOM     41  C   UNL A   1      38.915  32.809  34.550  1.00  0.00     0.074 A 
ATOM     42  C   UNL A   1      37.822  33.757  34.530  1.00  0.00     0.031 C 
ATOM     43  C   UNL A   1      38.331  29.836  28.877  1.00  0.00     0.029 A 
ATOM     44  C   UNL A   1      39.331  29.587  29.912  1.00  0.00     0.049 A 
ATOM     45  H   UNL A   1      39.446  30.466  31.796  1.00  0.00     0.167 HD
ATOM     46  C   UNL A   1      39.784  32.666  35.578  1.00  0.00     0.037 A 
ATOM     47  C   UNL A   1      40.361  28.723  29.814  1.00  0.00     0.037 A 
ATOM     48  C   UNL A   1      40.850  31.700  35.604  1.00  0.00     0.049 A 
ATOM     49  C   UNL A   1      41.325  28.595  30.963  1.00  0.00     0.074 A 
ATOM     50  C   UNL A   1      41.751  31.438  36.621  1.00  0.00     0.029 A 
ATOM     51  N   UNL A   1      41.158  30.837  34.563  1.00  0.00    -0.354 N 
ATOM     52  N   UNL A   1      41.333  29.230  32.110  1.00  0.00    -0.248 NA
ATOM     53  C   UNL A   1      42.422  27.629  30.807  1.00  0.00     0.031 C 
ATOM     54  C   UNL A   1      42.632  30.448  36.179  1.00  0.00     0.029 A 
ATOM     55  C   UNL A   1      42.247  30.053  34.907  1.00  0.00     0.049 A 
ATOM     56  H   UNL A   1      40.674  30.788  33.707  1.00  0.00     0.167 HD
ATOM     57  C   UNL A   1      42.406  28.716  32.825  1.00  0.00     0.074 A 
ATOM     58  C   UNL A   1      43.029  27.715  31.983  1.00  0.00     0.031 C 
ATOM     59  C   UNL A   1      42.834  29.040  34.068  1.00  0.00     0.037 A 
BRANCH  46  60
ATOM     60  C   UNL A   1      39.620  33.576  36.759  1.00  0.00     0.064 A 
ATOM     61  C   UNL A   1      40.258  34.825  36.821  1.00  0.00     0.173 A 
ATOM     62  C   UNL A   1      38.788  33.211  37.828  1.00  0.00     0.173 A 
ATOM     63  F   UNL A   1      41.074  35.215  35.830  1.00  0.00    -0.203 F 
ATOM     64  C   UNL A   1      40.092  35.661  37.922  1.00  0.00     0.198 A 
ATOM     65  C   UNL A   1      38.598  34.064  38.912  1.00  0.00     0.198 A 
ATOM     66  F   UNL A   1      38.149  32.031  37.816  1.00  0.00    -0.203 F 
ATOM     67  F   UNL A   1      40.751  36.826  37.981  1.00  0.00    -0.200 F 
ATOM     68  C   UNL A   1      39.256  35.283  38.963  1.00  0.00     0.200 A 
ATOM     69  F   UNL A   1      37.779  33.704  39.910  1.00  0.00    -0.200 F 
ATOM     70  F   UNL A   1      39.091  36.092  40.017  1.00  0.00    -0.200 F 
ENDBRANCH  46  60
BRANCH  47  71
ATOM     71  C   UNL A   1      40.528  27.903  28.585  1.00  0.00     0.064 A 
ATOM     72  C   UNL A   1      39.934  26.638  28.480  1.00  0.00     0.173 A 
ATOM     73  C   UNL A   1      41.284  28.360  27.496  1.00  0.00     0.173 A 
ATOM     74  F   UNL A   1      39.219  26.148  29.504  1.00  0.00    -0.203 F 
ATOM     75  C   UNL A   1      40.105  25.853  27.343  1.00  0.00     0.198 A 
ATOM     76  C   UNL A   1      41.431  27.586  26.347  1.00  0.00     0.198 A 
ATOM     77  F   UNL A   1      41.870  29.566  27.544  1.00  0.00    -0.203 F 
ATOM     78  F   UNL A   1      39.562  24.629  27.288  1.00  0.00    -0.200 F 
ATOM     79  C   UNL A   1      40.848  26.330  26.273  1.00  0.00     0.200 A 
ATOM     80  F   UNL A   1      42.139  28.056  25.311  1.00  0.00    -0.200 F 
ATOM     81  F   UNL A   1      41.009  25.577  25.177  1.00  0.00    -0.200 F 
ENDBRANCH  47  71
BRANCH  59  82
ATOM     82  C   UNL A   1      43.992  28.271  34.632  1.00  0.00     0.064 A 
ATOM     83  C   UNL A   1      45.309  28.741  34.536  1.00  0.00     0.173 A 
ATOM     84  C   UNL A   1      43.765  27.088  35.352  1.00  0.00     0.173 A 
ATOM     85  F   UNL A   1      45.578  29.860  33.846  1.00  0.00    -0.203 F 
ATOM     86  C   UNL A   1      46.358  28.052  35.137  1.00  0.00     0.198 A 
ATOM     87  C   UNL A   1      44.813  26.415  35.974  1.00  0.00     0.198 A 
ATOM     88  F   UNL A   1      42.521  26.601  35.477  1.00  0.00    -0.203 F 
ATOM     89  F   UNL A   1      47.613  28.503  35.011  1.00  0.00    -0.200 F 
ATOM     90  C   UNL A   1      46.108  26.896  35.864  1.00  0.00     0.200 A 
ATOM     91  F   UNL A   1      44.566  25.308  36.688  1.00  0.00    -0.200 F 
ATOM     92  F   UNL A   1      47.118  26.245  36.458  1.00  0.00    -0.200 F 
ENDBRANCH  59  82
ENDBRANCH  33  34
ENDBRANCH  25  28
ENDBRANCH  23  24
ENDBRANCH  22  23
ENDBRANCH   1  22
TORSDOF 14
ENDMDL
MODEL 2
REMARK VINA RESULT:     -11.9      1.253      7.551
REMARK SMILES COCC(=O)N1[C@@H](C(=O)NCCCCNC(=O)c2ccc(-c3c4nc(c(-c5c(F)c(F)c(F)c(F)c5F)c5ccc([nH]5)c(-c5c(F)c(F)c(F)c(F)c5F)c5nc(c(-c6c(F)c(F)c(F)c(F)c6F)c6ccc3[nH]6)C=C5)C=C4)cc2)CC[C@@H]2CCCC[C@H]21
REMARK SMILES IDX 12 1 11 2 10 3 8 4 9 5 7 7 6 8 88 9 81 10 83 11 87 12 82 13
REMARK SMILES IDX 84 14 86 15 85 16 4 17 5 18 3 19 2 20 1 21 13 22 14 23 15 24
REMARK SMILES IDX 16 25 17 27 18 28 19 29 80 30 20 31 79 32 21 33 22 34 23 35
REMARK SMILES IDX 73 36 24 37 78 38 72 39 74 40 25 41 77 42 71 43 70 44 26 46
REMARK SMILES IDX 58 47 38 48 57 49 39 50 42 51 56 52 75 53 40 54 41 55 55 57
REMARK SMILES IDX 76 58 43 59 27 60 28 61 36 62 29 63 30 64 34 65 37 66 31 67
REMARK SMILES IDX 32 68 35 69 33 70 59 71 60 72 68 73 61 74 62 75 66 76 69 77
REMARK SMILES IDX 63 78 64 79 67 80 65 81 44 82 45 83 53 84 46 85 47 86 51 87
REMARK SMILES IDX 54 88 48 89 49 90 52 91 50 92
REMARK H PARENT 10 6 15 26 74 45 42 56
REMARK Flexibility Score: inf
ROOT
ATOM      1  C   UNL A   1      31.827  30.303  26.737  1.00  0.00     0.023 C 
ENDROOT
BRANCH   1   2
ATOM      2  C   UNL A   1      32.274  29.647  25.434  1.00  0.00     0.116 C 
BRANCH   2   3
ATOM      3  N   UNL A   1      31.136  29.225  24.638  1.00  0.00    -0.354 N 
ATOM      4  C   UNL A   1      30.667  27.970  24.380  1.00  0.00     0.242 C 
ATOM      5  O   UNL A   1      29.779  27.859  23.528  1.00  0.00    -0.273 OA
ATOM      6  H   UNL A   1      30.626  29.956  24.219  1.00  0.00     0.163 HD
BRANCH   4   7
ATOM      7  C   UNL A   1      31.365  26.715  24.950  1.00  0.00     0.174 C 
ATOM      8  N   UNL A   1      31.997  25.786  23.977  1.00  0.00    -0.325 N 
ATOM      9  C   UNL A   1      32.333  24.442  24.517  1.00  0.00     0.089 C 
ATOM     10  C   UNL A   1      30.237  26.039  25.771  1.00  0.00     0.036 C 
ATOM     11  C   UNL A   1      31.072  23.759  25.078  1.00  0.00     0.012 C 
ATOM     12  C   UNL A   1      33.127  23.500  23.591  1.00  0.00     0.025 C 
ATOM     13  C   UNL A   1      30.507  24.615  26.215  1.00  0.00     0.008 C 
ATOM     14  C   UNL A   1      31.323  22.338  25.610  1.00  0.00     0.006 C 
ATOM     15  C   UNL A   1      33.417  22.158  24.256  1.00  0.00     0.002 C 
ATOM     16  C   UNL A   1      32.120  21.470  24.647  1.00  0.00     0.000 C 
BRANCH   8  17
ATOM     17  C   UNL A   1      32.712  26.252  22.868  1.00  0.00     0.249 C 
ATOM     18  O   UNL A   1      33.747  26.913  23.000  1.00  0.00    -0.272 OA
BRANCH  17  19
ATOM     19  C   UNL A   1      32.180  25.967  21.452  1.00  0.00     0.259 C 
BRANCH  19  20
ATOM     20  O   UNL A   1      33.115  25.566  20.472  1.00  0.00    -0.375 OA
ATOM     21  C   UNL A   1      32.546  25.399  19.182  1.00  0.00     0.195 C 
ENDBRANCH  19  20
ENDBRANCH  17  19
ENDBRANCH   8  17
ENDBRANCH   4   7
ENDBRANCH   2   3
ENDBRANCH   1   2
BRANCH   1  22
ATOM     22  C   UNL A   1      31.691  31.824  26.668  1.00  0.00     0.023 C 
BRANCH  22  23
ATOM     23  C   UNL A   1      32.822  32.596  27.339  1.00  0.00     0.116 C 
BRANCH  23  24
ATOM     24  N   UNL A   1      32.464  33.979  27.614  1.00  0.00    -0.352 N 
ATOM     25  C   UNL A   1      32.979  34.825  28.566  1.00  0.00     0.251 C 
ATOM     26  H   UNL A   1      31.758  34.359  27.042  1.00  0.00     0.163 HD
ATOM     27  O   UNL A   1      32.455  35.908  28.799  1.00  0.00    -0.269 OA
BRANCH  25  28
ATOM     28  C   UNL A   1      34.170  34.400  29.329  1.00  0.00     0.039 A 
ATOM     29  C   UNL A   1      34.000  33.717  30.536  1.00  0.00     0.014 A 
ATOM     30  C   UNL A   1      35.448  34.640  28.820  1.00  0.00     0.014 A 
ATOM     31  C   UNL A   1      35.117  33.205  31.199  1.00  0.00     0.010 A 
ATOM     32  C   UNL A   1      36.552  34.069  29.444  1.00  0.00     0.010 A 
ATOM     33  C   UNL A   1      36.397  33.343  30.636  1.00  0.00    -0.014 A 
BRANCH  33  34
ATOM     34  C   UNL A   1      37.601  32.753  31.271  1.00  0.00     0.031 A 
ATOM     35  C   UNL A   1      38.310  31.614  30.595  1.00  0.00     0.074 A 
ATOM     36  C   UNL A   1      37.992  33.167  32.491  1.00  0.00     0.049 A 
ATOM     37  N   UNL A   1      39.267  30.845  31.050  1.00  0.00    -0.248 NA
ATOM     38  C   UNL A   1      37.857  31.272  29.238  1.00  0.00     0.031 C 
ATOM     39  C   UNL A   1      37.370  34.245  33.260  1.00  0.00     0.029 A 
ATOM     40  N   UNL A   1      38.995  32.710  33.312  1.00  0.00    -0.354 N 
ATOM     41  C   UNL A   1      39.511  29.918  30.046  1.00  0.00     0.074 A 
ATOM     42  C   UNL A   1      38.574  30.189  28.979  1.00  0.00     0.031 C 
ATOM     43  C   UNL A   1      38.007  34.371  34.435  1.00  0.00     0.029 A 
ATOM     44  C   UNL A   1      39.050  33.354  34.524  1.00  0.00     0.049 A 
ATOM     45  H   UNL A   1      39.615  31.991  33.055  1.00  0.00     0.167 HD
ATOM     46  C   UNL A   1      40.445  28.939  30.012  1.00  0.00     0.037 A 
ATOM     47  C   UNL A   1      39.838  33.131  35.595  1.00  0.00     0.037 A 
ATOM     48  C   UNL A   1      41.394  28.694  31.065  1.00  0.00     0.049 A 
ATOM     49  C   UNL A   1      40.856  32.024  35.541  1.00  0.00     0.074 A 
ATOM     50  C   UNL A   1      42.416  27.761  31.105  1.00  0.00     0.029 A 
ATOM     51  N   UNL A   1      41.438  29.388  32.265  1.00  0.00    -0.354 N 
ATOM     52  N   UNL A   1      41.113  31.183  34.567  1.00  0.00    -0.248 NA
ATOM     53  C   UNL A   1      41.697  31.834  36.731  1.00  0.00     0.031 C 
ATOM     54  C   UNL A   1      43.050  27.861  32.346  1.00  0.00     0.029 A 
ATOM     55  C   UNL A   1      42.459  28.892  33.059  1.00  0.00     0.049 A 
ATOM     56  H   UNL A   1      40.834  30.124  32.515  1.00  0.00     0.167 HD
ATOM     57  C   UNL A   1      42.165  30.394  35.011  1.00  0.00     0.074 A 
ATOM     58  C   UNL A   1      42.501  30.853  36.343  1.00  0.00     0.031 C 
ATOM     59  C   UNL A   1      42.799  29.382  34.370  1.00  0.00     0.037 A 
BRANCH  46  60
ATOM     60  C   UNL A   1      40.484  28.056  28.801  1.00  0.00     0.064 A 
ATOM     61  C   UNL A   1      41.247  28.389  27.670  1.00  0.00     0.173 A 
ATOM     62  C   UNL A   1      39.779  26.843  28.781  1.00  0.00     0.173 A 
ATOM     63  F   UNL A   1      41.930  29.543  27.635  1.00  0.00    -0.203 F 
ATOM     64  C   UNL A   1      41.278  27.556  26.555  1.00  0.00     0.198 A 
ATOM     65  C   UNL A   1      39.838  25.997  27.677  1.00  0.00     0.198 A 
ATOM     66  F   UNL A   1      39.039  26.473  29.838  1.00  0.00    -0.203 F 
ATOM     67  F   UNL A   1      41.972  27.920  25.469  1.00  0.00    -0.200 F 
ATOM     68  C   UNL A   1      40.579  26.358  26.563  1.00  0.00     0.200 A 
ATOM     69  F   UNL A   1      39.174  24.833  27.690  1.00  0.00    -0.200 F 
ATOM     70  F   UNL A   1      40.616  25.554  25.491  1.00  0.00    -0.200 F 
ENDBRANCH  46  60
BRANCH  47  71
ATOM     71  C   UNL A   1      39.702  33.981  36.806  1.00  0.00     0.064 A 
ATOM     72  C   UNL A   1      38.894  33.580  37.878  1.00  0.00     0.173 A 
ATOM     73  C   UNL A   1      40.370  35.210  36.918  1.00  0.00     0.173 A 
ATOM     74  F   UNL A   1      38.218  32.424  37.809  1.00  0.00    -0.203 F 
ATOM     75  C   UNL A   1      38.743  34.382  39.007  1.00  0.00     0.198 A 
ATOM     76  C   UNL A   1      40.242  35.998  38.060  1.00  0.00     0.198 A 
ATOM     77  F   UNL A   1      41.160  35.638  35.922  1.00  0.00    -0.203 F 
ATOM     78  F   UNL A   1      37.929  33.994  39.998  1.00  0.00    -0.200 F 
ATOM     79  C   UNL A   1      39.422  35.587  39.101  1.00  0.00     0.200 A 
ATOM     80  F   UNL A   1      40.910  37.156  38.152  1.00  0.00    -0.200 F 
ATOM     81  F   UNL A   1      39.280  36.357  40.188  1.00  0.00    -0.200 F 
ENDBRANCH  47  71
BRANCH  59  82
ATOM     82  C   UNL A   1      43.962  28.736  35.063  1.00  0.00     0.064 A 
ATOM     83  C   UNL A   1      43.806  27.597  35.864  1.00  0.00     0.173 A 
ATOM     84  C   UNL A   1      45.263  29.219  34.849  1.00  0.00     0.173 A 
ATOM     85  F   UNL A   1      42.581  27.107  36.109  1.00  0.00    -0.203 F 
ATOM     86  C   UNL A   1      44.910  26.967  36.431  1.00  0.00     0.198 A 
ATOM     87  C   UNL A   1      46.366  28.571  35.396  1.00  0.00     0.198 A 
ATOM     88  F   UNL A   1      45.464  30.303  34.084  1.00  0.00    -0.203 F 
ATOM     89  F   UNL A   1      44.737  25.895  37.217  1.00  0.00    -0.200 F 
ATOM     90  C   UNL A   1      46.189  27.447  36.188  1.00  0.00     0.200 A 
ATOM     91  F   UNL A   1      47.601  29.028  35.146  1.00  0.00    -0.200 F 
ATOM     92  F   UNL A   1      47.251  26.827  36.719  1.00  0.00    -0.200 F 
ENDBRANCH  59  82
ENDBRANCH  33  34
ENDBRANCH  25  28
ENDBRANCH  23  24
ENDBRANCH  22  23
ENDBRANCH   1  22
TORSDOF 14
ENDMDL
MODEL 3
REMARK VINA RESULT:     -11.9      5.931     10.065
REMARK SMILES COCC(=O)N1[C@@H](C(=O)NCCCCNC(=O)c2ccc(-c3c4nc(c(-c5c(F)c(F)c(F)c(F)c5F)c5ccc([nH]5)c(-c5c(F)c(F)c(F)c(F)c5F)c5nc(c(-c6c(F)c(F)c(F)c(F)c6F)c6ccc3[nH]6)C=C5)C=C4)cc2)CC[C@@H]2CCCC[C@H]21
REMARK SMILES IDX 12 1 11 2 10 3 8 4 9 5 7 7 6 8 88 9 81 10 83 11 87 12 82 13
REMARK SMILES IDX 84 14 86 15 85 16 4 17 5 18 3 19 2 20 1 21 13 22 14 23 15 24
REMARK SMILES IDX 16 25 17 27 18 28 19 29 80 30 20 31 79 32 21 33 22 34 23 35
REMARK SMILES IDX 73 36 24 37 78 38 72 39 74 40 25 41 77 42 71 43 70 44 26 46
REMARK SMILES IDX 58 47 38 48 57 49 39 50 42 51 56 52 75 53 40 54 41 55 55 57
REMARK SMILES IDX 76 58 43 59 27 60 28 61 36 62 29 63 30 64 34 65 37 66 31 67
REMARK SMILES IDX 32 68 35 69 33 70 59 71 60 72 68 73 61 74 62 75 66 76 69 77
REMARK SMILES IDX 63 78 64 79 67 80 65 81 44 82 45 83 53 84 46 85 47 86 51 87
REMARK SMILES IDX 54 88 48 89 49 90 52 91 50 92
REMARK H PARENT 10 6 15 26 74 45 42 56
REMARK Flexibility Score: inf
ROOT
ATOM      1  C   UNL A   1      36.897  19.925  24.834  1.00  0.00     0.023 C 
ENDROOT
BRANCH   1   2
ATOM      2  C   UNL A   1      37.200  21.417  24.940  1.00  0.00     0.116 C 
BRANCH   2   3
ATOM      3  N   UNL A   1      36.720  22.136  23.774  1.00  0.00    -0.354 N 
ATOM      4  C   UNL A   1      35.647  22.969  23.642  1.00  0.00     0.242 C 
ATOM      5  O   UNL A   1      35.343  23.326  22.499  1.00  0.00    -0.273 OA
ATOM      6  H   UNL A   1      37.248  22.002  22.954  1.00  0.00     0.163 HD
BRANCH   4   7
ATOM      7  C   UNL A   1      34.708  23.270  24.831  1.00  0.00     0.174 C 
ATOM      8  N   UNL A   1      33.328  22.721  24.767  1.00  0.00    -0.325 N 
ATOM      9  C   UNL A   1      32.366  23.320  25.730  1.00  0.00     0.089 C 
ATOM     10  C   UNL A   1      34.729  24.819  24.900  1.00  0.00     0.036 C 
ATOM     11  C   UNL A   1      32.283  24.844  25.527  1.00  0.00     0.012 C 
ATOM     12  C   UNL A   1      30.968  22.678  25.804  1.00  0.00     0.025 C 
ATOM     13  C   UNL A   1      33.665  25.455  25.773  1.00  0.00     0.008 C 
ATOM     14  C   UNL A   1      31.267  25.536  26.451  1.00  0.00     0.006 C 
ATOM     15  C   UNL A   1      30.076  23.371  26.830  1.00  0.00     0.002 C 
ATOM     16  C   UNL A   1      29.914  24.841  26.482  1.00  0.00     0.000 C 
BRANCH   8  17
ATOM     17  C   UNL A   1      33.067  21.434  24.283  1.00  0.00     0.249 C 
ATOM     18  O   UNL A   1      32.609  21.252  23.151  1.00  0.00    -0.272 OA
BRANCH  17  19
ATOM     19  C   UNL A   1      33.319  20.219  25.195  1.00  0.00     0.259 C 
BRANCH  19  20
ATOM     20  O   UNL A   1      32.267  19.290  25.350  1.00  0.00    -0.375 OA
ATOM     21  C   UNL A   1      32.528  18.032  24.748  1.00  0.00     0.195 C 
ENDBRANCH  19  20
ENDBRANCH  17  19
ENDBRANCH   8  17
ENDBRANCH   4   7
ENDBRANCH   2   3
ENDBRANCH   1   2
BRANCH   1  22
ATOM     22  C   UNL A   1      38.089  19.013  25.127  1.00  0.00     0.023 C 
BRANCH  22  23
ATOM     23  C   UNL A   1      39.289  19.714  25.753  1.00  0.00     0.116 C 
BRANCH  23  24
ATOM     24  N   UNL A   1      40.465  18.859  25.809  1.00  0.00    -0.352 N 
ATOM     25  C   UNL A   1      41.777  19.218  25.997  1.00  0.00     0.251 C 
ATOM     26  H   UNL A   1      40.298  17.895  25.696  1.00  0.00     0.163 HD
ATOM     27  O   UNL A   1      42.683  18.406  25.843  1.00  0.00    -0.269 OA
BRANCH  25  28
ATOM     28  C   UNL A   1      42.090  20.612  26.368  1.00  0.00     0.039 A 
ATOM     29  C   UNL A   1      42.252  20.941  27.716  1.00  0.00     0.014 A 
ATOM     30  C   UNL A   1      42.266  21.577  25.373  1.00  0.00     0.014 A 
ATOM     31  C   UNL A   1      42.668  22.227  28.065  1.00  0.00     0.010 A 
ATOM     32  C   UNL A   1      42.749  22.835  25.718  1.00  0.00     0.010 A 
ATOM     33  C   UNL A   1      42.957  23.171  27.065  1.00  0.00    -0.014 A 
BRANCH  33  34
ATOM     34  C   UNL A   1      43.470  24.525  27.390  1.00  0.00     0.031 A 
ATOM     35  C   UNL A   1      42.529  25.561  27.935  1.00  0.00     0.074 A 
ATOM     36  C   UNL A   1      44.745  24.851  27.101  1.00  0.00     0.049 A 
ATOM     37  N   UNL A   1      42.723  26.841  28.124  1.00  0.00    -0.248 NA
ATOM     38  C   UNL A   1      41.177  25.099  28.283  1.00  0.00     0.031 C 
ATOM     39  C   UNL A   1      45.747  23.942  26.545  1.00  0.00     0.029 A 
ATOM     40  N   UNL A   1      45.408  26.049  27.212  1.00  0.00    -0.354 N 
ATOM     41  C   UNL A   1      41.513  27.339  28.588  1.00  0.00     0.074 A 
ATOM     42  C   UNL A   1      40.579  26.235  28.608  1.00  0.00     0.031 C 
ATOM     43  C   UNL A   1      46.898  24.611  26.370  1.00  0.00     0.029 A 
ATOM     44  C   UNL A   1      46.703  26.005  26.755  1.00  0.00     0.049 A 
ATOM     45  H   UNL A   1      44.995  26.861  27.585  1.00  0.00     0.167 HD
ATOM     46  C   UNL A   1      41.214  28.601  28.976  1.00  0.00     0.037 A 
ATOM     47  C   UNL A   1      47.620  26.986  26.637  1.00  0.00     0.037 A 
ATOM     48  C   UNL A   1      42.158  29.687  28.982  1.00  0.00     0.049 A 
ATOM     49  C   UNL A   1      47.258  28.385  27.058  1.00  0.00     0.074 A 
ATOM     50  C   UNL A   1      41.969  30.991  29.407  1.00  0.00     0.029 A 
ATOM     51  N   UNL A   1      43.469  29.596  28.540  1.00  0.00    -0.354 N 
ATOM     52  N   UNL A   1      46.126  28.837  27.542  1.00  0.00    -0.248 NA
ATOM     53  C   UNL A   1      48.300  29.413  26.921  1.00  0.00     0.031 C 
ATOM     54  C   UNL A   1      43.152  31.698  29.182  1.00  0.00     0.029 A 
ATOM     55  C   UNL A   1      44.096  30.825  28.667  1.00  0.00     0.049 A 
ATOM     56  H   UNL A   1      43.892  28.779  28.188  1.00  0.00     0.167 HD
ATOM     57  C   UNL A   1      46.330  30.185  27.801  1.00  0.00     0.074 A 
ATOM     58  C   UNL A   1      47.696  30.482  27.421  1.00  0.00     0.031 C 
ATOM     59  C   UNL A   1      45.465  31.094  28.312  1.00  0.00     0.037 A 
BRANCH  46  60
ATOM     60  C   UNL A   1      39.810  28.877  29.424  1.00  0.00     0.064 A 
ATOM     61  C   UNL A   1      38.833  29.353  28.536  1.00  0.00     0.173 A 
ATOM     62  C   UNL A   1      39.425  28.629  30.750  1.00  0.00     0.173 A 
ATOM     63  F   UNL A   1      39.153  29.616  27.260  1.00  0.00    -0.203 F 
ATOM     64  C   UNL A   1      37.532  29.598  28.965  1.00  0.00     0.198 A 
ATOM     65  C   UNL A   1      38.115  28.845  31.168  1.00  0.00     0.198 A 
ATOM     66  F   UNL A   1      40.317  28.167  31.639  1.00  0.00    -0.203 F 
ATOM     67  F   UNL A   1      36.630  30.101  28.111  1.00  0.00    -0.200 F 
ATOM     68  C   UNL A   1      37.172  29.338  30.280  1.00  0.00     0.200 A 
ATOM     69  F   UNL A   1      37.764  28.579  32.435  1.00  0.00    -0.200 F 
ATOM     70  F   UNL A   1      35.917  29.567  30.689  1.00  0.00    -0.200 F 
ENDBRANCH  46  60
BRANCH  47  71
ATOM     71  C   UNL A   1      48.974  26.677  26.108  1.00  0.00     0.064 A 
ATOM     72  C   UNL A   1      49.972  26.162  26.945  1.00  0.00     0.173 A 
ATOM     73  C   UNL A   1      49.301  26.892  24.761  1.00  0.00     0.173 A 
ATOM     74  F   UNL A   1      49.715  25.960  28.246  1.00  0.00    -0.203 F 
ATOM     75  C   UNL A   1      51.250  25.892  26.463  1.00  0.00     0.198 A 
ATOM     76  C   UNL A   1      50.571  26.595  24.272  1.00  0.00     0.198 A 
ATOM     77  F   UNL A   1      48.380  27.380  23.915  1.00  0.00    -0.203 F 
ATOM     78  F   UNL A   1      52.198  25.442  27.296  1.00  0.00    -0.200 F 
ATOM     79  C   UNL A   1      51.548  26.102  25.124  1.00  0.00     0.200 A 
ATOM     80  F   UNL A   1      50.850  26.787  22.975  1.00  0.00    -0.200 F 
ATOM     81  F   UNL A   1      52.776  25.839  24.659  1.00  0.00    -0.200 F 
ENDBRANCH  47  71
BRANCH  59  82
ATOM     82  C   UNL A   1      45.975  32.484  28.555  1.00  0.00     0.064 A 
ATOM     83  C   UNL A   1      46.613  32.839  29.750  1.00  0.00     0.173 A 
ATOM     84  C   UNL A   1      45.895  33.448  27.537  1.00  0.00     0.173 A 
ATOM     85  F   UNL A   1      46.702  31.956  30.757  1.00  0.00    -0.203 F 
ATOM     86  C   UNL A   1      47.150  34.112  29.922  1.00  0.00     0.198 A 
ATOM     87  C   UNL A   1      46.455  34.711  27.703  1.00  0.00     0.198 A 
ATOM     88  F   UNL A   1      45.298  33.154  26.373  1.00  0.00    -0.203 F 
ATOM     89  F   UNL A   1      47.732  34.441  31.083  1.00  0.00    -0.200 F 
ATOM     90  C   UNL A   1      47.080  35.043  28.895  1.00  0.00     0.200 A 
ATOM     91  F   UNL A   1      46.401  35.603  26.704  1.00  0.00    -0.200 F 
ATOM     92  F   UNL A   1      47.615  36.261  29.056  1.00  0.00    -0.200 F 
ENDBRANCH  59  82
ENDBRANCH  33  34
ENDBRANCH  25  28
ENDBRANCH  23  24
ENDBRANCH  22  23
ENDBRANCH   1  22
TORSDOF 14
ENDMDL
