MODEL 1
REMARK VINA RESULT:     -12.7      0.000      0.000
REMARK SMILES C[C@H](Oc1ccccc1Cl)C(=O)N1CCCC[C@H]1C(=O)NCCCCNC(=O)c1ccc(-c2c3nc(c(-c4c(F)c(F)c(F)c(F)c4F)c4ccc([nH]4)c(-c4c(F)c(F)c(F)c(F)c4F)c4nc(c(-c5c(F)c(F)c(F)c(F)c5F)c5ccc2[nH]5)C=C4)C=C3)cc1
REMARK SMILES IDX 22 1 21 2 19 3 20 4 18 6 13 7 14 8 15 9 17 10 16 11 11 12
REMARK SMILES IDX 12 13 2 14 1 15 3 16 4 17 5 18 9 19 6 20 8 21 10 22 7 23
REMARK SMILES IDX 23 24 24 25 25 26 26 27 27 28 28 30 29 31 30 32 91 33 31 34
REMARK SMILES IDX 90 35 32 36 33 37 34 38 84 39 35 40 89 41 83 42 85 43 36 44
REMARK SMILES IDX 88 45 82 46 81 47 37 49 69 50 49 51 68 52 50 53 53 54 67 55
REMARK SMILES IDX 86 56 51 57 52 58 66 60 87 61 54 62 38 63 39 64 47 65 40 66
REMARK SMILES IDX 41 67 45 68 48 69 42 70 43 71 46 72 44 73 70 74 71 75 79 76
REMARK SMILES IDX 72 77 73 78 77 79 80 80 74 81 75 82 78 83 76 84 55 85 56 86
REMARK SMILES IDX 64 87 57 88 58 89 62 90 65 91 59 92 60 93 63 94 61 95
REMARK H PARENT 21 5 26 29 85 48 53 59
REMARK Flexibility Score: inf
ROOT
ATOM      1  C   UNL A   1      31.746  30.104  25.108  1.00  0.00     0.116 C 
ENDROOT
BRANCH   1   2
ATOM      2  N   UNL A   1      33.087  29.721  24.710  1.00  0.00    -0.354 N 
ATOM      3  C   UNL A   1      33.567  28.489  24.356  1.00  0.00     0.242 C 
ATOM      4  O   UNL A   1      34.741  28.430  23.983  1.00  0.00    -0.273 OA
ATOM      5  H   UNL A   1      33.747  30.453  24.693  1.00  0.00     0.163 HD
BRANCH   3   6
ATOM      6  C   UNL A   1      32.658  27.242  24.482  1.00  0.00     0.174 C 
ATOM      7  N   UNL A   1      32.360  26.571  23.200  1.00  0.00    -0.327 N 
ATOM      8  C   UNL A   1      33.436  25.767  22.617  1.00  0.00     0.120 C 
ATOM      9  C   UNL A   1      34.037  24.780  23.608  1.00  0.00     0.022 C 
ATOM     10  C   UNL A   1      33.234  26.227  25.483  1.00  0.00     0.035 C 
ATOM     11  C   UNL A   1      34.425  25.464  24.913  1.00  0.00     0.004 C 
BRANCH   7  12
ATOM     12  C   UNL A   1      31.161  26.682  22.497  1.00  0.00     0.264 C 
ATOM     13  O   UNL A   1      31.101  26.407  21.293  1.00  0.00    -0.271 OA
BRANCH  12  14
ATOM     14  C   UNL A   1      29.947  27.382  23.173  1.00  0.00     0.259 C 
ATOM     15  C   UNL A   1      29.203  26.260  23.909  1.00  0.00     0.064 C 
BRANCH  14  16
ATOM     16  O   UNL A   1      29.201  28.162  22.246  1.00  0.00    -0.479 OA
BRANCH  16  17
ATOM     17  C   UNL A   1      28.837  29.462  22.444  1.00  0.00     0.139 A 
ATOM     18  C   UNL A   1      29.560  30.582  22.035  1.00  0.00     0.048 A 
ATOM     19  C   UNL A   1      27.648  29.677  23.168  1.00  0.00     0.083 A 
ATOM     20  C   UNL A   1      29.190  31.867  22.453  1.00  0.00     0.004 A 
ATOM     21  C   UNL A   1      27.273  30.960  23.582  1.00  0.00     0.024 A 
ATOM     22  Cl  UNL A   1      26.577  28.373  23.555  1.00  0.00    -0.080 Cl
ATOM     23  C   UNL A   1      28.062  32.055  23.246  1.00  0.00     0.002 A 
ENDBRANCH  16  17
ENDBRANCH  14  16
ENDBRANCH  12  14
ENDBRANCH   7  12
ENDBRANCH   3   6
ENDBRANCH   1   2
BRANCH   1  24
ATOM     24  C   UNL A   1      31.660  30.563  26.562  1.00  0.00     0.023 C 
BRANCH  24  25
ATOM     25  C   UNL A   1      31.466  32.064  26.760  1.00  0.00     0.023 C 
BRANCH  25  26
ATOM     26  C   UNL A   1      32.669  32.805  27.327  1.00  0.00     0.116 C 
BRANCH  26  27
ATOM     27  N   UNL A   1      32.386  34.199  27.637  1.00  0.00    -0.352 N 
ATOM     28  C   UNL A   1      32.980  35.018  28.568  1.00  0.00     0.251 C 
ATOM     29  H   UNL A   1      31.666  34.612  27.108  1.00  0.00     0.163 HD
ATOM     30  O   UNL A   1      32.523  36.136  28.787  1.00  0.00    -0.269 OA
BRANCH  28  31
ATOM     31  C   UNL A   1      34.153  34.538  29.330  1.00  0.00     0.039 A 
ATOM     32  C   UNL A   1      33.952  33.948  30.580  1.00  0.00     0.014 A 
ATOM     33  C   UNL A   1      35.444  34.654  28.808  1.00  0.00     0.014 A 
ATOM     34  C   UNL A   1      35.037  33.406  31.273  1.00  0.00     0.010 A 
ATOM     35  C   UNL A   1      36.511  34.043  29.461  1.00  0.00     0.010 A 
ATOM     36  C   UNL A   1      36.320  33.412  30.701  1.00  0.00    -0.014 A 
BRANCH  36  37
ATOM     37  C   UNL A   1      37.476  32.775  31.384  1.00  0.00     0.031 A 
ATOM     38  C   UNL A   1      38.182  31.611  30.742  1.00  0.00     0.074 A 
ATOM     39  C   UNL A   1      37.853  33.200  32.606  1.00  0.00     0.049 A 
ATOM     40  N   UNL A   1      39.140  30.857  31.217  1.00  0.00    -0.248 NA
ATOM     41  C   UNL A   1      37.733  31.230  29.392  1.00  0.00     0.031 C 
ATOM     42  C   UNL A   1      37.229  34.294  33.353  1.00  0.00     0.029 A 
ATOM     43  N   UNL A   1      38.846  32.753  33.445  1.00  0.00    -0.354 N 
ATOM     44  C   UNL A   1      39.406  29.916  30.231  1.00  0.00     0.074 A 
ATOM     45  C   UNL A   1      38.465  30.152  29.156  1.00  0.00     0.031 C 
ATOM     46  C   UNL A   1      37.859  34.441  34.529  1.00  0.00     0.029 A 
ATOM     47  C   UNL A   1      38.903  33.426  34.642  1.00  0.00     0.049 A 
ATOM     48  H   UNL A   1      39.459  32.020  33.209  1.00  0.00     0.167 HD
ATOM     49  C   UNL A   1      40.368  28.963  30.207  1.00  0.00     0.037 A 
ATOM     50  C   UNL A   1      39.693  33.233  35.715  1.00  0.00     0.037 A 
ATOM     51  C   UNL A   1      41.311  28.738  31.270  1.00  0.00     0.049 A 
ATOM     52  C   UNL A   1      40.729  32.138  35.675  1.00  0.00     0.074 A 
ATOM     53  C   UNL A   1      42.334  27.808  31.331  1.00  0.00     0.029 A 
ATOM     54  N   UNL A   1      41.350  29.455  32.456  1.00  0.00    -0.354 N 
ATOM     55  N   UNL A   1      41.002  31.290  34.714  1.00  0.00    -0.248 NA
ATOM     56  C   UNL A   1      41.573  31.980  36.869  1.00  0.00     0.031 C 
ATOM     57  C   UNL A   1      42.966  27.934  32.572  1.00  0.00     0.029 A 
ATOM     58  C   UNL A   1      42.374  28.979  33.260  1.00  0.00     0.049 A 
ATOM     59  H   UNL A   1      40.741  30.191  32.692  1.00  0.00     0.167 HD
ATOM     60  C   UNL A   1      42.070  30.528  35.171  1.00  0.00     0.074 A 
ATOM     61  C   UNL A   1      42.408  31.024  36.487  1.00  0.00     0.031 C 
ATOM     62  C   UNL A   1      42.715  29.506  34.556  1.00  0.00     0.037 A 
BRANCH  49  63
ATOM     63  C   UNL A   1      40.467  28.103  28.981  1.00  0.00     0.064 A 
ATOM     64  C   UNL A   1      39.738  26.910  28.867  1.00  0.00     0.173 A 
ATOM     65  C   UNL A   1      41.245  28.504  27.884  1.00  0.00     0.173 A 
ATOM     66  F   UNL A   1      38.988  26.476  29.892  1.00  0.00    -0.203 F 
ATOM     67  C   UNL A   1      39.799  26.139  27.709  1.00  0.00     0.198 A 
ATOM     68  C   UNL A   1      41.279  27.747  26.715  1.00  0.00     0.198 A 
ATOM     69  F   UNL A   1      41.958  29.639  27.938  1.00  0.00    -0.203 F 
ATOM     70  F   UNL A   1      39.125  24.983  27.639  1.00  0.00    -0.200 F 
ATOM     71  C   UNL A   1      40.560  26.564  26.631  1.00  0.00     0.200 A 
ATOM     72  F   UNL A   1      42.003  28.165  25.668  1.00  0.00    -0.200 F 
ATOM     73  F   UNL A   1      40.605  25.830  25.510  1.00  0.00    -0.200 F 
ENDBRANCH  49  63
BRANCH  50  74
ATOM     74  C   UNL A   1      39.546  34.086  36.927  1.00  0.00     0.064 A 
ATOM     75  C   UNL A   1      40.213  35.314  37.032  1.00  0.00     0.173 A 
ATOM     76  C   UNL A   1      38.782  33.665  38.025  1.00  0.00     0.173 A 
ATOM     77  F   UNL A   1      40.973  35.753  36.018  1.00  0.00    -0.203 F 
ATOM     78  C   UNL A   1      40.158  36.067  38.204  1.00  0.00     0.198 A 
ATOM     79  C   UNL A   1      38.697  34.437  39.182  1.00  0.00     0.198 A 
ATOM     80  F   UNL A   1      38.118  32.501  37.976  1.00  0.00    -0.203 F 
ATOM     81  F   UNL A   1      40.866  37.201  38.303  1.00  0.00    -0.200 F 
ATOM     82  C   UNL A   1      39.397  35.629  39.277  1.00  0.00     0.200 A 
ATOM     83  F   UNL A   1      37.948  34.017  40.211  1.00  0.00    -0.200 F 
ATOM     84  F   UNL A   1      39.352  36.348  40.407  1.00  0.00    -0.200 F 
ENDBRANCH  50  74
BRANCH  62  85
ATOM     85  C   UNL A   1      43.887  28.896  35.270  1.00  0.00     0.064 A 
ATOM     86  C   UNL A   1      43.737  27.822  36.159  1.00  0.00     0.173 A 
ATOM     87  C   UNL A   1      45.186  29.368  35.024  1.00  0.00     0.173 A 
ATOM     88  F   UNL A   1      42.516  27.344  36.439  1.00  0.00    -0.203 F 
ATOM     89  C   UNL A   1      44.840  27.262  36.798  1.00  0.00     0.198 A 
ATOM     90  C   UNL A   1      46.290  28.783  35.637  1.00  0.00     0.198 A 
ATOM     91  F   UNL A   1      45.386  30.387  34.175  1.00  0.00    -0.203 F 
ATOM     92  F   UNL A   1      44.668  26.272  37.683  1.00  0.00    -0.200 F 
ATOM     93  C   UNL A   1      46.116  27.737  36.530  1.00  0.00     0.200 A 
ATOM     94  F   UNL A   1      47.523  29.233  35.364  1.00  0.00    -0.200 F 
ATOM     95  F   UNL A   1      47.177  27.191  37.139  1.00  0.00    -0.200 F 
ENDBRANCH  62  85
ENDBRANCH  36  37
ENDBRANCH  28  31
ENDBRANCH  26  27
ENDBRANCH  25  26
ENDBRANCH  24  25
ENDBRANCH   1  24
TORSDOF 15
ENDMDL
MODEL 2
REMARK VINA RESULT:     -12.5      1.773      3.564
REMARK SMILES C[C@H](Oc1ccccc1Cl)C(=O)N1CCCC[C@H]1C(=O)NCCCCNC(=O)c1ccc(-c2c3nc(c(-c4c(F)c(F)c(F)c(F)c4F)c4ccc([nH]4)c(-c4c(F)c(F)c(F)c(F)c4F)c4nc(c(-c5c(F)c(F)c(F)c(F)c5F)c5ccc2[nH]5)C=C4)C=C3)cc1
REMARK SMILES IDX 22 1 21 2 19 3 20 4 18 6 13 7 14 8 15 9 17 10 16 11 11 12
REMARK SMILES IDX 12 13 2 14 1 15 3 16 4 17 5 18 9 19 6 20 8 21 10 22 7 23
REMARK SMILES IDX 23 24 24 25 25 26 26 27 27 28 28 30 29 31 30 32 91 33 31 34
REMARK SMILES IDX 90 35 32 36 33 37 34 38 84 39 35 40 89 41 83 42 85 43 36 44
REMARK SMILES IDX 88 45 82 46 81 47 37 49 69 50 49 51 68 52 50 53 53 54 67 55
REMARK SMILES IDX 86 56 51 57 52 58 66 60 87 61 54 62 38 63 39 64 47 65 40 66
REMARK SMILES IDX 41 67 45 68 48 69 42 70 43 71 46 72 44 73 70 74 71 75 79 76
REMARK SMILES IDX 72 77 73 78 77 79 80 80 74 81 75 82 78 83 76 84 55 85 56 86
REMARK SMILES IDX 64 87 57 88 58 89 62 90 65 91 59 92 60 93 63 94 61 95
REMARK H PARENT 21 5 26 29 85 48 53 59
REMARK Flexibility Score: inf
ROOT
ATOM      1  C   UNL A   1      32.426  30.042  25.355  1.00  0.00     0.116 C 
ENDROOT
BRANCH   1   2
ATOM      2  N   UNL A   1      31.510  29.579  24.331  1.00  0.00    -0.354 N 
ATOM      3  C   UNL A   1      31.334  28.316  23.833  1.00  0.00     0.242 C 
ATOM      4  O   UNL A   1      30.431  28.158  23.007  1.00  0.00    -0.273 OA
ATOM      5  H   UNL A   1      30.931  30.272  23.938  1.00  0.00     0.163 HD
BRANCH   3   6
ATOM      6  C   UNL A   1      32.283  27.174  24.274  1.00  0.00     0.174 C 
ATOM      7  N   UNL A   1      31.642  25.846  24.356  1.00  0.00    -0.327 N 
ATOM      8  C   UNL A   1      31.370  25.170  23.086  1.00  0.00     0.120 C 
ATOM      9  C   UNL A   1      32.587  25.120  22.173  1.00  0.00     0.022 C 
ATOM     10  C   UNL A   1      33.528  27.101  23.376  1.00  0.00     0.035 C 
ATOM     11  C   UNL A   1      33.221  26.495  22.011  1.00  0.00     0.004 C 
BRANCH   7  12
ATOM     12  C   UNL A   1      31.246  25.218  25.538  1.00  0.00     0.264 C 
ATOM     13  O   UNL A   1      30.554  25.811  26.372  1.00  0.00    -0.271 OA
BRANCH  12  14
ATOM     14  C   UNL A   1      31.877  23.847  25.917  1.00  0.00     0.259 C 
ATOM     15  C   UNL A   1      30.869  23.200  26.875  1.00  0.00     0.064 C 
BRANCH  14  16
ATOM     16  O   UNL A   1      33.217  23.988  26.373  1.00  0.00    -0.479 OA
BRANCH  16  17
ATOM     17  C   UNL A   1      34.307  23.447  25.756  1.00  0.00     0.139 A 
ATOM     18  C   UNL A   1      35.016  24.023  24.702  1.00  0.00     0.048 A 
ATOM     19  C   UNL A   1      34.711  22.173  26.200  1.00  0.00     0.083 A 
ATOM     20  C   UNL A   1      36.002  23.299  24.020  1.00  0.00     0.004 A 
ATOM     21  C   UNL A   1      35.700  21.450  25.524  1.00  0.00     0.024 A 
ATOM     22  Cl  UNL A   1      34.031  21.452  27.619  1.00  0.00    -0.080 Cl
ATOM     23  C   UNL A   1      36.328  22.005  24.414  1.00  0.00     0.002 A 
ENDBRANCH  16  17
ENDBRANCH  14  16
ENDBRANCH  12  14
ENDBRANCH   7  12
ENDBRANCH   3   6
ENDBRANCH   1   2
BRANCH   1  24
ATOM     24  C   UNL A   1      31.719  30.539  26.613  1.00  0.00     0.023 C 
BRANCH  24  25
ATOM     25  C   UNL A   1      31.551  32.053  26.710  1.00  0.00     0.023 C 
BRANCH  25  26
ATOM     26  C   UNL A   1      32.743  32.803  27.288  1.00  0.00     0.116 C 
BRANCH  26  27
ATOM     27  N   UNL A   1      32.438  34.185  27.626  1.00  0.00    -0.352 N 
ATOM     28  C   UNL A   1      33.003  34.987  28.588  1.00  0.00     0.251 C 
ATOM     29  H   UNL A   1      31.726  34.604  27.090  1.00  0.00     0.163 HD
ATOM     30  O   UNL A   1      32.530  36.095  28.825  1.00  0.00    -0.269 OA
BRANCH  28  31
ATOM     31  C   UNL A   1      34.164  34.501  29.365  1.00  0.00     0.039 A 
ATOM     32  C   UNL A   1      33.948  33.945  30.627  1.00  0.00     0.014 A 
ATOM     33  C   UNL A   1      35.458  34.577  28.843  1.00  0.00     0.014 A 
ATOM     34  C   UNL A   1      35.020  33.398  31.336  1.00  0.00     0.010 A 
ATOM     35  C   UNL A   1      36.511  33.959  29.513  1.00  0.00     0.010 A 
ATOM     36  C   UNL A   1      36.304  33.363  30.768  1.00  0.00    -0.014 A 
BRANCH  36  37
ATOM     37  C   UNL A   1      37.445  32.717  31.468  1.00  0.00     0.031 A 
ATOM     38  C   UNL A   1      38.130  31.527  30.853  1.00  0.00     0.074 A 
ATOM     39  C   UNL A   1      37.825  33.160  32.683  1.00  0.00     0.049 A 
ATOM     40  N   UNL A   1      39.072  30.765  31.347  1.00  0.00    -0.248 NA
ATOM     41  C   UNL A   1      37.680  31.128  29.509  1.00  0.00     0.031 C 
ATOM     42  C   UNL A   1      37.220  34.281  33.405  1.00  0.00     0.029 A 
ATOM     43  N   UNL A   1      38.806  32.712  33.534  1.00  0.00    -0.354 N 
ATOM     44  C   UNL A   1      39.324  29.799  30.381  1.00  0.00     0.074 A 
ATOM     45  C   UNL A   1      38.392  30.031  29.299  1.00  0.00     0.031 C 
ATOM     46  C   UNL A   1      37.848  34.440  34.580  1.00  0.00     0.029 A 
ATOM     47  C   UNL A   1      38.871  33.408  34.718  1.00  0.00     0.049 A 
ATOM     48  H   UNL A   1      39.406  31.962  33.317  1.00  0.00     0.167 HD
ATOM     49  C   UNL A   1      40.267  28.828  30.381  1.00  0.00     0.037 A 
ATOM     50  C   UNL A   1      39.654  33.222  35.798  1.00  0.00     0.037 A 
ATOM     51  C   UNL A   1      41.202  28.606  31.453  1.00  0.00     0.049 A 
ATOM     52  C   UNL A   1      40.669  32.107  35.785  1.00  0.00     0.074 A 
ATOM     53  C   UNL A   1      42.206  27.658  31.537  1.00  0.00     0.029 A 
ATOM     54  N   UNL A   1      41.250  29.346  32.624  1.00  0.00    -0.354 N 
ATOM     55  N   UNL A   1      40.929  31.233  34.843  1.00  0.00    -0.248 NA
ATOM     56  C   UNL A   1      41.505  31.956  36.985  1.00  0.00     0.031 C 
ATOM     57  C   UNL A   1      42.836  27.798  32.778  1.00  0.00     0.029 A 
ATOM     58  C   UNL A   1      42.261  28.868  33.442  1.00  0.00     0.049 A 
ATOM     59  H   UNL A   1      40.655  30.099  32.842  1.00  0.00     0.167 HD
ATOM     60  C   UNL A   1      41.980  30.461  35.320  1.00  0.00     0.074 A 
ATOM     61  C   UNL A   1      42.322  30.978  36.626  1.00  0.00     0.031 C 
ATOM     62  C   UNL A   1      42.607  29.414  34.729  1.00  0.00     0.037 A 
BRANCH  49  63
ATOM     63  C   UNL A   1      40.354  27.941  29.173  1.00  0.00     0.064 A 
ATOM     64  C   UNL A   1      39.631  26.741  29.096  1.00  0.00     0.173 A 
ATOM     65  C   UNL A   1      41.115  28.321  28.057  1.00  0.00     0.173 A 
ATOM     66  F   UNL A   1      38.898  26.326  30.141  1.00  0.00    -0.203 F 
ATOM     67  C   UNL A   1      39.680  25.946  27.955  1.00  0.00     0.198 A 
ATOM     68  C   UNL A   1      41.137  27.539  26.905  1.00  0.00     0.198 A 
ATOM     69  F   UNL A   1      41.822  29.461  28.076  1.00  0.00    -0.203 F 
ATOM     70  F   UNL A   1      39.012  24.784  27.920  1.00  0.00    -0.200 F 
ATOM     71  C   UNL A   1      40.424  26.350  26.857  1.00  0.00     0.200 A 
ATOM     72  F   UNL A   1      41.844  27.938  25.839  1.00  0.00    -0.200 F 
ATOM     73  F   UNL A   1      40.458  25.592  25.753  1.00  0.00    -0.200 F 
ENDBRANCH  49  63
BRANCH  50  74
ATOM     74  C   UNL A   1      39.518  34.101  36.992  1.00  0.00     0.064 A 
ATOM     75  C   UNL A   1      40.226  35.309  37.084  1.00  0.00     0.173 A 
ATOM     76  C   UNL A   1      38.724  33.728  38.086  1.00  0.00     0.173 A 
ATOM     77  F   UNL A   1      41.015  35.702  36.074  1.00  0.00    -0.203 F 
ATOM     78  C   UNL A   1      40.179  36.085  38.241  1.00  0.00     0.198 A 
ATOM     79  C   UNL A   1      38.649  34.524  39.227  1.00  0.00     0.198 A 
ATOM     80  F   UNL A   1      38.022  32.586  38.049  1.00  0.00    -0.203 F 
ATOM     81  F   UNL A   1      40.924  37.196  38.330  1.00  0.00    -0.200 F 
ATOM     82  C   UNL A   1      39.388  35.693  39.311  1.00  0.00     0.200 A 
ATOM     83  F   UNL A   1      37.871  34.149  40.252  1.00  0.00    -0.200 F 
ATOM     84  F   UNL A   1      39.352  36.435  40.427  1.00  0.00    -0.200 F 
ENDBRANCH  50  74
BRANCH  62  85
ATOM     85  C   UNL A   1      43.765  28.797  35.459  1.00  0.00     0.064 A 
ATOM     86  C   UNL A   1      45.082  29.237  35.268  1.00  0.00     0.173 A 
ATOM     87  C   UNL A   1      43.544  27.776  36.398  1.00  0.00     0.173 A 
ATOM     88  F   UNL A   1      45.348  30.199  34.372  1.00  0.00    -0.203 F 
ATOM     89  C   UNL A   1      46.139  28.661  35.967  1.00  0.00     0.198 A 
ATOM     90  C   UNL A   1      44.598  27.227  37.122  1.00  0.00     0.198 A 
ATOM     91  F   UNL A   1      42.302  27.325  36.627  1.00  0.00    -0.203 F 
ATOM     92  F   UNL A   1      47.395  29.061  35.730  1.00  0.00    -0.200 F 
ATOM     93  C   UNL A   1      45.895  27.663  36.900  1.00  0.00     0.200 A 
ATOM     94  F   UNL A   1      44.358  26.274  38.034  1.00  0.00    -0.200 F 
ATOM     95  F   UNL A   1      46.912  27.115  37.579  1.00  0.00    -0.200 F 
ENDBRANCH  62  85
ENDBRANCH  36  37
ENDBRANCH  28  31
ENDBRANCH  26  27
ENDBRANCH  25  26
ENDBRANCH  24  25
ENDBRANCH   1  24
TORSDOF 15
ENDMDL
MODEL 3
REMARK VINA RESULT:     -12.5      1.754      3.413
REMARK SMILES C[C@H](Oc1ccccc1Cl)C(=O)N1CCCC[C@H]1C(=O)NCCCCNC(=O)c1ccc(-c2c3nc(c(-c4c(F)c(F)c(F)c(F)c4F)c4ccc([nH]4)c(-c4c(F)c(F)c(F)c(F)c4F)c4nc(c(-c5c(F)c(F)c(F)c(F)c5F)c5ccc2[nH]5)C=C4)C=C3)cc1
REMARK SMILES IDX 22 1 21 2 19 3 20 4 18 6 13 7 14 8 15 9 17 10 16 11 11 12
REMARK SMILES IDX 12 13 2 14 1 15 3 16 4 17 5 18 9 19 6 20 8 21 10 22 7 23
REMARK SMILES IDX 23 24 24 25 25 26 26 27 27 28 28 30 29 31 30 32 91 33 31 34
REMARK SMILES IDX 90 35 32 36 33 37 34 38 84 39 35 40 89 41 83 42 85 43 36 44
REMARK SMILES IDX 88 45 82 46 81 47 37 49 69 50 49 51 68 52 50 53 53 54 67 55
REMARK SMILES IDX 86 56 51 57 52 58 66 60 87 61 54 62 38 63 39 64 47 65 40 66
REMARK SMILES IDX 41 67 45 68 48 69 42 70 43 71 46 72 44 73 70 74 71 75 79 76
REMARK SMILES IDX 72 77 73 78 77 79 80 80 74 81 75 82 78 83 76 84 55 85 56 86
REMARK SMILES IDX 64 87 57 88 58 89 62 90 65 91 59 92 60 93 63 94 61 95
REMARK H PARENT 21 5 26 29 85 48 53 59
REMARK Flexibility Score: inf
ROOT
ATOM      1  C   UNL A   1      32.420  29.673  25.464  1.00  0.00     0.116 C 
ENDROOT
BRANCH   1   2
ATOM      2  N   UNL A   1      31.469  29.187  24.484  1.00  0.00    -0.354 N 
ATOM      3  C   UNL A   1      31.246  27.906  24.056  1.00  0.00     0.242 C 
ATOM      4  O   UNL A   1      30.321  27.733  23.258  1.00  0.00    -0.273 OA
ATOM      5  H   UNL A   1      30.903  29.876  24.066  1.00  0.00     0.163 HD
BRANCH   3   6
ATOM      6  C   UNL A   1      32.169  26.759  24.538  1.00  0.00     0.174 C 
ATOM      7  N   UNL A   1      31.498  25.450  24.672  1.00  0.00    -0.327 N 
ATOM      8  C   UNL A   1      31.206  24.734  23.429  1.00  0.00     0.120 C 
ATOM      9  C   UNL A   1      32.418  24.620  22.516  1.00  0.00     0.022 C 
ATOM     10  C   UNL A   1      33.409  26.623  23.640  1.00  0.00     0.035 C 
ATOM     11  C   UNL A   1      33.084  25.974  22.300  1.00  0.00     0.004 C 
BRANCH   7  12
ATOM     12  C   UNL A   1      31.092  24.877  25.877  1.00  0.00     0.264 C 
ATOM     13  O   UNL A   1      30.877  25.577  26.874  1.00  0.00    -0.271 OA
BRANCH  12  14
ATOM     14  C   UNL A   1      31.138  23.331  26.036  1.00  0.00     0.259 C 
ATOM     15  C   UNL A   1      29.903  22.982  26.876  1.00  0.00     0.064 C 
BRANCH  14  16
ATOM     16  O   UNL A   1      32.402  22.884  26.514  1.00  0.00    -0.479 OA
BRANCH  16  17
ATOM     17  C   UNL A   1      33.574  22.994  25.824  1.00  0.00     0.139 A 
ATOM     18  C   UNL A   1      34.571  23.942  26.057  1.00  0.00     0.048 A 
ATOM     19  C   UNL A   1      33.760  22.094  24.757  1.00  0.00     0.083 A 
ATOM     20  C   UNL A   1      35.647  24.083  25.171  1.00  0.00     0.004 A 
ATOM     21  C   UNL A   1      34.838  22.229  23.875  1.00  0.00     0.024 A 
ATOM     22  Cl  UNL A   1      32.687  20.760  24.502  1.00  0.00    -0.080 Cl
ATOM     23  C   UNL A   1      35.769  23.244  24.068  1.00  0.00     0.002 A 
ENDBRANCH  16  17
ENDBRANCH  14  16
ENDBRANCH  12  14
ENDBRANCH   7  12
ENDBRANCH   3   6
ENDBRANCH   1   2
BRANCH   1  24
ATOM     24  C   UNL A   1      31.753  30.296  26.689  1.00  0.00     0.023 C 
BRANCH  24  25
ATOM     25  C   UNL A   1      31.633  31.817  26.662  1.00  0.00     0.023 C 
BRANCH  25  26
ATOM     26  C   UNL A   1      32.816  32.573  27.250  1.00  0.00     0.116 C 
BRANCH  26  27
ATOM     27  N   UNL A   1      32.499  33.952  27.592  1.00  0.00    -0.352 N 
ATOM     28  C   UNL A   1      33.063  34.760  28.550  1.00  0.00     0.251 C 
ATOM     29  H   UNL A   1      31.778  34.363  27.063  1.00  0.00     0.163 HD
ATOM     30  O   UNL A   1      32.581  35.862  28.792  1.00  0.00    -0.269 OA
BRANCH  28  31
ATOM     31  C   UNL A   1      34.237  34.286  29.316  1.00  0.00     0.039 A 
ATOM     32  C   UNL A   1      34.030  33.580  30.502  1.00  0.00     0.014 A 
ATOM     33  C   UNL A   1      35.536  34.521  28.856  1.00  0.00     0.014 A 
ATOM     34  C   UNL A   1      35.122  33.046  31.191  1.00  0.00     0.010 A 
ATOM     35  C   UNL A   1      36.616  33.920  29.498  1.00  0.00     0.010 A 
ATOM     36  C   UNL A   1      36.421  33.175  30.673  1.00  0.00    -0.014 A 
BRANCH  36  37
ATOM     37  C   UNL A   1      37.590  32.551  31.345  1.00  0.00     0.031 A 
ATOM     38  C   UNL A   1      38.315  31.408  30.687  1.00  0.00     0.074 A 
ATOM     39  C   UNL A   1      37.962  32.968  32.572  1.00  0.00     0.049 A 
ATOM     40  N   UNL A   1      39.287  30.665  31.151  1.00  0.00    -0.248 NA
ATOM     41  C   UNL A   1      37.870  31.035  29.334  1.00  0.00     0.031 C 
ATOM     42  C   UNL A   1      37.320  34.041  33.333  1.00  0.00     0.029 A 
ATOM     43  N   UNL A   1      38.965  32.529  33.402  1.00  0.00    -0.354 N 
ATOM     44  C   UNL A   1      39.568  29.741  30.152  1.00  0.00     0.074 A 
ATOM     45  C   UNL A   1      38.620  29.973  29.083  1.00  0.00     0.031 C 
ATOM     46  C   UNL A   1      37.950  34.185  34.510  1.00  0.00     0.029 A 
ATOM     47  C   UNL A   1      39.012  33.188  34.607  1.00  0.00     0.049 A 
ATOM     48  H   UNL A   1      39.590  31.809  33.157  1.00  0.00     0.167 HD
ATOM     49  C   UNL A   1      40.547  28.807  30.115  1.00  0.00     0.037 A 
ATOM     50  C   UNL A   1      39.809  32.996  35.677  1.00  0.00     0.037 A 
ATOM     51  C   UNL A   1      41.497  28.585  31.173  1.00  0.00     0.049 A 
ATOM     52  C   UNL A   1      40.864  31.920  35.621  1.00  0.00     0.074 A 
ATOM     53  C   UNL A   1      42.536  27.673  31.220  1.00  0.00     0.029 A 
ATOM     54  N   UNL A   1      41.525  29.288  32.367  1.00  0.00    -0.354 N 
ATOM     55  N   UNL A   1      41.150  31.089  34.649  1.00  0.00    -0.248 NA
ATOM     56  C   UNL A   1      41.714  31.762  36.811  1.00  0.00     0.031 C 
ATOM     57  C   UNL A   1      43.169  27.795  32.462  1.00  0.00     0.029 A 
ATOM     58  C   UNL A   1      42.559  28.821  33.163  1.00  0.00     0.049 A 
ATOM     59  H   UNL A   1      40.904  30.010  32.614  1.00  0.00     0.167 HD
ATOM     60  C   UNL A   1      42.233  30.340  35.094  1.00  0.00     0.074 A 
ATOM     61  C   UNL A   1      42.564  30.827  36.415  1.00  0.00     0.031 C 
ATOM     62  C   UNL A   1      42.894  29.338  34.465  1.00  0.00     0.037 A 
BRANCH  49  63
ATOM     63  C   UNL A   1      40.658  27.963  28.878  1.00  0.00     0.064 A 
ATOM     64  C   UNL A   1      39.923  26.777  28.736  1.00  0.00     0.173 A 
ATOM     65  C   UNL A   1      41.455  28.374  27.799  1.00  0.00     0.173 A 
ATOM     66  F   UNL A   1      39.155  26.334  29.743  1.00  0.00    -0.203 F 
ATOM     67  C   UNL A   1      39.996  26.023  27.568  1.00  0.00     0.198 A 
ATOM     68  C   UNL A   1      41.502  27.634  26.620  1.00  0.00     0.198 A 
ATOM     69  F   UNL A   1      42.175  29.503  27.880  1.00  0.00    -0.203 F 
ATOM     70  F   UNL A   1      39.315  24.872  27.471  1.00  0.00    -0.200 F 
ATOM     71  C   UNL A   1      40.776  26.457  26.508  1.00  0.00     0.200 A 
ATOM     72  F   UNL A   1      42.244  28.062  25.590  1.00  0.00    -0.200 F 
ATOM     73  F   UNL A   1      40.833  25.739  25.377  1.00  0.00    -0.200 F 
ENDBRANCH  49  63
BRANCH  50  74
ATOM     74  C   UNL A   1      39.649  33.831  36.899  1.00  0.00     0.064 A 
ATOM     75  C   UNL A   1      38.844  33.405  37.965  1.00  0.00     0.173 A 
ATOM     76  C   UNL A   1      40.253  35.093  37.003  1.00  0.00     0.173 A 
ATOM     77  F   UNL A   1      38.228  32.216  37.907  1.00  0.00    -0.203 F 
ATOM     78  C   UNL A   1      38.613  34.228  39.067  1.00  0.00     0.198 A 
ATOM     79  C   UNL A   1      40.051  35.898  38.122  1.00  0.00     0.198 A 
ATOM     80  F   UNL A   1      41.038  35.546  36.015  1.00  0.00    -0.203 F 
ATOM     81  F   UNL A   1      37.779  33.826  40.036  1.00  0.00    -0.200 F 
ATOM     82  C   UNL A   1      39.219  35.472  39.145  1.00  0.00     0.200 A 
ATOM     83  F   UNL A   1      40.652  37.093  38.201  1.00  0.00    -0.200 F 
ATOM     84  F   UNL A   1      38.988  36.267  40.200  1.00  0.00    -0.200 F 
ENDBRANCH  50  74
BRANCH  62  85
ATOM     85  C   UNL A   1      44.079  28.740  35.169  1.00  0.00     0.064 A 
ATOM     86  C   UNL A   1      43.953  27.642  36.031  1.00  0.00     0.173 A 
ATOM     87  C   UNL A   1      45.367  29.251  34.940  1.00  0.00     0.173 A 
ATOM     88  F   UNL A   1      42.743  27.126  36.294  1.00  0.00    -0.203 F 
ATOM     89  C   UNL A   1      45.067  27.094  36.661  1.00  0.00     0.198 A 
ATOM     90  C   UNL A   1      46.483  28.679  35.543  1.00  0.00     0.198 A 
ATOM     91  F   UNL A   1      45.544  30.295  34.117  1.00  0.00    -0.203 F 
ATOM     92  F   UNL A   1      44.917  26.079  37.521  1.00  0.00    -0.200 F 
ATOM     93  C   UNL A   1      46.332  27.608  36.410  1.00  0.00     0.200 A 
ATOM     94  F   UNL A   1      47.705  29.166  35.287  1.00  0.00    -0.200 F 
ATOM     95  F   UNL A   1      47.404  27.073  37.010  1.00  0.00    -0.200 F 
ENDBRANCH  62  85
ENDBRANCH  36  37
ENDBRANCH  28  31
ENDBRANCH  26  27
ENDBRANCH  25  26
ENDBRANCH  24  25
ENDBRANCH   1  24
TORSDOF 15
ENDMDL
