MODEL 1
REMARK VINA RESULT:     -13.0      0.000      0.000
REMARK SMILES O=C(NCCCCNC(=O)[C@H]1CC=CC[C@@H]1C(=O)NC1CCCCC1)c1ccc(-c2c3nc(c(-c4c(F)c(F)c(F)c(F)c4F)c4ccc([nH]4)c(-c4c(F)c(F)c(F)c(F)c4F)c4nc(c(-c5c(F)c(F)c(F)c(F)c5F)c5ccc2[nH]5)C=C4)C=C3)cc1
REMARK SMILES IDX 5 1 4 2 3 3 1 4 2 5 26 7 27 8 88 9 28 10 87 11 29 12 30 13
REMARK SMILES IDX 31 14 81 15 32 16 86 17 80 18 82 19 33 20 85 21 79 22 78 23
REMARK SMILES IDX 34 25 66 26 46 27 65 28 47 29 50 30 64 31 83 32 48 33 49 34
REMARK SMILES IDX 63 36 84 37 51 38 35 39 36 40 44 41 37 42 38 43 42 44 45 45
REMARK SMILES IDX 39 46 40 47 43 48 41 49 67 50 68 51 76 52 69 53 70 54 74 55
REMARK SMILES IDX 77 56 71 57 72 58 75 59 73 60 52 61 53 62 61 63 54 64 55 65
REMARK SMILES IDX 59 66 62 67 56 68 57 69 60 70 58 71 6 72 7 73 8 74 9 75
REMARK SMILES IDX 10 77 11 78 12 79 16 80 13 81 15 82 14 83 17 84 18 85 19 86
REMARK SMILES IDX 20 88 21 89 25 90 22 91 24 92 23 93
REMARK H PARENT 3 6 82 24 50 35 8 76 19 87
REMARK Flexibility Score: inf
ROOT
ATOM      1  C   UNL A   1      31.846  31.866  27.064  1.00  0.00     0.023 C 
ENDROOT
BRANCH   1   2
ATOM      2  C   UNL A   1      32.946  32.849  27.456  1.00  0.00     0.116 C 
BRANCH   2   3
ATOM      3  N   UNL A   1      32.478  34.204  27.715  1.00  0.00    -0.352 N 
ATOM      4  O   UNL A   1      32.472  36.203  28.788  1.00  0.00    -0.269 OA
ATOM      5  C   UNL A   1      32.999  35.112  28.608  1.00  0.00     0.251 C 
ATOM      6  H   UNL A   1      31.699  34.503  27.193  1.00  0.00     0.163 HD
BRANCH   5   7
ATOM      7  C   UNL A   1      34.181  34.711  29.392  1.00  0.00     0.039 A 
ATOM      8  C   UNL A   1      35.457  34.841  28.843  1.00  0.00     0.014 A 
ATOM      9  C   UNL A   1      33.993  34.093  30.631  1.00  0.00     0.014 A 
ATOM     10  C   UNL A   1      36.526  34.200  29.452  1.00  0.00     0.010 A 
ATOM     11  C   UNL A   1      35.085  33.518  31.281  1.00  0.00     0.010 A 
ATOM     12  C   UNL A   1      36.348  33.519  30.668  1.00  0.00    -0.014 A 
BRANCH  12  13
ATOM     13  C   UNL A   1      37.502  32.806  31.269  1.00  0.00     0.031 A 
ATOM     14  C   UNL A   1      37.953  33.112  32.671  1.00  0.00     0.074 A 
ATOM     15  C   UNL A   1      38.104  31.833  30.559  1.00  0.00     0.049 A 
ATOM     16  N   UNL A   1      38.912  32.556  33.369  1.00  0.00    -0.248 NA
ATOM     17  C   UNL A   1      37.243  34.185  33.383  1.00  0.00     0.031 C 
ATOM     18  C   UNL A   1      37.751  31.454  29.191  1.00  0.00     0.029 A 
ATOM     19  N   UNL A   1      39.112  30.970  30.897  1.00  0.00    -0.354 N 
ATOM     20  C   UNL A   1      38.942  33.231  34.582  1.00  0.00     0.074 A 
ATOM     21  C   UNL A   1      37.914  34.247  34.526  1.00  0.00     0.031 C 
ATOM     22  C   UNL A   1      38.488  30.396  28.826  1.00  0.00     0.029 A 
ATOM     23  C   UNL A   1      39.401  30.058  29.912  1.00  0.00     0.049 A 
ATOM     24  H   UNL A   1      39.583  31.000  31.761  1.00  0.00     0.167 HD
ATOM     25  C   UNL A   1      39.754  33.017  35.646  1.00  0.00     0.037 A 
ATOM     26  C   UNL A   1      40.303  29.061  29.888  1.00  0.00     0.037 A 
ATOM     27  C   UNL A   1      40.750  31.978  35.712  1.00  0.00     0.049 A 
ATOM     28  C   UNL A   1      41.172  28.834  31.090  1.00  0.00     0.074 A 
ATOM     29  C   UNL A   1      41.598  31.658  36.759  1.00  0.00     0.029 A 
ATOM     30  N   UNL A   1      41.027  31.085  34.687  1.00  0.00    -0.354 N 
ATOM     31  N   UNL A   1      41.180  29.469  32.236  1.00  0.00    -0.248 NA
ATOM     32  C   UNL A   1      42.160  27.751  30.993  1.00  0.00     0.031 C 
ATOM     33  C   UNL A   1      42.408  30.591  36.356  1.00  0.00     0.029 A 
ATOM     34  C   UNL A   1      42.040  30.221  35.073  1.00  0.00     0.049 A 
ATOM     35  H   UNL A   1      40.571  31.066  33.815  1.00  0.00     0.167 HD
ATOM     36  C   UNL A   1      42.160  28.858  33.003  1.00  0.00     0.074 A 
ATOM     37  C   UNL A   1      42.713  27.786  32.198  1.00  0.00     0.031 C 
ATOM     38  C   UNL A   1      42.571  29.159  34.258  1.00  0.00     0.037 A 
BRANCH  25  39
ATOM     39  C   UNL A   1      39.619  33.937  36.823  1.00  0.00     0.064 A 
ATOM     40  C   UNL A   1      38.854  33.593  37.946  1.00  0.00     0.173 A 
ATOM     41  C   UNL A   1      40.306  35.161  36.847  1.00  0.00     0.173 A 
ATOM     42  F   UNL A   1      38.166  32.440  37.968  1.00  0.00    -0.203 F 
ATOM     43  C   UNL A   1      38.765  34.448  39.043  1.00  0.00     0.198 A 
ATOM     44  C   UNL A   1      40.235  36.003  37.954  1.00  0.00     0.198 A 
ATOM     45  F   UNL A   1      41.055  35.536  35.799  1.00  0.00    -0.203 F 
ATOM     46  F   UNL A   1      37.999  34.115  40.091  1.00  0.00    -0.200 F 
ATOM     47  C   UNL A   1      39.461  35.648  39.049  1.00  0.00     0.200 A 
ATOM     48  F   UNL A   1      40.915  37.158  37.962  1.00  0.00    -0.200 F 
ATOM     49  F   UNL A   1      39.381  36.466  40.107  1.00  0.00    -0.200 F 
ENDBRANCH  25  39
BRANCH  26  50
ATOM     50  C   UNL A   1      40.406  28.197  28.687  1.00  0.00     0.064 A 
ATOM     51  C   UNL A   1      41.219  28.564  27.606  1.00  0.00     0.173 A 
ATOM     52  C   UNL A   1      39.721  26.976  28.608  1.00  0.00     0.173 A 
ATOM     53  F   UNL A   1      41.880  29.731  27.631  1.00  0.00    -0.203 F 
ATOM     54  C   UNL A   1      41.335  27.744  26.486  1.00  0.00     0.198 A 
ATOM     55  C   UNL A   1      39.859  26.146  27.499  1.00  0.00     0.198 A 
ATOM     56  F   UNL A   1      38.936  26.580  29.621  1.00  0.00    -0.203 F 
ATOM     57  F   UNL A   1      42.095  28.132  25.452  1.00  0.00    -0.200 F 
ATOM     58  C   UNL A   1      40.662  26.533  26.437  1.00  0.00     0.200 A 
ATOM     59  F   UNL A   1      39.220  24.969  27.462  1.00  0.00    -0.200 F 
ATOM     60  F   UNL A   1      40.784  25.739  25.364  1.00  0.00    -0.200 F 
ENDBRANCH  26  50
BRANCH  38  61
ATOM     61  C   UNL A   1      43.649  28.298  34.843  1.00  0.00     0.064 A 
ATOM     62  C   UNL A   1      45.003  28.647  34.735  1.00  0.00     0.173 A 
ATOM     63  C   UNL A   1      43.322  27.120  35.530  1.00  0.00     0.173 A 
ATOM     64  F   UNL A   1      45.363  29.756  34.072  1.00  0.00    -0.203 F 
ATOM     65  C   UNL A   1      45.994  27.831  35.273  1.00  0.00     0.198 A 
ATOM     66  C   UNL A   1      44.315  26.319  36.086  1.00  0.00     0.198 A 
ATOM     67  F   UNL A   1      42.040  26.747  35.662  1.00  0.00    -0.203 F 
ATOM     68  F   UNL A   1      47.285  28.158  35.118  1.00  0.00    -0.200 F 
ATOM     69  C   UNL A   1      45.650  26.671  35.951  1.00  0.00     0.200 A 
ATOM     70  F   UNL A   1      43.981  25.203  36.747  1.00  0.00    -0.200 F 
ATOM     71  F   UNL A   1      46.606  25.885  36.465  1.00  0.00    -0.200 F 
ENDBRANCH  38  61
ENDBRANCH  12  13
ENDBRANCH   5   7
ENDBRANCH   2   3
ENDBRANCH   1   2
BRANCH   1  72
ATOM     72  C   UNL A   1      32.329  30.457  26.705  1.00  0.00     0.023 C 
BRANCH  72  73
ATOM     73  C   UNL A   1      31.811  29.948  25.361  1.00  0.00     0.116 C 
BRANCH  73  74
ATOM     74  N   UNL A   1      32.769  29.084  24.715  1.00  0.00    -0.356 N 
ATOM     75  C   UNL A   1      32.682  28.187  23.707  1.00  0.00     0.224 C 
ATOM     76  H   UNL A   1      33.678  29.165  25.084  1.00  0.00     0.163 HD
ATOM     77  O   UNL A   1      33.752  27.631  23.423  1.00  0.00    -0.275 OA
BRANCH  75  78
ATOM     78  C   UNL A   1      31.392  27.745  22.992  1.00  0.00     0.095 C 
ATOM     79  C   UNL A   1      31.367  26.537  22.055  1.00  0.00     0.041 C 
ATOM     80  C   UNL A   1      30.308  27.542  24.084  1.00  0.00     0.095 C 
ATOM     81  C   UNL A   1      31.471  25.233  22.789  1.00  0.00    -0.030 C 
ATOM     82  C   UNL A   1      30.663  26.279  24.917  1.00  0.00     0.041 C 
ATOM     83  C   UNL A   1      31.180  25.127  24.094  1.00  0.00    -0.030 C 
BRANCH  80  84
ATOM     84  C   UNL A   1      28.881  27.446  23.535  1.00  0.00     0.224 C 
ATOM     85  O   UNL A   1      28.198  26.426  23.660  1.00  0.00    -0.275 OA
ATOM     86  N   UNL A   1      28.275  28.491  22.912  1.00  0.00    -0.353 N 
ATOM     87  H   UNL A   1      27.347  28.300  22.647  1.00  0.00     0.163 HD
BRANCH  86  88
ATOM     88  C   UNL A   1      28.712  29.838  22.553  1.00  0.00     0.082 C 
ATOM     89  C   UNL A   1      27.994  30.274  21.263  1.00  0.00     0.025 C 
ATOM     90  C   UNL A   1      28.474  30.855  23.674  1.00  0.00     0.025 C 
ATOM     91  C   UNL A   1      28.388  31.687  20.841  1.00  0.00     0.002 C 
ATOM     92  C   UNL A   1      28.867  32.267  23.245  1.00  0.00     0.002 C 
ATOM     93  C   UNL A   1      28.154  32.689  21.966  1.00  0.00     0.000 C 
ENDBRANCH  86  88
ENDBRANCH  80  84
ENDBRANCH  75  78
ENDBRANCH  73  74
ENDBRANCH  72  73
ENDBRANCH   1  72
TORSDOF 13
ENDMDL
MODEL 2
REMARK VINA RESULT:     -12.9      0.421      7.364
REMARK SMILES O=C(NCCCCNC(=O)[C@H]1CC=CC[C@@H]1C(=O)NC1CCCCC1)c1ccc(-c2c3nc(c(-c4c(F)c(F)c(F)c(F)c4F)c4ccc([nH]4)c(-c4c(F)c(F)c(F)c(F)c4F)c4nc(c(-c5c(F)c(F)c(F)c(F)c5F)c5ccc2[nH]5)C=C4)C=C3)cc1
REMARK SMILES IDX 5 1 4 2 3 3 1 4 2 5 26 7 27 8 88 9 28 10 87 11 29 12 30 13
REMARK SMILES IDX 31 14 81 15 32 16 86 17 80 18 82 19 33 20 85 21 79 22 78 23
REMARK SMILES IDX 34 25 66 26 46 27 65 28 47 29 50 30 64 31 83 32 48 33 49 34
REMARK SMILES IDX 63 36 84 37 51 38 35 39 36 40 44 41 37 42 38 43 42 44 45 45
REMARK SMILES IDX 39 46 40 47 43 48 41 49 67 50 68 51 76 52 69 53 70 54 74 55
REMARK SMILES IDX 77 56 71 57 72 58 75 59 73 60 52 61 53 62 61 63 54 64 55 65
REMARK SMILES IDX 59 66 62 67 56 68 57 69 60 70 58 71 6 72 7 73 8 74 9 75
REMARK SMILES IDX 10 77 11 78 12 79 16 80 13 81 15 82 14 83 17 84 18 85 19 86
REMARK SMILES IDX 20 88 21 89 25 90 22 91 24 92 23 93
REMARK H PARENT 3 6 82 24 50 35 8 76 19 87
REMARK Flexibility Score: inf
ROOT
ATOM      1  C   UNL A   1      31.807  31.913  27.046  1.00  0.00     0.023 C 
ENDROOT
BRANCH   1   2
ATOM      2  C   UNL A   1      32.918  32.855  27.501  1.00  0.00     0.116 C 
BRANCH   2   3
ATOM      3  N   UNL A   1      32.485  34.224  27.742  1.00  0.00    -0.352 N 
ATOM      4  O   UNL A   1      32.504  36.225  28.813  1.00  0.00    -0.269 OA
ATOM      5  C   UNL A   1      33.002  35.117  28.653  1.00  0.00     0.251 C 
ATOM      6  H   UNL A   1      31.736  34.548  27.192  1.00  0.00     0.163 HD
BRANCH   5   7
ATOM      7  C   UNL A   1      34.141  34.680  29.480  1.00  0.00     0.039 A 
ATOM      8  C   UNL A   1      35.427  34.661  28.938  1.00  0.00     0.014 A 
ATOM      9  C   UNL A   1      33.895  34.176  30.759  1.00  0.00     0.014 A 
ATOM     10  C   UNL A   1      36.434  33.981  29.607  1.00  0.00     0.010 A 
ATOM     11  C   UNL A   1      34.931  33.563  31.464  1.00  0.00     0.010 A 
ATOM     12  C   UNL A   1      36.193  33.412  30.869  1.00  0.00    -0.014 A 
BRANCH  12  13
ATOM     13  C   UNL A   1      37.279  32.653  31.536  1.00  0.00     0.031 A 
ATOM     14  C   UNL A   1      38.014  31.559  30.811  1.00  0.00     0.074 A 
ATOM     15  C   UNL A   1      37.641  33.002  32.785  1.00  0.00     0.049 A 
ATOM     16  N   UNL A   1      39.017  30.824  31.224  1.00  0.00    -0.248 NA
ATOM     17  C   UNL A   1      37.563  31.240  29.448  1.00  0.00     0.031 C 
ATOM     18  C   UNL A   1      36.996  34.045  33.583  1.00  0.00     0.029 A 
ATOM     19  N   UNL A   1      38.651  32.541  33.588  1.00  0.00    -0.354 N 
ATOM     20  C   UNL A   1      39.293  29.939  30.191  1.00  0.00     0.074 A 
ATOM     21  C   UNL A   1      38.346  30.216  29.133  1.00  0.00     0.031 C 
ATOM     22  C   UNL A   1      37.663  34.188  34.738  1.00  0.00     0.029 A 
ATOM     23  C   UNL A   1      38.745  33.211  34.782  1.00  0.00     0.049 A 
ATOM     24  H   UNL A   1      39.250  31.803  33.333  1.00  0.00     0.167 HD
ATOM     25  C   UNL A   1      40.253  28.984  30.133  1.00  0.00     0.037 A 
ATOM     26  C   UNL A   1      39.608  33.053  35.802  1.00  0.00     0.037 A 
ATOM     27  C   UNL A   1      41.219  28.738  31.174  1.00  0.00     0.049 A 
ATOM     28  C   UNL A   1      40.674  32.003  35.699  1.00  0.00     0.074 A 
ATOM     29  C   UNL A   1      42.252  27.818  31.194  1.00  0.00     0.029 A 
ATOM     30  N   UNL A   1      41.271  29.425  32.378  1.00  0.00    -0.354 N 
ATOM     31  N   UNL A   1      40.934  31.183  34.710  1.00  0.00    -0.248 NA
ATOM     32  C   UNL A   1      41.568  31.856  36.855  1.00  0.00     0.031 C 
ATOM     33  C   UNL A   1      42.912  27.927  32.424  1.00  0.00     0.029 A 
ATOM     34  C   UNL A   1      42.313  28.940  33.153  1.00  0.00     0.049 A 
ATOM     35  H   UNL A   1      40.660  30.149  32.643  1.00  0.00     0.167 HD
ATOM     36  C   UNL A   1      42.026  30.431  35.117  1.00  0.00     0.074 A 
ATOM     37  C   UNL A   1      42.393  30.908  36.436  1.00  0.00     0.031 C 
ATOM     38  C   UNL A   1      42.665  29.433  34.460  1.00  0.00     0.037 A 
BRANCH  25  39
ATOM     39  C   UNL A   1      40.298  28.113  28.912  1.00  0.00     0.064 A 
ATOM     40  C   UNL A   1      41.030  28.474  27.773  1.00  0.00     0.173 A 
ATOM     41  C   UNL A   1      39.637  26.875  28.903  1.00  0.00     0.173 A 
ATOM     42  F   UNL A   1      41.668  29.654  27.726  1.00  0.00    -0.203 F 
ATOM     43  C   UNL A   1      41.084  27.637  26.661  1.00  0.00     0.198 A 
ATOM     44  C   UNL A   1      39.712  26.029  27.798  1.00  0.00     0.198 A 
ATOM     45  F   UNL A   1      38.926  26.480  29.969  1.00  0.00    -0.203 F 
ATOM     46  F   UNL A   1      41.761  28.019  25.568  1.00  0.00    -0.200 F 
ATOM     47  C   UNL A   1      40.432  26.413  26.677  1.00  0.00     0.200 A 
ATOM     48  F   UNL A   1      39.089  24.843  27.819  1.00  0.00    -0.200 F 
ATOM     49  F   UNL A   1      40.491  25.605  25.609  1.00  0.00    -0.200 F 
ENDBRANCH  25  39
BRANCH  26  50
ATOM     50  C   UNL A   1      39.501  33.930  36.993  1.00  0.00     0.064 A 
ATOM     51  C   UNL A   1      40.106  35.194  37.011  1.00  0.00     0.173 A 
ATOM     52  C   UNL A   1      38.769  33.536  38.123  1.00  0.00     0.173 A 
ATOM     53  F   UNL A   1      40.829  35.604  35.958  1.00  0.00    -0.203 F 
ATOM     54  C   UNL A   1      39.989  36.029  38.118  1.00  0.00     0.198 A 
ATOM     55  C   UNL A   1      38.632  34.384  39.219  1.00  0.00     0.198 A 
ATOM     56  F   UNL A   1      38.168  32.339  38.150  1.00  0.00    -0.203 F 
ATOM     57  F   UNL A   1      40.602  37.221  38.124  1.00  0.00    -0.200 F 
ATOM     58  C   UNL A   1      39.246  35.627  39.219  1.00  0.00     0.200 A 
ATOM     59  F   UNL A   1      37.900  33.998  40.273  1.00  0.00    -0.200 F 
ATOM     60  F   UNL A   1      39.124  36.436  40.280  1.00  0.00    -0.200 F 
ENDBRANCH  26  50
BRANCH  38  61
ATOM     61  C   UNL A   1      43.841  28.812  35.150  1.00  0.00     0.064 A 
ATOM     62  C   UNL A   1      45.145  29.286  34.944  1.00  0.00     0.173 A 
ATOM     63  C   UNL A   1      43.660  27.741  36.037  1.00  0.00     0.173 A 
ATOM     64  F   UNL A   1      45.368  30.298  34.092  1.00  0.00    -0.203 F 
ATOM     65  C   UNL A   1      46.229  28.691  35.583  1.00  0.00     0.198 A 
ATOM     66  C   UNL A   1      44.744  27.164  36.691  1.00  0.00     0.198 A 
ATOM     67  F   UNL A   1      42.431  27.255  36.269  1.00  0.00    -0.203 F 
ATOM     68  F   UNL A   1      47.472  29.129  35.336  1.00  0.00    -0.200 F 
ATOM     69  C   UNL A   1      46.029  27.634  36.458  1.00  0.00     0.200 A 
ATOM     70  F   UNL A   1      44.548  26.148  37.543  1.00  0.00    -0.200 F 
ATOM     71  F   UNL A   1      47.074  27.061  37.069  1.00  0.00    -0.200 F 
ENDBRANCH  38  61
ENDBRANCH  12  13
ENDBRANCH   5   7
ENDBRANCH   2   3
ENDBRANCH   1   2
BRANCH   1  72
ATOM     72  C   UNL A   1      32.267  30.507  26.649  1.00  0.00     0.023 C 
BRANCH  72  73
ATOM     73  C   UNL A   1      31.820  30.081  25.251  1.00  0.00     0.116 C 
BRANCH  73  74
ATOM     74  N   UNL A   1      32.757  29.160  24.651  1.00  0.00    -0.356 N 
ATOM     75  C   UNL A   1      32.648  28.220  23.687  1.00  0.00     0.224 C 
ATOM     76  H   UNL A   1      33.666  29.233  25.022  1.00  0.00     0.163 HD
ATOM     77  O   UNL A   1      33.703  27.621  23.435  1.00  0.00    -0.275 OA
BRANCH  75  78
ATOM     78  C   UNL A   1      31.349  27.781  22.986  1.00  0.00     0.095 C 
ATOM     79  C   UNL A   1      31.307  26.562  22.062  1.00  0.00     0.041 C 
ATOM     80  C   UNL A   1      30.272  27.599  24.088  1.00  0.00     0.095 C 
ATOM     81  C   UNL A   1      31.405  25.266  22.810  1.00  0.00    -0.030 C 
ATOM     82  C   UNL A   1      30.622  26.342  24.932  1.00  0.00     0.041 C 
ATOM     83  C   UNL A   1      31.124  25.177  24.118  1.00  0.00    -0.030 C 
BRANCH  80  84
ATOM     84  C   UNL A   1      28.840  27.510  23.551  1.00  0.00     0.224 C 
ATOM     85  O   UNL A   1      28.152  26.495  23.686  1.00  0.00    -0.275 OA
ATOM     86  N   UNL A   1      28.236  28.555  22.926  1.00  0.00    -0.353 N 
ATOM     87  H   UNL A   1      27.304  28.369  22.670  1.00  0.00     0.163 HD
BRANCH  86  88
ATOM     88  C   UNL A   1      28.679  29.897  22.556  1.00  0.00     0.082 C 
ATOM     89  C   UNL A   1      27.995  30.309  21.241  1.00  0.00     0.025 C 
ATOM     90  C   UNL A   1      28.408  30.932  23.653  1.00  0.00     0.025 C 
ATOM     91  C   UNL A   1      28.395  31.715  20.806  1.00  0.00     0.002 C 
ATOM     92  C   UNL A   1      28.809  32.338  23.212  1.00  0.00     0.002 C 
ATOM     93  C   UNL A   1      28.129  32.735  21.907  1.00  0.00     0.000 C 
ENDBRANCH  86  88
ENDBRANCH  80  84
ENDBRANCH  75  78
ENDBRANCH  73  74
ENDBRANCH  72  73
ENDBRANCH   1  72
TORSDOF 13
ENDMDL
MODEL 3
REMARK VINA RESULT:     -12.9      5.700     10.753
REMARK SMILES O=C(NCCCCNC(=O)[C@H]1CC=CC[C@@H]1C(=O)NC1CCCCC1)c1ccc(-c2c3nc(c(-c4c(F)c(F)c(F)c(F)c4F)c4ccc([nH]4)c(-c4c(F)c(F)c(F)c(F)c4F)c4nc(c(-c5c(F)c(F)c(F)c(F)c5F)c5ccc2[nH]5)C=C4)C=C3)cc1
REMARK SMILES IDX 5 1 4 2 3 3 1 4 2 5 26 7 27 8 88 9 28 10 87 11 29 12 30 13
REMARK SMILES IDX 31 14 81 15 32 16 86 17 80 18 82 19 33 20 85 21 79 22 78 23
REMARK SMILES IDX 34 25 66 26 46 27 65 28 47 29 50 30 64 31 83 32 48 33 49 34
REMARK SMILES IDX 63 36 84 37 51 38 35 39 36 40 44 41 37 42 38 43 42 44 45 45
REMARK SMILES IDX 39 46 40 47 43 48 41 49 67 50 68 51 76 52 69 53 70 54 74 55
REMARK SMILES IDX 77 56 71 57 72 58 75 59 73 60 52 61 53 62 61 63 54 64 55 65
REMARK SMILES IDX 59 66 62 67 56 68 57 69 60 70 58 71 6 72 7 73 8 74 9 75
REMARK SMILES IDX 10 77 11 78 12 79 16 80 13 81 15 82 14 83 17 84 18 85 19 86
REMARK SMILES IDX 20 88 21 89 25 90 22 91 24 92 23 93
REMARK H PARENT 3 6 82 24 50 35 8 76 19 87
REMARK Flexibility Score: inf
ROOT
ATOM      1  C   UNL A   1      37.874  20.620  25.179  1.00  0.00     0.023 C 
ENDROOT
BRANCH   1   2
ATOM      2  C   UNL A   1      39.176  20.703  25.970  1.00  0.00     0.116 C 
BRANCH   2   3
ATOM      3  N   UNL A   1      40.018  19.519  25.870  1.00  0.00    -0.352 N 
ATOM      4  O   UNL A   1      41.987  18.392  25.903  1.00  0.00    -0.269 OA
ATOM      5  C   UNL A   1      41.374  19.437  26.088  1.00  0.00     0.251 C 
ATOM      6  H   UNL A   1      39.565  18.683  25.617  1.00  0.00     0.163 HD
BRANCH   5   7
ATOM      7  C   UNL A   1      42.086  20.662  26.492  1.00  0.00     0.039 A 
ATOM      8  C   UNL A   1      42.233  20.966  27.847  1.00  0.00     0.014 A 
ATOM      9  C   UNL A   1      42.497  21.562  25.507  1.00  0.00     0.014 A 
ATOM     10  C   UNL A   1      42.633  22.241  28.216  1.00  0.00     0.010 A 
ATOM     11  C   UNL A   1      42.975  22.818  25.885  1.00  0.00     0.010 A 
ATOM     12  C   UNL A   1      42.992  23.185  27.239  1.00  0.00    -0.014 A 
BRANCH  12  13
ATOM     13  C   UNL A   1      43.372  24.555  27.667  1.00  0.00     0.031 A 
ATOM     14  C   UNL A   1      44.807  25.001  27.639  1.00  0.00     0.074 A 
ATOM     15  C   UNL A   1      42.399  25.415  28.023  1.00  0.00     0.049 A 
ATOM     16  N   UNL A   1      45.312  26.174  27.935  1.00  0.00    -0.248 NA
ATOM     17  C   UNL A   1      45.811  24.005  27.235  1.00  0.00     0.031 C 
ATOM     18  C   UNL A   1      40.974  25.088  28.088  1.00  0.00     0.029 A 
ATOM     19  N   UNL A   1      42.456  26.740  28.366  1.00  0.00    -0.354 N 
ATOM     20  C   UNL A   1      46.687  26.046  27.786  1.00  0.00     0.074 A 
ATOM     21  C   UNL A   1      46.943  24.680  27.385  1.00  0.00     0.031 C 
ATOM     22  C   UNL A   1      40.284  26.198  28.390  1.00  0.00     0.029 A 
ATOM     23  C   UNL A   1      41.222  27.296  28.593  1.00  0.00     0.049 A 
ATOM     24  H   UNL A   1      43.299  27.243  28.442  1.00  0.00     0.167 HD
ATOM     25  C   UNL A   1      47.646  26.986  27.966  1.00  0.00     0.037 A 
ATOM     26  C   UNL A   1      40.884  28.554  28.929  1.00  0.00     0.037 A 
ATOM     27  C   UNL A   1      47.382  28.356  28.328  1.00  0.00     0.049 A 
ATOM     28  C   UNL A   1      41.965  29.580  29.098  1.00  0.00     0.074 A 
ATOM     29  C   UNL A   1      48.282  29.394  28.499  1.00  0.00     0.029 A 
ATOM     30  N   UNL A   1      46.120  28.879  28.568  1.00  0.00    -0.354 N 
ATOM     31  N   UNL A   1      43.260  29.450  28.939  1.00  0.00    -0.248 NA
ATOM     32  C   UNL A   1      41.539  30.928  29.495  1.00  0.00     0.031 C 
ATOM     33  C   UNL A   1      47.567  30.537  28.872  1.00  0.00     0.029 A 
ATOM     34  C   UNL A   1      46.219  30.222  28.896  1.00  0.00     0.049 A 
ATOM     35  H   UNL A   1      45.278  28.372  28.511  1.00  0.00     0.167 HD
ATOM     36  C   UNL A   1      43.803  30.698  29.203  1.00  0.00     0.074 A 
ATOM     37  C   UNL A   1      42.693  31.579  29.513  1.00  0.00     0.031 C 
ATOM     38  C   UNL A   1      45.102  31.081  29.195  1.00  0.00     0.037 A 
BRANCH  25  39
ATOM     39  C   UNL A   1      49.076  26.567  27.797  1.00  0.00     0.064 A 
ATOM     40  C   UNL A   1      49.669  26.456  26.531  1.00  0.00     0.173 A 
ATOM     41  C   UNL A   1      49.878  26.320  28.922  1.00  0.00     0.173 A 
ATOM     42  F   UNL A   1      48.942  26.668  25.424  1.00  0.00    -0.203 F 
ATOM     43  C   UNL A   1      51.008  26.094  26.397  1.00  0.00     0.198 A 
ATOM     44  C   UNL A   1      51.223  25.982  28.785  1.00  0.00     0.198 A 
ATOM     45  F   UNL A   1      49.360  26.416  30.155  1.00  0.00    -0.203 F 
ATOM     46  F   UNL A   1      51.545  25.958  25.176  1.00  0.00    -0.200 F 
ATOM     47  C   UNL A   1      51.785  25.865  27.523  1.00  0.00     0.200 A 
ATOM     48  F   UNL A   1      51.974  25.769  29.874  1.00  0.00    -0.200 F 
ATOM     49  F   UNL A   1      53.074  25.524  27.392  1.00  0.00    -0.200 F 
ENDBRANCH  25  39
BRANCH  26  50
ATOM     50  C   UNL A   1      39.454  28.905  29.103  1.00  0.00     0.064 A 
ATOM     51  C   UNL A   1      38.839  28.811  30.360  1.00  0.00     0.173 A 
ATOM     52  C   UNL A   1      38.682  29.370  28.029  1.00  0.00     0.173 A 
ATOM     53  F   UNL A   1      39.535  28.355  31.412  1.00  0.00    -0.203 F 
ATOM     54  C   UNL A   1      37.503  29.161  30.532  1.00  0.00     0.198 A 
ATOM     55  C   UNL A   1      37.353  29.745  28.209  1.00  0.00     0.198 A 
ATOM     56  F   UNL A   1      39.228  29.484  26.810  1.00  0.00    -0.203 F 
ATOM     57  F   UNL A   1      36.929  29.032  31.736  1.00  0.00    -0.200 F 
ATOM     58  C   UNL A   1      36.762  29.635  29.458  1.00  0.00     0.200 A 
ATOM     59  F   UNL A   1      36.646  30.217  27.173  1.00  0.00    -0.200 F 
ATOM     60  F   UNL A   1      35.479  29.983  29.628  1.00  0.00    -0.200 F 
ENDBRANCH  26  50
BRANCH  38  61
ATOM     61  C   UNL A   1      45.387  32.519  29.505  1.00  0.00     0.064 A 
ATOM     62  C   UNL A   1      45.398  33.496  28.498  1.00  0.00     0.173 A 
ATOM     63  C   UNL A   1      45.637  32.925  30.824  1.00  0.00     0.173 A 
ATOM     64  F   UNL A   1      45.181  33.151  27.221  1.00  0.00    -0.203 F 
ATOM     65  C   UNL A   1      45.677  34.826  28.800  1.00  0.00     0.198 A 
ATOM     66  C   UNL A   1      45.892  34.260  31.123  1.00  0.00     0.198 A 
ATOM     67  F   UNL A   1      45.634  32.027  31.820  1.00  0.00    -0.203 F 
ATOM     68  F   UNL A   1      45.729  35.736  27.817  1.00  0.00    -0.200 F 
ATOM     69  C   UNL A   1      45.920  35.208  30.111  1.00  0.00     0.200 A 
ATOM     70  F   UNL A   1      46.119  34.629  32.391  1.00  0.00    -0.200 F 
ATOM     71  F   UNL A   1      46.190  36.488  30.398  1.00  0.00    -0.200 F 
ENDBRANCH  38  61
ENDBRANCH  12  13
ENDBRANCH   5   7
ENDBRANCH   2   3
ENDBRANCH   1   2
BRANCH   1  72
ATOM     72  C   UNL A   1      37.408  21.937  24.551  1.00  0.00     0.023 C 
BRANCH  72  73
ATOM     73  C   UNL A   1      37.217  23.071  25.557  1.00  0.00     0.116 C 
BRANCH  73  74
ATOM     74  N   UNL A   1      36.175  22.766  26.509  1.00  0.00    -0.356 N 
ATOM     75  C   UNL A   1      34.837  22.952  26.514  1.00  0.00     0.224 C 
ATOM     76  H   UNL A   1      36.510  22.331  27.326  1.00  0.00     0.163 HD
ATOM     77  O   UNL A   1      34.267  22.543  27.535  1.00  0.00    -0.275 OA
BRANCH  75  78
ATOM     78  C   UNL A   1      34.018  23.699  25.445  1.00  0.00     0.095 C 
ATOM     79  C   UNL A   1      34.297  23.521  23.951  1.00  0.00     0.041 C 
ATOM     80  C   UNL A   1      32.522  23.379  25.706  1.00  0.00     0.095 C 
ATOM     81  C   UNL A   1      33.854  22.185  23.435  1.00  0.00    -0.030 C 
ATOM     82  C   UNL A   1      32.252  21.894  25.339  1.00  0.00     0.041 C 
ATOM     83  C   UNL A   1      32.949  21.436  24.083  1.00  0.00    -0.030 C 
BRANCH  80  84
ATOM     84  C   UNL A   1      31.550  24.305  24.969  1.00  0.00     0.224 C 
ATOM     85  O   UNL A   1      30.776  23.888  24.104  1.00  0.00    -0.275 OA
ATOM     86  N   UNL A   1      31.459  25.632  25.252  1.00  0.00    -0.353 N 
ATOM     87  H   UNL A   1      30.766  26.095  24.730  1.00  0.00     0.163 HD
BRANCH  86  88
ATOM     88  C   UNL A   1      32.176  26.515  26.169  1.00  0.00     0.082 C 
ATOM     89  C   UNL A   1      33.295  27.240  25.401  1.00  0.00     0.025 C 
ATOM     90  C   UNL A   1      31.253  27.524  26.860  1.00  0.00     0.025 C 
ATOM     91  C   UNL A   1      34.072  28.200  26.296  1.00  0.00     0.002 C 
ATOM     92  C   UNL A   1      32.037  28.483  27.753  1.00  0.00     0.002 C 
ATOM     93  C   UNL A   1      33.143  29.194  26.984  1.00  0.00     0.000 C 
ENDBRANCH  86  88
ENDBRANCH  80  84
ENDBRANCH  75  78
ENDBRANCH  73  74
ENDBRANCH  72  73
ENDBRANCH   1  72
TORSDOF 13
ENDMDL
