MODEL 1
REMARK VINA RESULT:     -12.7      0.000      0.000
REMARK SMILES O=C(COCC(=O)/[NH+]=C1\S[C@@H]2CS(=O)(=O)C[C@H]2N1c1ccc(Cl)cc1)NCCCCNC(=O)c1ccc(-c2c3nc(c(-c4c(F)c(F)c(F)c(F)c4F)c4ccc([nH]4)c(-c4c(F)c(F)c(F)c(F)c4F)c4nc(c(-c5c(F)c(F)c(F)c(F)c5F)c5ccc2[nH]5)C=C4)C=C3)cc1
REMARK SMILES IDX 27 1 26 2 2 3 1 4 3 6 4 7 5 8 6 9 7 10 8 11 9 12 10 14 18 15
REMARK SMILES IDX 11 16 17 17 12 18 16 19 13 20 14 21 15 22 19 23 20 24 25 25
REMARK SMILES IDX 21 26 24 27 22 28 23 29 28 30 29 31 30 32 31 33 32 34 33 36
REMARK SMILES IDX 34 37 35 38 96 39 36 40 95 41 37 42 38 43 39 44 89 45 40 46
REMARK SMILES IDX 94 47 88 48 90 49 41 50 93 51 87 52 86 53 42 55 74 56 54 57
REMARK SMILES IDX 73 58 55 59 58 60 72 61 91 62 56 63 57 64 71 66 92 67 59 68
REMARK SMILES IDX 43 69 44 70 52 71 45 72 46 73 50 74 53 75 47 76 48 77 51 78
REMARK SMILES IDX 49 79 75 80 76 81 84 82 77 83 78 84 82 85 85 86 79 87 80 88
REMARK SMILES IDX 83 89 81 90 60 91 61 92 69 93 62 94 63 95 67 96 70 97 64 98
REMARK SMILES IDX 65 99 68 100 66 101
REMARK H PARENT 26 5 8 13 31 35 90 54 58 65
REMARK Flexibility Score: inf
ROOT
ATOM      1  C   UNL A   1      35.575  21.071  25.038  1.00  0.00     0.116 C 
ENDROOT
BRANCH   1   2
ATOM      2  N   UNL A   1      35.311  21.583  26.370  1.00  0.00    -0.354 N 
ATOM      3  C   UNL A   1      34.203  22.241  26.823  1.00  0.00     0.246 C 
ATOM      4  O   UNL A   1      34.143  22.565  28.010  1.00  0.00    -0.272 OA
ATOM      5  H   UNL A   1      36.024  21.436  27.034  1.00  0.00     0.163 HD
BRANCH   3   6
ATOM      6  C   UNL A   1      33.072  22.562  25.843  1.00  0.00     0.260 C 
BRANCH   6   7
ATOM      7  O   UNL A   1      32.229  23.611  26.297  1.00  0.00    -0.359 OA
BRANCH   7   8
ATOM      8  C   UNL A   1      32.210  24.722  25.408  1.00  0.00     0.288 C 
BRANCH   8   9
ATOM      9  C   UNL A   1      33.186  25.879  25.699  1.00  0.00     0.333 C 
ATOM     10  O   UNL A   1      34.393  25.650  25.752  1.00  0.00    -0.244 OA
ATOM     11  N   UNL A   1      32.693  27.139  25.939  1.00  0.00    -0.202 N 
ATOM     12  C   UNL A   1      31.974  27.781  25.079  1.00  0.00     0.319 C 
ATOM     13  H   UNL A   1      32.895  27.570  26.800  1.00  0.00     0.316 HD
ATOM     14  S   UNL A   1      31.374  27.109  23.523  1.00  0.00    -0.029 SA
ATOM     15  N   UNL A   1      31.491  29.095  25.211  1.00  0.00    -0.217 N 
ATOM     16  C   UNL A   1      29.983  28.253  23.606  1.00  0.00     0.120 C 
ATOM     17  C   UNL A   1      30.719  29.529  24.031  1.00  0.00     0.212 C 
ATOM     18  C   UNL A   1      29.168  28.559  22.378  1.00  0.00     0.156 C 
ATOM     19  C   UNL A   1      29.622  30.559  24.145  1.00  0.00     0.188 C 
ATOM     20  S   UNL A   1      28.647  30.250  22.669  1.00  0.00     0.155 S 
ATOM     21  O   UNL A   1      27.247  30.253  23.044  1.00  0.00    -0.229 OA
ATOM     22  O   UNL A   1      29.168  31.070  21.599  1.00  0.00    -0.229 OA
BRANCH  15  23
ATOM     23  C   UNL A   1      32.095  30.068  26.027  1.00  0.00     0.128 A 
ATOM     24  C   UNL A   1      31.406  31.232  26.406  1.00  0.00     0.053 A 
ATOM     25  C   UNL A   1      33.407  29.915  26.507  1.00  0.00     0.053 A 
ATOM     26  C   UNL A   1      32.012  32.223  27.188  1.00  0.00     0.025 A 
ATOM     27  C   UNL A   1      34.017  30.899  27.297  1.00  0.00     0.025 A 
ATOM     28  C   UNL A   1      33.320  32.055  27.624  1.00  0.00     0.041 A 
ATOM     29  Cl  UNL A   1      34.066  33.274  28.579  1.00  0.00    -0.084 Cl
ENDBRANCH  15  23
ENDBRANCH   8   9
ENDBRANCH   7   8
ENDBRANCH   6   7
ENDBRANCH   3   6
ENDBRANCH   1   2
BRANCH   1  30
ATOM     30  C   UNL A   1      37.044  21.206  24.635  1.00  0.00     0.023 C 
BRANCH  30  31
ATOM     31  C   UNL A   1      37.929  20.013  25.002  1.00  0.00     0.023 C 
BRANCH  31  32
ATOM     32  C   UNL A   1      39.203  20.353  25.767  1.00  0.00     0.116 C 
BRANCH  32  33
ATOM     33  N   UNL A   1      40.125  19.234  25.876  1.00  0.00    -0.352 N 
ATOM     34  C   UNL A   1      41.480  19.258  26.116  1.00  0.00     0.251 C 
ATOM     35  H   UNL A   1      39.728  18.341  25.764  1.00  0.00     0.163 HD
ATOM     36  O   UNL A   1      42.139  18.226  26.053  1.00  0.00    -0.269 OA
BRANCH  34  37
ATOM     37  C   UNL A   1      42.145  20.545  26.413  1.00  0.00     0.039 A 
ATOM     38  C   UNL A   1      42.619  21.325  25.355  1.00  0.00     0.014 A 
ATOM     39  C   UNL A   1      42.270  20.996  27.730  1.00  0.00     0.014 A 
ATOM     40  C   UNL A   1      43.150  22.592  25.611  1.00  0.00     0.010 A 
ATOM     41  C   UNL A   1      42.725  22.288  27.975  1.00  0.00     0.010 A 
ATOM     42  C   UNL A   1      43.169  23.101  26.921  1.00  0.00    -0.014 A 
BRANCH  42  43
ATOM     43  C   UNL A   1      43.657  24.475  27.218  1.00  0.00     0.031 A 
ATOM     44  C   UNL A   1      42.694  25.515  27.723  1.00  0.00     0.074 A 
ATOM     45  C   UNL A   1      44.938  24.808  26.960  1.00  0.00     0.049 A 
ATOM     46  N   UNL A   1      42.888  26.794  27.927  1.00  0.00    -0.248 NA
ATOM     47  C   UNL A   1      41.323  25.065  28.014  1.00  0.00     0.031 C 
ATOM     48  C   UNL A   1      45.961  23.901  26.437  1.00  0.00     0.029 A 
ATOM     49  N   UNL A   1      45.594  26.008  27.085  1.00  0.00    -0.354 N 
ATOM     50  C   UNL A   1      41.663  27.300  28.343  1.00  0.00     0.074 A 
ATOM     51  C   UNL A   1      40.721  26.204  28.321  1.00  0.00     0.031 C 
ATOM     52  C   UNL A   1      47.116  24.572  26.298  1.00  0.00     0.029 A 
ATOM     53  C   UNL A   1      46.906  25.967  26.675  1.00  0.00     0.049 A 
ATOM     54  H   UNL A   1      45.165  26.822  27.435  1.00  0.00     0.167 HD
ATOM     55  C   UNL A   1      41.358  28.562  28.728  1.00  0.00     0.037 A 
ATOM     56  C   UNL A   1      47.828  26.947  26.591  1.00  0.00     0.037 A 
ATOM     57  C   UNL A   1      42.307  29.642  28.783  1.00  0.00     0.049 A 
ATOM     58  C   UNL A   1      47.450  28.347  27.007  1.00  0.00     0.074 A 
ATOM     59  C   UNL A   1      42.109  30.939  29.225  1.00  0.00     0.029 A 
ATOM     60  N   UNL A   1      43.632  29.554  28.383  1.00  0.00    -0.354 N 
ATOM     61  N   UNL A   1      46.308  28.796  27.468  1.00  0.00    -0.248 NA
ATOM     62  C   UNL A   1      48.493  29.378  26.896  1.00  0.00     0.031 C 
ATOM     63  C   UNL A   1      43.294  31.651  29.033  1.00  0.00     0.029 A 
ATOM     64  C   UNL A   1      44.253  30.781  28.541  1.00  0.00     0.049 A 
ATOM     65  H   UNL A   1      44.065  28.739  28.038  1.00  0.00     0.167 HD
ATOM     66  C   UNL A   1      46.509  30.142  27.745  1.00  0.00     0.074 A 
ATOM     67  C   UNL A   1      47.884  30.437  27.407  1.00  0.00     0.031 C 
ATOM     68  C   UNL A   1      45.634  31.052  28.234  1.00  0.00     0.037 A 
BRANCH  55  69
ATOM     69  C   UNL A   1      39.941  28.857  29.125  1.00  0.00     0.064 A 
ATOM     70  C   UNL A   1      38.962  29.187  28.175  1.00  0.00     0.173 A 
ATOM     71  C   UNL A   1      39.539  28.727  30.463  1.00  0.00     0.173 A 
ATOM     72  F   UNL A   1      39.295  29.333  26.884  1.00  0.00    -0.203 F 
ATOM     73  C   UNL A   1      37.637  29.389  28.553  1.00  0.00     0.198 A 
ATOM     74  C   UNL A   1      38.208  28.899  30.833  1.00  0.00     0.198 A 
ATOM     75  F   UNL A   1      40.435  28.409  31.410  1.00  0.00    -0.203 F 
ATOM     76  F   UNL A   1      36.726  29.737  27.634  1.00  0.00    -0.200 F 
ATOM     77  C   UNL A   1      37.259  29.233  29.878  1.00  0.00     0.200 A 
ATOM     78  F   UNL A   1      37.842  28.731  32.110  1.00  0.00    -0.200 F 
ATOM     79  F   UNL A   1      35.980  29.407  30.237  1.00  0.00    -0.200 F 
ENDBRANCH  55  69
BRANCH  56  80
ATOM     80  C   UNL A   1      49.200  26.658  26.092  1.00  0.00     0.064 A 
ATOM     81  C   UNL A   1      49.551  26.909  24.757  1.00  0.00     0.173 A 
ATOM     82  C   UNL A   1      50.172  26.074  26.919  1.00  0.00     0.173 A 
ATOM     83  F   UNL A   1      48.653  27.448  23.920  1.00  0.00    -0.203 F 
ATOM     84  C   UNL A   1      50.801  26.547  24.258  1.00  0.00     0.198 A 
ATOM     85  C   UNL A   1      51.434  25.746  26.428  1.00  0.00     0.198 A 
ATOM     86  F   UNL A   1      49.894  25.817  28.205  1.00  0.00    -0.203 F 
ATOM     87  F   UNL A   1      51.080  26.729  22.961  1.00  0.00    -0.200 F 
ATOM     88  C   UNL A   1      51.742  25.968  25.095  1.00  0.00     0.200 A 
ATOM     89  F   UNL A   1      52.347  25.202  27.245  1.00  0.00    -0.200 F 
ATOM     90  F   UNL A   1      52.940  25.611  24.613  1.00  0.00    -0.200 F 
ENDBRANCH  56  80
BRANCH  68  91
ATOM     91  C   UNL A   1      46.145  32.437  28.510  1.00  0.00     0.064 A 
ATOM     92  C   UNL A   1      46.722  32.787  29.739  1.00  0.00     0.173 A 
ATOM     93  C   UNL A   1      46.108  33.414  27.500  1.00  0.00     0.173 A 
ATOM     94  F   UNL A   1      46.768  31.897  30.740  1.00  0.00    -0.203 F 
ATOM     95  C   UNL A   1      47.223  34.068  29.954  1.00  0.00     0.198 A 
ATOM     96  C   UNL A   1      46.643  34.680  27.707  1.00  0.00     0.198 A 
ATOM     97  F   UNL A   1      45.575  33.127  26.302  1.00  0.00    -0.203 F 
ATOM     98  F   UNL A   1      47.728  34.394  31.151  1.00  0.00    -0.200 F 
ATOM     99  C   UNL A   1      47.193  35.010  28.935  1.00  0.00     0.200 A 
ATOM    100  F   UNL A   1      46.630  35.582  26.715  1.00  0.00    -0.200 F 
ATOM    101  F   UNL A   1      47.691  36.236  29.140  1.00  0.00    -0.200 F 
ENDBRANCH  68  91
ENDBRANCH  42  43
ENDBRANCH  34  37
ENDBRANCH  32  33
ENDBRANCH  31  32
ENDBRANCH  30  31
ENDBRANCH   1  30
TORSDOF 15
ENDMDL
MODEL 2
REMARK VINA RESULT:     -12.4      5.861     11.268
REMARK SMILES O=C(COCC(=O)/[NH+]=C1\S[C@@H]2CS(=O)(=O)C[C@H]2N1c1ccc(Cl)cc1)NCCCCNC(=O)c1ccc(-c2c3nc(c(-c4c(F)c(F)c(F)c(F)c4F)c4ccc([nH]4)c(-c4c(F)c(F)c(F)c(F)c4F)c4nc(c(-c5c(F)c(F)c(F)c(F)c5F)c5ccc2[nH]5)C=C4)C=C3)cc1
REMARK SMILES IDX 27 1 26 2 2 3 1 4 3 6 4 7 5 8 6 9 7 10 8 11 9 12 10 14 18 15
REMARK SMILES IDX 11 16 17 17 12 18 16 19 13 20 14 21 15 22 19 23 20 24 25 25
REMARK SMILES IDX 21 26 24 27 22 28 23 29 28 30 29 31 30 32 31 33 32 34 33 36
REMARK SMILES IDX 34 37 35 38 96 39 36 40 95 41 37 42 38 43 39 44 89 45 40 46
REMARK SMILES IDX 94 47 88 48 90 49 41 50 93 51 87 52 86 53 42 55 74 56 54 57
REMARK SMILES IDX 73 58 55 59 58 60 72 61 91 62 56 63 57 64 71 66 92 67 59 68
REMARK SMILES IDX 43 69 44 70 52 71 45 72 46 73 50 74 53 75 47 76 48 77 51 78
REMARK SMILES IDX 49 79 75 80 76 81 84 82 77 83 78 84 82 85 85 86 79 87 80 88
REMARK SMILES IDX 83 89 81 90 60 91 61 92 69 93 62 94 63 95 67 96 70 97 64 98
REMARK SMILES IDX 65 99 68 100 66 101
REMARK H PARENT 26 5 8 13 31 35 90 54 58 65
REMARK Flexibility Score: inf
ROOT
ATOM      1  C   UNL A   1      36.663  31.936  32.862  1.00  0.00     0.116 C 
ENDROOT
BRANCH   1   2
ATOM      2  N   UNL A   1      36.653  30.485  32.887  1.00  0.00    -0.354 N 
ATOM      3  C   UNL A   1      37.663  29.635  33.237  1.00  0.00     0.246 C 
ATOM      4  O   UNL A   1      37.452  28.422  33.235  1.00  0.00    -0.272 OA
ATOM      5  H   UNL A   1      35.808  30.058  32.615  1.00  0.00     0.163 HD
BRANCH   3   6
ATOM      6  C   UNL A   1      39.029  30.214  33.615  1.00  0.00     0.260 C 
BRANCH   6   7
ATOM      7  O   UNL A   1      39.497  29.749  34.872  1.00  0.00    -0.359 OA
BRANCH   7   8
ATOM      8  C   UNL A   1      40.718  29.025  34.769  1.00  0.00     0.288 C 
BRANCH   8   9
ATOM      9  C   UNL A   1      41.865  29.432  35.716  1.00  0.00     0.333 C 
ATOM     10  O   UNL A   1      41.652  30.260  36.599  1.00  0.00    -0.244 OA
ATOM     11  N   UNL A   1      43.118  28.899  35.531  1.00  0.00    -0.202 N 
ATOM     12  C   UNL A   1      43.349  27.629  35.576  1.00  0.00     0.319 C 
ATOM     13  H   UNL A   1      43.871  29.509  35.357  1.00  0.00     0.316 HD
ATOM     14  S   UNL A   1      42.092  26.354  35.730  1.00  0.00    -0.029 SA
ATOM     15  N   UNL A   1      44.605  27.005  35.471  1.00  0.00    -0.217 N 
ATOM     16  C   UNL A   1      43.195  25.213  34.873  1.00  0.00     0.120 C 
ATOM     17  C   UNL A   1      44.512  25.538  35.587  1.00  0.00     0.212 C 
ATOM     18  C   UNL A   1      42.967  23.727  34.945  1.00  0.00     0.156 C 
ATOM     19  C   UNL A   1      45.518  24.631  34.920  1.00  0.00     0.188 C 
ATOM     20  S   UNL A   1      44.632  23.072  34.827  1.00  0.00     0.155 S 
ATOM     21  O   UNL A   1      44.828  22.520  33.502  1.00  0.00    -0.229 OA
ATOM     22  O   UNL A   1      44.904  22.321  36.031  1.00  0.00    -0.229 OA
BRANCH  15  23
ATOM     23  C   UNL A   1      45.819  27.639  35.792  1.00  0.00     0.128 A 
ATOM     24  C   UNL A   1      46.644  28.181  34.793  1.00  0.00     0.053 A 
ATOM     25  C   UNL A   1      46.253  27.769  37.122  1.00  0.00     0.053 A 
ATOM     26  C   UNL A   1      47.871  28.782  35.100  1.00  0.00     0.025 A 
ATOM     27  C   UNL A   1      47.476  28.376  37.438  1.00  0.00     0.025 A 
ATOM     28  C   UNL A   1      48.285  28.870  36.423  1.00  0.00     0.041 A 
ATOM     29  Cl  UNL A   1      49.794  29.603  36.800  1.00  0.00    -0.084 Cl
ENDBRANCH  15  23
ENDBRANCH   8   9
ENDBRANCH   7   8
ENDBRANCH   6   7
ENDBRANCH   3   6
ENDBRANCH   1   2
BRANCH   1  30
ATOM     30  C   UNL A   1      36.555  32.502  31.445  1.00  0.00     0.023 C 
BRANCH  30  31
ATOM     31  C   UNL A   1      35.169  32.394  30.806  1.00  0.00     0.023 C 
BRANCH  31  32
ATOM     32  C   UNL A   1      35.113  32.679  29.310  1.00  0.00     0.116 C 
BRANCH  32  33
ATOM     33  N   UNL A   1      34.279  31.742  28.576  1.00  0.00    -0.352 N 
ATOM     34  C   UNL A   1      34.627  30.531  28.024  1.00  0.00     0.251 C 
ATOM     35  H   UNL A   1      33.339  32.009  28.458  1.00  0.00     0.163 HD
ATOM     36  O   UNL A   1      33.831  29.915  27.323  1.00  0.00    -0.269 OA
BRANCH  34  37
ATOM     37  C   UNL A   1      35.986  29.991  28.250  1.00  0.00     0.039 A 
ATOM     38  C   UNL A   1      36.967  30.190  27.275  1.00  0.00     0.014 A 
ATOM     39  C   UNL A   1      36.300  29.321  29.435  1.00  0.00     0.014 A 
ATOM     40  C   UNL A   1      38.281  29.784  27.520  1.00  0.00     0.010 A 
ATOM     41  C   UNL A   1      37.623  28.989  29.711  1.00  0.00     0.010 A 
ATOM     42  C   UNL A   1      38.629  29.217  28.758  1.00  0.00    -0.014 A 
BRANCH  42  43
ATOM     43  C   UNL A   1      40.032  28.844  29.080  1.00  0.00     0.031 A 
ATOM     44  C   UNL A   1      40.917  29.823  29.804  1.00  0.00     0.074 A 
ATOM     45  C   UNL A   1      40.533  27.666  28.656  1.00  0.00     0.049 A 
ATOM     46  N   UNL A   1      42.196  29.742  30.072  1.00  0.00    -0.248 NA
ATOM     47  C   UNL A   1      40.287  31.071  30.266  1.00  0.00     0.031 C 
ATOM     48  C   UNL A   1      39.789  26.646  27.916  1.00  0.00     0.029 A 
ATOM     49  N   UNL A   1      41.796  27.136  28.769  1.00  0.00    -0.354 N 
ATOM     50  C   UNL A   1      42.525  30.933  30.708  1.00  0.00     0.074 A 
ATOM     51  C   UNL A   1      41.325  31.739  30.746  1.00  0.00     0.031 C 
ATOM     52  C   UNL A   1      40.603  25.610  27.653  1.00  0.00     0.029 A 
ATOM     53  C   UNL A   1      41.938  25.911  28.162  1.00  0.00     0.049 A 
ATOM     54  H   UNL A   1      42.530  27.591  29.241  1.00  0.00     0.167 HD
ATOM     55  C   UNL A   1      43.716  31.312  31.229  1.00  0.00     0.037 A 
ATOM     56  C   UNL A   1      43.026  25.130  28.013  1.00  0.00     0.037 A 
ATOM     57  C   UNL A   1      44.899  30.492  31.220  1.00  0.00     0.049 A 
ATOM     58  C   UNL A   1      44.344  25.589  28.586  1.00  0.00     0.074 A 
ATOM     59  C   UNL A   1      46.134  30.760  31.784  1.00  0.00     0.029 A 
ATOM     60  N   UNL A   1      44.995  29.247  30.617  1.00  0.00    -0.354 N 
ATOM     61  N   UNL A   1      44.623  26.685  29.249  1.00  0.00    -0.248 NA
ATOM     62  C   UNL A   1      45.498  24.699  28.396  1.00  0.00     0.031 C 
ATOM     63  C   UNL A   1      46.995  29.707  31.468  1.00  0.00     0.029 A 
ATOM     64  C   UNL A   1      46.278  28.749  30.771  1.00  0.00     0.049 A 
ATOM     65  H   UNL A   1      44.261  28.787  30.149  1.00  0.00     0.167 HD
ATOM     66  C   UNL A   1      45.965  26.593  29.592  1.00  0.00     0.074 A 
ATOM     67  C   UNL A   1      46.445  25.331  29.073  1.00  0.00     0.031 C 
ATOM     68  C   UNL A   1      46.733  27.474  30.278  1.00  0.00     0.037 A 
BRANCH  55  69
ATOM     69  C   UNL A   1      43.813  32.670  31.858  1.00  0.00     0.064 A 
ATOM     70  C   UNL A   1      44.025  33.826  31.091  1.00  0.00     0.173 A 
ATOM     71  C   UNL A   1      43.608  32.827  33.238  1.00  0.00     0.173 A 
ATOM     72  F   UNL A   1      44.236  33.731  29.770  1.00  0.00    -0.203 F 
ATOM     73  C   UNL A   1      44.043  35.086  31.684  1.00  0.00     0.198 A 
ATOM     74  C   UNL A   1      43.595  34.091  33.823  1.00  0.00     0.198 A 
ATOM     75  F   UNL A   1      43.396  31.755  34.017  1.00  0.00    -0.203 F 
ATOM     76  F   UNL A   1      44.282  36.172  30.937  1.00  0.00    -0.200 F 
ATOM     77  C   UNL A   1      43.816  35.218  33.046  1.00  0.00     0.200 A 
ATOM     78  F   UNL A   1      43.358  34.217  35.135  1.00  0.00    -0.200 F 
ATOM     79  F   UNL A   1      43.812  36.432  33.611  1.00  0.00    -0.200 F 
ENDBRANCH  55  69
BRANCH  56  80
ATOM     80  C   UNL A   1      42.935  23.831  27.289  1.00  0.00     0.064 A 
ATOM     81  C   UNL A   1      42.475  22.675  27.936  1.00  0.00     0.173 A 
ATOM     82  C   UNL A   1      43.359  23.705  25.957  1.00  0.00     0.173 A 
ATOM     83  F   UNL A   1      42.077  22.738  29.216  1.00  0.00    -0.203 F 
ATOM     84  C   UNL A   1      42.484  21.437  27.296  1.00  0.00     0.198 A 
ATOM     85  C   UNL A   1      43.332  22.473  25.306  1.00  0.00     0.198 A 
ATOM     86  F   UNL A   1      43.802  24.778  25.288  1.00  0.00    -0.203 F 
ATOM     87  F   UNL A   1      42.111  20.337  27.964  1.00  0.00    -0.200 F 
ATOM     88  C   UNL A   1      42.910  21.338  25.981  1.00  0.00     0.200 A 
ATOM     89  F   UNL A   1      43.729  22.384  24.029  1.00  0.00    -0.200 F 
ATOM     90  F   UNL A   1      42.928  20.146  25.368  1.00  0.00    -0.200 F 
ENDBRANCH  56  80
BRANCH  68  91
ATOM     91  C   UNL A   1      48.152  27.083  30.576  1.00  0.00     0.064 A 
ATOM     92  C   UNL A   1      48.489  26.291  31.683  1.00  0.00     0.173 A 
ATOM     93  C   UNL A   1      49.183  27.461  29.701  1.00  0.00     0.173 A 
ATOM     94  F   UNL A   1      47.544  25.916  32.557  1.00  0.00    -0.203 F 
ATOM     95  C   UNL A   1      49.808  25.910  31.913  1.00  0.00     0.198 A 
ATOM     96  C   UNL A   1      50.494  27.048  29.915  1.00  0.00     0.198 A 
ATOM     97  F   UNL A   1      48.913  28.211  28.621  1.00  0.00    -0.203 F 
ATOM     98  F   UNL A   1      50.114  25.192  33.003  1.00  0.00    -0.200 F 
ATOM     99  C   UNL A   1      50.807  26.280  31.025  1.00  0.00     0.200 A 
ATOM    100  F   UNL A   1      51.454  27.390  29.044  1.00  0.00    -0.200 F 
ATOM    101  F   UNL A   1      52.072  25.898  31.241  1.00  0.00    -0.200 F 
ENDBRANCH  68  91
ENDBRANCH  42  43
ENDBRANCH  34  37
ENDBRANCH  32  33
ENDBRANCH  31  32
ENDBRANCH  30  31
ENDBRANCH   1  30
TORSDOF 15
ENDMDL
MODEL 3
REMARK VINA RESULT:     -12.3      6.509     11.697
REMARK SMILES O=C(COCC(=O)/[NH+]=C1\S[C@@H]2CS(=O)(=O)C[C@H]2N1c1ccc(Cl)cc1)NCCCCNC(=O)c1ccc(-c2c3nc(c(-c4c(F)c(F)c(F)c(F)c4F)c4ccc([nH]4)c(-c4c(F)c(F)c(F)c(F)c4F)c4nc(c(-c5c(F)c(F)c(F)c(F)c5F)c5ccc2[nH]5)C=C4)C=C3)cc1
REMARK SMILES IDX 27 1 26 2 2 3 1 4 3 6 4 7 5 8 6 9 7 10 8 11 9 12 10 14 18 15
REMARK SMILES IDX 11 16 17 17 12 18 16 19 13 20 14 21 15 22 19 23 20 24 25 25
REMARK SMILES IDX 21 26 24 27 22 28 23 29 28 30 29 31 30 32 31 33 32 34 33 36
REMARK SMILES IDX 34 37 35 38 96 39 36 40 95 41 37 42 38 43 39 44 89 45 40 46
REMARK SMILES IDX 94 47 88 48 90 49 41 50 93 51 87 52 86 53 42 55 74 56 54 57
REMARK SMILES IDX 73 58 55 59 58 60 72 61 91 62 56 63 57 64 71 66 92 67 59 68
REMARK SMILES IDX 43 69 44 70 52 71 45 72 46 73 50 74 53 75 47 76 48 77 51 78
REMARK SMILES IDX 49 79 75 80 76 81 84 82 77 83 78 84 82 85 85 86 79 87 80 88
REMARK SMILES IDX 83 89 81 90 60 91 61 92 69 93 62 94 63 95 67 96 70 97 64 98
REMARK SMILES IDX 65 99 68 100 66 101
REMARK H PARENT 26 5 8 13 31 35 90 54 58 65
REMARK Flexibility Score: inf
ROOT
ATOM      1  C   UNL A   1      38.995  33.396  39.900  1.00  0.00     0.116 C 
ENDROOT
BRANCH   1   2
ATOM      2  N   UNL A   1      38.218  32.237  39.503  1.00  0.00    -0.354 N 
ATOM      3  C   UNL A   1      37.629  31.982  38.298  1.00  0.00     0.246 C 
ATOM      4  O   UNL A   1      37.039  30.913  38.134  1.00  0.00    -0.272 OA
ATOM      5  H   UNL A   1      38.100  31.544  40.193  1.00  0.00     0.163 HD
BRANCH   3   6
ATOM      6  C   UNL A   1      37.713  33.032  37.187  1.00  0.00     0.260 C 
BRANCH   6   7
ATOM      7  O   UNL A   1      37.031  32.642  36.005  1.00  0.00    -0.359 OA
BRANCH   7   8
ATOM      8  C   UNL A   1      37.908  32.475  34.896  1.00  0.00     0.288 C 
BRANCH   8   9
ATOM      9  C   UNL A   1      38.206  31.033  34.438  1.00  0.00     0.333 C 
ATOM     10  O   UNL A   1      38.288  30.140  35.279  1.00  0.00    -0.244 OA
ATOM     11  N   UNL A   1      38.419  30.776  33.106  1.00  0.00    -0.202 N 
ATOM     12  C   UNL A   1      37.537  31.027  32.198  1.00  0.00     0.319 C 
ATOM     13  H   UNL A   1      39.280  30.383  32.832  1.00  0.00     0.316 HD
ATOM     14  S   UNL A   1      35.977  31.876  32.476  1.00  0.00    -0.029 SA
ATOM     15  N   UNL A   1      37.642  30.730  30.827  1.00  0.00    -0.217 N 
ATOM     16  C   UNL A   1      36.015  32.435  30.763  1.00  0.00     0.120 C 
ATOM     17  C   UNL A   1      36.441  31.134  30.073  1.00  0.00     0.212 C 
ATOM     18  C   UNL A   1      34.766  32.943  30.094  1.00  0.00     0.156 C 
ATOM     19  C   UNL A   1      36.518  31.507  28.612  1.00  0.00     0.188 C 
ATOM     20  S   UNL A   1      35.025  32.478  28.381  1.00  0.00     0.155 S 
ATOM     21  O   UNL A   1      35.370  33.661  27.619  1.00  0.00    -0.229 OA
ATOM     22  O   UNL A   1      33.957  31.586  27.993  1.00  0.00    -0.229 OA
BRANCH  15  23
ATOM     23  C   UNL A   1      38.458  29.707  30.313  1.00  0.00     0.128 A 
ATOM     24  C   UNL A   1      38.154  28.353  30.529  1.00  0.00     0.053 A 
ATOM     25  C   UNL A   1      39.605  29.992  29.551  1.00  0.00     0.053 A 
ATOM     26  C   UNL A   1      38.981  27.329  30.052  1.00  0.00     0.025 A 
ATOM     27  C   UNL A   1      40.433  28.972  29.063  1.00  0.00     0.025 A 
ATOM     28  C   UNL A   1      40.123  27.644  29.326  1.00  0.00     0.041 A 
ATOM     29  Cl  UNL A   1      41.141  26.387  28.744  1.00  0.00    -0.084 Cl
ENDBRANCH  15  23
ENDBRANCH   8   9
ENDBRANCH   7   8
ENDBRANCH   6   7
ENDBRANCH   3   6
ENDBRANCH   1   2
BRANCH   1  30
ATOM     30  C   UNL A   1      40.502  33.151  39.820  1.00  0.00     0.023 C 
BRANCH  30  31
ATOM     31  C   UNL A   1      41.325  33.797  40.937  1.00  0.00     0.023 C 
BRANCH  31  32
ATOM     32  C   UNL A   1      42.183  34.985  40.516  1.00  0.00     0.116 C 
BRANCH  32  33
ATOM     33  N   UNL A   1      41.408  36.183  40.235  1.00  0.00    -0.352 N 
ATOM     34  C   UNL A   1      41.117  36.752  39.017  1.00  0.00     0.251 C 
ATOM     35  H   UNL A   1      41.044  36.650  41.021  1.00  0.00     0.163 HD
ATOM     36  O   UNL A   1      40.554  37.839  38.958  1.00  0.00    -0.269 OA
BRANCH  34  37
ATOM     37  C   UNL A   1      41.522  36.059  37.774  1.00  0.00     0.039 A 
ATOM     38  C   UNL A   1      42.882  35.922  37.485  1.00  0.00     0.014 A 
ATOM     39  C   UNL A   1      40.563  35.517  36.914  1.00  0.00     0.014 A 
ATOM     40  C   UNL A   1      43.283  35.176  36.373  1.00  0.00     0.010 A 
ATOM     41  C   UNL A   1      40.965  34.710  35.855  1.00  0.00     0.010 A 
ATOM     42  C   UNL A   1      42.328  34.529  35.572  1.00  0.00    -0.014 A 
BRANCH  42  43
ATOM     43  C   UNL A   1      42.725  33.665  34.428  1.00  0.00     0.031 A 
ATOM     44  C   UNL A   1      42.961  34.280  33.075  1.00  0.00     0.074 A 
ATOM     45  C   UNL A   1      42.794  32.328  34.583  1.00  0.00     0.049 A 
ATOM     46  N   UNL A   1      43.194  33.695  31.927  1.00  0.00    -0.248 NA
ATOM     47  C   UNL A   1      42.901  35.749  32.994  1.00  0.00     0.031 C 
ATOM     48  C   UNL A   1      42.555  31.606  35.833  1.00  0.00     0.029 A 
ATOM     49  N   UNL A   1      43.068  31.333  33.675  1.00  0.00    -0.354 N 
ATOM     50  C   UNL A   1      43.283  34.718  30.991  1.00  0.00     0.074 A 
ATOM     51  C   UNL A   1      43.035  35.957  31.693  1.00  0.00     0.031 C 
ATOM     52  C   UNL A   1      42.705  30.288  35.618  1.00  0.00     0.029 A 
ATOM     53  C   UNL A   1      43.002  30.066  34.206  1.00  0.00     0.049 A 
ATOM     54  H   UNL A   1      43.290  31.511  32.733  1.00  0.00     0.167 HD
ATOM     55  C   UNL A   1      43.565  34.631  29.670  1.00  0.00     0.037 A 
ATOM     56  C   UNL A   1      43.143  28.862  33.617  1.00  0.00     0.037 A 
ATOM     57  C   UNL A   1      43.847  33.399  28.983  1.00  0.00     0.049 A 
ATOM     58  C   UNL A   1      43.437  28.799  32.138  1.00  0.00     0.074 A 
ATOM     59  C   UNL A   1      44.211  33.216  27.660  1.00  0.00     0.029 A 
ATOM     60  N   UNL A   1      43.794  32.140  29.561  1.00  0.00    -0.354 N 
ATOM     61  N   UNL A   1      43.590  29.778  31.280  1.00  0.00    -0.248 NA
ATOM     62  C   UNL A   1      43.581  27.461  31.545  1.00  0.00     0.031 C 
ATOM     63  C   UNL A   1      44.317  31.845  27.422  1.00  0.00     0.029 A 
ATOM     64  C   UNL A   1      44.091  31.175  28.613  1.00  0.00     0.049 A 
ATOM     65  H   UNL A   1      43.577  31.959  30.505  1.00  0.00     0.167 HD
ATOM     66  C   UNL A   1      43.895  29.179  30.065  1.00  0.00     0.074 A 
ATOM     67  C   UNL A   1      43.912  27.751  30.296  1.00  0.00     0.031 C 
ATOM     68  C   UNL A   1      44.139  29.758  28.865  1.00  0.00     0.037 A 
BRANCH  55  69
ATOM     69  C   UNL A   1      43.589  35.899  28.867  1.00  0.00     0.064 A 
ATOM     70  C   UNL A   1      44.768  36.641  28.695  1.00  0.00     0.173 A 
ATOM     71  C   UNL A   1      42.437  36.332  28.194  1.00  0.00     0.173 A 
ATOM     72  F   UNL A   1      45.894  36.276  29.324  1.00  0.00    -0.203 F 
ATOM     73  C   UNL A   1      44.787  37.777  27.889  1.00  0.00     0.198 A 
ATOM     74  C   UNL A   1      42.467  37.450  27.365  1.00  0.00     0.198 A 
ATOM     75  F   UNL A   1      41.284  35.656  28.321  1.00  0.00    -0.203 F 
ATOM     76  F   UNL A   1      45.915  38.490  27.767  1.00  0.00    -0.200 F 
ATOM     77  C   UNL A   1      43.641  38.173  27.216  1.00  0.00     0.200 A 
ATOM     78  F   UNL A   1      41.364  37.821  26.701  1.00  0.00    -0.200 F 
ATOM     79  F   UNL A   1      43.667  39.254  26.425  1.00  0.00    -0.200 F 
ENDBRANCH  55  69
BRANCH  56  80
ATOM     80  C   UNL A   1      43.009  27.609  34.408  1.00  0.00     0.064 A 
ATOM     81  C   UNL A   1      41.771  26.959  34.528  1.00  0.00     0.173 A 
ATOM     82  C   UNL A   1      44.097  27.064  35.107  1.00  0.00     0.173 A 
ATOM     83  F   UNL A   1      40.695  27.450  33.896  1.00  0.00    -0.203 F 
ATOM     84  C   UNL A   1      41.617  25.844  35.349  1.00  0.00     0.198 A 
ATOM     85  C   UNL A   1      43.950  25.927  35.899  1.00  0.00     0.198 A 
ATOM     86  F   UNL A   1      45.305  27.640  35.025  1.00  0.00    -0.203 F 
ATOM     87  F   UNL A   1      40.406  25.290  35.504  1.00  0.00    -0.200 F 
ATOM     88  C   UNL A   1      42.707  25.327  36.032  1.00  0.00     0.200 A 
ATOM     89  F   UNL A   1      45.010  25.420  36.544  1.00  0.00    -0.200 F 
ATOM     90  F   UNL A   1      42.557  24.261  36.829  1.00  0.00    -0.200 F 
ENDBRANCH  56  80
BRANCH  68  91
ATOM     91  C   UNL A   1      44.520  28.864  27.720  1.00  0.00     0.064 A 
ATOM     92  C   UNL A   1      45.814  28.342  27.582  1.00  0.00     0.173 A 
ATOM     93  C   UNL A   1      43.552  28.476  26.779  1.00  0.00     0.173 A 
ATOM     94  F   UNL A   1      46.779  28.692  28.445  1.00  0.00    -0.203 F 
ATOM     95  C   UNL A   1      46.130  27.484  26.533  1.00  0.00     0.198 A 
ATOM     96  C   UNL A   1      43.863  27.590  25.754  1.00  0.00     0.198 A 
ATOM     97  F   UNL A   1      42.296  28.939  26.872  1.00  0.00    -0.203 F 
ATOM     98  F   UNL A   1      47.385  27.034  26.393  1.00  0.00    -0.200 F 
ATOM     99  C   UNL A   1      45.153  27.099  25.626  1.00  0.00     0.200 A 
ATOM    100  F   UNL A   1      42.912  27.204  24.891  1.00  0.00    -0.200 F 
ATOM    101  F   UNL A   1      45.456  26.261  24.627  1.00  0.00    -0.200 F 
ENDBRANCH  68  91
ENDBRANCH  42  43
ENDBRANCH  34  37
ENDBRANCH  32  33
ENDBRANCH  31  32
ENDBRANCH  30  31
ENDBRANCH   1  30
TORSDOF 15
ENDMDL
