MODEL 1
REMARK VINA RESULT:     -10.8      0.000      0.000
REMARK SMILES CC[C@H](C(C)C)[C@](C)(O)C(=O)NCCCCNC(=O)c1ccc(-c2c3nc(c(-c4c(F)c(F)c(F)c(F)c4F)c4ccc([nH]4)c(-c4c(F)c(F)c(F)c(F)c4F)c4nc(c(-c5c(F)c(F)c(F)c(F)c5F)c5ccc2[nH]5)C=C4)C=C3)cc1
REMARK SMILES IDX 14 1 13 2 12 3 10 4 11 5 7 7 8 8 3 9 2 10 1 11 4 12 5 13
REMARK SMILES IDX 6 14 9 15 15 17 16 18 17 19 18 20 19 22 20 23 21 24 82 25
REMARK SMILES IDX 22 26 81 27 23 28 24 29 25 30 75 31 26 32 80 33 74 34 76 35
REMARK SMILES IDX 27 36 79 37 73 38 72 39 28 41 60 42 40 43 59 44 41 45 44 46
REMARK SMILES IDX 58 47 77 48 42 49 43 50 57 52 78 53 45 54 29 55 30 56 38 57
REMARK SMILES IDX 31 58 32 59 36 60 39 61 33 62 34 63 37 64 35 65 61 66 62 67
REMARK SMILES IDX 70 68 63 69 64 70 68 71 71 72 65 73 66 74 69 75 67 76 46 77
REMARK SMILES IDX 47 78 55 79 48 80 49 81 53 82 56 83 50 84 51 85 54 86 52 87
REMARK H PARENT 12 6 9 16 17 21 76 40 44 51
REMARK Flexibility Score: inf
ROOT
ATOM      1  C   UNL A   1      31.721  30.442  26.747  1.00  0.00     0.023 C 
ENDROOT
BRANCH   1   2
ATOM      2  C   UNL A   1      32.251  29.868  25.436  1.00  0.00     0.116 C 
BRANCH   2   3
ATOM      3  N   UNL A   1      31.211  29.792  24.427  1.00  0.00    -0.354 N 
ATOM      4  C   UNL A   1      30.719  28.714  23.747  1.00  0.00     0.251 C 
ATOM      5  O   UNL A   1      29.924  28.968  22.835  1.00  0.00    -0.272 OA
ATOM      6  H   UNL A   1      30.793  30.653  24.197  1.00  0.00     0.163 HD
BRANCH   4   7
ATOM      7  C   UNL A   1      31.114  27.248  24.145  1.00  0.00     0.143 C 
ATOM      8  C   UNL A   1      30.658  26.927  25.587  1.00  0.00     0.053 C 
BRANCH   7   9
ATOM      9  C   UNL A   1      32.655  26.985  23.907  1.00  0.00     0.032 C 
BRANCH   9  10
ATOM     10  C   UNL A   1      33.113  27.410  22.474  1.00  0.00     0.004 C 
ATOM     11  C   UNL A   1      34.083  28.578  22.387  1.00  0.00     0.004 C 
ENDBRANCH   9  10
BRANCH   9  12
ATOM     12  C   UNL A   1      33.219  25.584  24.328  1.00  0.00    -0.011 C 
ATOM     13  C   UNL A   1      33.759  24.828  23.102  1.00  0.00     0.008 C 
ATOM     14  C   UNL A   1      34.337  25.626  25.372  1.00  0.00     0.008 C 
ENDBRANCH   9  12
ENDBRANCH   7   9
BRANCH   7  15
ATOM     15  O   UNL A   1      30.366  26.407  23.234  1.00  0.00    -0.380 OA
ATOM     16  H   UNL A   1      30.088  26.930  22.467  1.00  0.00     0.212 HD
ENDBRANCH   7  15
ENDBRANCH   4   7
ENDBRANCH   2   3
ENDBRANCH   1   2
BRANCH   1  17
ATOM     17  C   UNL A   1      31.567  31.963  26.762  1.00  0.00     0.023 C 
BRANCH  17  18
ATOM     18  C   UNL A   1      32.778  32.732  27.280  1.00  0.00     0.116 C 
BRANCH  18  19
ATOM     19  N   UNL A   1      32.468  34.112  27.622  1.00  0.00    -0.352 N 
ATOM     20  C   UNL A   1      33.010  34.907  28.601  1.00  0.00     0.251 C 
ATOM     21  H   UNL A   1      31.768  34.536  27.075  1.00  0.00     0.163 HD
ATOM     22  O   UNL A   1      32.522  36.007  28.849  1.00  0.00    -0.269 OA
BRANCH  20  23
ATOM     23  C   UNL A   1      34.169  34.424  29.381  1.00  0.00     0.039 A 
ATOM     24  C   UNL A   1      33.942  33.809  30.614  1.00  0.00     0.014 A 
ATOM     25  C   UNL A   1      35.470  34.560  28.891  1.00  0.00     0.014 A 
ATOM     26  C   UNL A   1      35.016  33.261  31.320  1.00  0.00     0.010 A 
ATOM     27  C   UNL A   1      36.526  33.943  29.555  1.00  0.00     0.010 A 
ATOM     28  C   UNL A   1      36.311  33.286  30.777  1.00  0.00    -0.014 A 
BRANCH  28  29
ATOM     29  C   UNL A   1      37.449  32.625  31.466  1.00  0.00     0.031 A 
ATOM     30  C   UNL A   1      38.153  31.465  30.820  1.00  0.00     0.074 A 
ATOM     31  C   UNL A   1      37.805  33.026  32.701  1.00  0.00     0.049 A 
ATOM     32  N   UNL A   1      39.122  30.718  31.288  1.00  0.00    -0.248 NA
ATOM     33  C   UNL A   1      37.691  31.073  29.478  1.00  0.00     0.031 C 
ATOM     34  C   UNL A   1      37.169  34.109  33.454  1.00  0.00     0.029 A 
ATOM     35  N   UNL A   1      38.782  32.565  33.547  1.00  0.00    -0.354 N 
ATOM     36  C   UNL A   1      39.371  29.765  30.310  1.00  0.00     0.074 A 
ATOM     37  C   UNL A   1      38.419  29.990  29.245  1.00  0.00     0.031 C 
ATOM     38  C   UNL A   1      37.790  34.246  34.637  1.00  0.00     0.029 A 
ATOM     39  C   UNL A   1      38.837  33.235  34.746  1.00  0.00     0.049 A 
ATOM     40  H   UNL A   1      39.388  31.823  33.317  1.00  0.00     0.167 HD
ATOM     41  C   UNL A   1      40.325  28.802  30.291  1.00  0.00     0.037 A 
ATOM     42  C   UNL A   1      39.634  33.048  35.815  1.00  0.00     0.037 A 
ATOM     43  C   UNL A   1      41.286  28.596  31.343  1.00  0.00     0.049 A 
ATOM     44  C   UNL A   1      40.673  31.959  35.774  1.00  0.00     0.074 A 
ATOM     45  C   UNL A   1      42.332  27.691  31.388  1.00  0.00     0.029 A 
ATOM     46  N   UNL A   1      41.314  29.299  32.538  1.00  0.00    -0.354 N 
ATOM     47  N   UNL A   1      40.951  31.114  34.811  1.00  0.00    -0.248 NA
ATOM     48  C   UNL A   1      41.512  31.800  36.971  1.00  0.00     0.031 C 
ATOM     49  C   UNL A   1      42.957  27.806  32.634  1.00  0.00     0.029 A 
ATOM     50  C   UNL A   1      42.342  28.826  33.340  1.00  0.00     0.049 A 
ATOM     51  H   UNL A   1      40.696  30.026  32.781  1.00  0.00     0.167 HD
ATOM     52  C   UNL A   1      42.016  30.350  35.269  1.00  0.00     0.074 A 
ATOM     53  C   UNL A   1      42.344  30.841  36.591  1.00  0.00     0.031 C 
ATOM     54  C   UNL A   1      42.664  29.332  34.650  1.00  0.00     0.037 A 
BRANCH  41  55
ATOM     55  C   UNL A   1      40.376  27.895  29.096  1.00  0.00     0.064 A 
ATOM     56  C   UNL A   1      39.638  26.702  29.041  1.00  0.00     0.173 A 
ATOM     57  C   UNL A   1      41.138  28.244  27.969  1.00  0.00     0.173 A 
ATOM     58  F   UNL A   1      38.902  26.315  30.093  1.00  0.00    -0.203 F 
ATOM     59  C   UNL A   1      39.685  25.880  27.918  1.00  0.00     0.198 A 
ATOM     60  C   UNL A   1      41.155  27.437  26.835  1.00  0.00     0.198 A 
ATOM     61  F   UNL A   1      41.857  29.377  27.963  1.00  0.00    -0.203 F 
ATOM     62  F   UNL A   1      39.013  24.721  27.910  1.00  0.00    -0.200 F 
ATOM     63  C   UNL A   1      40.436  26.251  26.814  1.00  0.00     0.200 A 
ATOM     64  F   UNL A   1      41.869  27.806  25.762  1.00  0.00    -0.200 F 
ATOM     65  F   UNL A   1      40.472  25.465  25.729  1.00  0.00    -0.200 F 
ENDBRANCH  41  55
BRANCH  42  66
ATOM     66  C   UNL A   1      39.501  33.924  37.009  1.00  0.00     0.064 A 
ATOM     67  C   UNL A   1      38.737  33.524  38.115  1.00  0.00     0.173 A 
ATOM     68  C   UNL A   1      40.116  35.184  37.065  1.00  0.00     0.173 A 
ATOM     69  F   UNL A   1      38.113  32.337  38.101  1.00  0.00    -0.203 F 
ATOM     70  C   UNL A   1      38.572  34.359  39.218  1.00  0.00     0.198 A 
ATOM     71  C   UNL A   1      39.976  36.006  38.183  1.00  0.00     0.198 A 
ATOM     72  F   UNL A   1      40.862  35.615  36.037  1.00  0.00    -0.203 F 
ATOM     73  F   UNL A   1      37.790  33.972  40.236  1.00  0.00    -0.200 F 
ATOM     74  C   UNL A   1      39.195  35.596  39.253  1.00  0.00     0.200 A 
ATOM     75  F   UNL A   1      40.593  37.194  38.220  1.00  0.00    -0.200 F 
ATOM     76  F   UNL A   1      39.036  36.399  40.314  1.00  0.00    -0.200 F 
ENDBRANCH  42  66
BRANCH  54  77
ATOM     77  C   UNL A   1      43.825  28.711  35.373  1.00  0.00     0.064 A 
ATOM     78  C   UNL A   1      45.141  29.164  35.188  1.00  0.00     0.173 A 
ATOM     79  C   UNL A   1      43.612  27.674  36.295  1.00  0.00     0.173 A 
ATOM     80  F   UNL A   1      45.400  30.142  34.308  1.00  0.00    -0.203 F 
ATOM     81  C   UNL A   1      46.201  28.580  35.877  1.00  0.00     0.198 A 
ATOM     82  C   UNL A   1      44.670  27.118  37.009  1.00  0.00     0.198 A 
ATOM     83  F   UNL A   1      42.373  27.209  36.516  1.00  0.00    -0.203 F 
ATOM     84  F   UNL A   1      47.455  28.993  35.644  1.00  0.00    -0.200 F 
ATOM     85  C   UNL A   1      45.964  27.566  36.792  1.00  0.00     0.200 A 
ATOM     86  F   UNL A   1      44.437  26.149  37.904  1.00  0.00    -0.200 F 
ATOM     87  F   UNL A   1      46.986  27.013  37.461  1.00  0.00    -0.200 F 
ENDBRANCH  54  77
ENDBRANCH  28  29
ENDBRANCH  20  23
ENDBRANCH  18  19
ENDBRANCH  17  18
ENDBRANCH   1  17
TORSDOF 15
ENDMDL
MODEL 2
REMARK VINA RESULT:     -10.8      6.256     11.560
REMARK SMILES CC[C@H](C(C)C)[C@](C)(O)C(=O)NCCCCNC(=O)c1ccc(-c2c3nc(c(-c4c(F)c(F)c(F)c(F)c4F)c4ccc([nH]4)c(-c4c(F)c(F)c(F)c(F)c4F)c4nc(c(-c5c(F)c(F)c(F)c(F)c5F)c5ccc2[nH]5)C=C4)C=C3)cc1
REMARK SMILES IDX 14 1 13 2 12 3 10 4 11 5 7 7 8 8 3 9 2 10 1 11 4 12 5 13
REMARK SMILES IDX 6 14 9 15 15 17 16 18 17 19 18 20 19 22 20 23 21 24 82 25
REMARK SMILES IDX 22 26 81 27 23 28 24 29 25 30 75 31 26 32 80 33 74 34 76 35
REMARK SMILES IDX 27 36 79 37 73 38 72 39 28 41 60 42 40 43 59 44 41 45 44 46
REMARK SMILES IDX 58 47 77 48 42 49 43 50 57 52 78 53 45 54 29 55 30 56 38 57
REMARK SMILES IDX 31 58 32 59 36 60 39 61 33 62 34 63 37 64 35 65 61 66 62 67
REMARK SMILES IDX 70 68 63 69 64 70 68 71 71 72 65 73 66 74 69 75 67 76 46 77
REMARK SMILES IDX 47 78 55 79 48 80 49 81 53 82 56 83 50 84 51 85 54 86 52 87
REMARK H PARENT 12 6 9 16 17 21 76 40 44 51
REMARK Flexibility Score: inf
ROOT
ATOM      1  C   UNL A   1      36.985  21.043  24.780  1.00  0.00     0.023 C 
ENDROOT
BRANCH   1   2
ATOM      2  C   UNL A   1      35.530  20.616  24.949  1.00  0.00     0.116 C 
BRANCH   2   3
ATOM      3  N   UNL A   1      35.029  20.937  26.273  1.00  0.00    -0.354 N 
ATOM      4  C   UNL A   1      33.842  21.497  26.655  1.00  0.00     0.251 C 
ATOM      5  O   UNL A   1      33.743  21.788  27.852  1.00  0.00    -0.272 OA
ATOM      6  H   UNL A   1      35.640  20.716  27.012  1.00  0.00     0.163 HD
BRANCH   4   7
ATOM      7  C   UNL A   1      32.671  21.707  25.630  1.00  0.00     0.143 C 
ATOM      8  C   UNL A   1      32.299  20.375  24.940  1.00  0.00     0.053 C 
BRANCH   7   9
ATOM      9  C   UNL A   1      33.006  22.866  24.607  1.00  0.00     0.032 C 
BRANCH   9  10
ATOM     10  C   UNL A   1      33.061  24.267  25.298  1.00  0.00     0.004 C 
ATOM     11  C   UNL A   1      34.409  24.972  25.303  1.00  0.00     0.004 C 
ENDBRANCH   9  10
BRANCH   9  12
ATOM     12  C   UNL A   1      32.203  22.890  23.261  1.00  0.00    -0.011 C 
ATOM     13  C   UNL A   1      31.088  23.949  23.316  1.00  0.00     0.008 C 
ATOM     14  C   UNL A   1      33.044  23.171  22.014  1.00  0.00     0.008 C 
ENDBRANCH   9  12
ENDBRANCH   7   9
BRANCH   7  15
ATOM     15  O   UNL A   1      31.548  22.129  26.440  1.00  0.00    -0.380 OA
ATOM     16  H   UNL A   1      31.494  23.097  26.437  1.00  0.00     0.212 HD
ENDBRANCH   7  15
ENDBRANCH   4   7
ENDBRANCH   2   3
ENDBRANCH   1   2
BRANCH   1  17
ATOM     17  C   UNL A   1      38.005  19.918  24.959  1.00  0.00     0.023 C 
BRANCH  17  18
ATOM     18  C   UNL A   1      39.220  20.274  25.809  1.00  0.00     0.116 C 
BRANCH  18  19
ATOM     19  N   UNL A   1      40.194  19.195  25.885  1.00  0.00    -0.352 N 
ATOM     20  C   UNL A   1      41.551  19.261  26.081  1.00  0.00     0.251 C 
ATOM     21  H   UNL A   1      39.827  18.288  25.781  1.00  0.00     0.163 HD
ATOM     22  O   UNL A   1      42.245  18.254  25.968  1.00  0.00    -0.269 OA
BRANCH  20  23
ATOM     23  C   UNL A   1      42.185  20.558  26.398  1.00  0.00     0.039 A 
ATOM     24  C   UNL A   1      42.653  21.355  25.351  1.00  0.00     0.014 A 
ATOM     25  C   UNL A   1      42.299  20.996  27.721  1.00  0.00     0.014 A 
ATOM     26  C   UNL A   1      43.167  22.624  25.625  1.00  0.00     0.010 A 
ATOM     27  C   UNL A   1      42.735  22.291  27.984  1.00  0.00     0.010 A 
ATOM     28  C   UNL A   1      43.174  23.120  26.940  1.00  0.00    -0.014 A 
BRANCH  28  29
ATOM     29  C   UNL A   1      43.626  24.503  27.240  1.00  0.00     0.031 A 
ATOM     30  C   UNL A   1      42.651  25.521  27.762  1.00  0.00     0.074 A 
ATOM     31  C   UNL A   1      44.898  24.859  26.979  1.00  0.00     0.049 A 
ATOM     32  N   UNL A   1      42.838  26.790  28.023  1.00  0.00    -0.248 NA
ATOM     33  C   UNL A   1      41.274  25.058  28.001  1.00  0.00     0.031 C 
ATOM     34  C   UNL A   1      45.928  23.977  26.428  1.00  0.00     0.029 A 
ATOM     35  N   UNL A   1      45.542  26.062  27.134  1.00  0.00    -0.354 N 
ATOM     36  C   UNL A   1      41.606  27.277  28.437  1.00  0.00     0.074 A 
ATOM     37  C   UNL A   1      40.665  26.184  28.344  1.00  0.00     0.031 C 
ATOM     38  C   UNL A   1      47.080  24.659  26.317  1.00  0.00     0.029 A 
ATOM     39  C   UNL A   1      46.860  26.037  26.746  1.00  0.00     0.049 A 
ATOM     40  H   UNL A   1      45.102  26.867  27.491  1.00  0.00     0.167 HD
ATOM     41  C   UNL A   1      41.293  28.520  28.879  1.00  0.00     0.037 A 
ATOM     42  C   UNL A   1      47.784  27.016  26.729  1.00  0.00     0.037 A 
ATOM     43  C   UNL A   1      42.238  29.599  28.992  1.00  0.00     0.049 A 
ATOM     44  C   UNL A   1      47.403  28.392  27.207  1.00  0.00     0.074 A 
ATOM     45  C   UNL A   1      42.034  30.875  29.490  1.00  0.00     0.029 A 
ATOM     46  N   UNL A   1      43.566  29.534  28.596  1.00  0.00    -0.354 N 
ATOM     47  N   UNL A   1      46.255  28.821  27.672  1.00  0.00    -0.248 NA
ATOM     48  C   UNL A   1      48.453  29.421  27.164  1.00  0.00     0.031 C 
ATOM     49  C   UNL A   1      43.221  31.598  29.341  1.00  0.00     0.029 A 
ATOM     50  C   UNL A   1      44.184  30.756  28.810  1.00  0.00     0.049 A 
ATOM     51  H   UNL A   1      44.004  28.737  28.218  1.00  0.00     0.167 HD
ATOM     52  C   UNL A   1      46.451  30.153  28.006  1.00  0.00     0.074 A 
ATOM     53  C   UNL A   1      47.834  30.460  27.706  1.00  0.00     0.031 C 
ATOM     54  C   UNL A   1      45.565  31.044  28.517  1.00  0.00     0.037 A 
BRANCH  41  55
ATOM     55  C   UNL A   1      39.867  28.781  29.271  1.00  0.00     0.064 A 
ATOM     56  C   UNL A   1      38.922  29.256  28.348  1.00  0.00     0.173 A 
ATOM     57  C   UNL A   1      39.427  28.511  30.577  1.00  0.00     0.173 A 
ATOM     58  F   UNL A   1      39.290  29.541  27.091  1.00  0.00    -0.203 F 
ATOM     59  C   UNL A   1      37.600  29.478  28.726  1.00  0.00     0.198 A 
ATOM     60  C   UNL A   1      38.097  28.702  30.941  1.00  0.00     0.198 A 
ATOM     61  F   UNL A   1      40.287  28.049  31.498  1.00  0.00    -0.203 F 
ATOM     62  F   UNL A   1      36.729  29.981  27.841  1.00  0.00    -0.200 F 
ATOM     63  C   UNL A   1      37.187  29.194  30.018  1.00  0.00     0.200 A 
ATOM     64  F   UNL A   1      37.697  28.410  32.187  1.00  0.00    -0.200 F 
ATOM     65  F   UNL A   1      35.912  29.398  30.377  1.00  0.00    -0.200 F 
ENDBRANCH  41  55
BRANCH  42  66
ATOM     66  C   UNL A   1      49.168  26.731  26.263  1.00  0.00     0.064 A 
ATOM     67  C   UNL A   1      49.539  26.952  24.929  1.00  0.00     0.173 A 
ATOM     68  C   UNL A   1      50.141  26.217  27.132  1.00  0.00     0.173 A 
ATOM     69  F   UNL A   1      48.638  27.423  24.054  1.00  0.00    -0.203 F 
ATOM     70  C   UNL A   1      50.819  26.645  24.476  1.00  0.00     0.198 A 
ATOM     71  C   UNL A   1      51.432  25.940  26.685  1.00  0.00     0.198 A 
ATOM     72  F   UNL A   1      49.842  25.991  28.420  1.00  0.00    -0.203 F 
ATOM     73  F   UNL A   1      51.128  26.814  23.182  1.00  0.00    -0.200 F 
ATOM     74  C   UNL A   1      51.767  26.144  25.355  1.00  0.00     0.200 A 
ATOM     75  F   UNL A   1      52.349  25.471  27.542  1.00  0.00    -0.200 F 
ATOM     76  F   UNL A   1      52.999  25.849  24.920  1.00  0.00    -0.200 F 
ENDBRANCH  42  66
BRANCH  54  77
ATOM     77  C   UNL A   1      46.073  32.423  28.829  1.00  0.00     0.064 A 
ATOM     78  C   UNL A   1      46.004  33.467  27.893  1.00  0.00     0.173 A 
ATOM     79  C   UNL A   1      46.600  32.713  30.097  1.00  0.00     0.173 A 
ATOM     80  F   UNL A   1      45.524  33.239  26.662  1.00  0.00    -0.203 F 
ATOM     81  C   UNL A   1      46.472  34.741  28.207  1.00  0.00     0.198 A 
ATOM     82  C   UNL A   1      47.032  33.996  30.419  1.00  0.00     0.198 A 
ATOM     83  F   UNL A   1      46.681  31.754  31.031  1.00  0.00    -0.203 F 
ATOM     84  F   UNL A   1      46.445  35.708  27.279  1.00  0.00    -0.200 F 
ATOM     85  C   UNL A   1      46.977  35.006  29.471  1.00  0.00     0.200 A 
ATOM     86  F   UNL A   1      47.504  34.255  31.646  1.00  0.00    -0.200 F 
ATOM     87  F   UNL A   1      47.416  36.235  29.773  1.00  0.00    -0.200 F 
ENDBRANCH  54  77
ENDBRANCH  28  29
ENDBRANCH  20  23
ENDBRANCH  18  19
ENDBRANCH  17  18
ENDBRANCH   1  17
TORSDOF 15
ENDMDL
MODEL 3
REMARK VINA RESULT:     -10.8      6.289     11.623
REMARK SMILES CC[C@H](C(C)C)[C@](C)(O)C(=O)NCCCCNC(=O)c1ccc(-c2c3nc(c(-c4c(F)c(F)c(F)c(F)c4F)c4ccc([nH]4)c(-c4c(F)c(F)c(F)c(F)c4F)c4nc(c(-c5c(F)c(F)c(F)c(F)c5F)c5ccc2[nH]5)C=C4)C=C3)cc1
REMARK SMILES IDX 14 1 13 2 12 3 10 4 11 5 7 7 8 8 3 9 2 10 1 11 4 12 5 13
REMARK SMILES IDX 6 14 9 15 15 17 16 18 17 19 18 20 19 22 20 23 21 24 82 25
REMARK SMILES IDX 22 26 81 27 23 28 24 29 25 30 75 31 26 32 80 33 74 34 76 35
REMARK SMILES IDX 27 36 79 37 73 38 72 39 28 41 60 42 40 43 59 44 41 45 44 46
REMARK SMILES IDX 58 47 77 48 42 49 43 50 57 52 78 53 45 54 29 55 30 56 38 57
REMARK SMILES IDX 31 58 32 59 36 60 39 61 33 62 34 63 37 64 35 65 61 66 62 67
REMARK SMILES IDX 70 68 63 69 64 70 68 71 71 72 65 73 66 74 69 75 67 76 46 77
REMARK SMILES IDX 47 78 55 79 48 80 49 81 53 82 56 83 50 84 51 85 54 86 52 87
REMARK H PARENT 12 6 9 16 17 21 76 40 44 51
REMARK Flexibility Score: inf
ROOT
ATOM      1  C   UNL A   1      36.987  21.002  24.800  1.00  0.00     0.023 C 
ENDROOT
BRANCH   1   2
ATOM      2  C   UNL A   1      35.534  20.579  24.997  1.00  0.00     0.116 C 
BRANCH   2   3
ATOM      3  N   UNL A   1      35.046  20.940  26.316  1.00  0.00    -0.354 N 
ATOM      4  C   UNL A   1      33.869  21.525  26.691  1.00  0.00     0.251 C 
ATOM      5  O   UNL A   1      33.783  21.847  27.881  1.00  0.00    -0.272 OA
ATOM      6  H   UNL A   1      35.659  20.730  27.057  1.00  0.00     0.163 HD
BRANCH   4   7
ATOM      7  C   UNL A   1      32.694  21.725  25.669  1.00  0.00     0.143 C 
ATOM      8  C   UNL A   1      32.307  20.382  25.008  1.00  0.00     0.053 C 
BRANCH   7   9
ATOM      9  C   UNL A   1      33.033  22.860  24.622  1.00  0.00     0.032 C 
BRANCH   9  10
ATOM     10  C   UNL A   1      33.115  24.272  25.287  1.00  0.00     0.004 C 
ATOM     11  C   UNL A   1      34.496  24.904  25.376  1.00  0.00     0.004 C 
ENDBRANCH   9  10
BRANCH   9  12
ATOM     12  C   UNL A   1      32.214  22.872  23.285  1.00  0.00    -0.011 C 
ATOM     13  C   UNL A   1      30.952  23.740  23.431  1.00  0.00     0.008 C 
ATOM     14  C   UNL A   1      32.982  23.378  22.062  1.00  0.00     0.008 C 
ENDBRANCH   9  12
ENDBRANCH   7   9
BRANCH   7  15
ATOM     15  O   UNL A   1      31.580  22.172  26.477  1.00  0.00    -0.380 OA
ATOM     16  H   UNL A   1      30.754  22.051  25.984  1.00  0.00     0.212 HD
ENDBRANCH   7  15
ENDBRANCH   4   7
ENDBRANCH   2   3
ENDBRANCH   1   2
BRANCH   1  17
ATOM     17  C   UNL A   1      38.010  19.883  25.000  1.00  0.00     0.023 C 
BRANCH  17  18
ATOM     18  C   UNL A   1      39.212  20.251  25.863  1.00  0.00     0.116 C 
BRANCH  18  19
ATOM     19  N   UNL A   1      40.197  19.183  25.947  1.00  0.00    -0.352 N 
ATOM     20  C   UNL A   1      41.556  19.266  26.126  1.00  0.00     0.251 C 
ATOM     21  H   UNL A   1      39.838  18.270  25.863  1.00  0.00     0.163 HD
ATOM     22  O   UNL A   1      42.258  18.263  26.023  1.00  0.00    -0.269 OA
BRANCH  20  23
ATOM     23  C   UNL A   1      42.180  20.574  26.414  1.00  0.00     0.039 A 
ATOM     24  C   UNL A   1      42.654  21.344  25.350  1.00  0.00     0.014 A 
ATOM     25  C   UNL A   1      42.280  21.048  27.725  1.00  0.00     0.014 A 
ATOM     26  C   UNL A   1      43.159  22.623  25.594  1.00  0.00     0.010 A 
ATOM     27  C   UNL A   1      42.707  22.352  27.957  1.00  0.00     0.010 A 
ATOM     28  C   UNL A   1      43.151  23.154  26.895  1.00  0.00    -0.014 A 
BRANCH  28  29
ATOM     29  C   UNL A   1      43.594  24.547  27.161  1.00  0.00     0.031 A 
ATOM     30  C   UNL A   1      42.617  25.565  27.679  1.00  0.00     0.074 A 
ATOM     31  C   UNL A   1      44.859  24.911  26.875  1.00  0.00     0.049 A 
ATOM     32  N   UNL A   1      42.795  26.842  27.911  1.00  0.00    -0.248 NA
ATOM     33  C   UNL A   1      41.248  25.095  27.946  1.00  0.00     0.031 C 
ATOM     34  C   UNL A   1      45.889  24.028  26.326  1.00  0.00     0.029 A 
ATOM     35  N   UNL A   1      45.492  26.123  26.997  1.00  0.00    -0.354 N 
ATOM     36  C   UNL A   1      41.564  27.325  28.335  1.00  0.00     0.074 A 
ATOM     37  C   UNL A   1      40.632  26.220  28.276  1.00  0.00     0.031 C 
ATOM     38  C   UNL A   1      47.032  24.719  26.184  1.00  0.00     0.029 A 
ATOM     39  C   UNL A   1      46.805  26.103  26.590  1.00  0.00     0.049 A 
ATOM     40  H   UNL A   1      45.049  26.930  27.345  1.00  0.00     0.167 HD
ATOM     41  C   UNL A   1      41.245  28.572  28.757  1.00  0.00     0.037 A 
ATOM     42  C   UNL A   1      47.719  27.090  26.540  1.00  0.00     0.037 A 
ATOM     43  C   UNL A   1      42.181  29.663  28.835  1.00  0.00     0.049 A 
ATOM     44  C   UNL A   1      47.331  28.472  26.998  1.00  0.00     0.074 A 
ATOM     45  C   UNL A   1      41.971  30.946  29.311  1.00  0.00     0.029 A 
ATOM     46  N   UNL A   1      43.503  29.603  28.420  1.00  0.00    -0.354 N 
ATOM     47  N   UNL A   1      46.185  28.898  27.471  1.00  0.00    -0.248 NA
ATOM     48  C   UNL A   1      48.369  29.510  26.918  1.00  0.00     0.031 C 
ATOM     49  C   UNL A   1      43.148  31.678  29.130  1.00  0.00     0.029 A 
ATOM     50  C   UNL A   1      44.112  30.835  28.602  1.00  0.00     0.049 A 
ATOM     51  H   UNL A   1      43.944  28.803  28.052  1.00  0.00     0.167 HD
ATOM     52  C   UNL A   1      46.373  30.239  27.776  1.00  0.00     0.074 A 
ATOM     53  C   UNL A   1      47.748  30.553  27.450  1.00  0.00     0.031 C 
ATOM     54  C   UNL A   1      45.486  31.131  28.282  1.00  0.00     0.037 A 
BRANCH  41  55
ATOM     55  C   UNL A   1      39.823  28.828  29.165  1.00  0.00     0.064 A 
ATOM     56  C   UNL A   1      39.383  28.622  30.483  1.00  0.00     0.173 A 
ATOM     57  C   UNL A   1      38.895  29.329  28.238  1.00  0.00     0.173 A 
ATOM     58  F   UNL A   1      40.224  28.135  31.406  1.00  0.00    -0.203 F 
ATOM     59  C   UNL A   1      38.064  28.879  30.847  1.00  0.00     0.198 A 
ATOM     60  C   UNL A   1      37.586  29.618  28.615  1.00  0.00     0.198 A 
ATOM     61  F   UNL A   1      39.263  29.552  26.967  1.00  0.00    -0.203 F 
ATOM     62  F   UNL A   1      37.655  28.625  32.098  1.00  0.00    -0.200 F 
ATOM     63  C   UNL A   1      37.169  29.384  29.916  1.00  0.00     0.200 A 
ATOM     64  F   UNL A   1      36.728  30.121  27.716  1.00  0.00    -0.200 F 
ATOM     65  F   UNL A   1      35.903  29.641  30.271  1.00  0.00    -0.200 F 
ENDBRANCH  41  55
BRANCH  42  66
ATOM     66  C   UNL A   1      49.098  26.810  26.060  1.00  0.00     0.064 A 
ATOM     67  C   UNL A   1      49.447  27.007  24.716  1.00  0.00     0.173 A 
ATOM     68  C   UNL A   1      50.089  26.324  26.924  1.00  0.00     0.173 A 
ATOM     69  F   UNL A   1      48.528  27.451  23.845  1.00  0.00    -0.203 F 
ATOM     70  C   UNL A   1      50.724  26.703  24.250  1.00  0.00     0.198 A 
ATOM     71  C   UNL A   1      51.377  26.050  26.464  1.00  0.00     0.198 A 
ATOM     72  F   UNL A   1      49.812  26.122  28.221  1.00  0.00    -0.203 F 
ATOM     73  F   UNL A   1      51.012  26.849  22.949  1.00  0.00    -0.200 F 
ATOM     74  C   UNL A   1      51.689  26.230  25.125  1.00  0.00     0.200 A 
ATOM     75  F   UNL A   1      52.311  25.609  27.316  1.00  0.00    -0.200 F 
ATOM     76  F   UNL A   1      52.918  25.939  24.677  1.00  0.00    -0.200 F 
ENDBRANCH  42  66
BRANCH  54  77
ATOM     77  C   UNL A   1      45.985  32.521  28.560  1.00  0.00     0.064 A 
ATOM     78  C   UNL A   1      46.579  32.862  29.785  1.00  0.00     0.173 A 
ATOM     79  C   UNL A   1      45.903  33.513  27.572  1.00  0.00     0.173 A 
ATOM     80  F   UNL A   1      46.668  31.955  30.769  1.00  0.00    -0.203 F 
ATOM     81  C   UNL A   1      47.044  34.154  30.018  1.00  0.00     0.198 A 
ATOM     82  C   UNL A   1      46.403  34.793  27.795  1.00  0.00     0.198 A 
ATOM     83  F   UNL A   1      45.352  33.237  26.380  1.00  0.00    -0.203 F 
ATOM     84  F   UNL A   1      47.559  34.472  31.214  1.00  0.00    -0.200 F 
ATOM     85  C   UNL A   1      46.964  35.114  29.021  1.00  0.00     0.200 A 
ATOM     86  F   UNL A   1      46.339  35.714  26.825  1.00  0.00    -0.200 F 
ATOM     87  F   UNL A   1      47.422  36.354  29.245  1.00  0.00    -0.200 F 
ENDBRANCH  54  77
ENDBRANCH  28  29
ENDBRANCH  20  23
ENDBRANCH  18  19
ENDBRANCH  17  18
ENDBRANCH   1  17
TORSDOF 15
ENDMDL
