MODEL 1
REMARK VINA RESULT:     -11.2      0.000      0.000
REMARK SMILES C=CC[N@@H+](CC(=O)NCCCCNC(=O)c1ccc(-c2c3nc(c(-c4c(F)c(F)c(F)c(F)c4F)c4ccc([nH]4)c(-c4c(F)c(F)c(F)c(F)c4F)c4nc(c(-c5c(F)c(F)c(F)c(F)c5F)c5ccc2[nH]5)C=C4)C=C3)cc1)C[C@H]1CCC[C@H](C)C1
REMARK SMILES IDX 10 1 9 2 8 3 6 4 7 5 5 7 4 8 3 10 2 11 1 12 79 13 80 14
REMARK SMILES IDX 81 15 86 16 82 17 84 18 83 19 85 20 11 21 12 22 13 23 14 24
REMARK SMILES IDX 15 26 16 27 17 28 78 29 18 30 77 31 19 32 20 33 21 34 71 35
REMARK SMILES IDX 22 36 76 37 70 38 72 39 23 40 75 41 69 42 68 43 24 45 56 46
REMARK SMILES IDX 36 47 55 48 37 49 40 50 54 51 73 52 38 53 39 54 53 56 74 57
REMARK SMILES IDX 41 58 25 59 26 60 34 61 27 62 28 63 32 64 35 65 29 66 30 67
REMARK SMILES IDX 33 68 31 69 57 70 58 71 66 72 59 73 60 74 64 75 67 76 61 77
REMARK SMILES IDX 62 78 65 79 63 80 42 81 43 82 51 83 44 84 45 85 49 86 52 87
REMARK SMILES IDX 46 88 47 89 50 90 48 91
REMARK H PARENT 8 6 4 9 13 25 72 44 40 55
REMARK Flexibility Score: inf
ROOT
ATOM      1  C   UNL A   1      37.272  21.814  24.476  1.00  0.00     0.023 C 
ENDROOT
BRANCH   1   2
ATOM      2  C   UNL A   1      36.962  22.930  25.476  1.00  0.00     0.116 C 
BRANCH   2   3
ATOM      3  N   UNL A   1      36.101  22.463  26.531  1.00  0.00    -0.351 N 
ATOM      4  C   UNL A   1      34.758  22.269  26.552  1.00  0.00     0.275 C 
ATOM      5  O   UNL A   1      34.345  21.616  27.516  1.00  0.00    -0.269 OA
ATOM      6  H   UNL A   1      36.561  22.250  27.375  1.00  0.00     0.163 HD
BRANCH   4   7
ATOM      7  C   UNL A   1      33.812  22.726  25.423  1.00  0.00     0.363 C 
BRANCH   7   8
ATOM      8  N   UNL A   1      33.395  21.727  24.402  1.00  0.00    -0.324 N 
ATOM      9  H   UNL A   1      34.184  21.087  24.314  1.00  0.00     0.348 HD
BRANCH   8  10
ATOM     10  C   UNL A   1      33.194  22.363  23.097  1.00  0.00     0.290 C 
BRANCH  10  11
ATOM     11  C   UNL A   1      32.720  23.787  23.076  1.00  0.00     0.025 C 
ATOM     12  C   UNL A   1      33.358  24.767  22.415  1.00  0.00     0.010 C 
ENDBRANCH  10  11
ENDBRANCH   8  10
BRANCH   8  13
ATOM     13  C   UNL A   1      32.330  20.791  24.795  1.00  0.00     0.266 C 
BRANCH  13  14
ATOM     14  C   UNL A   1      32.576  19.275  24.499  1.00  0.00     0.044 C 
ATOM     15  C   UNL A   1      32.266  18.894  23.045  1.00  0.00     0.009 C 
ATOM     16  C   UNL A   1      34.045  18.933  24.840  1.00  0.00     0.012 C 
ATOM     17  C   UNL A   1      32.738  17.510  22.614  1.00  0.00     0.001 C 
ATOM     18  C   UNL A   1      34.472  17.511  24.450  1.00  0.00    -0.014 C 
ATOM     19  C   UNL A   1      34.197  17.269  22.964  1.00  0.00     0.003 C 
ATOM     20  C   UNL A   1      33.809  16.447  25.330  1.00  0.00     0.007 C 
ENDBRANCH  13  14
ENDBRANCH   8  13
ENDBRANCH   7   8
ENDBRANCH   4   7
ENDBRANCH   2   3
ENDBRANCH   1   2
BRANCH   1  21
ATOM     21  C   UNL A   1      37.864  20.544  25.070  1.00  0.00     0.023 C 
BRANCH  21  22
ATOM     22  C   UNL A   1      39.211  20.719  25.745  1.00  0.00     0.116 C 
BRANCH  22  23
ATOM     23  N   UNL A   1      39.997  19.493  25.823  1.00  0.00    -0.352 N 
ATOM     24  C   UNL A   1      41.336  19.356  26.106  1.00  0.00     0.251 C 
ATOM     25  H   UNL A   1      39.506  18.657  25.650  1.00  0.00     0.163 HD
ATOM     26  O   UNL A   1      41.883  18.266  26.074  1.00  0.00    -0.269 OA
BRANCH  24  27
ATOM     27  C   UNL A   1      42.108  20.579  26.400  1.00  0.00     0.039 A 
ATOM     28  C   UNL A   1      42.527  21.382  25.339  1.00  0.00     0.014 A 
ATOM     29  C   UNL A   1      42.291  20.982  27.724  1.00  0.00     0.014 A 
ATOM     30  C   UNL A   1      43.057  22.643  25.609  1.00  0.00     0.010 A 
ATOM     31  C   UNL A   1      42.721  22.274  27.984  1.00  0.00     0.010 A 
ATOM     32  C   UNL A   1      43.111  23.115  26.930  1.00  0.00    -0.014 A 
BRANCH  32  33
ATOM     33  C   UNL A   1      43.594  24.480  27.249  1.00  0.00     0.031 A 
ATOM     34  C   UNL A   1      42.628  25.489  27.801  1.00  0.00     0.074 A 
ATOM     35  C   UNL A   1      44.860  24.834  26.957  1.00  0.00     0.049 A 
ATOM     36  N   UNL A   1      42.800  26.766  28.024  1.00  0.00    -0.248 NA
ATOM     37  C   UNL A   1      41.269  25.006  28.099  1.00  0.00     0.031 C 
ATOM     38  C   UNL A   1      45.871  23.959  26.360  1.00  0.00     0.029 A 
ATOM     39  N   UNL A   1      45.509  26.033  27.108  1.00  0.00    -0.354 N 
ATOM     40  C   UNL A   1      41.567  27.239  28.453  1.00  0.00     0.074 A 
ATOM     41  C   UNL A   1      40.642  26.130  28.403  1.00  0.00     0.031 C 
ATOM     42  C   UNL A   1      47.019  24.643  26.220  1.00  0.00     0.029 A 
ATOM     43  C   UNL A   1      46.814  26.013  26.682  1.00  0.00     0.049 A 
ATOM     44  H   UNL A   1      45.079  26.834  27.487  1.00  0.00     0.167 HD
ATOM     45  C   UNL A   1      41.244  28.482  28.881  1.00  0.00     0.037 A 
ATOM     46  C   UNL A   1      47.738  26.992  26.666  1.00  0.00     0.037 A 
ATOM     47  C   UNL A   1      42.183  29.564  28.983  1.00  0.00     0.049 A 
ATOM     48  C   UNL A   1      47.364  28.356  27.182  1.00  0.00     0.074 A 
ATOM     49  C   UNL A   1      41.982  30.839  29.479  1.00  0.00     0.029 A 
ATOM     50  N   UNL A   1      43.512  29.490  28.590  1.00  0.00    -0.354 N 
ATOM     51  N   UNL A   1      46.213  28.776  27.648  1.00  0.00    -0.248 NA
ATOM     52  C   UNL A   1      48.417  29.380  27.174  1.00  0.00     0.031 C 
ATOM     53  C   UNL A   1      43.181  31.549  29.356  1.00  0.00     0.029 A 
ATOM     54  C   UNL A   1      44.140  30.702  28.822  1.00  0.00     0.049 A 
ATOM     55  H   UNL A   1      43.944  28.694  28.204  1.00  0.00     0.167 HD
ATOM     56  C   UNL A   1      46.410  30.100  28.015  1.00  0.00     0.074 A 
ATOM     57  C   UNL A   1      47.795  30.412  27.726  1.00  0.00     0.031 C 
ATOM     58  C   UNL A   1      45.524  30.981  28.541  1.00  0.00     0.037 A 
BRANCH  45  59
ATOM     59  C   UNL A   1      39.820  28.725  29.284  1.00  0.00     0.064 A 
ATOM     60  C   UNL A   1      38.869  29.205  28.369  1.00  0.00     0.173 A 
ATOM     61  C   UNL A   1      39.396  28.464  30.594  1.00  0.00     0.173 A 
ATOM     62  F   UNL A   1      39.228  29.487  27.108  1.00  0.00    -0.203 F 
ATOM     63  C   UNL A   1      37.555  29.446  28.762  1.00  0.00     0.198 A 
ATOM     64  C   UNL A   1      38.073  28.675  30.975  1.00  0.00     0.198 A 
ATOM     65  F   UNL A   1      40.264  28.003  31.507  1.00  0.00    -0.203 F 
ATOM     66  F   UNL A   1      36.681  29.958  27.885  1.00  0.00    -0.200 F 
ATOM     67  C   UNL A   1      37.157  29.174  30.061  1.00  0.00     0.200 A 
ATOM     68  F   UNL A   1      37.687  28.404  32.229  1.00  0.00    -0.200 F 
ATOM     69  F   UNL A   1      35.891  29.403  30.436  1.00  0.00    -0.200 F 
ENDBRANCH  45  59
BRANCH  46  70
ATOM     70  C   UNL A   1      49.114  26.712  26.179  1.00  0.00     0.064 A 
ATOM     71  C   UNL A   1      50.082  26.175  27.039  1.00  0.00     0.173 A 
ATOM     72  C   UNL A   1      49.490  26.972  24.854  1.00  0.00     0.173 A 
ATOM     73  F   UNL A   1      49.774  25.926  28.321  1.00  0.00    -0.203 F 
ATOM     74  C   UNL A   1      51.380  25.928  26.598  1.00  0.00     0.198 A 
ATOM     75  C   UNL A   1      50.783  26.702  24.407  1.00  0.00     0.198 A 
ATOM     76  F   UNL A   1      48.600  27.481  23.990  1.00  0.00    -0.203 F 
ATOM     77  F   UNL A   1      52.297  25.454  27.453  1.00  0.00    -0.200 F 
ATOM     78  C   UNL A   1      51.728  26.187  25.282  1.00  0.00     0.200 A 
ATOM     79  F   UNL A   1      51.112  26.942  23.131  1.00  0.00    -0.200 F 
ATOM     80  F   UNL A   1      52.976  25.948  24.857  1.00  0.00    -0.200 F 
ENDBRANCH  46  70
BRANCH  58  81
ATOM     81  C   UNL A   1      46.033  32.351  28.875  1.00  0.00     0.064 A 
ATOM     82  C   UNL A   1      45.934  33.411  27.963  1.00  0.00     0.173 A 
ATOM     83  C   UNL A   1      46.568  32.617  30.143  1.00  0.00     0.173 A 
ATOM     84  F   UNL A   1      45.442  33.201  26.733  1.00  0.00    -0.203 F 
ATOM     85  C   UNL A   1      46.370  34.688  28.305  1.00  0.00     0.198 A 
ATOM     86  C   UNL A   1      46.978  33.900  30.491  1.00  0.00     0.198 A 
ATOM     87  F   UNL A   1      46.676  31.636  31.052  1.00  0.00    -0.203 F 
ATOM     88  F   UNL A   1      46.301  35.679  27.407  1.00  0.00    -0.200 F 
ATOM     89  C   UNL A   1      46.884  34.933  29.571  1.00  0.00     0.200 A 
ATOM     90  F   UNL A   1      47.463  34.139  31.718  1.00  0.00    -0.200 F 
ATOM     91  F   UNL A   1      47.293  36.166  29.901  1.00  0.00    -0.200 F 
ENDBRANCH  58  81
ENDBRANCH  32  33
ENDBRANCH  24  27
ENDBRANCH  22  23
ENDBRANCH  21  22
ENDBRANCH   1  21
TORSDOF 16
ENDMDL
MODEL 2
REMARK VINA RESULT:     -11.2      3.727      7.608
REMARK SMILES C=CC[N@@H+](CC(=O)NCCCCNC(=O)c1ccc(-c2c3nc(c(-c4c(F)c(F)c(F)c(F)c4F)c4ccc([nH]4)c(-c4c(F)c(F)c(F)c(F)c4F)c4nc(c(-c5c(F)c(F)c(F)c(F)c5F)c5ccc2[nH]5)C=C4)C=C3)cc1)C[C@H]1CCC[C@H](C)C1
REMARK SMILES IDX 10 1 9 2 8 3 6 4 7 5 5 7 4 8 3 10 2 11 1 12 79 13 80 14
REMARK SMILES IDX 81 15 86 16 82 17 84 18 83 19 85 20 11 21 12 22 13 23 14 24
REMARK SMILES IDX 15 26 16 27 17 28 78 29 18 30 77 31 19 32 20 33 21 34 71 35
REMARK SMILES IDX 22 36 76 37 70 38 72 39 23 40 75 41 69 42 68 43 24 45 56 46
REMARK SMILES IDX 36 47 55 48 37 49 40 50 54 51 73 52 38 53 39 54 53 56 74 57
REMARK SMILES IDX 41 58 25 59 26 60 34 61 27 62 28 63 32 64 35 65 29 66 30 67
REMARK SMILES IDX 33 68 31 69 57 70 58 71 66 72 59 73 60 74 64 75 67 76 61 77
REMARK SMILES IDX 62 78 65 79 63 80 42 81 43 82 51 83 44 84 45 85 49 86 52 87
REMARK SMILES IDX 46 88 47 89 50 90 48 91
REMARK H PARENT 8 6 4 9 13 25 72 44 40 55
REMARK Flexibility Score: inf
ROOT
ATOM      1  C   UNL A   1      32.237  26.791  26.479  1.00  0.00     0.023 C 
ENDROOT
BRANCH   1   2
ATOM      2  C   UNL A   1      30.903  26.339  25.881  1.00  0.00     0.116 C 
BRANCH   2   3
ATOM      3  N   UNL A   1      30.339  25.245  26.626  1.00  0.00    -0.351 N 
ATOM      4  C   UNL A   1      30.404  23.906  26.413  1.00  0.00     0.275 C 
ATOM      5  O   UNL A   1      30.039  23.212  27.368  1.00  0.00    -0.269 OA
ATOM      6  H   UNL A   1      29.821  25.510  27.421  1.00  0.00     0.163 HD
BRANCH   4   7
ATOM      7  C   UNL A   1      30.980  23.273  25.130  1.00  0.00     0.363 C 
BRANCH   7   8
ATOM      8  N   UNL A   1      32.193  22.418  25.247  1.00  0.00    -0.324 N 
ATOM      9  H   UNL A   1      31.919  21.644  25.852  1.00  0.00     0.348 HD
BRANCH   8  10
ATOM     10  C   UNL A   1      33.280  23.138  25.915  1.00  0.00     0.290 C 
BRANCH  10  11
ATOM     11  C   UNL A   1      33.627  22.739  27.319  1.00  0.00     0.025 C 
ATOM     12  C   UNL A   1      34.425  21.699  27.614  1.00  0.00     0.010 C 
ENDBRANCH  10  11
ENDBRANCH   8  10
BRANCH   8  13
ATOM     13  C   UNL A   1      32.599  21.686  24.037  1.00  0.00     0.266 C 
BRANCH  13  14
ATOM     14  C   UNL A   1      32.458  20.129  24.073  1.00  0.00     0.044 C 
ATOM     15  C   UNL A   1      32.226  19.518  22.684  1.00  0.00     0.009 C 
ATOM     16  C   UNL A   1      33.731  19.528  24.715  1.00  0.00     0.012 C 
ATOM     17  C   UNL A   1      32.353  18.002  22.604  1.00  0.00     0.001 C 
ATOM     18  C   UNL A   1      33.799  17.995  24.674  1.00  0.00    -0.014 C 
ATOM     19  C   UNL A   1      33.641  17.501  23.234  1.00  0.00     0.003 C 
ATOM     20  C   UNL A   1      32.777  17.346  25.611  1.00  0.00     0.007 C 
ENDBRANCH  13  14
ENDBRANCH   8  13
ENDBRANCH   7   8
ENDBRANCH   4   7
ENDBRANCH   2   3
ENDBRANCH   1   2
BRANCH   1  21
ATOM     21  C   UNL A   1      32.268  28.217  27.010  1.00  0.00     0.023 C 
BRANCH  21  22
ATOM     22  C   UNL A   1      33.652  28.757  27.320  1.00  0.00     0.116 C 
BRANCH  22  23
ATOM     23  N   UNL A   1      33.660  30.145  27.764  1.00  0.00    -0.352 N 
ATOM     24  C   UNL A   1      34.694  30.853  28.333  1.00  0.00     0.251 C 
ATOM     25  H   UNL A   1      32.816  30.639  27.642  1.00  0.00     0.163 HD
ATOM     26  O   UNL A   1      34.541  32.000  28.720  1.00  0.00    -0.269 OA
BRANCH  24  27
ATOM     27  C   UNL A   1      35.985  30.163  28.511  1.00  0.00     0.039 A 
ATOM     28  C   UNL A   1      36.936  30.240  27.492  1.00  0.00     0.014 A 
ATOM     29  C   UNL A   1      36.288  29.561  29.734  1.00  0.00     0.014 A 
ATOM     30  C   UNL A   1      38.232  29.786  27.736  1.00  0.00     0.010 A 
ATOM     31  C   UNL A   1      37.600  29.206  30.007  1.00  0.00     0.010 A 
ATOM     32  C   UNL A   1      38.583  29.312  29.010  1.00  0.00    -0.014 A 
BRANCH  32  33
ATOM     33  C   UNL A   1      39.970  28.896  29.331  1.00  0.00     0.031 A 
ATOM     34  C   UNL A   1      40.850  29.822  30.120  1.00  0.00     0.074 A 
ATOM     35  C   UNL A   1      40.459  27.743  28.836  1.00  0.00     0.049 A 
ATOM     36  N   UNL A   1      42.123  29.720  30.398  1.00  0.00    -0.248 NA
ATOM     37  C   UNL A   1      40.221  31.053  30.629  1.00  0.00     0.031 C 
ATOM     38  C   UNL A   1      39.719  26.793  28.002  1.00  0.00     0.029 A 
ATOM     39  N   UNL A   1      41.706  27.182  28.949  1.00  0.00    -0.354 N 
ATOM     40  C   UNL A   1      42.451  30.885  31.079  1.00  0.00     0.074 A 
ATOM     41  C   UNL A   1      41.262  31.705  31.122  1.00  0.00     0.031 C 
ATOM     42  C   UNL A   1      40.518  25.755  27.703  1.00  0.00     0.029 A 
ATOM     43  C   UNL A   1      41.835  25.984  28.289  1.00  0.00     0.049 A 
ATOM     44  H   UNL A   1      42.440  27.599  29.456  1.00  0.00     0.167 HD
ATOM     45  C   UNL A   1      43.632  31.226  31.646  1.00  0.00     0.037 A 
ATOM     46  C   UNL A   1      42.899  25.167  28.172  1.00  0.00     0.037 A 
ATOM     47  C   UNL A   1      44.794  30.379  31.649  1.00  0.00     0.049 A 
ATOM     48  C   UNL A   1      44.190  25.551  28.843  1.00  0.00     0.074 A 
ATOM     49  C   UNL A   1      46.015  30.591  32.262  1.00  0.00     0.029 A 
ATOM     50  N   UNL A   1      44.869  29.148  31.014  1.00  0.00    -0.354 N 
ATOM     51  N   UNL A   1      44.472  26.624  29.542  1.00  0.00    -0.248 NA
ATOM     52  C   UNL A   1      45.311  24.610  28.713  1.00  0.00     0.031 C 
ATOM     53  C   UNL A   1      46.842  29.502  31.970  1.00  0.00     0.029 A 
ATOM     54  C   UNL A   1      46.123  28.593  31.211  1.00  0.00     0.049 A 
ATOM     55  H   UNL A   1      44.141  28.731  30.500  1.00  0.00     0.167 HD
ATOM     56  C   UNL A   1      45.787  26.475  29.958  1.00  0.00     0.074 A 
ATOM     57  C   UNL A   1      46.246  25.202  29.442  1.00  0.00     0.031 C 
ATOM     58  C   UNL A   1      46.549  27.316  30.699  1.00  0.00     0.037 A 
BRANCH  45  59
ATOM     59  C   UNL A   1      43.715  32.562  32.320  1.00  0.00     0.064 A 
ATOM     60  C   UNL A   1      43.423  32.717  33.684  1.00  0.00     0.173 A 
ATOM     61  C   UNL A   1      44.102  33.701  31.599  1.00  0.00     0.173 A 
ATOM     62  F   UNL A   1      43.031  31.662  34.414  1.00  0.00    -0.203 F 
ATOM     63  C   UNL A   1      43.483  33.967  34.293  1.00  0.00     0.198 A 
ATOM     64  C   UNL A   1      44.193  34.945  32.218  1.00  0.00     0.198 A 
ATOM     65  F   UNL A   1      44.393  33.608  30.292  1.00  0.00    -0.203 F 
ATOM     66  F   UNL A   1      43.145  34.098  35.583  1.00  0.00    -0.200 F 
ATOM     67  C   UNL A   1      43.874  35.078  33.562  1.00  0.00     0.200 A 
ATOM     68  F   UNL A   1      44.580  36.016  31.513  1.00  0.00    -0.200 F 
ATOM     69  F   UNL A   1      43.936  36.281  34.151  1.00  0.00    -0.200 F 
ENDBRANCH  45  59
BRANCH  46  70
ATOM     70  C   UNL A   1      42.779  23.890  27.422  1.00  0.00     0.064 A 
ATOM     71  C   UNL A   1      42.345  22.722  28.062  1.00  0.00     0.173 A 
ATOM     72  C   UNL A   1      43.095  23.808  26.058  1.00  0.00     0.173 A 
ATOM     73  F   UNL A   1      42.049  22.746  29.371  1.00  0.00    -0.203 F 
ATOM     74  C   UNL A   1      42.249  21.514  27.373  1.00  0.00     0.198 A 
ATOM     75  C   UNL A   1      42.976  22.606  25.363  1.00  0.00     0.198 A 
ATOM     76  F   UNL A   1      43.510  24.899  25.398  1.00  0.00    -0.203 F 
ATOM     77  F   UNL A   1      41.871  20.404  28.020  1.00  0.00    -0.200 F 
ATOM     78  C   UNL A   1      42.560  21.459  26.023  1.00  0.00     0.200 A 
ATOM     79  F   UNL A   1      43.265  22.558  24.056  1.00  0.00    -0.200 F 
ATOM     80  F   UNL A   1      42.466  20.299  25.359  1.00  0.00    -0.200 F 
ENDBRANCH  46  70
BRANCH  58  81
ATOM     81  C   UNL A   1      47.942  26.872  31.030  1.00  0.00     0.064 A 
ATOM     82  C   UNL A   1      48.206  26.047  32.132  1.00  0.00     0.173 A 
ATOM     83  C   UNL A   1      49.014  27.228  30.198  1.00  0.00     0.173 A 
ATOM     84  F   UNL A   1      47.215  25.692  32.963  1.00  0.00    -0.203 F 
ATOM     85  C   UNL A   1      49.499  25.606  32.399  1.00  0.00     0.198 A 
ATOM     86  C   UNL A   1      50.300  26.764  30.453  1.00  0.00     0.198 A 
ATOM     87  F   UNL A   1      48.809  28.011  29.127  1.00  0.00    -0.203 F 
ATOM     88  F   UNL A   1      49.737  24.849  33.477  1.00  0.00    -0.200 F 
ATOM     89  C   UNL A   1      50.543  25.959  31.555  1.00  0.00     0.200 A 
ATOM     90  F   UNL A   1      51.306  27.094  29.630  1.00  0.00    -0.200 F 
ATOM     91  F   UNL A   1      51.786  25.525  31.808  1.00  0.00    -0.200 F 
ENDBRANCH  58  81
ENDBRANCH  32  33
ENDBRANCH  24  27
ENDBRANCH  22  23
ENDBRANCH  21  22
ENDBRANCH   1  21
TORSDOF 16
ENDMDL
MODEL 3
REMARK VINA RESULT:     -11.1      5.785      9.873
REMARK SMILES C=CC[N@@H+](CC(=O)NCCCCNC(=O)c1ccc(-c2c3nc(c(-c4c(F)c(F)c(F)c(F)c4F)c4ccc([nH]4)c(-c4c(F)c(F)c(F)c(F)c4F)c4nc(c(-c5c(F)c(F)c(F)c(F)c5F)c5ccc2[nH]5)C=C4)C=C3)cc1)C[C@H]1CCC[C@H](C)C1
REMARK SMILES IDX 10 1 9 2 8 3 6 4 7 5 5 7 4 8 3 10 2 11 1 12 79 13 80 14
REMARK SMILES IDX 81 15 86 16 82 17 84 18 83 19 85 20 11 21 12 22 13 23 14 24
REMARK SMILES IDX 15 26 16 27 17 28 78 29 18 30 77 31 19 32 20 33 21 34 71 35
REMARK SMILES IDX 22 36 76 37 70 38 72 39 23 40 75 41 69 42 68 43 24 45 56 46
REMARK SMILES IDX 36 47 55 48 37 49 40 50 54 51 73 52 38 53 39 54 53 56 74 57
REMARK SMILES IDX 41 58 25 59 26 60 34 61 27 62 28 63 32 64 35 65 29 66 30 67
REMARK SMILES IDX 33 68 31 69 57 70 58 71 66 72 59 73 60 74 64 75 67 76 61 77
REMARK SMILES IDX 62 78 65 79 63 80 42 81 43 82 51 83 44 84 45 85 49 86 52 87
REMARK SMILES IDX 46 88 47 89 50 90 48 91
REMARK H PARENT 8 6 4 9 13 25 72 44 40 55
REMARK Flexibility Score: inf
ROOT
ATOM      1  C   UNL A   1      31.870  30.517  26.745  1.00  0.00     0.023 C 
ENDROOT
BRANCH   1   2
ATOM      2  C   UNL A   1      33.328  30.052  26.790  1.00  0.00     0.116 C 
BRANCH   2   3
ATOM      3  N   UNL A   1      33.720  29.441  25.548  1.00  0.00    -0.351 N 
ATOM      4  C   UNL A   1      33.554  28.170  25.099  1.00  0.00     0.275 C 
ATOM      5  O   UNL A   1      33.767  28.017  23.891  1.00  0.00    -0.269 OA
ATOM      6  H   UNL A   1      34.185  30.042  24.920  1.00  0.00     0.163 HD
BRANCH   4   7
ATOM      7  C   UNL A   1      33.044  27.013  25.981  1.00  0.00     0.363 C 
BRANCH   7   8
ATOM      8  N   UNL A   1      33.022  25.641  25.404  1.00  0.00    -0.324 N 
ATOM      9  H   UNL A   1      33.567  25.703  24.545  1.00  0.00     0.348 HD
BRANCH   8  10
ATOM     10  C   UNL A   1      31.659  25.250  25.037  1.00  0.00     0.290 C 
BRANCH  10  11
ATOM     11  C   UNL A   1      31.402  24.861  23.610  1.00  0.00     0.025 C 
ATOM     12  C   UNL A   1      31.296  23.586  23.200  1.00  0.00     0.010 C 
ENDBRANCH  10  11
ENDBRANCH   8  10
BRANCH   8  13
ATOM     13  C   UNL A   1      33.778  24.610  26.133  1.00  0.00     0.266 C 
BRANCH  13  14
ATOM     14  C   UNL A   1      34.428  23.474  25.277  1.00  0.00     0.044 C 
ATOM     15  C   UNL A   1      35.124  24.001  24.015  1.00  0.00     0.009 C 
ATOM     16  C   UNL A   1      35.436  22.700  26.160  1.00  0.00     0.012 C 
ATOM     17  C   UNL A   1      36.006  22.997  23.284  1.00  0.00     0.001 C 
ATOM     18  C   UNL A   1      36.266  21.652  25.406  1.00  0.00    -0.014 C 
ATOM     19  C   UNL A   1      36.982  22.303  24.220  1.00  0.00     0.003 C 
ATOM     20  C   UNL A   1      35.421  20.453  24.968  1.00  0.00     0.007 C 
ENDBRANCH  13  14
ENDBRANCH   8  13
ENDBRANCH   7   8
ENDBRANCH   4   7
ENDBRANCH   2   3
ENDBRANCH   1   2
BRANCH   1  21
ATOM     21  C   UNL A   1      31.662  32.025  26.719  1.00  0.00     0.023 C 
BRANCH  21  22
ATOM     22  C   UNL A   1      32.800  32.840  27.304  1.00  0.00     0.116 C 
BRANCH  22  23
ATOM     23  N   UNL A   1      32.434  34.210  27.642  1.00  0.00    -0.352 N 
ATOM     24  C   UNL A   1      32.995  35.033  28.591  1.00  0.00     0.251 C 
ATOM     25  H   UNL A   1      31.688  34.594  27.126  1.00  0.00     0.163 HD
ATOM     26  O   UNL A   1      32.543  36.144  28.815  1.00  0.00    -0.269 OA
BRANCH  24  27
ATOM     27  C   UNL A   1      34.133  34.511  29.370  1.00  0.00     0.039 A 
ATOM     28  C   UNL A   1      33.876  33.779  30.530  1.00  0.00     0.014 A 
ATOM     29  C   UNL A   1      35.432  34.639  28.873  1.00  0.00     0.014 A 
ATOM     30  C   UNL A   1      34.922  33.096  31.149  1.00  0.00     0.010 A 
ATOM     31  C   UNL A   1      36.447  33.877  29.429  1.00  0.00     0.010 A 
ATOM     32  C   UNL A   1      36.204  33.101  30.574  1.00  0.00    -0.014 A 
BRANCH  32  33
ATOM     33  C   UNL A   1      37.322  32.322  31.158  1.00  0.00     0.031 A 
ATOM     34  C   UNL A   1      37.824  32.676  32.529  1.00  0.00     0.074 A 
ATOM     35  C   UNL A   1      37.939  31.374  30.426  1.00  0.00     0.049 A 
ATOM     36  N   UNL A   1      38.866  32.220  33.173  1.00  0.00    -0.248 NA
ATOM     37  C   UNL A   1      37.078  33.716  33.255  1.00  0.00     0.031 C 
ATOM     38  C   UNL A   1      37.581  30.988  29.060  1.00  0.00     0.029 A 
ATOM     39  N   UNL A   1      39.011  30.573  30.727  1.00  0.00    -0.354 N 
ATOM     40  C   UNL A   1      38.918  32.941  34.358  1.00  0.00     0.074 A 
ATOM     41  C   UNL A   1      37.841  33.904  34.320  1.00  0.00     0.031 C 
ATOM     42  C   UNL A   1      38.402  30.006  28.651  1.00  0.00     0.029 A 
ATOM     43  C   UNL A   1      39.366  29.721  29.710  1.00  0.00     0.049 A 
ATOM     44  H   UNL A   1      39.482  30.606  31.591  1.00  0.00     0.167 HD
ATOM     45  C   UNL A   1      39.769  32.792  35.400  1.00  0.00     0.037 A 
ATOM     46  C   UNL A   1      40.359  28.814  29.643  1.00  0.00     0.037 A 
ATOM     47  C   UNL A   1      40.800  31.793  35.455  1.00  0.00     0.049 A 
ATOM     48  C   UNL A   1      41.270  28.642  30.829  1.00  0.00     0.074 A 
ATOM     49  C   UNL A   1      41.666  31.501  36.493  1.00  0.00     0.029 A 
ATOM     50  N   UNL A   1      41.096  30.912  34.424  1.00  0.00    -0.354 N 
ATOM     51  N   UNL A   1      41.268  29.283  31.973  1.00  0.00    -0.248 NA
ATOM     52  C   UNL A   1      42.316  27.617  30.718  1.00  0.00     0.031 C 
ATOM     53  C   UNL A   1      42.508  30.464  36.079  1.00  0.00     0.029 A 
ATOM     54  C   UNL A   1      42.140  30.083  34.799  1.00  0.00     0.049 A 
ATOM     55  H   UNL A   1      40.633  30.881  33.556  1.00  0.00     0.167 HD
ATOM     56  C   UNL A   1      42.290  28.723  32.726  1.00  0.00     0.074 A 
ATOM     57  C   UNL A   1      42.884  27.681  31.914  1.00  0.00     0.031 C 
ATOM     58  C   UNL A   1      42.702  29.042  33.977  1.00  0.00     0.037 A 
BRANCH  45  59
ATOM     59  C   UNL A   1      39.604  33.721  36.565  1.00  0.00     0.064 A 
ATOM     60  C   UNL A   1      38.799  33.385  37.664  1.00  0.00     0.173 A 
ATOM     61  C   UNL A   1      40.269  34.955  36.592  1.00  0.00     0.173 A 
ATOM     62  F   UNL A   1      38.128  32.223  37.680  1.00  0.00    -0.203 F 
ATOM     63  C   UNL A   1      38.638  34.266  38.730  1.00  0.00     0.198 A 
ATOM     64  C   UNL A   1      40.132  35.820  37.674  1.00  0.00     0.198 A 
ATOM     65  F   UNL A   1      41.052  35.324  35.566  1.00  0.00    -0.203 F 
ATOM     66  F   UNL A   1      37.818  33.947  39.742  1.00  0.00    -0.200 F 
ATOM     67  C   UNL A   1      39.309  35.478  38.738  1.00  0.00     0.200 A 
ATOM     68  F   UNL A   1      40.788  36.988  37.685  1.00  0.00    -0.200 F 
ATOM     69  F   UNL A   1      39.157  36.323  39.767  1.00  0.00    -0.200 F 
ENDBRANCH  45  59
BRANCH  46  70
ATOM     70  C   UNL A   1      40.523  27.977  28.427  1.00  0.00     0.064 A 
ATOM     71  C   UNL A   1      41.286  28.431  27.342  1.00  0.00     0.173 A 
ATOM     72  C   UNL A   1      39.925  26.713  28.320  1.00  0.00     0.173 A 
ATOM     73  F   UNL A   1      41.863  29.642  27.390  1.00  0.00    -0.203 F 
ATOM     74  C   UNL A   1      41.429  27.663  26.189  1.00  0.00     0.198 A 
ATOM     75  C   UNL A   1      40.088  25.935  27.175  1.00  0.00     0.198 A 
ATOM     76  F   UNL A   1      39.189  26.231  29.332  1.00  0.00    -0.203 F 
ATOM     77  F   UNL A   1      42.129  28.140  25.151  1.00  0.00    -0.200 F 
ATOM     78  C   UNL A   1      40.834  26.413  26.108  1.00  0.00     0.200 A 
ATOM     79  F   UNL A   1      39.522  24.722  27.106  1.00  0.00    -0.200 F 
ATOM     80  F   UNL A   1      40.972  25.673  25.000  1.00  0.00    -0.200 F 
ENDBRANCH  46  70
BRANCH  58  81
ATOM     81  C   UNL A   1      43.822  28.234  34.560  1.00  0.00     0.064 A 
ATOM     82  C   UNL A   1      45.154  28.663  34.482  1.00  0.00     0.173 A 
ATOM     83  C   UNL A   1      43.549  27.047  35.257  1.00  0.00     0.173 A 
ATOM     84  F   UNL A   1      45.464  29.784  33.814  1.00  0.00    -0.203 F 
ATOM     85  C   UNL A   1      46.177  27.923  35.067  1.00  0.00     0.198 A 
ATOM     86  C   UNL A   1      44.571  26.324  35.863  1.00  0.00     0.198 A 
ATOM     87  F   UNL A   1      42.289  26.600  35.364  1.00  0.00    -0.203 F 
ATOM     88  F   UNL A   1      47.447  28.331  34.950  1.00  0.00    -0.200 F 
ATOM     89  C   UNL A   1      45.884  26.759  35.764  1.00  0.00     0.200 A 
ATOM     90  F   UNL A   1      44.286  25.207  36.547  1.00  0.00    -0.200 F 
ATOM     91  F   UNL A   1      46.870  26.054  36.336  1.00  0.00    -0.200 F 
ENDBRANCH  58  81
ENDBRANCH  32  33
ENDBRANCH  24  27
ENDBRANCH  22  23
ENDBRANCH  21  22
ENDBRANCH   1  21
TORSDOF 16
ENDMDL
