MODEL 1
REMARK VINA RESULT:     -13.8      0.000      0.000
REMARK SMILES Cc1ccc(F)cc1S(=O)(=O)Nc1cc(C(=O)NCCCCNC(=O)c2ccc(-c3c4nc(c(-c5c(F)c(F)c(F)c(F)c5F)c5ccc([nH]5)c(-c5c(F)c(F)c(F)c(F)c5F)c5nc(c(-c6c(F)c(F)c(F)c(F)c6F)c6ccc3[nH]6)C=C5)C=C4)cc2)ccc1N(C)Cc1ccccc1
REMARK SMILES IDX 20 1 19 2 18 3 16 4 17 5 15 7 13 8 14 9 91 10 90 11 89 12
REMARK SMILES IDX 12 13 9 15 10 16 11 17 8 18 1 19 2 20 3 21 4 22 7 23 5 24
REMARK SMILES IDX 6 25 92 26 93 27 94 28 95 29 96 30 100 31 97 32 99 33 98 34
REMARK SMILES IDX 21 35 22 36 23 37 24 38 25 40 26 41 27 42 88 43 28 44 87 45
REMARK SMILES IDX 29 46 30 47 31 48 81 49 32 50 86 51 80 52 82 53 33 54 85 55
REMARK SMILES IDX 79 56 78 57 34 59 66 60 46 61 65 62 47 63 50 64 64 65 83 66
REMARK SMILES IDX 48 67 49 68 63 70 84 71 51 72 35 73 36 74 44 75 37 76 38 77
REMARK SMILES IDX 42 78 45 79 39 80 40 81 43 82 41 83 67 84 68 85 76 86 69 87
REMARK SMILES IDX 70 88 74 89 77 90 71 91 72 92 75 93 73 94 52 95 53 96 61 97
REMARK SMILES IDX 54 98 55 99 59 100 62 101 56 102 57 103 60 104 58 105
REMARK H PARENT 18 6 12 14 23 39 82 58 50 69
REMARK Flexibility Score: inf
ROOT
ATOM      1  C   UNL A   1      32.377  29.698  27.223  1.00  0.00     0.023 C 
ENDROOT
BRANCH   1   2
ATOM      2  C   UNL A   1      32.265  30.726  26.096  1.00  0.00     0.116 C 
BRANCH   2   3
ATOM      3  N   UNL A   1      31.083  30.480  25.306  1.00  0.00    -0.352 N 
ATOM      4  C   UNL A   1      30.826  29.676  24.224  1.00  0.00     0.251 C 
ATOM      5  O   UNL A   1      29.765  29.922  23.643  1.00  0.00    -0.269 OA
ATOM      6  H   UNL A   1      30.299  30.994  25.606  1.00  0.00     0.163 HD
BRANCH   4   7
ATOM      7  C   UNL A   1      31.658  28.499  23.756  1.00  0.00     0.042 A 
ATOM      8  C   UNL A   1      32.203  26.184  24.371  1.00  0.00     0.073 A 
ATOM      9  C   UNL A   1      31.289  27.270  24.308  1.00  0.00     0.042 A 
ATOM     10  C   UNL A   1      33.378  26.099  23.621  1.00  0.00     0.061 A 
ATOM     11  C   UNL A   1      33.653  27.314  22.931  1.00  0.00     0.029 A 
ATOM     12  C   UNL A   1      32.850  28.501  23.040  1.00  0.00     0.016 A 
BRANCH   8  13
ATOM     13  N   UNL A   1      32.209  25.468  25.607  1.00  0.00    -0.277 N 
ATOM     14  H   UNL A   1      32.726  25.736  26.401  1.00  0.00     0.180 HD
BRANCH  13  15
ATOM     15  S   UNL A   1      31.189  24.066  25.532  1.00  0.00     0.262 S 
ATOM     16  O   UNL A   1      30.398  24.168  24.338  1.00  0.00    -0.201 OA
ATOM     17  O   UNL A   1      30.470  24.069  26.800  1.00  0.00    -0.201 OA
BRANCH  15  18
ATOM     18  C   UNL A   1      32.170  22.517  25.437  1.00  0.00     0.093 A 
ATOM     19  C   UNL A   1      33.357  22.852  27.652  1.00  0.00     0.046 C 
ATOM     20  C   UNL A   1      32.940  22.021  26.487  1.00  0.00    -0.030 A 
ATOM     21  C   UNL A   1      33.381  20.667  26.460  1.00  0.00     0.008 A 
ATOM     22  C   UNL A   1      33.160  19.832  25.369  1.00  0.00     0.039 A 
ATOM     23  C   UNL A   1      32.089  21.683  24.325  1.00  0.00     0.061 A 
ATOM     24  C   UNL A   1      32.553  20.375  24.271  1.00  0.00     0.124 A 
ATOM     25  F   UNL A   1      32.414  19.662  23.144  1.00  0.00    -0.207 F 
ENDBRANCH  15  18
ENDBRANCH  13  15
ENDBRANCH   8  13
BRANCH  10  26
ATOM     26  N   UNL A   1      34.281  25.001  23.715  1.00  0.00    -0.369 N 
ATOM     27  C   UNL A   1      34.020  23.919  22.751  1.00  0.00     0.144 C 
BRANCH  26  28
ATOM     28  C   UNL A   1      35.144  24.564  24.933  1.00  0.00     0.151 C 
BRANCH  28  29
ATOM     29  C   UNL A   1      36.108  23.312  25.033  1.00  0.00    -0.029 A 
ATOM     30  C   UNL A   1      36.025  22.038  24.420  1.00  0.00     0.005 A 
ATOM     31  C   UNL A   1      37.144  23.389  25.988  1.00  0.00     0.005 A 
ATOM     32  C   UNL A   1      37.087  21.103  24.441  1.00  0.00     0.000 A 
ATOM     33  C   UNL A   1      38.148  22.403  26.116  1.00  0.00     0.000 A 
ATOM     34  C   UNL A   1      38.173  21.304  25.270  1.00  0.00     0.000 A 
ENDBRANCH  28  29
ENDBRANCH  26  28
ENDBRANCH  10  26
ENDBRANCH   4   7
ENDBRANCH   2   3
ENDBRANCH   1   2
BRANCH   1  35
ATOM     35  C   UNL A   1      33.390  28.565  26.983  1.00  0.00     0.023 C 
BRANCH  35  36
ATOM     36  C   UNL A   1      34.825  28.957  27.283  1.00  0.00     0.116 C 
BRANCH  36  37
ATOM     37  N   UNL A   1      34.908  30.072  28.232  1.00  0.00    -0.352 N 
ATOM     38  C   UNL A   1      35.904  30.331  29.153  1.00  0.00     0.251 C 
ATOM     39  H   UNL A   1      34.163  30.715  28.210  1.00  0.00     0.163 HD
ATOM     40  O   UNL A   1      35.713  31.049  30.125  1.00  0.00    -0.269 OA
BRANCH  38  41
ATOM     41  C   UNL A   1      37.226  29.754  28.898  1.00  0.00     0.039 A 
ATOM     42  C   UNL A   1      37.998  30.069  27.774  1.00  0.00     0.014 A 
ATOM     43  C   UNL A   1      37.673  28.846  29.850  1.00  0.00     0.014 A 
ATOM     44  C   UNL A   1      39.248  29.473  27.634  1.00  0.00     0.010 A 
ATOM     45  C   UNL A   1      38.972  28.467  29.842  1.00  0.00     0.010 A 
ATOM     46  C   UNL A   1      39.712  28.674  28.682  1.00  0.00    -0.014 A 
BRANCH  46  47
ATOM     47  C   UNL A   1      40.943  27.918  28.687  1.00  0.00     0.031 A 
ATOM     48  C   UNL A   1      40.896  26.476  28.486  1.00  0.00     0.074 A 
ATOM     49  C   UNL A   1      42.073  28.661  28.691  1.00  0.00     0.049 A 
ATOM     50  N   UNL A   1      41.771  25.665  28.951  1.00  0.00    -0.248 NA
ATOM     51  C   UNL A   1      39.810  25.815  27.772  1.00  0.00     0.031 C 
ATOM     52  C   UNL A   1      43.448  28.312  28.390  1.00  0.00     0.029 A 
ATOM     53  N   UNL A   1      42.155  30.011  29.082  1.00  0.00    -0.354 N 
ATOM     54  C   UNL A   1      41.585  24.468  28.296  1.00  0.00     0.074 A 
ATOM     55  C   UNL A   1      40.255  24.553  27.742  1.00  0.00     0.031 C 
ATOM     56  C   UNL A   1      44.250  29.265  28.906  1.00  0.00     0.029 A 
ATOM     57  C   UNL A   1      43.415  30.181  29.673  1.00  0.00     0.049 A 
ATOM     58  H   UNL A   1      41.461  30.701  28.964  1.00  0.00     0.167 HD
ATOM     59  C   UNL A   1      42.669  23.654  28.138  1.00  0.00     0.037 A 
ATOM     60  C   UNL A   1      43.441  30.381  31.026  1.00  0.00     0.037 A 
ATOM     61  C   UNL A   1      43.856  24.300  28.721  1.00  0.00     0.049 A 
ATOM     62  C   UNL A   1      43.960  29.172  31.772  1.00  0.00     0.074 A 
ATOM     63  C   UNL A   1      44.907  25.032  28.191  1.00  0.00     0.029 A 
ATOM     64  N   UNL A   1      43.861  24.573  30.076  1.00  0.00    -0.354 N 
ATOM     65  N   UNL A   1      44.235  28.026  31.210  1.00  0.00    -0.248 NA
ATOM     66  C   UNL A   1      44.155  29.140  33.216  1.00  0.00     0.031 C 
ATOM     67  C   UNL A   1      45.531  25.752  29.259  1.00  0.00     0.029 A 
ATOM     68  C   UNL A   1      44.873  25.440  30.437  1.00  0.00     0.049 A 
ATOM     69  H   UNL A   1      43.216  24.191  30.714  1.00  0.00     0.167 HD
ATOM     70  C   UNL A   1      44.622  27.120  32.154  1.00  0.00     0.074 A 
ATOM     71  C   UNL A   1      44.523  27.861  33.403  1.00  0.00     0.031 C 
ATOM     72  C   UNL A   1      44.976  25.835  31.836  1.00  0.00     0.037 A 
BRANCH  59  73
ATOM     73  C   UNL A   1      42.758  22.432  27.246  1.00  0.00     0.064 A 
ATOM     74  C   UNL A   1      41.872  21.349  27.447  1.00  0.00     0.173 A 
ATOM     75  C   UNL A   1      43.668  22.245  26.187  1.00  0.00     0.173 A 
ATOM     76  F   UNL A   1      40.888  21.406  28.354  1.00  0.00    -0.203 F 
ATOM     77  C   UNL A   1      41.948  20.161  26.712  1.00  0.00     0.198 A 
ATOM     78  C   UNL A   1      43.766  21.045  25.472  1.00  0.00     0.198 A 
ATOM     79  F   UNL A   1      44.461  23.228  25.751  1.00  0.00    -0.203 F 
ATOM     80  F   UNL A   1      41.077  19.172  26.960  1.00  0.00    -0.200 F 
ATOM     81  C   UNL A   1      42.910  20.000  25.739  1.00  0.00     0.200 A 
ATOM     82  F   UNL A   1      44.692  20.919  24.510  1.00  0.00    -0.200 F 
ATOM     83  F   UNL A   1      42.990  18.859  25.043  1.00  0.00    -0.200 F 
ENDBRANCH  59  73
BRANCH  60  84
ATOM     84  C   UNL A   1      42.302  31.269  31.453  1.00  0.00     0.064 A 
ATOM     85  C   UNL A   1      42.286  32.574  30.911  1.00  0.00     0.173 A 
ATOM     86  C   UNL A   1      41.073  30.732  31.866  1.00  0.00     0.173 A 
ATOM     87  F   UNL A   1      43.435  33.156  30.533  1.00  0.00    -0.203 F 
ATOM     88  C   UNL A   1      41.087  33.202  30.579  1.00  0.00     0.198 A 
ATOM     89  C   UNL A   1      39.874  31.393  31.576  1.00  0.00     0.198 A 
ATOM     90  F   UNL A   1      41.017  29.515  32.424  1.00  0.00    -0.203 F 
ATOM     91  F   UNL A   1      41.104  34.346  29.878  1.00  0.00    -0.200 F 
ATOM     92  C   UNL A   1      39.882  32.591  30.872  1.00  0.00     0.200 A 
ATOM     93  F   UNL A   1      38.704  30.823  31.898  1.00  0.00    -0.200 F 
ATOM     94  F   UNL A   1      38.737  33.134  30.436  1.00  0.00    -0.200 F 
ENDBRANCH  60  84
BRANCH  72  95
ATOM     95  C   UNL A   1      45.409  24.811  32.858  1.00  0.00     0.064 A 
ATOM     96  C   UNL A   1      44.547  23.819  33.344  1.00  0.00     0.173 A 
ATOM     97  C   UNL A   1      46.698  24.830  33.446  1.00  0.00     0.173 A 
ATOM     98  F   UNL A   1      43.250  23.805  33.006  1.00  0.00    -0.203 F 
ATOM     99  C   UNL A   1      44.987  22.826  34.223  1.00  0.00     0.198 A 
ATOM    100  C   UNL A   1      47.114  23.881  34.372  1.00  0.00     0.198 A 
ATOM    101  F   UNL A   1      47.618  25.753  33.141  1.00  0.00    -0.203 F 
ATOM    102  F   UNL A   1      44.154  21.840  34.575  1.00  0.00    -0.200 F 
ATOM    103  C   UNL A   1      46.273  22.853  34.730  1.00  0.00     0.200 A 
ATOM    104  F   UNL A   1      48.345  23.965  34.895  1.00  0.00    -0.200 F 
ATOM    105  F   UNL A   1      46.696  21.901  35.568  1.00  0.00    -0.200 F 
ENDBRANCH  72  95
ENDBRANCH  46  47
ENDBRANCH  38  41
ENDBRANCH  36  37
ENDBRANCH  35  36
ENDBRANCH   1  35
TORSDOF 17
ENDMDL
MODEL 2
REMARK VINA RESULT:     -13.8      3.473      9.517
REMARK SMILES Cc1ccc(F)cc1S(=O)(=O)Nc1cc(C(=O)NCCCCNC(=O)c2ccc(-c3c4nc(c(-c5c(F)c(F)c(F)c(F)c5F)c5ccc([nH]5)c(-c5c(F)c(F)c(F)c(F)c5F)c5nc(c(-c6c(F)c(F)c(F)c(F)c6F)c6ccc3[nH]6)C=C5)C=C4)cc2)ccc1N(C)Cc1ccccc1
REMARK SMILES IDX 20 1 19 2 18 3 16 4 17 5 15 7 13 8 14 9 91 10 90 11 89 12
REMARK SMILES IDX 12 13 9 15 10 16 11 17 8 18 1 19 2 20 3 21 4 22 7 23 5 24
REMARK SMILES IDX 6 25 92 26 93 27 94 28 95 29 96 30 100 31 97 32 99 33 98 34
REMARK SMILES IDX 21 35 22 36 23 37 24 38 25 40 26 41 27 42 88 43 28 44 87 45
REMARK SMILES IDX 29 46 30 47 31 48 81 49 32 50 86 51 80 52 82 53 33 54 85 55
REMARK SMILES IDX 79 56 78 57 34 59 66 60 46 61 65 62 47 63 50 64 64 65 83 66
REMARK SMILES IDX 48 67 49 68 63 70 84 71 51 72 35 73 36 74 44 75 37 76 38 77
REMARK SMILES IDX 42 78 45 79 39 80 40 81 43 82 41 83 67 84 68 85 76 86 69 87
REMARK SMILES IDX 70 88 74 89 77 90 71 91 72 92 75 93 73 94 52 95 53 96 61 97
REMARK SMILES IDX 54 98 55 99 59 100 62 101 56 102 57 103 60 104 58 105
REMARK H PARENT 18 6 12 14 23 39 82 58 50 69
REMARK Flexibility Score: inf
ROOT
ATOM      1  C   UNL A   1      37.068  21.912  24.426  1.00  0.00     0.023 C 
ENDROOT
BRANCH   1   2
ATOM      2  C   UNL A   1      36.675  20.784  25.382  1.00  0.00     0.116 C 
BRANCH   2   3
ATOM      3  N   UNL A   1      35.547  20.052  24.860  1.00  0.00    -0.352 N 
ATOM      4  C   UNL A   1      34.189  20.184  25.010  1.00  0.00     0.251 C 
ATOM      5  O   UNL A   1      33.534  19.211  24.626  1.00  0.00    -0.269 OA
ATOM      6  H   UNL A   1      35.804  19.303  24.275  1.00  0.00     0.163 HD
BRANCH   4   7
ATOM      7  C   UNL A   1      33.451  21.411  25.503  1.00  0.00     0.042 A 
ATOM      8  C   UNL A   1      32.797  23.665  24.774  1.00  0.00     0.073 A 
ATOM      9  C   UNL A   1      33.055  22.296  24.496  1.00  0.00     0.042 A 
ATOM     10  C   UNL A   1      32.573  24.180  26.054  1.00  0.00     0.061 A 
ATOM     11  C   UNL A   1      32.825  23.210  27.065  1.00  0.00     0.029 A 
ATOM     12  C   UNL A   1      33.307  21.882  26.804  1.00  0.00     0.016 A 
BRANCH   8  13
ATOM     13  N   UNL A   1      33.332  24.588  23.824  1.00  0.00    -0.277 N 
ATOM     14  H   UNL A   1      34.248  24.947  23.855  1.00  0.00     0.180 HD
BRANCH  13  15
ATOM     15  S   UNL A   1      32.163  24.995  22.608  1.00  0.00     0.262 S 
ATOM     16  O   UNL A   1      31.042  24.113  22.772  1.00  0.00    -0.201 OA
ATOM     17  O   UNL A   1      32.896  24.902  21.351  1.00  0.00    -0.201 OA
BRANCH  15  18
ATOM     18  C   UNL A   1      31.564  26.721  22.793  1.00  0.00     0.093 A 
ATOM     19  C   UNL A   1      33.851  27.791  22.560  1.00  0.00     0.046 C 
ATOM     20  C   UNL A   1      32.362  27.844  22.585  1.00  0.00    -0.030 A 
ATOM     21  C   UNL A   1      31.751  29.119  22.409  1.00  0.00     0.008 A 
ATOM     22  C   UNL A   1      30.379  29.313  22.535  1.00  0.00     0.039 A 
ATOM     23  C   UNL A   1      30.221  26.992  23.034  1.00  0.00     0.061 A 
ATOM     24  C   UNL A   1      29.621  28.239  22.907  1.00  0.00     0.124 A 
ATOM     25  F   UNL A   1      28.312  28.380  23.161  1.00  0.00    -0.207 F 
ENDBRANCH  15  18
ENDBRANCH  13  15
ENDBRANCH   8  13
BRANCH  10  26
ATOM     26  N   UNL A   1      32.328  25.562  26.302  1.00  0.00    -0.369 N 
ATOM     27  C   UNL A   1      30.905  25.939  26.271  1.00  0.00     0.144 C 
BRANCH  26  28
ATOM     28  C   UNL A   1      33.301  26.762  26.118  1.00  0.00     0.151 C 
BRANCH  28  29
ATOM     29  C   UNL A   1      32.998  28.296  26.366  1.00  0.00    -0.029 A 
ATOM     30  C   UNL A   1      31.890  29.087  25.979  1.00  0.00     0.005 A 
ATOM     31  C   UNL A   1      34.041  29.061  26.930  1.00  0.00     0.005 A 
ATOM     32  C   UNL A   1      31.669  30.396  26.471  1.00  0.00     0.000 A 
ATOM     33  C   UNL A   1      33.885  30.412  27.313  1.00  0.00     0.000 A 
ATOM     34  C   UNL A   1      32.663  31.051  27.172  1.00  0.00     0.000 A 
ENDBRANCH  28  29
ENDBRANCH  26  28
ENDBRANCH  10  26
ENDBRANCH   4   7
ENDBRANCH   2   3
ENDBRANCH   1   2
BRANCH   1  35
ATOM     35  C   UNL A   1      36.650  23.325  24.866  1.00  0.00     0.023 C 
BRANCH  35  36
ATOM     36  C   UNL A   1      37.356  23.807  26.120  1.00  0.00     0.116 C 
BRANCH  36  37
ATOM     37  N   UNL A   1      38.568  23.031  26.405  1.00  0.00    -0.352 N 
ATOM     38  C   UNL A   1      39.835  23.505  26.681  1.00  0.00     0.251 C 
ATOM     39  H   UNL A   1      38.466  22.052  26.401  1.00  0.00     0.163 HD
ATOM     40  O   UNL A   1      40.830  22.807  26.543  1.00  0.00    -0.269 OA
BRANCH  38  41
ATOM     41  C   UNL A   1      39.947  24.871  27.201  1.00  0.00     0.039 A 
ATOM     42  C   UNL A   1      40.447  25.940  26.450  1.00  0.00     0.014 A 
ATOM     43  C   UNL A   1      39.531  25.043  28.515  1.00  0.00     0.014 A 
ATOM     44  C   UNL A   1      40.499  27.202  27.036  1.00  0.00     0.010 A 
ATOM     45  C   UNL A   1      39.349  26.297  28.991  1.00  0.00     0.010 A 
ATOM     46  C   UNL A   1      39.944  27.354  28.309  1.00  0.00    -0.014 A 
BRANCH  46  47
ATOM     47  C   UNL A   1      39.970  28.560  29.103  1.00  0.00     0.031 A 
ATOM     48  C   UNL A   1      38.977  29.598  28.858  1.00  0.00     0.074 A 
ATOM     49  C   UNL A   1      40.818  28.537  30.156  1.00  0.00     0.049 A 
ATOM     50  N   UNL A   1      39.174  30.841  29.095  1.00  0.00    -0.248 NA
ATOM     51  C   UNL A   1      37.673  29.317  28.268  1.00  0.00     0.031 C 
ATOM     52  C   UNL A   1      40.908  29.381  31.330  1.00  0.00     0.029 A 
ATOM     53  N   UNL A   1      41.910  27.659  30.298  1.00  0.00    -0.354 N 
ATOM     54  C   UNL A   1      37.939  31.449  29.057  1.00  0.00     0.074 A 
ATOM     55  C   UNL A   1      37.091  30.519  28.351  1.00  0.00     0.031 C 
ATOM     56  C   UNL A   1      42.130  29.218  31.878  1.00  0.00     0.029 A 
ATOM     57  C   UNL A   1      42.906  28.367  30.986  1.00  0.00     0.049 A 
ATOM     58  H   UNL A   1      41.963  26.729  29.976  1.00  0.00     0.167 HD
ATOM     59  C   UNL A   1      37.758  32.568  29.818  1.00  0.00     0.037 A 
ATOM     60  C   UNL A   1      44.017  28.721  30.271  1.00  0.00     0.037 A 
ATOM     61  C   UNL A   1      38.995  32.863  30.559  1.00  0.00     0.049 A 
ATOM     62  C   UNL A   1      44.059  30.204  29.978  1.00  0.00     0.074 A 
ATOM     63  C   UNL A   1      39.419  32.611  31.855  1.00  0.00     0.029 A 
ATOM     64  N   UNL A   1      40.142  33.149  29.844  1.00  0.00    -0.354 N 
ATOM     65  N   UNL A   1      43.092  31.035  30.260  1.00  0.00    -0.248 NA
ATOM     66  C   UNL A   1      45.167  30.857  29.291  1.00  0.00     0.031 C 
ATOM     67  C   UNL A   1      40.843  32.747  31.891  1.00  0.00     0.029 A 
ATOM     68  C   UNL A   1      41.279  33.100  30.626  1.00  0.00     0.049 A 
ATOM     69  H   UNL A   1      40.148  33.365  28.883  1.00  0.00     0.167 HD
ATOM     70  C   UNL A   1      43.404  32.287  29.816  1.00  0.00     0.074 A 
ATOM     71  C   UNL A   1      44.705  32.115  29.185  1.00  0.00     0.031 C 
ATOM     72  C   UNL A   1      42.564  33.356  29.988  1.00  0.00     0.037 A 
BRANCH  59  73
ATOM     73  C   UNL A   1      36.438  33.245  30.127  1.00  0.00     0.064 A 
ATOM     74  C   UNL A   1      35.692  33.842  29.085  1.00  0.00     0.173 A 
ATOM     75  C   UNL A   1      35.841  33.350  31.399  1.00  0.00     0.173 A 
ATOM     76  F   UNL A   1      36.078  33.750  27.806  1.00  0.00    -0.203 F 
ATOM     77  C   UNL A   1      34.507  34.549  29.310  1.00  0.00     0.198 A 
ATOM     78  C   UNL A   1      34.671  34.085  31.630  1.00  0.00     0.198 A 
ATOM     79  F   UNL A   1      36.319  32.702  32.464  1.00  0.00    -0.203 F 
ATOM     80  F   UNL A   1      33.854  35.094  28.273  1.00  0.00    -0.200 F 
ATOM     81  C   UNL A   1      34.006  34.690  30.585  1.00  0.00     0.200 A 
ATOM     82  F   UNL A   1      34.186  34.186  32.876  1.00  0.00    -0.200 F 
ATOM     83  F   UNL A   1      32.877  35.375  30.803  1.00  0.00    -0.200 F 
ENDBRANCH  59  73
BRANCH  60  84
ATOM     84  C   UNL A   1      44.418  27.615  29.330  1.00  0.00     0.064 A 
ATOM     85  C   UNL A   1      44.214  27.858  27.952  1.00  0.00     0.173 A 
ATOM     86  C   UNL A   1      45.412  26.687  29.676  1.00  0.00     0.173 A 
ATOM     87  F   UNL A   1      43.252  28.707  27.558  1.00  0.00    -0.203 F 
ATOM     88  C   UNL A   1      45.112  27.385  26.996  1.00  0.00     0.198 A 
ATOM     89  C   UNL A   1      46.279  26.175  28.702  1.00  0.00     0.198 A 
ATOM     90  F   UNL A   1      45.635  26.379  30.961  1.00  0.00    -0.203 F 
ATOM     91  F   UNL A   1      45.013  27.802  25.724  1.00  0.00    -0.200 F 
ATOM     92  C   UNL A   1      46.169  26.580  27.379  1.00  0.00     0.200 A 
ATOM     93  F   UNL A   1      47.279  25.359  29.064  1.00  0.00    -0.200 F 
ATOM     94  F   UNL A   1      47.102  26.236  26.481  1.00  0.00    -0.200 F 
ENDBRANCH  60  84
BRANCH  72  95
ATOM     95  C   UNL A   1      42.882  34.753  29.510  1.00  0.00     0.064 A 
ATOM     96  C   UNL A   1      42.889  35.102  28.153  1.00  0.00     0.173 A 
ATOM     97  C   UNL A   1      43.264  35.787  30.400  1.00  0.00     0.173 A 
ATOM     98  F   UNL A   1      42.727  34.173  27.199  1.00  0.00    -0.203 F 
ATOM     99  C   UNL A   1      43.100  36.417  27.731  1.00  0.00     0.198 A 
ATOM    100  C   UNL A   1      43.538  37.081  29.973  1.00  0.00     0.198 A 
ATOM    101  F   UNL A   1      43.370  35.601  31.721  1.00  0.00    -0.203 F 
ATOM    102  F   UNL A   1      42.993  36.718  26.431  1.00  0.00    -0.200 F 
ATOM    103  C   UNL A   1      43.416  37.407  28.643  1.00  0.00     0.200 A 
ATOM    104  F   UNL A   1      43.902  38.008  30.869  1.00  0.00    -0.200 F 
ATOM    105  F   UNL A   1      43.613  38.667  28.240  1.00  0.00    -0.200 F 
ENDBRANCH  72  95
ENDBRANCH  46  47
ENDBRANCH  38  41
ENDBRANCH  36  37
ENDBRANCH  35  36
ENDBRANCH   1  35
TORSDOF 17
ENDMDL
MODEL 3
REMARK VINA RESULT:     -13.6      1.845      3.334
REMARK SMILES Cc1ccc(F)cc1S(=O)(=O)Nc1cc(C(=O)NCCCCNC(=O)c2ccc(-c3c4nc(c(-c5c(F)c(F)c(F)c(F)c5F)c5ccc([nH]5)c(-c5c(F)c(F)c(F)c(F)c5F)c5nc(c(-c6c(F)c(F)c(F)c(F)c6F)c6ccc3[nH]6)C=C5)C=C4)cc2)ccc1N(C)Cc1ccccc1
REMARK SMILES IDX 20 1 19 2 18 3 16 4 17 5 15 7 13 8 14 9 91 10 90 11 89 12
REMARK SMILES IDX 12 13 9 15 10 16 11 17 8 18 1 19 2 20 3 21 4 22 7 23 5 24
REMARK SMILES IDX 6 25 92 26 93 27 94 28 95 29 96 30 100 31 97 32 99 33 98 34
REMARK SMILES IDX 21 35 22 36 23 37 24 38 25 40 26 41 27 42 88 43 28 44 87 45
REMARK SMILES IDX 29 46 30 47 31 48 81 49 32 50 86 51 80 52 82 53 33 54 85 55
REMARK SMILES IDX 79 56 78 57 34 59 66 60 46 61 65 62 47 63 50 64 64 65 83 66
REMARK SMILES IDX 48 67 49 68 63 70 84 71 51 72 35 73 36 74 44 75 37 76 38 77
REMARK SMILES IDX 42 78 45 79 39 80 40 81 43 82 41 83 67 84 68 85 76 86 69 87
REMARK SMILES IDX 70 88 74 89 77 90 71 91 72 92 75 93 73 94 52 95 53 96 61 97
REMARK SMILES IDX 54 98 55 99 59 100 62 101 56 102 57 103 60 104 58 105
REMARK H PARENT 18 6 12 14 23 39 82 58 50 69
REMARK Flexibility Score: inf
ROOT
ATOM      1  C   UNL A   1      32.097  29.080  26.363  1.00  0.00     0.023 C 
ENDROOT
BRANCH   1   2
ATOM      2  C   UNL A   1      31.924  28.077  27.505  1.00  0.00     0.116 C 
BRANCH   2   3
ATOM      3  N   UNL A   1      30.839  27.170  27.219  1.00  0.00    -0.352 N 
ATOM      4  C   UNL A   1      30.778  25.935  26.624  1.00  0.00     0.251 C 
ATOM      5  O   UNL A   1      29.640  25.574  26.310  1.00  0.00    -0.269 OA
ATOM      6  H   UNL A   1      29.961  27.507  27.513  1.00  0.00     0.163 HD
BRANCH   4   7
ATOM      7  C   UNL A   1      31.932  24.978  26.411  1.00  0.00     0.042 A 
ATOM      8  C   UNL A   1      33.814  24.568  24.885  1.00  0.00     0.073 A 
ATOM      9  C   UNL A   1      32.935  25.455  25.563  1.00  0.00     0.042 A 
ATOM     10  C   UNL A   1      34.004  23.228  25.235  1.00  0.00     0.061 A 
ATOM     11  C   UNL A   1      33.073  22.803  26.224  1.00  0.00     0.029 A 
ATOM     12  C   UNL A   1      32.028  23.634  26.756  1.00  0.00     0.016 A 
BRANCH   8  13
ATOM     13  N   UNL A   1      34.059  24.888  23.515  1.00  0.00    -0.277 N 
ATOM     14  H   UNL A   1      34.952  25.055  23.136  1.00  0.00     0.180 HD
BRANCH  13  15
ATOM     15  S   UNL A   1      32.584  24.944  22.604  1.00  0.00     0.262 S 
ATOM     16  O   UNL A   1      31.739  23.884  23.079  1.00  0.00    -0.201 OA
ATOM     17  O   UNL A   1      33.011  24.871  21.212  1.00  0.00    -0.201 OA
BRANCH  15  18
ATOM     18  C   UNL A   1      31.696  26.533  22.846  1.00  0.00     0.093 A 
ATOM     19  C   UNL A   1      33.707  28.002  22.367  1.00  0.00     0.046 C 
ATOM     20  C   UNL A   1      32.244  27.780  22.550  1.00  0.00    -0.030 A 
ATOM     21  C   UNL A   1      31.392  28.915  22.436  1.00  0.00     0.008 A 
ATOM     22  C   UNL A   1      30.028  28.855  22.707  1.00  0.00     0.039 A 
ATOM     23  C   UNL A   1      30.358  26.557  23.228  1.00  0.00     0.061 A 
ATOM     24  C   UNL A   1      29.527  27.668  23.161  1.00  0.00     0.124 A 
ATOM     25  F   UNL A   1      28.248  27.571  23.553  1.00  0.00    -0.207 F 
ENDBRANCH  15  18
ENDBRANCH  13  15
ENDBRANCH   8  13
BRANCH  10  26
ATOM     26  N   UNL A   1      34.885  22.360  24.527  1.00  0.00    -0.369 N 
ATOM     27  C   UNL A   1      34.379  20.986  24.364  1.00  0.00     0.144 C 
BRANCH  26  28
ATOM     28  C   UNL A   1      36.424  22.489  24.343  1.00  0.00     0.151 C 
BRANCH  28  29
ATOM     29  C   UNL A   1      37.550  21.567  24.965  1.00  0.00    -0.029 A 
ATOM     30  C   UNL A   1      37.716  20.162  24.920  1.00  0.00     0.005 A 
ATOM     31  C   UNL A   1      38.470  22.194  25.832  1.00  0.00     0.005 A 
ATOM     32  C   UNL A   1      38.900  19.511  25.344  1.00  0.00     0.000 A 
ATOM     33  C   UNL A   1      39.594  21.531  26.373  1.00  0.00     0.000 A 
ATOM     34  C   UNL A   1      39.861  20.210  26.047  1.00  0.00     0.000 A 
ENDBRANCH  28  29
ENDBRANCH  26  28
ENDBRANCH  10  26
ENDBRANCH   4   7
ENDBRANCH   2   3
ENDBRANCH   1   2
BRANCH   1  35
ATOM     35  C   UNL A   1      33.492  29.107  25.715  1.00  0.00     0.023 C 
BRANCH  35  36
ATOM     36  C   UNL A   1      34.626  29.251  26.714  1.00  0.00     0.116 C 
BRANCH  36  37
ATOM     37  N   UNL A   1      34.600  30.549  27.397  1.00  0.00    -0.352 N 
ATOM     38  C   UNL A   1      35.343  30.949  28.490  1.00  0.00     0.251 C 
ATOM     39  H   UNL A   1      33.976  31.217  27.032  1.00  0.00     0.163 HD
ATOM     40  O   UNL A   1      34.998  31.885  29.197  1.00  0.00    -0.269 OA
BRANCH  38  41
ATOM     41  C   UNL A   1      36.600  30.241  28.746  1.00  0.00     0.039 A 
ATOM     42  C   UNL A   1      36.787  29.376  29.831  1.00  0.00     0.014 A 
ATOM     43  C   UNL A   1      37.621  30.494  27.840  1.00  0.00     0.014 A 
ATOM     44  C   UNL A   1      38.019  28.744  29.976  1.00  0.00     0.010 A 
ATOM     45  C   UNL A   1      38.716  29.698  27.840  1.00  0.00     0.010 A 
ATOM     46  C   UNL A   1      38.967  28.922  28.967  1.00  0.00    -0.014 A 
BRANCH  46  47
ATOM     47  C   UNL A   1      40.319  28.410  28.977  1.00  0.00     0.031 A 
ATOM     48  C   UNL A   1      40.563  27.034  28.564  1.00  0.00     0.074 A 
ATOM     49  C   UNL A   1      41.281  29.334  29.195  1.00  0.00     0.049 A 
ATOM     50  N   UNL A   1      41.547  26.331  28.986  1.00  0.00    -0.248 NA
ATOM     51  C   UNL A   1      39.674  26.312  27.663  1.00  0.00     0.031 C 
ATOM     52  C   UNL A   1      42.713  29.292  28.977  1.00  0.00     0.029 A 
ATOM     53  N   UNL A   1      41.074  30.596  29.785  1.00  0.00    -0.354 N 
ATOM     54  C   UNL A   1      41.638  25.241  28.149  1.00  0.00     0.074 A 
ATOM     55  C   UNL A   1      40.356  25.173  27.490  1.00  0.00     0.031 C 
ATOM     56  C   UNL A   1      43.281  30.280  29.700  1.00  0.00     0.029 A 
ATOM     57  C   UNL A   1      42.238  30.893  30.510  1.00  0.00     0.049 A 
ATOM     58  H   UNL A   1      40.270  31.159  29.704  1.00  0.00     0.167 HD
ATOM     59  C   UNL A   1      42.867  24.673  27.976  1.00  0.00     0.037 A 
ATOM     60  C   UNL A   1      42.136  30.874  31.874  1.00  0.00     0.037 A 
ATOM     61  C   UNL A   1      43.867  25.420  28.756  1.00  0.00     0.049 A 
ATOM     62  C   UNL A   1      42.830  29.676  32.481  1.00  0.00     0.074 A 
ATOM     63  C   UNL A   1      44.788  26.406  28.440  1.00  0.00     0.029 A 
ATOM     64  N   UNL A   1      43.732  25.469  30.131  1.00  0.00    -0.354 N 
ATOM     65  N   UNL A   1      43.357  28.704  31.786  1.00  0.00    -0.248 NA
ATOM     66  C   UNL A   1      42.934  29.448  33.917  1.00  0.00     0.031 C 
ATOM     67  C   UNL A   1      45.191  27.045  29.655  1.00  0.00     0.029 A 
ATOM     68  C   UNL A   1      44.531  26.434  30.707  1.00  0.00     0.049 A 
ATOM     69  H   UNL A   1      43.132  24.878  30.642  1.00  0.00     0.167 HD
ATOM     70  C   UNL A   1      43.850  27.742  32.620  1.00  0.00     0.074 A 
ATOM     71  C   UNL A   1      43.529  28.243  33.949  1.00  0.00     0.031 C 
ATOM     72  C   UNL A   1      44.465  26.611  32.153  1.00  0.00     0.037 A 
BRANCH  59  73
ATOM     73  C   UNL A   1      43.248  23.647  26.928  1.00  0.00     0.064 A 
ATOM     74  C   UNL A   1      42.983  22.277  27.155  1.00  0.00     0.173 A 
ATOM     75  C   UNL A   1      43.867  23.918  25.691  1.00  0.00     0.173 A 
ATOM     76  F   UNL A   1      42.318  21.863  28.241  1.00  0.00    -0.203 F 
ATOM     77  C   UNL A   1      43.375  21.271  26.267  1.00  0.00     0.198 A 
ATOM     78  C   UNL A   1      44.289  22.909  24.816  1.00  0.00     0.198 A 
ATOM     79  F   UNL A   1      44.037  25.164  25.241  1.00  0.00    -0.203 F 
ATOM     80  F   UNL A   1      43.093  19.991  26.550  1.00  0.00    -0.200 F 
ATOM     81  C   UNL A   1      44.048  21.584  25.107  1.00  0.00     0.200 A 
ATOM     82  F   UNL A   1      44.919  23.239  23.679  1.00  0.00    -0.200 F 
ATOM     83  F   UNL A   1      44.434  20.621  24.261  1.00  0.00    -0.200 F 
ENDBRANCH  59  73
BRANCH  60  84
ATOM     84  C   UNL A   1      40.823  31.462  32.318  1.00  0.00     0.064 A 
ATOM     85  C   UNL A   1      39.880  30.558  32.856  1.00  0.00     0.173 A 
ATOM     86  C   UNL A   1      40.721  32.804  32.715  1.00  0.00     0.173 A 
ATOM     87  F   UNL A   1      39.902  29.268  32.485  1.00  0.00    -0.203 F 
ATOM     88  C   UNL A   1      39.045  30.928  33.909  1.00  0.00     0.198 A 
ATOM     89  C   UNL A   1      39.843  33.180  33.738  1.00  0.00     0.198 A 
ATOM     90  F   UNL A   1      41.558  33.725  32.216  1.00  0.00    -0.203 F 
ATOM     91  F   UNL A   1      38.311  29.997  34.538  1.00  0.00    -0.200 F 
ATOM     92  C   UNL A   1      39.059  32.228  34.378  1.00  0.00     0.200 A 
ATOM     93  F   UNL A   1      39.823  34.450  34.166  1.00  0.00    -0.200 F 
ATOM     94  F   UNL A   1      38.355  32.549  35.473  1.00  0.00    -0.200 F 
ENDBRANCH  60  84
BRANCH  72  95
ATOM     95  C   UNL A   1      45.021  25.531  33.050  1.00  0.00     0.064 A 
ATOM     96  C   UNL A   1      44.208  24.747  33.880  1.00  0.00     0.173 A 
ATOM     97  C   UNL A   1      46.412  25.288  33.166  1.00  0.00     0.173 A 
ATOM     98  F   UNL A   1      42.897  25.001  34.002  1.00  0.00    -0.203 F 
ATOM     99  C   UNL A   1      44.727  23.696  34.639  1.00  0.00     0.198 A 
ATOM    100  C   UNL A   1      46.933  24.284  33.973  1.00  0.00     0.198 A 
ATOM    101  F   UNL A   1      47.328  25.994  32.492  1.00  0.00    -0.203 F 
ATOM    102  F   UNL A   1      43.895  22.910  35.334  1.00  0.00    -0.200 F 
ATOM    103  C   UNL A   1      46.088  23.460  34.679  1.00  0.00     0.200 A 
ATOM    104  F   UNL A   1      48.261  24.115  34.042  1.00  0.00    -0.200 F 
ATOM    105  F   UNL A   1      46.585  22.450  35.402  1.00  0.00    -0.200 F 
ENDBRANCH  72  95
ENDBRANCH  46  47
ENDBRANCH  38  41
ENDBRANCH  36  37
ENDBRANCH  35  36
ENDBRANCH   1  35
TORSDOF 17
ENDMDL
