MODEL 1
REMARK VINA RESULT:     -14.2      0.000      0.000
REMARK SMILES O=C(NCCCCNC(=O)c1ccc(-c2c3nc(c(-c4c(F)c(F)c(F)c(F)c4F)c4ccc([nH]4)c(-c4c(F)c(F)c(F)c(F)c4F)c4nc(c(-c5c(F)c(F)c(F)c(F)c5F)c5ccc2[nH]5)C=C4)C=C3)cc1)C1=Cc2cc(S(F)(F)(F)(F)F)ccc2O[C@@H]1C(F)(F)F
REMARK SMILES IDX 6 1 5 2 4 3 3 4 1 5 2 6 74 8 75 9 89 10 76 11 88 12 77 13
REMARK SMILES IDX 87 14 78 15 86 16 85 17 90 18 91 19 92 20 93 21 79 22 80 23
REMARK SMILES IDX 81 24 82 25 83 26 84 27 7 28 8 29 9 30 10 32 11 33 12 34
REMARK SMILES IDX 73 35 13 36 72 37 14 38 15 39 16 40 66 41 17 42 71 43 65 44
REMARK SMILES IDX 67 45 18 46 70 47 64 48 63 49 19 51 51 52 31 53 50 54 32 55
REMARK SMILES IDX 35 56 49 57 68 58 33 59 34 60 48 62 69 63 36 64 20 65 21 66
REMARK SMILES IDX 29 67 22 68 23 69 27 70 30 71 24 72 25 73 28 74 26 75 52 76
REMARK SMILES IDX 53 77 61 78 54 79 55 80 59 81 62 82 56 83 57 84 60 85 58 86
REMARK SMILES IDX 37 87 38 88 46 89 39 90 40 91 44 92 47 93 41 94 42 95 45 96
REMARK SMILES IDX 43 97
REMARK H PARENT 3 7 8 31 67 50 35 61
REMARK Flexibility Score: inf
ROOT
ATOM      1  C   UNL A   1      39.242  22.407  26.056  1.00  0.00     0.023 C 
ENDROOT
BRANCH   1   2
ATOM      2  C   UNL A   1      38.638  23.729  26.503  1.00  0.00     0.023 C 
BRANCH   2   3
ATOM      3  C   UNL A   1      37.177  23.786  26.085  1.00  0.00     0.116 C 
BRANCH   3   4
ATOM      4  N   UNL A   1      37.083  23.704  24.620  1.00  0.00    -0.352 N 
ATOM      5  O   UNL A   1      35.914  22.866  22.729  1.00  0.00    -0.270 OA
ATOM      6  C   UNL A   1      35.995  22.937  23.995  1.00  0.00     0.251 C 
ATOM      7  H   UNL A   1      37.749  24.161  24.058  1.00  0.00     0.163 HD
BRANCH   6   8
ATOM      8  C   UNL A   1      34.968  22.230  24.863  1.00  0.00     0.067 C 
ATOM      9  C   UNL A   1      33.924  22.926  25.386  1.00  0.00     0.025 C 
ATOM     10  C   UNL A   1      35.108  20.743  25.147  1.00  0.00     0.314 C 
ATOM     11  C   UNL A   1      33.783  24.412  25.102  1.00  0.00     0.019 A 
ATOM     12  O   UNL A   1      34.472  23.971  22.871  1.00  0.00    -0.475 OA
ATOM     13  C   UNL A   1      33.435  25.278  26.127  1.00  0.00     0.036 A 
ATOM     14  C   UNL A   1      33.961  24.851  23.861  1.00  0.00     0.128 A 
ATOM     15  C   UNL A   1      33.011  26.552  25.681  1.00  0.00     0.107 A 
ATOM     16  C   UNL A   1      33.654  26.147  23.527  1.00  0.00     0.048 A 
ATOM     17  C   UNL A   1      33.246  27.042  24.478  1.00  0.00     0.028 A 
BRANCH  10  18
ATOM     18  C   UNL A   1      33.882  20.009  24.629  1.00  0.00     0.429 C 
ATOM     19  F   UNL A   1      34.230  18.789  24.233  1.00  0.00    -0.167 F 
ATOM     20  F   UNL A   1      32.976  19.920  25.598  1.00  0.00    -0.167 F 
ATOM     21  F   UNL A   1      33.367  20.679  23.601  1.00  0.00    -0.167 F 
ENDBRANCH  10  18
BRANCH  15  22
ATOM     22  S   UNL A   1      32.081  27.584  26.842  1.00  0.00     0.310 S 
ATOM     23  F   UNL A   1      31.983  28.776  25.802  1.00  0.00    -0.094 F 
ATOM     24  F   UNL A   1      33.441  28.211  27.330  1.00  0.00    -0.094 F 
ATOM     25  F   UNL A   1      31.283  28.469  27.840  1.00  0.00    -0.094 F 
ATOM     26  F   UNL A   1      30.722  27.047  26.244  1.00  0.00    -0.094 F 
ATOM     27  F   UNL A   1      32.870  26.762  25.747  1.00  0.00    -0.094 F 
ENDBRANCH  15  22
ENDBRANCH   6   8
ENDBRANCH   3   4
ENDBRANCH   2   3
ENDBRANCH   1   2
BRANCH   1  28
ATOM     28  C   UNL A   1      40.598  22.221  26.715  1.00  0.00     0.116 C 
BRANCH  28  29
ATOM     29  N   UNL A   1      41.658  22.382  25.709  1.00  0.00    -0.352 N 
ATOM     30  C   UNL A   1      42.479  23.602  25.696  1.00  0.00     0.251 C 
ATOM     31  H   UNL A   1      41.818  21.673  25.046  1.00  0.00     0.163 HD
ATOM     32  O   UNL A   1      43.396  23.741  24.827  1.00  0.00    -0.269 OA
BRANCH  30  33
ATOM     33  C   UNL A   1      42.232  24.696  26.722  1.00  0.00     0.039 A 
ATOM     34  C   UNL A   1      41.825  24.343  27.998  1.00  0.00     0.014 A 
ATOM     35  C   UNL A   1      42.372  25.969  26.371  1.00  0.00     0.014 A 
ATOM     36  C   UNL A   1      41.307  25.421  28.753  1.00  0.00     0.010 A 
ATOM     37  C   UNL A   1      41.969  26.975  27.215  1.00  0.00     0.010 A 
ATOM     38  C   UNL A   1      41.500  26.696  28.469  1.00  0.00    -0.014 A 
BRANCH  38  39
ATOM     39  C   UNL A   1      41.219  27.795  29.482  1.00  0.00     0.031 A 
ATOM     40  C   UNL A   1      40.167  28.676  29.226  1.00  0.00     0.074 A 
ATOM     41  C   UNL A   1      42.004  27.835  30.621  1.00  0.00     0.049 A 
ATOM     42  N   UNL A   1      39.719  29.657  30.012  1.00  0.00    -0.248 NA
ATOM     43  C   UNL A   1      39.354  28.658  28.001  1.00  0.00     0.031 C 
ATOM     44  C   UNL A   1      43.060  26.943  30.890  1.00  0.00     0.029 A 
ATOM     45  N   UNL A   1      41.916  28.714  31.677  1.00  0.00    -0.354 N 
ATOM     46  C   UNL A   1      38.685  30.273  29.436  1.00  0.00     0.074 A 
ATOM     47  C   UNL A   1      38.440  29.643  28.132  1.00  0.00     0.031 C 
ATOM     48  C   UNL A   1      43.610  27.287  32.084  1.00  0.00     0.029 A 
ATOM     49  C   UNL A   1      42.904  28.399  32.583  1.00  0.00     0.049 A 
ATOM     50  H   UNL A   1      41.260  29.442  31.768  1.00  0.00     0.167 HD
ATOM     51  C   UNL A   1      37.936  31.334  29.948  1.00  0.00     0.037 A 
ATOM     52  C   UNL A   1      43.193  29.034  33.780  1.00  0.00     0.037 A 
ATOM     53  C   UNL A   1      38.197  31.942  31.165  1.00  0.00     0.049 A 
ATOM     54  C   UNL A   1      42.480  30.134  34.265  1.00  0.00     0.074 A 
ATOM     55  C   UNL A   1      37.447  33.007  31.700  1.00  0.00     0.029 A 
ATOM     56  N   UNL A   1      39.202  31.643  32.060  1.00  0.00    -0.354 N 
ATOM     57  N   UNL A   1      41.422  30.724  33.708  1.00  0.00    -0.248 NA
ATOM     58  C   UNL A   1      42.797  30.835  35.516  1.00  0.00     0.031 C 
ATOM     59  C   UNL A   1      37.997  33.352  32.895  1.00  0.00     0.029 A 
ATOM     60  C   UNL A   1      39.100  32.508  33.126  1.00  0.00     0.049 A 
ATOM     61  H   UNL A   1      39.875  30.932  31.955  1.00  0.00     0.167 HD
ATOM     62  C   UNL A   1      41.000  31.731  34.475  1.00  0.00     0.074 A 
ATOM     63  C   UNL A   1      41.883  31.821  35.646  1.00  0.00     0.031 C 
ATOM     64  C   UNL A   1      39.912  32.576  34.247  1.00  0.00     0.037 A 
BRANCH  51  65
ATOM     65  C   UNL A   1      36.768  31.852  29.123  1.00  0.00     0.064 A 
ATOM     66  C   UNL A   1      36.787  33.150  28.644  1.00  0.00     0.173 A 
ATOM     67  C   UNL A   1      35.706  31.073  28.960  1.00  0.00     0.173 A 
ATOM     68  F   UNL A   1      37.899  33.875  28.557  1.00  0.00    -0.203 F 
ATOM     69  C   UNL A   1      35.518  33.638  28.255  1.00  0.00     0.198 A 
ATOM     70  C   UNL A   1      34.538  31.582  28.447  1.00  0.00     0.198 A 
ATOM     71  F   UNL A   1      35.772  29.788  29.296  1.00  0.00    -0.203 F 
ATOM     72  F   UNL A   1      35.370  34.953  28.128  1.00  0.00    -0.200 F 
ATOM     73  C   UNL A   1      34.467  32.875  28.008  1.00  0.00     0.200 A 
ATOM     74  F   UNL A   1      33.459  30.807  28.375  1.00  0.00    -0.200 F 
ATOM     75  F   UNL A   1      33.400  33.341  27.367  1.00  0.00    -0.200 F 
ENDBRANCH  51  65
BRANCH  52  76
ATOM     76  C   UNL A   1      44.350  28.506  34.612  1.00  0.00     0.064 A 
ATOM     77  C   UNL A   1      44.031  27.518  35.529  1.00  0.00     0.173 A 
ATOM     78  C   UNL A   1      45.602  28.918  34.451  1.00  0.00     0.173 A 
ATOM     79  F   UNL A   1      42.854  26.900  35.549  1.00  0.00    -0.203 F 
ATOM     80  C   UNL A   1      45.072  27.226  36.441  1.00  0.00     0.198 A 
ATOM     81  C   UNL A   1      46.594  28.487  35.297  1.00  0.00     0.198 A 
ATOM     82  F   UNL A   1      45.897  29.758  33.462  1.00  0.00    -0.203 F 
ATOM     83  F   UNL A   1      44.752  26.575  37.557  1.00  0.00    -0.200 F 
ATOM     84  C   UNL A   1      46.338  27.556  36.265  1.00  0.00     0.200 A 
ATOM     85  F   UNL A   1      47.823  28.982  35.173  1.00  0.00    -0.200 F 
ATOM     86  F   UNL A   1      47.313  27.010  36.988  1.00  0.00    -0.200 F 
ENDBRANCH  52  76
BRANCH  64  87
ATOM     87  C   UNL A   1      39.601  33.635  35.292  1.00  0.00     0.064 A 
ATOM     88  C   UNL A   1      40.155  34.897  35.160  1.00  0.00     0.173 A 
ATOM     89  C   UNL A   1      38.839  33.324  36.335  1.00  0.00     0.173 A 
ATOM     90  F   UNL A   1      40.705  35.332  34.029  1.00  0.00    -0.203 F 
ATOM     91  C   UNL A   1      40.085  35.681  36.335  1.00  0.00     0.198 A 
ATOM     92  C   UNL A   1      38.706  34.195  37.389  1.00  0.00     0.198 A 
ATOM     93  F   UNL A   1      38.200  32.158  36.359  1.00  0.00    -0.203 F 
ATOM     94  F   UNL A   1      40.888  36.738  36.423  1.00  0.00    -0.200 F 
ATOM     95  C   UNL A   1      39.277  35.437  37.351  1.00  0.00     0.200 A 
ATOM     96  F   UNL A   1      38.013  33.825  38.462  1.00  0.00    -0.200 F 
ATOM     97  F   UNL A   1      39.032  36.350  38.287  1.00  0.00    -0.200 F 
ENDBRANCH  64  87
ENDBRANCH  38  39
ENDBRANCH  30  33
ENDBRANCH  28  29
ENDBRANCH   1  28
TORSDOF 13
ENDMDL
MODEL 2
REMARK VINA RESULT:     -13.9      4.067      8.284
REMARK SMILES O=C(NCCCCNC(=O)c1ccc(-c2c3nc(c(-c4c(F)c(F)c(F)c(F)c4F)c4ccc([nH]4)c(-c4c(F)c(F)c(F)c(F)c4F)c4nc(c(-c5c(F)c(F)c(F)c(F)c5F)c5ccc2[nH]5)C=C4)C=C3)cc1)C1=Cc2cc(S(F)(F)(F)(F)F)ccc2O[C@@H]1C(F)(F)F
REMARK SMILES IDX 6 1 5 2 4 3 3 4 1 5 2 6 74 8 75 9 89 10 76 11 88 12 77 13
REMARK SMILES IDX 87 14 78 15 86 16 85 17 90 18 91 19 92 20 93 21 79 22 80 23
REMARK SMILES IDX 81 24 82 25 83 26 84 27 7 28 8 29 9 30 10 32 11 33 12 34
REMARK SMILES IDX 73 35 13 36 72 37 14 38 15 39 16 40 66 41 17 42 71 43 65 44
REMARK SMILES IDX 67 45 18 46 70 47 64 48 63 49 19 51 51 52 31 53 50 54 32 55
REMARK SMILES IDX 35 56 49 57 68 58 33 59 34 60 48 62 69 63 36 64 20 65 21 66
REMARK SMILES IDX 29 67 22 68 23 69 27 70 30 71 24 72 25 73 28 74 26 75 52 76
REMARK SMILES IDX 53 77 61 78 54 79 55 80 59 81 62 82 56 83 57 84 60 85 58 86
REMARK SMILES IDX 37 87 38 88 46 89 39 90 40 91 44 92 47 93 41 94 42 95 45 96
REMARK SMILES IDX 43 97
REMARK H PARENT 3 7 8 31 67 50 35 61
REMARK Flexibility Score: inf
ROOT
ATOM      1  C   UNL A   1      38.910  21.147  25.480  1.00  0.00     0.023 C 
ENDROOT
BRANCH   1   2
ATOM      2  C   UNL A   1      38.920  22.573  26.007  1.00  0.00     0.023 C 
BRANCH   2   3
ATOM      3  C   UNL A   1      37.562  23.212  25.762  1.00  0.00     0.116 C 
BRANCH   3   4
ATOM      4  N   UNL A   1      37.302  23.271  24.317  1.00  0.00    -0.352 N 
ATOM      5  O   UNL A   1      35.822  22.780  22.524  1.00  0.00    -0.270 OA
ATOM      6  C   UNL A   1      36.048  22.729  23.773  1.00  0.00     0.251 C 
ATOM      7  H   UNL A   1      37.967  23.672  23.712  1.00  0.00     0.163 HD
BRANCH   6   8
ATOM      8  C   UNL A   1      35.021  22.108  24.706  1.00  0.00     0.067 C 
ATOM      9  C   UNL A   1      34.070  22.888  25.287  1.00  0.00     0.025 C 
ATOM     10  C   UNL A   1      35.058  20.615  24.990  1.00  0.00     0.314 C 
ATOM     11  C   UNL A   1      34.033  24.380  25.003  1.00  0.00     0.019 A 
ATOM     12  O   UNL A   1      34.548  23.882  22.737  1.00  0.00    -0.475 OA
ATOM     13  C   UNL A   1      33.818  25.272  26.041  1.00  0.00     0.036 A 
ATOM     14  C   UNL A   1      34.170  24.801  23.750  1.00  0.00     0.128 A 
ATOM     15  C   UNL A   1      33.472  26.576  25.614  1.00  0.00     0.107 A 
ATOM     16  C   UNL A   1      33.950  26.118  23.427  1.00  0.00     0.048 A 
ATOM     17  C   UNL A   1      33.674  27.043  24.396  1.00  0.00     0.028 A 
BRANCH  10  18
ATOM     18  C   UNL A   1      33.747  19.983  24.551  1.00  0.00     0.429 C 
ATOM     19  F   UNL A   1      32.903  19.954  25.578  1.00  0.00    -0.167 F 
ATOM     20  F   UNL A   1      33.219  20.699  23.562  1.00  0.00    -0.167 F 
ATOM     21  F   UNL A   1      33.973  18.742  24.128  1.00  0.00    -0.167 F 
ENDBRANCH  10  18
BRANCH  15  22
ATOM     22  S   UNL A   1      32.701  27.681  26.822  1.00  0.00     0.310 S 
ATOM     23  F   UNL A   1      32.552  28.845  25.756  1.00  0.00    -0.094 F 
ATOM     24  F   UNL A   1      34.126  28.263  27.158  1.00  0.00    -0.094 F 
ATOM     25  F   UNL A   1      32.039  28.630  27.861  1.00  0.00    -0.094 F 
ATOM     26  F   UNL A   1      31.270  27.186  26.374  1.00  0.00    -0.094 F 
ATOM     27  F   UNL A   1      33.348  26.794  25.686  1.00  0.00    -0.094 F 
ENDBRANCH  15  22
ENDBRANCH   6   8
ENDBRANCH   3   4
ENDBRANCH   2   3
ENDBRANCH   1   2
BRANCH   1  28
ATOM     28  C   UNL A   1      39.408  20.204  26.563  1.00  0.00     0.116 C 
BRANCH  28  29
ATOM     29  N   UNL A   1      40.401  19.283  25.993  1.00  0.00    -0.352 N 
ATOM     30  C   UNL A   1      41.812  19.687  25.904  1.00  0.00     0.251 C 
ATOM     31  H   UNL A   1      40.122  18.395  25.671  1.00  0.00     0.163 HD
ATOM     32  O   UNL A   1      42.671  18.891  25.411  1.00  0.00    -0.269 OA
BRANCH  30  33
ATOM     33  C   UNL A   1      42.243  21.057  26.402  1.00  0.00     0.039 A 
ATOM     34  C   UNL A   1      42.296  21.292  27.766  1.00  0.00     0.014 A 
ATOM     35  C   UNL A   1      42.525  22.015  25.526  1.00  0.00     0.014 A 
ATOM     36  C   UNL A   1      42.376  22.662  28.109  1.00  0.00     0.010 A 
ATOM     37  C   UNL A   1      42.726  23.308  25.945  1.00  0.00     0.010 A 
ATOM     38  C   UNL A   1      42.731  23.624  27.276  1.00  0.00    -0.014 A 
BRANCH  38  39
ATOM     39  C   UNL A   1      43.127  25.006  27.770  1.00  0.00     0.031 A 
ATOM     40  C   UNL A   1      44.486  25.311  27.862  1.00  0.00     0.074 A 
ATOM     41  C   UNL A   1      42.111  25.897  28.068  1.00  0.00     0.049 A 
ATOM     42  N   UNL A   1      45.036  26.477  28.206  1.00  0.00    -0.248 NA
ATOM     43  C   UNL A   1      45.567  24.355  27.580  1.00  0.00     0.031 C 
ATOM     44  C   UNL A   1      40.738  25.599  27.968  1.00  0.00     0.029 A 
ATOM     45  N   UNL A   1      42.229  27.198  28.502  1.00  0.00    -0.354 N 
ATOM     46  C   UNL A   1      46.367  26.390  28.162  1.00  0.00     0.074 A 
ATOM     47  C   UNL A   1      46.727  25.022  27.765  1.00  0.00     0.031 C 
ATOM     48  C   UNL A   1      40.038  26.700  28.348  1.00  0.00     0.029 A 
ATOM     49  C   UNL A   1      40.963  27.706  28.691  1.00  0.00     0.049 A 
ATOM     50  H   UNL A   1      43.073  27.682  28.652  1.00  0.00     0.167 HD
ATOM     51  C   UNL A   1      47.293  27.397  28.436  1.00  0.00     0.037 A 
ATOM     52  C   UNL A   1      40.612  28.970  29.138  1.00  0.00     0.037 A 
ATOM     53  C   UNL A   1      46.942  28.675  28.842  1.00  0.00     0.049 A 
ATOM     54  C   UNL A   1      41.541  29.960  29.468  1.00  0.00     0.074 A 
ATOM     55  C   UNL A   1      47.864  29.704  29.114  1.00  0.00     0.029 A 
ATOM     56  N   UNL A   1      45.676  29.174  29.054  1.00  0.00    -0.354 N 
ATOM     57  N   UNL A   1      42.869  29.885  29.387  1.00  0.00    -0.248 NA
ATOM     58  C   UNL A   1      41.181  31.291  29.973  1.00  0.00     0.031 C 
ATOM     59  C   UNL A   1      47.163  30.806  29.495  1.00  0.00     0.029 A 
ATOM     60  C   UNL A   1      45.793  30.483  29.467  1.00  0.00     0.049 A 
ATOM     61  H   UNL A   1      44.833  28.681  28.932  1.00  0.00     0.167 HD
ATOM     62  C   UNL A   1      43.420  31.038  29.770  1.00  0.00     0.074 A 
ATOM     63  C   UNL A   1      42.342  31.957  30.160  1.00  0.00     0.031 C 
ATOM     64  C   UNL A   1      44.778  31.362  29.807  1.00  0.00     0.037 A 
BRANCH  51  65
ATOM     65  C   UNL A   1      48.771  27.074  28.281  1.00  0.00     0.064 A 
ATOM     66  C   UNL A   1      49.375  27.196  27.041  1.00  0.00     0.173 A 
ATOM     67  C   UNL A   1      49.433  26.589  29.324  1.00  0.00     0.173 A 
ATOM     68  F   UNL A   1      48.848  27.901  26.043  1.00  0.00    -0.203 F 
ATOM     69  C   UNL A   1      50.604  26.504  26.930  1.00  0.00     0.198 A 
ATOM     70  C   UNL A   1      50.686  26.049  29.168  1.00  0.00     0.198 A 
ATOM     71  F   UNL A   1      48.877  26.624  30.532  1.00  0.00    -0.203 F 
ATOM     72  F   UNL A   1      51.070  26.261  25.709  1.00  0.00    -0.200 F 
ATOM     73  C   UNL A   1      51.320  26.082  27.957  1.00  0.00     0.200 A 
ATOM     74  F   UNL A   1      51.294  25.487  30.209  1.00  0.00    -0.200 F 
ATOM     75  F   UNL A   1      52.589  25.709  27.818  1.00  0.00    -0.200 F 
ENDBRANCH  51  65
BRANCH  52  76
ATOM     76  C   UNL A   1      39.135  29.297  29.277  1.00  0.00     0.064 A 
ATOM     77  C   UNL A   1      38.494  29.700  28.117  1.00  0.00     0.173 A 
ATOM     78  C   UNL A   1      38.471  29.165  30.420  1.00  0.00     0.173 A 
ATOM     79  F   UNL A   1      39.048  29.604  26.912  1.00  0.00    -0.203 F 
ATOM     80  C   UNL A   1      37.197  30.222  28.330  1.00  0.00     0.198 A 
ATOM     81  C   UNL A   1      37.163  29.573  30.520  1.00  0.00     0.198 A 
ATOM     82  F   UNL A   1      39.079  28.635  31.477  1.00  0.00    -0.203 F 
ATOM     83  F   UNL A   1      36.657  30.953  27.358  1.00  0.00    -0.200 F 
ATOM     84  C   UNL A   1      36.485  30.037  29.426  1.00  0.00     0.200 A 
ATOM     85  F   UNL A   1      36.546  29.515  31.697  1.00  0.00    -0.200 F 
ATOM     86  F   UNL A   1      35.179  30.287  29.465  1.00  0.00    -0.200 F 
ENDBRANCH  52  76
BRANCH  64  87
ATOM     87  C   UNL A   1      45.164  32.765  30.246  1.00  0.00     0.064 A 
ATOM     88  C   UNL A   1      45.250  33.770  29.297  1.00  0.00     0.173 A 
ATOM     89  C   UNL A   1      45.453  32.997  31.522  1.00  0.00     0.173 A 
ATOM     90  F   UNL A   1      44.736  33.659  28.075  1.00  0.00    -0.203 F 
ATOM     91  C   UNL A   1      45.935  34.924  29.743  1.00  0.00     0.198 A 
ATOM     92  C   UNL A   1      45.995  34.199  31.909  1.00  0.00     0.198 A 
ATOM     93  F   UNL A   1      45.217  32.056  32.432  1.00  0.00    -0.203 F 
ATOM     94  F   UNL A   1      46.380  35.775  28.823  1.00  0.00    -0.200 F 
ATOM     95  C   UNL A   1      46.163  35.216  31.012  1.00  0.00     0.200 A 
ATOM     96  F   UNL A   1      46.360  34.375  33.176  1.00  0.00    -0.200 F 
ATOM     97  F   UNL A   1      46.537  36.433  31.394  1.00  0.00    -0.200 F 
ENDBRANCH  64  87
ENDBRANCH  38  39
ENDBRANCH  30  33
ENDBRANCH  28  29
ENDBRANCH   1  28
TORSDOF 13
ENDMDL
MODEL 3
REMARK VINA RESULT:     -13.9      5.019      9.930
REMARK SMILES O=C(NCCCCNC(=O)c1ccc(-c2c3nc(c(-c4c(F)c(F)c(F)c(F)c4F)c4ccc([nH]4)c(-c4c(F)c(F)c(F)c(F)c4F)c4nc(c(-c5c(F)c(F)c(F)c(F)c5F)c5ccc2[nH]5)C=C4)C=C3)cc1)C1=Cc2cc(S(F)(F)(F)(F)F)ccc2O[C@@H]1C(F)(F)F
REMARK SMILES IDX 6 1 5 2 4 3 3 4 1 5 2 6 74 8 75 9 89 10 76 11 88 12 77 13
REMARK SMILES IDX 87 14 78 15 86 16 85 17 90 18 91 19 92 20 93 21 79 22 80 23
REMARK SMILES IDX 81 24 82 25 83 26 84 27 7 28 8 29 9 30 10 32 11 33 12 34
REMARK SMILES IDX 73 35 13 36 72 37 14 38 15 39 16 40 66 41 17 42 71 43 65 44
REMARK SMILES IDX 67 45 18 46 70 47 64 48 63 49 19 51 51 52 31 53 50 54 32 55
REMARK SMILES IDX 35 56 49 57 68 58 33 59 34 60 48 62 69 63 36 64 20 65 21 66
REMARK SMILES IDX 29 67 22 68 23 69 27 70 30 71 24 72 25 73 28 74 26 75 52 76
REMARK SMILES IDX 53 77 61 78 54 79 55 80 59 81 62 82 56 83 57 84 60 85 58 86
REMARK SMILES IDX 37 87 38 88 46 89 39 90 40 91 44 92 47 93 41 94 42 95 45 96
REMARK SMILES IDX 43 97
REMARK H PARENT 3 7 8 31 67 50 35 61
REMARK Flexibility Score: inf
ROOT
ATOM      1  C   UNL A   1      33.964  30.767  27.925  1.00  0.00     0.023 C 
ENDROOT
BRANCH   1   2
ATOM      2  C   UNL A   1      34.909  29.632  27.560  1.00  0.00     0.023 C 
BRANCH   2   3
ATOM      3  C   UNL A   1      34.172  28.615  26.703  1.00  0.00     0.116 C 
BRANCH   3   4
ATOM      4  N   UNL A   1      32.962  28.167  27.407  1.00  0.00    -0.352 N 
ATOM      5  O   UNL A   1      30.712  27.419  27.252  1.00  0.00    -0.270 OA
ATOM      6  C   UNL A   1      31.758  27.807  26.643  1.00  0.00     0.251 C 
ATOM      7  H   UNL A   1      32.957  28.108  28.390  1.00  0.00     0.163 HD
BRANCH   6   8
ATOM      8  C   UNL A   1      31.765  27.899  25.127  1.00  0.00     0.067 C 
ATOM      9  C   UNL A   1      32.345  26.915  24.388  1.00  0.00     0.025 C 
ATOM     10  C   UNL A   1      31.124  29.092  24.435  1.00  0.00     0.314 C 
ATOM     11  C   UNL A   1      32.985  25.723  25.079  1.00  0.00     0.019 A 
ATOM     12  O   UNL A   1      31.167  25.733  26.609  1.00  0.00    -0.475 OA
ATOM     13  C   UNL A   1      34.210  25.249  24.637  1.00  0.00     0.036 A 
ATOM     14  C   UNL A   1      32.336  25.131  26.075  1.00  0.00     0.128 A 
ATOM     15  C   UNL A   1      34.534  23.960  25.122  1.00  0.00     0.107 A 
ATOM     16  C   UNL A   1      32.787  23.942  26.593  1.00  0.00     0.048 A 
ATOM     17  C   UNL A   1      33.958  23.384  26.161  1.00  0.00     0.028 A 
BRANCH  10  18
ATOM     18  C   UNL A   1      30.006  28.609  23.525  1.00  0.00     0.429 C 
ATOM     19  F   UNL A   1      29.052  29.534  23.467  1.00  0.00    -0.167 F 
ATOM     20  F   UNL A   1      30.489  28.394  22.305  1.00  0.00    -0.167 F 
ATOM     21  F   UNL A   1      29.499  27.478  24.008  1.00  0.00    -0.167 F 
ENDBRANCH  10  18
BRANCH  15  22
ATOM     22  S   UNL A   1      35.830  23.037  24.259  1.00  0.00     0.310 S 
ATOM     23  F   UNL A   1      36.144  22.157  25.540  1.00  0.00    -0.094 F 
ATOM     24  F   UNL A   1      36.887  24.074  24.796  1.00  0.00    -0.094 F 
ATOM     25  F   UNL A   1      36.943  22.245  23.517  1.00  0.00    -0.094 F 
ATOM     26  F   UNL A   1      34.780  21.932  23.847  1.00  0.00    -0.094 F 
ATOM     27  F   UNL A   1      34.709  23.768  25.100  1.00  0.00    -0.094 F 
ENDBRANCH  15  22
ENDBRANCH   6   8
ENDBRANCH   3   4
ENDBRANCH   2   3
ENDBRANCH   1   2
BRANCH   1  28
ATOM     28  C   UNL A   1      34.767  31.949  28.441  1.00  0.00     0.116 C 
BRANCH  28  29
ATOM     29  N   UNL A   1      34.426  32.196  29.849  1.00  0.00    -0.352 N 
ATOM     30  C   UNL A   1      35.397  31.880  30.907  1.00  0.00     0.251 C 
ATOM     31  H   UNL A   1      33.548  32.574  30.083  1.00  0.00     0.163 HD
ATOM     32  O   UNL A   1      35.102  32.094  32.125  1.00  0.00    -0.269 OA
BRANCH  30  33
ATOM     33  C   UNL A   1      36.754  31.298  30.545  1.00  0.00     0.039 A 
ATOM     34  C   UNL A   1      37.341  31.657  29.343  1.00  0.00     0.014 A 
ATOM     35  C   UNL A   1      37.335  30.429  31.364  1.00  0.00     0.014 A 
ATOM     36  C   UNL A   1      38.413  30.819  28.956  1.00  0.00     0.010 A 
ATOM     37  C   UNL A   1      38.460  29.744  30.972  1.00  0.00     0.010 A 
ATOM     38  C   UNL A   1      39.060  30.005  29.771  1.00  0.00    -0.014 A 
BRANCH  38  39
ATOM     39  C   UNL A   1      40.399  29.393  29.395  1.00  0.00     0.031 A 
ATOM     40  C   UNL A   1      40.435  28.041  29.049  1.00  0.00     0.074 A 
ATOM     41  C   UNL A   1      41.505  30.224  29.384  1.00  0.00     0.049 A 
ATOM     42  N   UNL A   1      41.487  27.336  28.629  1.00  0.00    -0.248 NA
ATOM     43  C   UNL A   1      39.268  27.147  29.094  1.00  0.00     0.031 C 
ATOM     44  C   UNL A   1      41.476  31.591  29.722  1.00  0.00     0.029 A 
ATOM     45  N   UNL A   1      42.802  29.901  29.053  1.00  0.00    -0.354 N 
ATOM     46  C   UNL A   1      41.128  26.076  28.376  1.00  0.00     0.074 A 
ATOM     47  C   UNL A   1      39.697  25.935  28.678  1.00  0.00     0.031 C 
ATOM     48  C   UNL A   1      42.737  32.082  29.610  1.00  0.00     0.029 A 
ATOM     49  C   UNL A   1      43.578  31.030  29.198  1.00  0.00     0.049 A 
ATOM     50  H   UNL A   1      43.121  29.016  28.765  1.00  0.00     0.167 HD
ATOM     51  C   UNL A   1      41.936  25.040  27.906  1.00  0.00     0.037 A 
ATOM     52  C   UNL A   1      44.942  31.156  28.990  1.00  0.00     0.037 A 
ATOM     53  C   UNL A   1      43.292  25.177  27.656  1.00  0.00     0.049 A 
ATOM     54  C   UNL A   1      45.763  30.103  28.574  1.00  0.00     0.074 A 
ATOM     55  C   UNL A   1      44.120  24.145  27.174  1.00  0.00     0.029 A 
ATOM     56  N   UNL A   1      44.072  26.299  27.825  1.00  0.00    -0.354 N 
ATOM     57  N   UNL A   1      45.396  28.855  28.285  1.00  0.00    -0.248 NA
ATOM     58  C   UNL A   1      47.214  30.217  28.381  1.00  0.00     0.031 C 
ATOM     59  C   UNL A   1      45.383  24.635  27.062  1.00  0.00     0.029 A 
ATOM     60  C   UNL A   1      45.365  25.982  27.473  1.00  0.00     0.049 A 
ATOM     61  H   UNL A   1      43.759  27.178  28.141  1.00  0.00     0.167 HD
ATOM     62  C   UNL A   1      46.456  28.140  27.904  1.00  0.00     0.074 A 
ATOM     63  C   UNL A   1      47.643  29.004  27.968  1.00  0.00     0.031 C 
ATOM     64  C   UNL A   1      46.481  26.803  27.503  1.00  0.00     0.037 A 
BRANCH  51  65
ATOM     65  C   UNL A   1      41.292  23.686  27.653  1.00  0.00     0.064 A 
ATOM     66  C   UNL A   1      41.725  22.577  28.360  1.00  0.00     0.173 A 
ATOM     67  C   UNL A   1      40.389  23.578  26.687  1.00  0.00     0.173 A 
ATOM     68  F   UNL A   1      42.424  22.663  29.488  1.00  0.00    -0.203 F 
ATOM     69  C   UNL A   1      41.356  21.343  27.774  1.00  0.00     0.198 A 
ATOM     70  C   UNL A   1      39.972  22.342  26.255  1.00  0.00     0.198 A 
ATOM     71  F   UNL A   1      39.884  24.675  26.130  1.00  0.00    -0.203 F 
ATOM     72  F   UNL A   1      42.011  20.253  28.161  1.00  0.00    -0.200 F 
ATOM     73  C   UNL A   1      40.405  21.199  26.869  1.00  0.00     0.200 A 
ATOM     74  F   UNL A   1      39.135  22.255  25.225  1.00  0.00    -0.200 F 
ATOM     75  F   UNL A   1      39.895  20.008  26.572  1.00  0.00    -0.200 F 
ENDBRANCH  51  65
BRANCH  52  76
ATOM     76  C   UNL A   1      45.582  32.513  29.226  1.00  0.00     0.064 A 
ATOM     77  C   UNL A   1      45.614  33.364  28.134  1.00  0.00     0.173 A 
ATOM     78  C   UNL A   1      46.044  32.897  30.411  1.00  0.00     0.173 A 
ATOM     79  F   UNL A   1      44.944  33.126  27.010  1.00  0.00    -0.203 F 
ATOM     80  C   UNL A   1      46.422  34.510  28.322  1.00  0.00     0.198 A 
ATOM     81  C   UNL A   1      46.707  34.092  30.550  1.00  0.00     0.198 A 
ATOM     82  F   UNL A   1      45.864  32.116  31.472  1.00  0.00    -0.203 F 
ATOM     83  F   UNL A   1      46.802  35.183  27.239  1.00  0.00    -0.200 F 
ATOM     84  C   UNL A   1      46.827  34.956  29.497  1.00  0.00     0.200 A 
ATOM     85  F   UNL A   1      47.239  34.414  31.725  1.00  0.00    -0.200 F 
ATOM     86  F   UNL A   1      47.324  36.181  29.648  1.00  0.00    -0.200 F 
ENDBRANCH  52  76
BRANCH  64  87
ATOM     87  C   UNL A   1      47.815  26.213  27.072  1.00  0.00     0.064 A 
ATOM     88  C   UNL A   1      48.610  25.585  28.016  1.00  0.00     0.173 A 
ATOM     89  C   UNL A   1      48.214  26.344  25.812  1.00  0.00     0.173 A 
ATOM     90  F   UNL A   1      48.159  25.207  29.209  1.00  0.00    -0.203 F 
ATOM     91  C   UNL A   1      49.946  25.383  27.598  1.00  0.00     0.198 A 
ATOM     92  C   UNL A   1      49.492  25.999  25.445  1.00  0.00     0.198 A 
ATOM     93  F   UNL A   1      47.369  26.814  24.898  1.00  0.00    -0.203 F 
ATOM     94  F   UNL A   1      50.857  25.129  28.533  1.00  0.00    -0.200 F 
ATOM     95  C   UNL A   1      50.352  25.429  26.341  1.00  0.00     0.200 A 
ATOM     96  F   UNL A   1      49.899  26.224  24.198  1.00  0.00    -0.200 F 
ATOM     97  F   UNL A   1      51.534  24.946  25.968  1.00  0.00    -0.200 F 
ENDBRANCH  64  87
ENDBRANCH  38  39
ENDBRANCH  30  33
ENDBRANCH  28  29
ENDBRANCH   1  28
TORSDOF 13
ENDMDL
