MODEL 1
REMARK VINA RESULT:     -12.3      0.000      0.000
REMARK SMILES CCCCCCNC(=O)Oc1cccc(-c2ccc([C@@H](C)C(=O)NCCCCNC(=O)c3ccc(-c4c5nc(c(-c6c(F)c(F)c(F)c(F)c6F)c6ccc([nH]6)c(-c6c(F)c(F)c(F)c(F)c6F)c6nc(c(-c7c(F)c(F)c(F)c(F)c7F)c7ccc4[nH]7)C=C6)C=C5)cc3)cc2O)c1
REMARK SMILES IDX 20 1 21 2 19 3 16 4 17 5 96 6 18 7 95 8 15 9 11 10 12 11
REMARK SMILES IDX 98 12 13 13 14 14 10 15 8 16 7 17 9 19 6 20 5 21 4 22 3 23
REMARK SMILES IDX 2 24 1 25 97 26 22 28 23 29 24 30 25 32 26 33 27 34 28 35
REMARK SMILES IDX 29 36 30 37 31 39 32 40 33 41 94 42 34 43 93 44 35 45 36 46
REMARK SMILES IDX 37 47 87 48 38 49 92 50 86 51 88 52 39 53 91 54 85 55 84 56
REMARK SMILES IDX 40 58 72 59 52 60 71 61 53 62 56 63 70 64 89 65 54 66 55 67
REMARK SMILES IDX 69 69 90 70 57 71 41 72 42 73 50 74 43 75 44 76 48 77 51 78
REMARK SMILES IDX 45 79 46 80 49 81 47 82 73 83 74 84 82 85 75 86 76 87 80 88
REMARK SMILES IDX 83 89 77 90 78 91 81 92 79 93 58 94 59 95 67 96 60 97 61 98
REMARK SMILES IDX 65 99 68 100 62 101 63 102 66 103 64 104
REMARK H PARENT 7 18 97 27 24 31 29 38 88 57 56 68
REMARK Flexibility Score: inf
ROOT
ATOM      1  C   UNL A   1      28.757  29.047  22.736  1.00  0.00     0.105 C 
ATOM      2  C   UNL A   1      27.370  28.910  23.364  1.00  0.00     0.023 C 
ENDROOT
BRANCH   1   3
ATOM      3  C   UNL A   1      29.691  27.860  22.922  1.00  0.00    -0.032 A 
ATOM      4  C   UNL A   1      31.645  25.815  23.377  1.00  0.00     0.024 A 
ATOM      5  C   UNL A   1      30.470  25.903  24.142  1.00  0.00     0.013 A 
ATOM      6  C   UNL A   1      31.761  26.725  22.313  1.00  0.00     0.123 A 
ATOM      7  C   UNL A   1      29.492  26.873  23.889  1.00  0.00     0.005 A 
ATOM      8  C   UNL A   1      30.833  27.753  22.115  1.00  0.00     0.051 A 
BRANCH   4   9
ATOM      9  C   UNL A   1      32.694  24.832  23.742  1.00  0.00    -0.011 A 
ATOM     10  C   UNL A   1      33.530  22.545  23.828  1.00  0.00     0.133 A 
ATOM     11  C   UNL A   1      34.718  22.965  24.412  1.00  0.00     0.047 A 
ATOM     12  C   UNL A   1      32.531  23.458  23.483  1.00  0.00     0.056 A 
ATOM     13  C   UNL A   1      34.914  24.321  24.650  1.00  0.00     0.004 A 
ATOM     14  C   UNL A   1      33.908  25.240  24.330  1.00  0.00     0.009 A 
BRANCH  10  15
ATOM     15  O   UNL A   1      33.325  21.158  23.737  1.00  0.00    -0.410 OA
BRANCH  15  16
ATOM     16  C   UNL A   1      32.823  20.478  24.836  1.00  0.00     0.412 C 
ATOM     17  N   UNL A   1      33.703  19.559  25.340  1.00  0.00    -0.321 N 
ATOM     18  H   UNL A   1      33.398  19.036  26.116  1.00  0.00     0.167 HD
ATOM     19  O   UNL A   1      31.715  20.632  25.334  1.00  0.00    -0.224 OA
BRANCH  17  20
ATOM     20  C   UNL A   1      35.039  19.277  24.850  1.00  0.00     0.119 C 
BRANCH  20  21
ATOM     21  C   UNL A   1      35.231  17.796  24.526  1.00  0.00     0.021 C 
BRANCH  21  22
ATOM     22  C   UNL A   1      34.311  17.252  23.426  1.00  0.00     0.002 C 
BRANCH  22  23
ATOM     23  C   UNL A   1      33.171  16.347  23.905  1.00  0.00    -0.000 C 
BRANCH  23  24
ATOM     24  C   UNL A   1      33.278  15.862  25.353  1.00  0.00    -0.003 C 
ATOM     25  C   UNL A   1      32.341  14.707  25.672  1.00  0.00     0.004 C 
ENDBRANCH  23  24
ENDBRANCH  22  23
ENDBRANCH  21  22
ENDBRANCH  20  21
ENDBRANCH  17  20
ENDBRANCH  15  16
ENDBRANCH  10  15
ENDBRANCH   4   9
BRANCH   6  26
ATOM     26  O   UNL A   1      32.768  26.660  21.385  1.00  0.00    -0.507 OA
ATOM     27  H   UNL A   1      33.248  27.433  21.160  1.00  0.00     0.293 HD
ENDBRANCH   6  26
ENDBRANCH   1   3
BRANCH   1  28
ATOM     28  C   UNL A   1      29.427  30.406  22.998  1.00  0.00     0.227 C 
ATOM     29  O   UNL A   1      29.177  31.369  22.263  1.00  0.00    -0.274 OA
ATOM     30  N   UNL A   1      30.286  30.645  24.027  1.00  0.00    -0.356 N 
ATOM     31  H   UNL A   1      30.580  31.583  24.099  1.00  0.00     0.163 HD
BRANCH  30  32
ATOM     32  C   UNL A   1      30.845  29.770  25.034  1.00  0.00     0.116 C 
BRANCH  32  33
ATOM     33  C   UNL A   1      31.950  30.451  25.843  1.00  0.00     0.023 C 
BRANCH  33  34
ATOM     34  C   UNL A   1      31.530  31.731  26.560  1.00  0.00     0.023 C 
BRANCH  34  35
ATOM     35  C   UNL A   1      32.659  32.494  27.239  1.00  0.00     0.116 C 
BRANCH  35  36
ATOM     36  N   UNL A   1      32.351  33.889  27.527  1.00  0.00    -0.352 N 
ATOM     37  C   UNL A   1      32.977  34.726  28.424  1.00  0.00     0.251 C 
ATOM     38  H   UNL A   1      31.605  34.281  27.019  1.00  0.00     0.163 HD
ATOM     39  O   UNL A   1      32.566  35.864  28.616  1.00  0.00    -0.269 OA
BRANCH  37  40
ATOM     40  C   UNL A   1      34.127  34.208  29.193  1.00  0.00     0.039 A 
ATOM     41  C   UNL A   1      33.887  33.449  30.340  1.00  0.00     0.014 A 
ATOM     42  C   UNL A   1      35.430  34.407  28.732  1.00  0.00     0.014 A 
ATOM     43  C   UNL A   1      34.953  32.816  30.981  1.00  0.00     0.010 A 
ATOM     44  C   UNL A   1      36.479  33.711  29.323  1.00  0.00     0.010 A 
ATOM     45  C   UNL A   1      36.251  32.906  30.449  1.00  0.00    -0.014 A 
BRANCH  45  46
ATOM     46  C   UNL A   1      37.389  32.172  31.053  1.00  0.00     0.031 A 
ATOM     47  C   UNL A   1      37.878  32.549  32.424  1.00  0.00     0.074 A 
ATOM     48  C   UNL A   1      38.033  31.226  30.341  1.00  0.00     0.049 A 
ATOM     49  N   UNL A   1      38.919  32.110  33.084  1.00  0.00    -0.248 NA
ATOM     50  C   UNL A   1      37.111  33.586  33.133  1.00  0.00     0.031 C 
ATOM     51  C   UNL A   1      37.688  30.807  28.980  1.00  0.00     0.029 A 
ATOM     52  N   UNL A   1      39.125  30.456  30.656  1.00  0.00    -0.354 N 
ATOM     53  C   UNL A   1      38.942  32.828  34.271  1.00  0.00     0.074 A 
ATOM     54  C   UNL A   1      37.846  33.771  34.220  1.00  0.00     0.031 C 
ATOM     55  C   UNL A   1      38.536  29.844  28.588  1.00  0.00     0.029 A 
ATOM     56  C   UNL A   1      39.507  29.602  29.650  1.00  0.00     0.049 A 
ATOM     57  H   UNL A   1      39.589  30.511  31.523  1.00  0.00     0.167 HD
ATOM     58  C   UNL A   1      39.786  32.696  35.322  1.00  0.00     0.037 A 
ATOM     59  C   UNL A   1      40.531  28.730  29.592  1.00  0.00     0.037 A 
ATOM     60  C   UNL A   1      40.852  31.732  35.384  1.00  0.00     0.049 A 
ATOM     61  C   UNL A   1      41.448  28.595  30.779  1.00  0.00     0.074 A 
ATOM     62  C   UNL A   1      41.726  31.479  36.427  1.00  0.00     0.029 A 
ATOM     63  N   UNL A   1      41.184  30.858  34.360  1.00  0.00    -0.354 N 
ATOM     64  N   UNL A   1      41.421  29.236  31.922  1.00  0.00    -0.248 NA
ATOM     65  C   UNL A   1      42.534  27.611  30.669  1.00  0.00     0.031 C 
ATOM     66  C   UNL A   1      42.610  30.475  36.021  1.00  0.00     0.029 A 
ATOM     67  C   UNL A   1      42.258  30.072  34.742  1.00  0.00     0.049 A 
ATOM     68  H   UNL A   1      40.725  30.804  33.492  1.00  0.00     0.167 HD
ATOM     69  C   UNL A   1      42.462  28.711  32.678  1.00  0.00     0.074 A 
ATOM     70  C   UNL A   1      43.093  27.690  31.868  1.00  0.00     0.031 C 
ATOM     71  C   UNL A   1      42.859  29.046  33.930  1.00  0.00     0.037 A 
BRANCH  58  72
ATOM     72  C   UNL A   1      39.579  33.606  36.496  1.00  0.00     0.064 A 
ATOM     73  C   UNL A   1      38.797  33.219  37.595  1.00  0.00     0.173 A 
ATOM     74  C   UNL A   1      40.200  34.863  36.544  1.00  0.00     0.173 A 
ATOM     75  F   UNL A   1      38.170  32.032  37.592  1.00  0.00    -0.203 F 
ATOM     76  C   UNL A   1      38.621  34.067  38.684  1.00  0.00     0.198 A 
ATOM     77  C   UNL A   1      40.046  35.696  37.648  1.00  0.00     0.198 A 
ATOM     78  F   UNL A   1      40.962  35.280  35.521  1.00  0.00    -0.203 F 
ATOM     79  F   UNL A   1      37.830  33.695  39.700  1.00  0.00    -0.200 F 
ATOM     80  C   UNL A   1      39.252  35.301  38.714  1.00  0.00     0.200 A 
ATOM     81  F   UNL A   1      40.666  36.884  37.681  1.00  0.00    -0.200 F 
ATOM     82  F   UNL A   1      39.089  36.113  39.767  1.00  0.00    -0.200 F 
ENDBRANCH  58  72
BRANCH  59  83
ATOM     83  C   UNL A   1      40.732  27.893  28.380  1.00  0.00     0.064 A 
ATOM     84  C   UNL A   1      41.501  28.360  27.305  1.00  0.00     0.173 A 
ATOM     85  C   UNL A   1      40.148  26.623  28.261  1.00  0.00     0.173 A 
ATOM     86  F   UNL A   1      42.062  29.577  27.362  1.00  0.00    -0.203 F 
ATOM     87  C   UNL A   1      41.657  27.601  26.147  1.00  0.00     0.198 A 
ATOM     88  C   UNL A   1      40.328  25.854  27.114  1.00  0.00     0.198 A 
ATOM     89  F   UNL A   1      39.407  26.129  29.263  1.00  0.00    -0.203 F 
ATOM     90  F   UNL A   1      42.353  28.095  25.114  1.00  0.00    -0.200 F 
ATOM     91  C   UNL A   1      41.074  26.346  26.054  1.00  0.00     0.200 A 
ATOM     92  F   UNL A   1      39.772  24.637  27.032  1.00  0.00    -0.200 F 
ATOM     93  F   UNL A   1      41.221  25.618  24.939  1.00  0.00    -0.200 F 
ENDBRANCH  59  83
BRANCH  71  94
ATOM     94  C   UNL A   1      43.999  28.270  34.521  1.00  0.00     0.064 A 
ATOM     95  C   UNL A   1      43.790  27.076  35.226  1.00  0.00     0.173 A 
ATOM     96  C   UNL A   1      45.320  28.704  34.335  1.00  0.00     0.173 A 
ATOM     97  F   UNL A   1      42.544  26.629  35.442  1.00  0.00    -0.203 F 
ATOM     98  C   UNL A   1      44.863  26.355  35.743  1.00  0.00     0.198 A 
ATOM     99  C   UNL A   1      46.392  27.965  34.828  1.00  0.00     0.198 A 
ATOM    100  F   UNL A   1      45.572  29.837  33.661  1.00  0.00    -0.203 F 
ATOM    101  F   UNL A   1      44.640  25.239  36.449  1.00  0.00    -0.200 F 
ATOM    102  C   UNL A   1      46.162  26.796  35.536  1.00  0.00     0.200 A 
ATOM    103  F   UNL A   1      47.647  28.385  34.616  1.00  0.00    -0.200 F 
ATOM    104  F   UNL A   1      47.194  26.095  36.025  1.00  0.00    -0.200 F 
ENDBRANCH  71  94
ENDBRANCH  45  46
ENDBRANCH  37  40
ENDBRANCH  35  36
ENDBRANCH  34  35
ENDBRANCH  33  34
ENDBRANCH  32  33
ENDBRANCH  30  32
ENDBRANCH   1  28
TORSDOF 21
ENDMDL
MODEL 2
REMARK VINA RESULT:     -12.3      1.280      7.266
REMARK SMILES CCCCCCNC(=O)Oc1cccc(-c2ccc([C@@H](C)C(=O)NCCCCNC(=O)c3ccc(-c4c5nc(c(-c6c(F)c(F)c(F)c(F)c6F)c6ccc([nH]6)c(-c6c(F)c(F)c(F)c(F)c6F)c6nc(c(-c7c(F)c(F)c(F)c(F)c7F)c7ccc4[nH]7)C=C6)C=C5)cc3)cc2O)c1
REMARK SMILES IDX 20 1 21 2 19 3 16 4 17 5 96 6 18 7 95 8 15 9 11 10 12 11
REMARK SMILES IDX 98 12 13 13 14 14 10 15 8 16 7 17 9 19 6 20 5 21 4 22 3 23
REMARK SMILES IDX 2 24 1 25 97 26 22 28 23 29 24 30 25 32 26 33 27 34 28 35
REMARK SMILES IDX 29 36 30 37 31 39 32 40 33 41 94 42 34 43 93 44 35 45 36 46
REMARK SMILES IDX 37 47 87 48 38 49 92 50 86 51 88 52 39 53 91 54 85 55 84 56
REMARK SMILES IDX 40 58 72 59 52 60 71 61 53 62 56 63 70 64 89 65 54 66 55 67
REMARK SMILES IDX 69 69 90 70 57 71 41 72 42 73 50 74 43 75 44 76 48 77 51 78
REMARK SMILES IDX 45 79 46 80 49 81 47 82 73 83 74 84 82 85 75 86 76 87 80 88
REMARK SMILES IDX 83 89 77 90 78 91 81 92 79 93 58 94 59 95 67 96 60 97 61 98
REMARK SMILES IDX 65 99 68 100 62 101 63 102 66 103 64 104
REMARK H PARENT 7 18 97 27 24 31 29 38 88 57 56 68
REMARK Flexibility Score: inf
ROOT
ATOM      1  C   UNL A   1      28.777  29.309  22.754  1.00  0.00     0.105 C 
ATOM      2  C   UNL A   1      27.309  29.204  23.166  1.00  0.00     0.023 C 
ENDROOT
BRANCH   1   3
ATOM      3  C   UNL A   1      29.625  28.068  22.989  1.00  0.00    -0.032 A 
ATOM      4  C   UNL A   1      31.000  25.577  23.321  1.00  0.00     0.024 A 
ATOM      5  C   UNL A   1      31.409  26.530  22.373  1.00  0.00     0.013 A 
ATOM      6  C   UNL A   1      29.941  25.955  24.163  1.00  0.00     0.123 A 
ATOM      7  C   UNL A   1      30.767  27.769  22.244  1.00  0.00     0.005 A 
ATOM      8  C   UNL A   1      29.238  27.150  23.975  1.00  0.00     0.051 A 
BRANCH   4   9
ATOM      9  C   UNL A   1      31.650  24.244  23.358  1.00  0.00    -0.011 A 
ATOM     10  C   UNL A   1      31.856  22.001  24.286  1.00  0.00     0.133 A 
ATOM     11  C   UNL A   1      32.879  21.691  23.397  1.00  0.00     0.047 A 
ATOM     12  C   UNL A   1      31.238  23.252  24.267  1.00  0.00     0.056 A 
ATOM     13  C   UNL A   1      33.283  22.644  22.470  1.00  0.00     0.004 A 
ATOM     14  C   UNL A   1      32.684  23.909  22.461  1.00  0.00     0.009 A 
BRANCH  10  15
ATOM     15  O   UNL A   1      31.582  21.057  25.289  1.00  0.00    -0.410 OA
BRANCH  15  16
ATOM     16  C   UNL A   1      32.406  19.949  25.416  1.00  0.00     0.412 C 
ATOM     17  N   UNL A   1      33.411  20.135  26.326  1.00  0.00    -0.321 N 
ATOM     18  H   UNL A   1      34.037  19.386  26.451  1.00  0.00     0.167 HD
ATOM     19  O   UNL A   1      32.300  18.899  24.795  1.00  0.00    -0.224 OA
BRANCH  17  20
ATOM     20  C   UNL A   1      33.650  21.323  27.125  1.00  0.00     0.119 C 
BRANCH  20  21
ATOM     21  C   UNL A   1      34.986  21.983  26.787  1.00  0.00     0.021 C 
BRANCH  21  22
ATOM     22  C   UNL A   1      34.907  23.487  26.496  1.00  0.00     0.002 C 
BRANCH  22  23
ATOM     23  C   UNL A   1      35.361  23.915  25.096  1.00  0.00    -0.000 C 
BRANCH  23  24
ATOM     24  C   UNL A   1      36.712  23.356  24.642  1.00  0.00    -0.003 C 
ATOM     25  C   UNL A   1      36.737  22.959  23.174  1.00  0.00     0.004 C 
ENDBRANCH  23  24
ENDBRANCH  22  23
ENDBRANCH  21  22
ENDBRANCH  20  21
ENDBRANCH  17  20
ENDBRANCH  15  16
ENDBRANCH  10  15
ENDBRANCH   4   9
BRANCH   6  26
ATOM     26  O   UNL A   1      29.537  25.201  25.234  1.00  0.00    -0.507 OA
ATOM     27  H   UNL A   1      28.638  24.948  25.317  1.00  0.00     0.293 HD
ENDBRANCH   6  26
ENDBRANCH   1   3
BRANCH   1  28
ATOM     28  C   UNL A   1      29.457  30.615  23.200  1.00  0.00     0.227 C 
ATOM     29  O   UNL A   1      29.150  31.686  22.663  1.00  0.00    -0.274 OA
ATOM     30  N   UNL A   1      30.387  30.687  24.192  1.00  0.00    -0.356 N 
ATOM     31  H   UNL A   1      30.680  31.603  24.405  1.00  0.00     0.163 HD
BRANCH  30  32
ATOM     32  C   UNL A   1      31.022  29.661  24.989  1.00  0.00     0.116 C 
BRANCH  32  33
ATOM     33  C   UNL A   1      32.170  30.213  25.835  1.00  0.00     0.023 C 
BRANCH  33  34
ATOM     34  C   UNL A   1      31.772  31.290  26.840  1.00  0.00     0.023 C 
BRANCH  34  35
ATOM     35  C   UNL A   1      32.888  32.245  27.243  1.00  0.00     0.116 C 
BRANCH  35  36
ATOM     36  N   UNL A   1      32.450  33.615  27.472  1.00  0.00    -0.352 N 
ATOM     37  C   UNL A   1      32.974  34.536  28.352  1.00  0.00     0.251 C 
ATOM     38  H   UNL A   1      31.687  33.921  26.931  1.00  0.00     0.163 HD
ATOM     39  O   UNL A   1      32.459  35.639  28.492  1.00  0.00    -0.269 OA
BRANCH  37  40
ATOM     40  C   UNL A   1      34.144  34.151  29.168  1.00  0.00     0.039 A 
ATOM     41  C   UNL A   1      33.942  33.402  30.329  1.00  0.00     0.014 A 
ATOM     42  C   UNL A   1      35.436  34.460  28.737  1.00  0.00     0.014 A 
ATOM     43  C   UNL A   1      35.044  32.890  31.016  1.00  0.00     0.010 A 
ATOM     44  C   UNL A   1      36.528  33.883  29.376  1.00  0.00     0.010 A 
ATOM     45  C   UNL A   1      36.343  33.090  30.519  1.00  0.00    -0.014 A 
BRANCH  45  46
ATOM     46  C   UNL A   1      37.526  32.483  31.175  1.00  0.00     0.031 A 
ATOM     47  C   UNL A   1      38.260  31.359  30.498  1.00  0.00     0.074 A 
ATOM     48  C   UNL A   1      37.889  32.883  32.409  1.00  0.00     0.049 A 
ATOM     49  N   UNL A   1      39.245  30.623  30.946  1.00  0.00    -0.248 NA
ATOM     50  C   UNL A   1      37.801  30.991  29.149  1.00  0.00     0.031 C 
ATOM     51  C   UNL A   1      37.224  33.927  33.192  1.00  0.00     0.029 A 
ATOM     52  N   UNL A   1      38.899  32.448  33.230  1.00  0.00    -0.354 N 
ATOM     53  C   UNL A   1      39.508  29.697  29.946  1.00  0.00     0.074 A 
ATOM     54  C   UNL A   1      38.544  29.926  28.891  1.00  0.00     0.031 C 
ATOM     55  C   UNL A   1      37.856  34.066  34.368  1.00  0.00     0.029 A 
ATOM     56  C   UNL A   1      38.945  33.097  34.440  1.00  0.00     0.049 A 
ATOM     57  H   UNL A   1      39.532  31.737  32.976  1.00  0.00     0.167 HD
ATOM     58  C   UNL A   1      40.482  28.757  29.899  1.00  0.00     0.037 A 
ATOM     59  C   UNL A   1      39.770  32.922  35.491  1.00  0.00     0.037 A 
ATOM     60  C   UNL A   1      41.461  28.558  30.934  1.00  0.00     0.049 A 
ATOM     61  C   UNL A   1      40.852  31.877  35.408  1.00  0.00     0.074 A 
ATOM     62  C   UNL A   1      42.523  27.672  30.957  1.00  0.00     0.029 A 
ATOM     63  N   UNL A   1      41.498  29.261  32.128  1.00  0.00    -0.354 N 
ATOM     64  N   UNL A   1      41.130  31.050  34.430  1.00  0.00    -0.248 NA
ATOM     65  C   UNL A   1      41.737  31.746  36.574  1.00  0.00     0.031 C 
ATOM     66  C   UNL A   1      43.183  27.814  32.181  1.00  0.00     0.029 A 
ATOM     67  C   UNL A   1      42.559  28.820  32.901  1.00  0.00     0.049 A 
ATOM     68  H   UNL A   1      40.865  29.968  32.388  1.00  0.00     0.167 HD
ATOM     69  C   UNL A   1      42.239  30.325  34.847  1.00  0.00     0.074 A 
ATOM     70  C   UNL A   1      42.590  30.819  36.162  1.00  0.00     0.031 C 
ATOM     71  C   UNL A   1      42.906  29.339  34.199  1.00  0.00     0.037 A 
BRANCH  58  72
ATOM     72  C   UNL A   1      40.545  27.884  28.681  1.00  0.00     0.064 A 
ATOM     73  C   UNL A   1      39.819  26.686  28.599  1.00  0.00     0.173 A 
ATOM     74  C   UNL A   1      41.309  28.266  27.568  1.00  0.00     0.173 A 
ATOM     75  F   UNL A   1      39.084  26.270  29.642  1.00  0.00    -0.203 F 
ATOM     76  C   UNL A   1      39.877  25.890  27.460  1.00  0.00     0.198 A 
ATOM     77  C   UNL A   1      41.341  27.481  26.419  1.00  0.00     0.198 A 
ATOM     78  F   UNL A   1      42.020  29.403  27.593  1.00  0.00    -0.203 F 
ATOM     79  F   UNL A   1      39.213  24.726  27.423  1.00  0.00    -0.200 F 
ATOM     80  C   UNL A   1      40.631  26.291  26.367  1.00  0.00     0.200 A 
ATOM     81  F   UNL A   1      42.061  27.876  25.359  1.00  0.00    -0.200 F 
ATOM     82  F   UNL A   1      40.679  25.527  25.268  1.00  0.00    -0.200 F 
ENDBRANCH  58  72
BRANCH  59  83
ATOM     83  C   UNL A   1      39.629  33.771  36.702  1.00  0.00     0.064 A 
ATOM     84  C   UNL A   1      38.845  33.350  37.786  1.00  0.00     0.173 A 
ATOM     85  C   UNL A   1      40.252  35.024  36.797  1.00  0.00     0.173 A 
ATOM     86  F   UNL A   1      38.210  32.170  37.734  1.00  0.00    -0.203 F 
ATOM     87  C   UNL A   1      38.669  34.159  38.907  1.00  0.00     0.198 A 
ATOM     88  C   UNL A   1      40.099  35.820  37.929  1.00  0.00     0.198 A 
ATOM     89  F   UNL A   1      41.015  35.470  35.789  1.00  0.00    -0.203 F 
ATOM     90  F   UNL A   1      37.873  33.754  39.905  1.00  0.00    -0.200 F 
ATOM     91  C   UNL A   1      39.300  35.392  38.979  1.00  0.00     0.200 A 
ATOM     92  F   UNL A   1      40.718  37.006  38.001  1.00  0.00    -0.200 F 
ATOM     93  F   UNL A   1      39.128  36.172  40.055  1.00  0.00    -0.200 F 
ENDBRANCH  59  83
BRANCH  71  94
ATOM     94  C   UNL A   1      44.110  28.760  34.879  1.00  0.00     0.064 A 
ATOM     95  C   UNL A   1      44.026  27.605  35.670  1.00  0.00     0.173 A 
ATOM     96  C   UNL A   1      45.374  29.343  34.696  1.00  0.00     0.173 A 
ATOM     97  F   UNL A   1      42.838  27.020  35.886  1.00  0.00    -0.203 F 
ATOM     98  C   UNL A   1      45.161  27.066  36.270  1.00  0.00     0.198 A 
ATOM     99  C   UNL A   1      46.510  28.784  35.274  1.00  0.00     0.198 A 
ATOM    100  F   UNL A   1      45.508  30.445  33.943  1.00  0.00    -0.203 F 
ATOM    101  F   UNL A   1      45.052  25.986  37.055  1.00  0.00    -0.200 F 
ATOM    102  C   UNL A   1      46.402  27.651  36.064  1.00  0.00     0.200 A 
ATOM    103  F   UNL A   1      47.710  29.343  35.064  1.00  0.00    -0.200 F 
ATOM    104  F   UNL A   1      47.494  27.125  36.634  1.00  0.00    -0.200 F 
ENDBRANCH  71  94
ENDBRANCH  45  46
ENDBRANCH  37  40
ENDBRANCH  35  36
ENDBRANCH  34  35
ENDBRANCH  33  34
ENDBRANCH  32  33
ENDBRANCH  30  32
ENDBRANCH   1  28
TORSDOF 21
ENDMDL
MODEL 3
REMARK VINA RESULT:     -12.2      1.522      7.466
REMARK SMILES CCCCCCNC(=O)Oc1cccc(-c2ccc([C@@H](C)C(=O)NCCCCNC(=O)c3ccc(-c4c5nc(c(-c6c(F)c(F)c(F)c(F)c6F)c6ccc([nH]6)c(-c6c(F)c(F)c(F)c(F)c6F)c6nc(c(-c7c(F)c(F)c(F)c(F)c7F)c7ccc4[nH]7)C=C6)C=C5)cc3)cc2O)c1
REMARK SMILES IDX 20 1 21 2 19 3 16 4 17 5 96 6 18 7 95 8 15 9 11 10 12 11
REMARK SMILES IDX 98 12 13 13 14 14 10 15 8 16 7 17 9 19 6 20 5 21 4 22 3 23
REMARK SMILES IDX 2 24 1 25 97 26 22 28 23 29 24 30 25 32 26 33 27 34 28 35
REMARK SMILES IDX 29 36 30 37 31 39 32 40 33 41 94 42 34 43 93 44 35 45 36 46
REMARK SMILES IDX 37 47 87 48 38 49 92 50 86 51 88 52 39 53 91 54 85 55 84 56
REMARK SMILES IDX 40 58 72 59 52 60 71 61 53 62 56 63 70 64 89 65 54 66 55 67
REMARK SMILES IDX 69 69 90 70 57 71 41 72 42 73 50 74 43 75 44 76 48 77 51 78
REMARK SMILES IDX 45 79 46 80 49 81 47 82 73 83 74 84 82 85 75 86 76 87 80 88
REMARK SMILES IDX 83 89 77 90 78 91 81 92 79 93 58 94 59 95 67 96 60 97 61 98
REMARK SMILES IDX 65 99 68 100 62 101 63 102 66 103 64 104
REMARK H PARENT 7 18 97 27 24 31 29 38 88 57 56 68
REMARK Flexibility Score: inf
ROOT
ATOM      1  C   UNL A   1      31.004  28.172  22.600  1.00  0.00     0.105 C 
ATOM      2  C   UNL A   1      29.667  28.695  23.124  1.00  0.00     0.023 C 
ENDROOT
BRANCH   1   3
ATOM      3  C   UNL A   1      31.221  26.670  22.711  1.00  0.00    -0.032 A 
ATOM      4  C   UNL A   1      31.895  23.904  23.026  1.00  0.00     0.024 A 
ATOM      5  C   UNL A   1      30.935  24.531  23.838  1.00  0.00     0.013 A 
ATOM      6  C   UNL A   1      32.432  24.683  21.988  1.00  0.00     0.123 A 
ATOM      7  C   UNL A   1      30.570  25.871  23.653  1.00  0.00     0.005 A 
ATOM      8  C   UNL A   1      32.141  26.044  21.859  1.00  0.00     0.051 A 
BRANCH   4   9
ATOM      9  C   UNL A   1      32.316  22.512  23.319  1.00  0.00    -0.011 A 
ATOM     10  C   UNL A   1      33.622  20.910  24.608  1.00  0.00     0.133 A 
ATOM     11  C   UNL A   1      33.087  19.846  23.892  1.00  0.00     0.047 A 
ATOM     12  C   UNL A   1      33.241  22.226  24.341  1.00  0.00     0.056 A 
ATOM     13  C   UNL A   1      32.150  20.101  22.898  1.00  0.00     0.004 A 
ATOM     14  C   UNL A   1      31.780  21.420  22.608  1.00  0.00     0.009 A 
BRANCH  10  15
ATOM     15  O   UNL A   1      34.663  20.611  25.502  1.00  0.00    -0.410 OA
BRANCH  15  16
ATOM     16  C   UNL A   1      34.893  21.457  26.576  1.00  0.00     0.412 C 
ATOM     17  N   UNL A   1      36.128  22.046  26.534  1.00  0.00    -0.321 N 
ATOM     18  H   UNL A   1      36.354  22.650  27.278  1.00  0.00     0.167 HD
ATOM     19  O   UNL A   1      34.117  21.678  27.497  1.00  0.00    -0.224 OA
BRANCH  17  20
ATOM     20  C   UNL A   1      37.138  21.872  25.507  1.00  0.00     0.119 C 
BRANCH  20  21
ATOM     21  C   UNL A   1      38.508  22.380  25.957  1.00  0.00     0.021 C 
BRANCH  21  22
ATOM     22  C   UNL A   1      39.605  21.310  26.013  1.00  0.00     0.002 C 
BRANCH  22  23
ATOM     23  C   UNL A   1      40.552  21.396  27.215  1.00  0.00    -0.000 C 
BRANCH  23  24
ATOM     24  C   UNL A   1      41.664  22.443  27.105  1.00  0.00    -0.003 C 
ATOM     25  C   UNL A   1      41.884  23.225  28.390  1.00  0.00     0.004 C 
ENDBRANCH  23  24
ENDBRANCH  22  23
ENDBRANCH  21  22
ENDBRANCH  20  21
ENDBRANCH  17  20
ENDBRANCH  15  16
ENDBRANCH  10  15
ENDBRANCH   4   9
BRANCH   6  26
ATOM     26  O   UNL A   1      33.255  24.166  21.021  1.00  0.00    -0.507 OA
ATOM     27  H   UNL A   1      34.174  24.350  21.040  1.00  0.00     0.293 HD
ENDBRANCH   6  26
ENDBRANCH   1   3
BRANCH   1  28
ATOM     28  C   UNL A   1      32.217  29.005  23.047  1.00  0.00     0.227 C 
ATOM     29  O   UNL A   1      33.142  29.223  22.255  1.00  0.00    -0.274 OA
ATOM     30  N   UNL A   1      32.343  29.561  24.284  1.00  0.00    -0.356 N 
ATOM     31  H   UNL A   1      33.147  30.120  24.396  1.00  0.00     0.163 HD
BRANCH  30  32
ATOM     32  C   UNL A   1      31.511  29.477  25.463  1.00  0.00     0.116 C 
BRANCH  32  33
ATOM     33  C   UNL A   1      32.145  30.171  26.670  1.00  0.00     0.023 C 
BRANCH  33  34
ATOM     34  C   UNL A   1      31.745  31.631  26.860  1.00  0.00     0.023 C 
BRANCH  34  35
ATOM     35  C   UNL A   1      32.842  32.538  27.401  1.00  0.00     0.116 C 
BRANCH  35  36
ATOM     36  N   UNL A   1      32.426  33.918  27.616  1.00  0.00    -0.352 N 
ATOM     37  C   UNL A   1      32.957  34.836  28.494  1.00  0.00     0.251 C 
ATOM     38  H   UNL A   1      31.673  34.233  27.066  1.00  0.00     0.163 HD
ATOM     39  O   UNL A   1      32.460  35.949  28.621  1.00  0.00    -0.269 OA
BRANCH  37  40
ATOM     40  C   UNL A   1      34.112  34.436  29.324  1.00  0.00     0.039 A 
ATOM     41  C   UNL A   1      33.880  33.792  30.541  1.00  0.00     0.014 A 
ATOM     42  C   UNL A   1      35.415  34.626  28.857  1.00  0.00     0.014 A 
ATOM     43  C   UNL A   1      34.957  33.261  31.253  1.00  0.00     0.010 A 
ATOM     44  C   UNL A   1      36.477  34.028  29.526  1.00  0.00     0.010 A 
ATOM     45  C   UNL A   1      36.258  33.337  30.728  1.00  0.00    -0.014 A 
BRANCH  45  46
ATOM     46  C   UNL A   1      37.410  32.704  31.415  1.00  0.00     0.031 A 
ATOM     47  C   UNL A   1      38.108  31.534  30.780  1.00  0.00     0.074 A 
ATOM     48  C   UNL A   1      37.774  33.125  32.643  1.00  0.00     0.049 A 
ATOM     49  N   UNL A   1      39.059  30.774  31.260  1.00  0.00    -0.248 NA
ATOM     50  C   UNL A   1      37.650  31.146  29.435  1.00  0.00     0.031 C 
ATOM     51  C   UNL A   1      37.141  34.215  33.388  1.00  0.00     0.029 A 
ATOM     52  N   UNL A   1      38.757  32.674  33.488  1.00  0.00    -0.354 N 
ATOM     53  C   UNL A   1      39.296  29.810  30.289  1.00  0.00     0.074 A 
ATOM     54  C   UNL A   1      38.355  30.046  29.216  1.00  0.00     0.031 C 
ATOM     55  C   UNL A   1      37.764  34.362  34.568  1.00  0.00     0.029 A 
ATOM     56  C   UNL A   1      38.814  33.355  34.680  1.00  0.00     0.049 A 
ATOM     57  H   UNL A   1      39.365  31.933  33.261  1.00  0.00     0.167 HD
ATOM     58  C   UNL A   1      40.234  28.834  30.280  1.00  0.00     0.037 A 
ATOM     59  C   UNL A   1      39.619  33.179  35.745  1.00  0.00     0.037 A 
ATOM     60  C   UNL A   1      41.192  28.626  31.333  1.00  0.00     0.049 A 
ATOM     61  C   UNL A   1      40.661  32.091  35.705  1.00  0.00     0.074 A 
ATOM     62  C   UNL A   1      42.219  27.701  31.394  1.00  0.00     0.029 A 
ATOM     63  N   UNL A   1      41.243  29.361  32.507  1.00  0.00    -0.354 N 
ATOM     64  N   UNL A   1      40.918  31.227  34.754  1.00  0.00    -0.248 NA
ATOM     65  C   UNL A   1      41.527  31.959  36.885  1.00  0.00     0.031 C 
ATOM     66  C   UNL A   1      42.871  27.853  32.621  1.00  0.00     0.029 A 
ATOM     67  C   UNL A   1      42.278  28.902  33.305  1.00  0.00     0.049 A 
ATOM     68  H   UNL A   1      40.635  30.098  32.740  1.00  0.00     0.167 HD
ATOM     69  C   UNL A   1      41.993  30.472  35.204  1.00  0.00     0.074 A 
ATOM     70  C   UNL A   1      42.348  30.989  36.509  1.00  0.00     0.031 C 
ATOM     71  C   UNL A   1      42.629  29.443  34.593  1.00  0.00     0.037 A 
BRANCH  58  72
ATOM     72  C   UNL A   1      40.277  27.925  29.088  1.00  0.00     0.064 A 
ATOM     73  C   UNL A   1      39.538  26.733  29.047  1.00  0.00     0.173 A 
ATOM     74  C   UNL A   1      41.036  28.265  27.958  1.00  0.00     0.173 A 
ATOM     75  F   UNL A   1      38.807  26.355  30.108  1.00  0.00    -0.203 F 
ATOM     76  C   UNL A   1      39.578  25.902  27.931  1.00  0.00     0.198 A 
ATOM     77  C   UNL A   1      41.049  27.446  26.832  1.00  0.00     0.198 A 
ATOM     78  F   UNL A   1      41.759  29.395  27.944  1.00  0.00    -0.203 F 
ATOM     79  F   UNL A   1      38.900  24.746  27.934  1.00  0.00    -0.200 F 
ATOM     80  C   UNL A   1      40.326  26.263  26.821  1.00  0.00     0.200 A 
ATOM     81  F   UNL A   1      41.764  27.802  25.756  1.00  0.00    -0.200 F 
ATOM     82  F   UNL A   1      40.357  25.468  25.744  1.00  0.00    -0.200 F 
ENDBRANCH  58  72
BRANCH  59  83
ATOM     83  C   UNL A   1      39.497  34.066  36.931  1.00  0.00     0.064 A 
ATOM     84  C   UNL A   1      40.140  35.312  36.964  1.00  0.00     0.173 A 
ATOM     85  C   UNL A   1      38.757  33.685  38.059  1.00  0.00     0.173 A 
ATOM     86  F   UNL A   1      40.878  35.712  35.917  1.00  0.00    -0.203 F 
ATOM     87  C   UNL A   1      40.069  36.131  38.089  1.00  0.00     0.198 A 
ATOM     88  C   UNL A   1      38.664  34.516  39.173  1.00  0.00     0.198 A 
ATOM     89  F   UNL A   1      38.121  32.505  38.076  1.00  0.00    -0.203 F 
ATOM     90  F   UNL A   1      40.736  37.292  38.112  1.00  0.00    -0.200 F 
ATOM     91  C   UNL A   1      39.327  35.734  39.191  1.00  0.00     0.200 A 
ATOM     92  F   UNL A   1      37.937  34.135  40.232  1.00  0.00    -0.200 F 
ATOM     93  F   UNL A   1      39.262  36.520  40.275  1.00  0.00    -0.200 F 
ENDBRANCH  59  83
BRANCH  71  94
ATOM     94  C   UNL A   1      43.803  28.838  35.304  1.00  0.00     0.064 A 
ATOM     95  C   UNL A   1      45.109  29.304  35.097  1.00  0.00     0.173 A 
ATOM     96  C   UNL A   1      43.609  27.813  36.242  1.00  0.00     0.173 A 
ATOM     97  F   UNL A   1      45.346  30.273  34.199  1.00  0.00    -0.203 F 
ATOM     98  C   UNL A   1      46.183  28.749  35.788  1.00  0.00     0.198 A 
ATOM     99  C   UNL A   1      44.682  27.281  36.952  1.00  0.00     0.198 A 
ATOM    100  F   UNL A   1      42.377  27.338  36.481  1.00  0.00    -0.203 F 
ATOM    101  F   UNL A   1      47.428  29.180  35.545  1.00  0.00    -0.200 F 
ATOM    102  C   UNL A   1      45.967  27.745  36.720  1.00  0.00     0.200 A 
ATOM    103  F   UNL A   1      44.470  26.320  37.862  1.00  0.00    -0.200 F 
ATOM    104  F   UNL A   1      47.000  27.220  37.392  1.00  0.00    -0.200 F 
ENDBRANCH  71  94
ENDBRANCH  45  46
ENDBRANCH  37  40
ENDBRANCH  35  36
ENDBRANCH  34  35
ENDBRANCH  33  34
ENDBRANCH  32  33
ENDBRANCH  30  32
ENDBRANCH   1  28
TORSDOF 21
ENDMDL
