MODEL 1
REMARK VINA RESULT:     -12.9      0.000      0.000
REMARK SMILES N#Cc1ccc(/C=C/C(=O)N[C@H]2C=C[C@H](C(=O)NCCCCNC(=O)c3ccc(-c4c5nc(c(-c6c(F)c(F)c(F)c(F)c6F)c6ccc([nH]6)c(-c6c(F)c(F)c(F)c(F)c6F)c6nc(c(-c7c(F)c(F)c(F)c(F)c7F)c7ccc4[nH]7)C=C6)C=C5)cc3)C2)cc1
REMARK SMILES IDX 19 1 18 2 16 3 17 4 15 6 12 7 13 8 89 9 14 10 11 11 9 12
REMARK SMILES IDX 10 13 8 15 7 16 6 17 3 18 4 19 91 20 5 21 90 22 2 23 1 24
REMARK SMILES IDX 20 25 21 26 22 27 23 28 24 29 25 31 26 32 27 33 88 34 28 35
REMARK SMILES IDX 87 36 29 37 30 38 31 39 81 40 32 41 86 42 80 43 82 44 33 45
REMARK SMILES IDX 85 46 79 47 78 48 34 50 66 51 46 52 65 53 47 54 50 55 64 56
REMARK SMILES IDX 83 57 48 58 49 59 63 61 84 62 51 63 35 64 36 65 44 66 37 67
REMARK SMILES IDX 38 68 42 69 45 70 39 71 40 72 43 73 41 74 67 75 68 76 76 77
REMARK SMILES IDX 69 78 70 79 74 80 77 81 71 82 72 83 75 84 73 85 52 86 53 87
REMARK SMILES IDX 61 88 54 89 55 90 59 91 62 92 56 93 57 94 60 95 58 96
REMARK H PARENT 18 5 11 14 23 30 82 49 50 60
REMARK Flexibility Score: inf
ROOT
ATOM      1  C   UNL A   1      32.222  29.954  27.075  1.00  0.00     0.116 C 
ENDROOT
BRANCH   1   2
ATOM      2  N   UNL A   1      31.655  28.635  27.200  1.00  0.00    -0.356 N 
ATOM      3  C   UNL A   1      32.116  27.458  26.708  1.00  0.00     0.227 C 
ATOM      4  O   UNL A   1      31.411  26.467  26.900  1.00  0.00    -0.274 OA
ATOM      5  H   UNL A   1      30.817  28.580  27.715  1.00  0.00     0.163 HD
BRANCH   3   6
ATOM      6  C   UNL A   1      33.430  27.401  25.917  1.00  0.00     0.103 C 
ATOM      7  C   UNL A   1      32.920  26.182  23.901  1.00  0.00     0.106 C 
ATOM      8  C   UNL A   1      33.924  25.424  24.697  1.00  0.00    -0.006 C 
ATOM      9  C   UNL A   1      33.139  27.601  24.427  1.00  0.00     0.047 C 
ATOM     10  C   UNL A   1      34.105  26.047  25.874  1.00  0.00    -0.016 C 
BRANCH   7  11
ATOM     11  N   UNL A   1      33.038  26.111  22.477  1.00  0.00    -0.346 N 
ATOM     12  C   UNL A   1      33.136  25.000  21.686  1.00  0.00     0.244 C 
ATOM     13  O   UNL A   1      33.050  25.152  20.465  1.00  0.00    -0.270 OA
ATOM     14  H   UNL A   1      33.049  26.974  22.005  1.00  0.00     0.164 HD
BRANCH  12  15
ATOM     15  C   UNL A   1      33.328  23.593  22.197  1.00  0.00     0.072 C 
ATOM     16  C   UNL A   1      32.420  22.744  22.700  1.00  0.00     0.014 C 
BRANCH  16  17
ATOM     17  C   UNL A   1      32.508  21.371  23.221  1.00  0.00    -0.025 A 
ATOM     18  C   UNL A   1      32.580  18.868  24.509  1.00  0.00     0.052 A 
ATOM     19  C   UNL A   1      32.231  18.968  23.154  1.00  0.00     0.020 A 
ATOM     20  C   UNL A   1      32.921  20.013  25.217  1.00  0.00     0.020 A 
ATOM     21  C   UNL A   1      32.190  20.216  22.512  1.00  0.00     0.009 A 
ATOM     22  C   UNL A   1      32.900  21.245  24.571  1.00  0.00     0.009 A 
BRANCH  18  23
ATOM     23  C   UNL A   1      32.575  17.603  25.185  1.00  0.00     0.099 C 
ATOM     24  N   UNL A   1      32.585  16.568  25.705  1.00  0.00    -0.192 NA
ENDBRANCH  18  23
ENDBRANCH  16  17
ENDBRANCH  12  15
ENDBRANCH   7  11
ENDBRANCH   3   6
ENDBRANCH   1   2
BRANCH   1  25
ATOM     25  C   UNL A   1      31.414  30.817  26.111  1.00  0.00     0.023 C 
BRANCH  25  26
ATOM     26  C   UNL A   1      31.335  32.301  26.484  1.00  0.00     0.023 C 
BRANCH  26  27
ATOM     27  C   UNL A   1      32.571  32.867  27.173  1.00  0.00     0.116 C 
BRANCH  27  28
ATOM     28  N   UNL A   1      32.364  34.217  27.670  1.00  0.00    -0.352 N 
ATOM     29  C   UNL A   1      33.014  34.897  28.669  1.00  0.00     0.251 C 
ATOM     30  H   UNL A   1      31.647  34.720  27.222  1.00  0.00     0.163 HD
ATOM     31  O   UNL A   1      32.571  35.975  29.053  1.00  0.00    -0.269 OA
BRANCH  29  32
ATOM     32  C   UNL A   1      34.227  34.332  29.302  1.00  0.00     0.039 A 
ATOM     33  C   UNL A   1      34.070  33.507  30.418  1.00  0.00     0.014 A 
ATOM     34  C   UNL A   1      35.508  34.621  28.826  1.00  0.00     0.014 A 
ATOM     35  C   UNL A   1      35.192  32.936  31.022  1.00  0.00     0.010 A 
ATOM     36  C   UNL A   1      36.618  33.977  29.370  1.00  0.00     0.010 A 
ATOM     37  C   UNL A   1      36.475  33.133  30.481  1.00  0.00    -0.014 A 
BRANCH  37  38
ATOM     38  C   UNL A   1      37.656  32.454  31.078  1.00  0.00     0.031 A 
ATOM     39  C   UNL A   1      38.163  32.844  32.441  1.00  0.00     0.074 A 
ATOM     40  C   UNL A   1      38.280  31.480  30.382  1.00  0.00     0.049 A 
ATOM     41  N   UNL A   1      39.159  32.341  33.128  1.00  0.00    -0.248 NA
ATOM     42  C   UNL A   1      37.475  33.955  33.117  1.00  0.00     0.031 C 
ATOM     43  C   UNL A   1      37.919  31.044  29.032  1.00  0.00     0.029 A 
ATOM     44  N   UNL A   1      39.340  30.674  30.717  1.00  0.00    -0.354 N 
ATOM     45  C   UNL A   1      39.204  33.060  34.315  1.00  0.00     0.074 A 
ATOM     46  C   UNL A   1      38.192  34.089  34.223  1.00  0.00     0.031 C 
ATOM     47  C   UNL A   1      38.709  30.020  28.673  1.00  0.00     0.029 A 
ATOM     48  C   UNL A   1      39.664  29.759  29.744  1.00  0.00     0.049 A 
ATOM     49  H   UNL A   1      39.821  30.745  31.572  1.00  0.00     0.167 HD
ATOM     50  C   UNL A   1      39.991  32.860  35.400  1.00  0.00     0.037 A 
ATOM     51  C   UNL A   1      40.628  28.818  29.717  1.00  0.00     0.037 A 
ATOM     52  C   UNL A   1      41.004  31.840  35.489  1.00  0.00     0.049 A 
ATOM     53  C   UNL A   1      41.526  28.661  30.918  1.00  0.00     0.074 A 
ATOM     54  C   UNL A   1      41.846  31.549  36.550  1.00  0.00     0.029 A 
ATOM     55  N   UNL A   1      41.318  30.946  34.477  1.00  0.00    -0.354 N 
ATOM     56  N   UNL A   1      41.509  29.301  32.060  1.00  0.00    -0.248 NA
ATOM     57  C   UNL A   1      42.573  27.634  30.824  1.00  0.00     0.031 C 
ATOM     58  C   UNL A   1      42.705  30.519  36.158  1.00  0.00     0.029 A 
ATOM     59  C   UNL A   1      42.353  30.116  34.881  1.00  0.00     0.049 A 
ATOM     60  H   UNL A   1      40.872  30.906  33.600  1.00  0.00     0.167 HD
ATOM     61  C   UNL A   1      42.510  28.729  32.835  1.00  0.00     0.074 A 
ATOM     62  C   UNL A   1      43.093  27.668  32.041  1.00  0.00     0.031 C 
ATOM     63  C   UNL A   1      42.916  29.053  34.087  1.00  0.00     0.037 A 
BRANCH  50  64
ATOM     64  C   UNL A   1      39.775  33.750  36.593  1.00  0.00     0.064 A 
ATOM     65  C   UNL A   1      40.398  35.005  36.689  1.00  0.00     0.173 A 
ATOM     66  C   UNL A   1      38.897  33.376  37.620  1.00  0.00     0.173 A 
ATOM     67  F   UNL A   1      41.256  35.409  35.740  1.00  0.00    -0.203 F 
ATOM     68  C   UNL A   1      40.169  35.839  37.781  1.00  0.00     0.198 A 
ATOM     69  C   UNL A   1      38.642  34.228  38.692  1.00  0.00     0.198 A 
ATOM     70  F   UNL A   1      38.269  32.192  37.577  1.00  0.00    -0.203 F 
ATOM     71  F   UNL A   1      40.812  37.011  37.873  1.00  0.00    -0.200 F 
ATOM     72  C   UNL A   1      39.284  35.455  38.776  1.00  0.00     0.200 A 
ATOM     73  F   UNL A   1      37.771  33.863  39.644  1.00  0.00    -0.200 F 
ATOM     74  F   UNL A   1      39.052  36.264  39.818  1.00  0.00    -0.200 F 
ENDBRANCH  50  64
BRANCH  51  75
ATOM     75  C   UNL A   1      40.804  27.943  28.525  1.00  0.00     0.064 A 
ATOM     76  C   UNL A   1      41.590  28.349  27.436  1.00  0.00     0.173 A 
ATOM     77  C   UNL A   1      40.137  26.713  28.419  1.00  0.00     0.173 A 
ATOM     78  F   UNL A   1      42.237  29.524  27.477  1.00  0.00    -0.203 F 
ATOM     79  C   UNL A   1      41.656  27.589  26.269  1.00  0.00     0.198 A 
ATOM     80  C   UNL A   1      40.240  25.932  27.269  1.00  0.00     0.198 A 
ATOM     81  F   UNL A   1      39.380  26.268  29.433  1.00  0.00    -0.203 F 
ATOM     82  F   UNL A   1      42.341  28.047  25.213  1.00  0.00    -0.200 F 
ATOM     83  C   UNL A   1      40.982  26.381  26.188  1.00  0.00     0.200 A 
ATOM     84  F   UNL A   1      39.605  24.754  27.204  1.00  0.00    -0.200 F 
ATOM     85  F   UNL A   1      41.035  25.656  25.062  1.00  0.00    -0.200 F 
ENDBRANCH  51  75
BRANCH  63  86
ATOM     86  C   UNL A   1      44.004  28.212  34.697  1.00  0.00     0.064 A 
ATOM     87  C   UNL A   1      45.361  28.550  34.580  1.00  0.00     0.173 A 
ATOM     88  C   UNL A   1      43.681  27.047  35.411  1.00  0.00     0.173 A 
ATOM     89  F   UNL A   1      45.728  29.647  33.900  1.00  0.00    -0.203 F 
ATOM     90  C   UNL A   1      46.353  27.726  35.105  1.00  0.00     0.198 A 
ATOM     91  C   UNL A   1      44.674  26.250  35.974  1.00  0.00     0.198 A 
ATOM     92  F   UNL A   1      42.400  26.680  35.566  1.00  0.00    -0.203 F 
ATOM     93  F   UNL A   1      47.645  28.027  34.907  1.00  0.00    -0.200 F 
ATOM     94  C   UNL A   1      46.009  26.580  35.806  1.00  0.00     0.200 A 
ATOM     95  F   UNL A   1      44.338  25.155  36.670  1.00  0.00    -0.200 F 
ATOM     96  F   UNL A   1      46.966  25.788  36.310  1.00  0.00    -0.200 F 
ENDBRANCH  63  86
ENDBRANCH  37  38
ENDBRANCH  29  32
ENDBRANCH  27  28
ENDBRANCH  26  27
ENDBRANCH  25  26
ENDBRANCH   1  25
TORSDOF 15
ENDMDL
MODEL 2
REMARK VINA RESULT:     -12.3      2.153      4.266
REMARK SMILES N#Cc1ccc(/C=C/C(=O)N[C@H]2C=C[C@H](C(=O)NCCCCNC(=O)c3ccc(-c4c5nc(c(-c6c(F)c(F)c(F)c(F)c6F)c6ccc([nH]6)c(-c6c(F)c(F)c(F)c(F)c6F)c6nc(c(-c7c(F)c(F)c(F)c(F)c7F)c7ccc4[nH]7)C=C6)C=C5)cc3)C2)cc1
REMARK SMILES IDX 19 1 18 2 16 3 17 4 15 6 12 7 13 8 89 9 14 10 11 11 9 12
REMARK SMILES IDX 10 13 8 15 7 16 6 17 3 18 4 19 91 20 5 21 90 22 2 23 1 24
REMARK SMILES IDX 20 25 21 26 22 27 23 28 24 29 25 31 26 32 27 33 88 34 28 35
REMARK SMILES IDX 87 36 29 37 30 38 31 39 81 40 32 41 86 42 80 43 82 44 33 45
REMARK SMILES IDX 85 46 79 47 78 48 34 50 66 51 46 52 65 53 47 54 50 55 64 56
REMARK SMILES IDX 83 57 48 58 49 59 63 61 84 62 51 63 35 64 36 65 44 66 37 67
REMARK SMILES IDX 38 68 42 69 45 70 39 71 40 72 43 73 41 74 67 75 68 76 76 77
REMARK SMILES IDX 69 78 70 79 74 80 77 81 71 82 72 83 75 84 73 85 52 86 53 87
REMARK SMILES IDX 61 88 54 89 55 90 59 91 62 92 56 93 57 94 60 95 58 96
REMARK H PARENT 18 5 11 14 23 30 82 49 50 60
REMARK Flexibility Score: inf
ROOT
ATOM      1  C   UNL A   1      31.628  26.339  25.930  1.00  0.00     0.116 C 
ENDROOT
BRANCH   1   2
ATOM      2  N   UNL A   1      30.977  25.284  26.667  1.00  0.00    -0.356 N 
ATOM      3  C   UNL A   1      31.404  24.018  26.899  1.00  0.00     0.227 C 
ATOM      4  O   UNL A   1      30.630  23.279  27.510  1.00  0.00    -0.274 OA
ATOM      5  H   UNL A   1      30.102  25.515  27.056  1.00  0.00     0.163 HD
BRANCH   3   6
ATOM      6  C   UNL A   1      32.766  23.542  26.377  1.00  0.00     0.103 C 
ATOM      7  C   UNL A   1      32.476  23.219  24.006  1.00  0.00     0.106 C 
ATOM      8  C   UNL A   1      32.804  21.915  24.646  1.00  0.00    -0.006 C 
ATOM      9  C   UNL A   1      33.055  24.201  25.025  1.00  0.00     0.047 C 
ATOM     10  C   UNL A   1      32.839  22.083  25.980  1.00  0.00    -0.016 C 
BRANCH   7  11
ATOM     11  N   UNL A   1      32.993  23.440  22.691  1.00  0.00    -0.346 N 
ATOM     12  C   UNL A   1      32.714  24.465  21.829  1.00  0.00     0.244 C 
ATOM     13  O   UNL A   1      33.403  24.565  20.810  1.00  0.00    -0.270 OA
ATOM     14  H   UNL A   1      33.633  22.768  22.363  1.00  0.00     0.164 HD
BRANCH  12  15
ATOM     15  C   UNL A   1      31.633  25.496  22.039  1.00  0.00     0.072 C 
ATOM     16  C   UNL A   1      31.743  26.827  22.158  1.00  0.00     0.014 C 
BRANCH  16  17
ATOM     17  C   UNL A   1      30.762  27.903  22.365  1.00  0.00    -0.025 A 
ATOM     18  C   UNL A   1      28.805  29.811  23.044  1.00  0.00     0.052 A 
ATOM     19  C   UNL A   1      29.954  30.184  22.332  1.00  0.00     0.020 A 
ATOM     20  C   UNL A   1      28.616  28.480  23.395  1.00  0.00     0.020 A 
ATOM     21  C   UNL A   1      30.933  29.234  21.997  1.00  0.00     0.009 A 
ATOM     22  C   UNL A   1      29.578  27.540  23.042  1.00  0.00     0.009 A 
BRANCH  18  23
ATOM     23  C   UNL A   1      27.825  30.784  23.435  1.00  0.00     0.099 C 
ATOM     24  N   UNL A   1      27.012  31.551  23.733  1.00  0.00    -0.192 NA
ENDBRANCH  18  23
ENDBRANCH  16  17
ENDBRANCH  12  15
ENDBRANCH   7  11
ENDBRANCH   3   6
ENDBRANCH   1   2
BRANCH   1  25
ATOM     25  C   UNL A   1      31.855  27.568  26.804  1.00  0.00     0.023 C 
BRANCH  25  26
ATOM     26  C   UNL A   1      31.656  28.911  26.094  1.00  0.00     0.023 C 
BRANCH  26  27
ATOM     27  C   UNL A   1      32.911  29.765  25.950  1.00  0.00     0.116 C 
BRANCH  27  28
ATOM     28  N   UNL A   1      32.693  31.147  26.340  1.00  0.00    -0.352 N 
ATOM     29  C   UNL A   1      33.364  31.921  27.253  1.00  0.00     0.251 C 
ATOM     30  H   UNL A   1      31.949  31.598  25.879  1.00  0.00     0.163 HD
ATOM     31  O   UNL A   1      32.911  33.020  27.562  1.00  0.00    -0.269 OA
BRANCH  29  32
ATOM     32  C   UNL A   1      34.611  31.435  27.885  1.00  0.00     0.039 A 
ATOM     33  C   UNL A   1      35.686  32.319  27.998  1.00  0.00     0.014 A 
ATOM     34  C   UNL A   1      34.740  30.121  28.343  1.00  0.00     0.014 A 
ATOM     35  C   UNL A   1      36.866  31.900  28.614  1.00  0.00     0.010 A 
ATOM     36  C   UNL A   1      35.883  29.733  29.040  1.00  0.00     0.010 A 
ATOM     37  C   UNL A   1      36.964  30.615  29.177  1.00  0.00    -0.014 A 
BRANCH  37  38
ATOM     38  C   UNL A   1      38.194  30.204  29.906  1.00  0.00     0.031 A 
ATOM     39  C   UNL A   1      38.479  30.719  31.291  1.00  0.00     0.074 A 
ATOM     40  C   UNL A   1      39.063  29.361  29.311  1.00  0.00     0.049 A 
ATOM     41  N   UNL A   1      39.484  30.444  32.086  1.00  0.00    -0.248 NA
ATOM     42  C   UNL A   1      37.521  31.683  31.856  1.00  0.00     0.031 C 
ATOM     43  C   UNL A   1      38.928  28.829  27.953  1.00  0.00     0.029 A 
ATOM     44  N   UNL A   1      40.225  28.793  29.773  1.00  0.00    -0.354 N 
ATOM     45  C   UNL A   1      39.270  31.185  33.240  1.00  0.00     0.074 A 
ATOM     46  C   UNL A   1      38.087  31.985  33.015  1.00  0.00     0.031 C 
ATOM     47  C   UNL A   1      39.937  27.978  27.710  1.00  0.00     0.029 A 
ATOM     48  C   UNL A   1      40.818  27.940  28.872  1.00  0.00     0.049 A 
ATOM     49  H   UNL A   1      40.598  28.980  30.664  1.00  0.00     0.167 HD
ATOM     50  C   UNL A   1      39.973  31.173  34.399  1.00  0.00     0.037 A 
ATOM     51  C   UNL A   1      41.948  27.214  28.972  1.00  0.00     0.037 A 
ATOM     52  C   UNL A   1      41.155  30.381  34.622  1.00  0.00     0.049 A 
ATOM     53  C   UNL A   1      42.739  27.269  30.254  1.00  0.00     0.074 A 
ATOM     54  C   UNL A   1      41.931  30.291  35.766  1.00  0.00     0.029 A 
ATOM     55  N   UNL A   1      41.737  29.546  33.681  1.00  0.00    -0.354 N 
ATOM     56  N   UNL A   1      42.484  27.919  31.363  1.00  0.00    -0.248 NA
ATOM     57  C   UNL A   1      43.974  26.473  30.298  1.00  0.00     0.031 C 
ATOM     58  C   UNL A   1      43.012  29.447  35.497  1.00  0.00     0.029 A 
ATOM     59  C   UNL A   1      42.873  28.952  34.211  1.00  0.00     0.049 A 
ATOM     60  H   UNL A   1      41.395  29.397  32.770  1.00  0.00     0.167 HD
ATOM     61  C   UNL A   1      43.500  27.579  32.247  1.00  0.00     0.074 A 
ATOM     62  C   UNL A   1      44.356  26.640  31.555  1.00  0.00     0.031 C 
ATOM     63  C   UNL A   1      43.710  28.007  33.516  1.00  0.00     0.037 A 
BRANCH  50  64
ATOM     64  C   UNL A   1      39.470  32.028  35.530  1.00  0.00     0.064 A 
ATOM     65  C   UNL A   1      38.577  31.521  36.488  1.00  0.00     0.173 A 
ATOM     66  C   UNL A   1      39.925  33.345  35.693  1.00  0.00     0.173 A 
ATOM     67  F   UNL A   1      38.102  30.271  36.374  1.00  0.00    -0.203 F 
ATOM     68  C   UNL A   1      38.140  32.307  37.551  1.00  0.00     0.198 A 
ATOM     69  C   UNL A   1      39.514  34.117  36.778  1.00  0.00     0.198 A 
ATOM     70  F   UNL A   1      40.783  33.879  34.813  1.00  0.00    -0.203 F 
ATOM     71  F   UNL A   1      37.251  31.816  38.425  1.00  0.00    -0.200 F 
ATOM     72  C   UNL A   1      38.617  33.600  37.701  1.00  0.00     0.200 A 
ATOM     73  F   UNL A   1      39.990  35.360  36.932  1.00  0.00    -0.200 F 
ATOM     74  F   UNL A   1      38.208  34.351  38.733  1.00  0.00    -0.200 F 
ENDBRANCH  50  64
BRANCH  51  75
ATOM     75  C   UNL A   1      42.409  26.365  27.838  1.00  0.00     0.064 A 
ATOM     76  C   UNL A   1      43.330  26.849  26.897  1.00  0.00     0.173 A 
ATOM     77  C   UNL A   1      41.889  25.078  27.632  1.00  0.00     0.173 A 
ATOM     78  F   UNL A   1      43.848  28.079  27.036  1.00  0.00    -0.203 F 
ATOM     79  C   UNL A   1      43.668  26.104  25.768  1.00  0.00     0.198 A 
ATOM     80  C   UNL A   1      42.262  24.317  26.527  1.00  0.00     0.198 A 
ATOM     81  F   UNL A   1      41.013  24.558  28.505  1.00  0.00    -0.203 F 
ATOM     82  F   UNL A   1      44.480  26.630  24.841  1.00  0.00    -0.200 F 
ATOM     83  C   UNL A   1      43.135  24.839  25.585  1.00  0.00     0.200 A 
ATOM     84  F   UNL A   1      41.762  23.084  26.366  1.00  0.00    -0.200 F 
ATOM     85  F   UNL A   1      43.450  24.128  24.494  1.00  0.00    -0.200 F 
ENDBRANCH  51  75
BRANCH  63  86
ATOM     86  C   UNL A   1      44.880  27.417  34.257  1.00  0.00     0.064 A 
ATOM     87  C   UNL A   1      46.140  28.036  34.272  1.00  0.00     0.173 A 
ATOM     88  C   UNL A   1      44.736  26.212  34.963  1.00  0.00     0.173 A 
ATOM     89  F   UNL A   1      46.338  29.184  33.606  1.00  0.00    -0.203 F 
ATOM     90  C   UNL A   1      47.222  27.442  34.917  1.00  0.00     0.198 A 
ATOM     91  C   UNL A   1      45.808  25.646  35.645  1.00  0.00     0.198 A 
ATOM     92  F   UNL A   1      43.551  25.583  34.993  1.00  0.00    -0.203 F 
ATOM     93  F   UNL A   1      48.434  28.011  34.847  1.00  0.00    -0.200 F 
ATOM     94  C   UNL A   1      47.054  26.252  35.608  1.00  0.00     0.200 A 
ATOM     95  F   UNL A   1      45.639  24.507  36.330  1.00  0.00    -0.200 F 
ATOM     96  F   UNL A   1      48.097  25.682  36.227  1.00  0.00    -0.200 F 
ENDBRANCH  63  86
ENDBRANCH  37  38
ENDBRANCH  29  32
ENDBRANCH  27  28
ENDBRANCH  26  27
ENDBRANCH  25  26
ENDBRANCH   1  25
TORSDOF 15
ENDMDL
MODEL 3
REMARK VINA RESULT:     -12.3      2.171      4.451
REMARK SMILES N#Cc1ccc(/C=C/C(=O)N[C@H]2C=C[C@H](C(=O)NCCCCNC(=O)c3ccc(-c4c5nc(c(-c6c(F)c(F)c(F)c(F)c6F)c6ccc([nH]6)c(-c6c(F)c(F)c(F)c(F)c6F)c6nc(c(-c7c(F)c(F)c(F)c(F)c7F)c7ccc4[nH]7)C=C6)C=C5)cc3)C2)cc1
REMARK SMILES IDX 19 1 18 2 16 3 17 4 15 6 12 7 13 8 89 9 14 10 11 11 9 12
REMARK SMILES IDX 10 13 8 15 7 16 6 17 3 18 4 19 91 20 5 21 90 22 2 23 1 24
REMARK SMILES IDX 20 25 21 26 22 27 23 28 24 29 25 31 26 32 27 33 88 34 28 35
REMARK SMILES IDX 87 36 29 37 30 38 31 39 81 40 32 41 86 42 80 43 82 44 33 45
REMARK SMILES IDX 85 46 79 47 78 48 34 50 66 51 46 52 65 53 47 54 50 55 64 56
REMARK SMILES IDX 83 57 48 58 49 59 63 61 84 62 51 63 35 64 36 65 44 66 37 67
REMARK SMILES IDX 38 68 42 69 45 70 39 71 40 72 43 73 41 74 67 75 68 76 76 77
REMARK SMILES IDX 69 78 70 79 74 80 77 81 71 82 72 83 75 84 73 85 52 86 53 87
REMARK SMILES IDX 61 88 54 89 55 90 59 91 62 92 56 93 57 94 60 95 58 96
REMARK H PARENT 18 5 11 14 23 30 82 49 50 60
REMARK Flexibility Score: inf
ROOT
ATOM      1  C   UNL A   1      31.846  26.430  26.099  1.00  0.00     0.116 C 
ENDROOT
BRANCH   1   2
ATOM      2  N   UNL A   1      31.218  25.314  26.761  1.00  0.00    -0.356 N 
ATOM      3  C   UNL A   1      31.654  24.036  26.877  1.00  0.00     0.227 C 
ATOM      4  O   UNL A   1      30.899  23.245  27.442  1.00  0.00    -0.274 OA
ATOM      5  H   UNL A   1      30.351  25.506  27.188  1.00  0.00     0.163 HD
BRANCH   3   6
ATOM      6  C   UNL A   1      33.006  23.612  26.285  1.00  0.00     0.103 C 
ATOM      7  C   UNL A   1      32.591  23.205  23.946  1.00  0.00     0.106 C 
ATOM      8  C   UNL A   1      33.024  21.939  24.599  1.00  0.00    -0.006 C 
ATOM      9  C   UNL A   1      33.179  24.245  24.901  1.00  0.00     0.047 C 
ATOM     10  C   UNL A   1      33.129  22.148  25.923  1.00  0.00    -0.016 C 
BRANCH   7  11
ATOM     11  N   UNL A   1      33.016  23.413  22.596  1.00  0.00    -0.346 N 
ATOM     12  C   UNL A   1      32.665  24.419  21.738  1.00  0.00     0.244 C 
ATOM     13  O   UNL A   1      33.283  24.513  20.675  1.00  0.00    -0.270 OA
ATOM     14  H   UNL A   1      33.644  22.746  22.237  1.00  0.00     0.164 HD
BRANCH  12  15
ATOM     15  C   UNL A   1      31.582  25.436  22.004  1.00  0.00     0.072 C 
ATOM     16  C   UNL A   1      31.691  26.679  22.494  1.00  0.00     0.014 C 
BRANCH  16  17
ATOM     17  C   UNL A   1      30.707  27.733  22.788  1.00  0.00    -0.025 A 
ATOM     18  C   UNL A   1      28.932  29.900  23.078  1.00  0.00     0.052 A 
ATOM     19  C   UNL A   1      28.568  28.614  23.498  1.00  0.00     0.020 A 
ATOM     20  C   UNL A   1      30.194  30.115  22.538  1.00  0.00     0.020 A 
ATOM     21  C   UNL A   1      29.450  27.531  23.350  1.00  0.00     0.009 A 
ATOM     22  C   UNL A   1      31.073  29.044  22.413  1.00  0.00     0.009 A 
BRANCH  18  23
ATOM     23  C   UNL A   1      28.018  31.002  23.179  1.00  0.00     0.099 C 
ATOM     24  N   UNL A   1      27.273  31.881  23.290  1.00  0.00    -0.192 NA
ENDBRANCH  18  23
ENDBRANCH  16  17
ENDBRANCH  12  15
ENDBRANCH   7  11
ENDBRANCH   3   6
ENDBRANCH   1   2
BRANCH   1  25
ATOM     25  C   UNL A   1      31.845  27.673  26.984  1.00  0.00     0.023 C 
BRANCH  25  26
ATOM     26  C   UNL A   1      31.580  28.990  26.247  1.00  0.00     0.023 C 
BRANCH  26  27
ATOM     27  C   UNL A   1      32.812  29.845  25.977  1.00  0.00     0.116 C 
BRANCH  27  28
ATOM     28  N   UNL A   1      32.632  31.228  26.384  1.00  0.00    -0.352 N 
ATOM     29  C   UNL A   1      33.336  31.979  27.291  1.00  0.00     0.251 C 
ATOM     30  H   UNL A   1      31.889  31.699  25.941  1.00  0.00     0.163 HD
ATOM     31  O   UNL A   1      32.913  33.084  27.619  1.00  0.00    -0.269 OA
BRANCH  29  32
ATOM     32  C   UNL A   1      34.584  31.459  27.895  1.00  0.00     0.039 A 
ATOM     33  C   UNL A   1      35.674  32.325  28.012  1.00  0.00     0.014 A 
ATOM     34  C   UNL A   1      34.699  30.134  28.323  1.00  0.00     0.014 A 
ATOM     35  C   UNL A   1      36.857  31.874  28.602  1.00  0.00     0.010 A 
ATOM     36  C   UNL A   1      35.845  29.714  28.995  1.00  0.00     0.010 A 
ATOM     37  C   UNL A   1      36.942  30.576  29.136  1.00  0.00    -0.014 A 
BRANCH  37  38
ATOM     38  C   UNL A   1      38.175  30.130  29.838  1.00  0.00     0.031 A 
ATOM     39  C   UNL A   1      38.490  30.615  31.227  1.00  0.00     0.074 A 
ATOM     40  C   UNL A   1      39.020  29.282  29.215  1.00  0.00     0.049 A 
ATOM     41  N   UNL A   1      39.502  30.309  32.002  1.00  0.00    -0.248 NA
ATOM     42  C   UNL A   1      37.559  31.587  31.823  1.00  0.00     0.031 C 
ATOM     43  C   UNL A   1      38.854  28.776  27.851  1.00  0.00     0.029 A 
ATOM     44  N   UNL A   1      40.178  28.686  29.649  1.00  0.00    -0.354 N 
ATOM     45  C   UNL A   1      39.320  31.033  33.172  1.00  0.00     0.074 A 
ATOM     46  C   UNL A   1      38.148  31.858  32.979  1.00  0.00     0.031 C 
ATOM     47  C   UNL A   1      39.844  27.912  27.577  1.00  0.00     0.029 A 
ATOM     48  C   UNL A   1      40.741  27.838  28.725  1.00  0.00     0.049 A 
ATOM     49  H   UNL A   1      40.567  28.850  30.538  1.00  0.00     0.167 HD
ATOM     50  C   UNL A   1      40.040  30.988  34.319  1.00  0.00     0.037 A 
ATOM     51  C   UNL A   1      41.859  27.090  28.794  1.00  0.00     0.037 A 
ATOM     52  C   UNL A   1      41.211  30.172  34.510  1.00  0.00     0.049 A 
ATOM     53  C   UNL A   1      42.671  27.108  30.065  1.00  0.00     0.074 A 
ATOM     54  C   UNL A   1      42.002  30.048  35.640  1.00  0.00     0.029 A 
ATOM     55  N   UNL A   1      41.763  29.343  33.545  1.00  0.00    -0.354 N 
ATOM     56  N   UNL A   1      42.444  27.743  31.188  1.00  0.00    -0.248 NA
ATOM     57  C   UNL A   1      43.891  26.290  30.076  1.00  0.00     0.031 C 
ATOM     58  C   UNL A   1      43.064  29.190  35.339  1.00  0.00     0.029 A 
ATOM     59  C   UNL A   1      42.895  28.720  34.047  1.00  0.00     0.049 A 
ATOM     60  H   UNL A   1      41.404  29.216  32.637  1.00  0.00     0.167 HD
ATOM     61  C   UNL A   1      43.467  27.370  32.051  1.00  0.00     0.074 A 
ATOM     62  C   UNL A   1      44.296  26.428  31.329  1.00  0.00     0.031 C 
ATOM     63  C   UNL A   1      43.704  27.772  33.324  1.00  0.00     0.037 A 
BRANCH  50  64
ATOM     64  C   UNL A   1      39.570  31.833  35.472  1.00  0.00     0.064 A 
ATOM     65  C   UNL A   1      40.020  33.152  35.642  1.00  0.00     0.173 A 
ATOM     66  C   UNL A   1      38.620  31.345  36.381  1.00  0.00     0.173 A 
ATOM     67  F   UNL A   1      40.936  33.666  34.808  1.00  0.00    -0.203 F 
ATOM     68  C   UNL A   1      39.556  33.940  36.692  1.00  0.00     0.198 A 
ATOM     69  C   UNL A   1      38.130  32.147  37.409  1.00  0.00     0.198 A 
ATOM     70  F   UNL A   1      38.149  30.094  36.263  1.00  0.00    -0.203 F 
ATOM     71  F   UNL A   1      40.038  35.179  36.861  1.00  0.00    -0.200 F 
ATOM     72  C   UNL A   1      38.605  33.441  37.569  1.00  0.00     0.200 A 
ATOM     73  F   UNL A   1      37.197  31.671  38.244  1.00  0.00    -0.200 F 
ATOM     74  F   UNL A   1      38.148  34.206  38.570  1.00  0.00    -0.200 F 
ENDBRANCH  50  64
BRANCH  51  75
ATOM     75  C   UNL A   1      42.287  26.252  27.639  1.00  0.00     0.064 A 
ATOM     76  C   UNL A   1      41.804  24.946  27.472  1.00  0.00     0.173 A 
ATOM     77  C   UNL A   1      43.238  26.714  26.717  1.00  0.00     0.173 A 
ATOM     78  F   UNL A   1      40.904  24.448  28.334  1.00  0.00    -0.203 F 
ATOM     79  C   UNL A   1      42.296  24.117  26.465  1.00  0.00     0.198 A 
ATOM     80  C   UNL A   1      43.696  25.900  25.683  1.00  0.00     0.198 A 
ATOM     81  F   UNL A   1      43.728  27.958  26.820  1.00  0.00    -0.203 F 
ATOM     82  F   UNL A   1      41.881  22.845  26.387  1.00  0.00    -0.200 F 
ATOM     83  C   UNL A   1      43.240  24.595  25.571  1.00  0.00     0.200 A 
ATOM     84  F   UNL A   1      44.592  26.374  24.807  1.00  0.00    -0.200 F 
ATOM     85  F   UNL A   1      43.723  23.795  24.610  1.00  0.00    -0.200 F 
ENDBRANCH  51  75
BRANCH  63  86
ATOM     86  C   UNL A   1      44.875  27.149  34.035  1.00  0.00     0.064 A 
ATOM     87  C   UNL A   1      44.753  25.957  34.768  1.00  0.00     0.173 A 
ATOM     88  C   UNL A   1      46.140  27.755  33.983  1.00  0.00     0.173 A 
ATOM     89  F   UNL A   1      43.565  25.339  34.860  1.00  0.00    -0.203 F 
ATOM     90  C   UNL A   1      45.837  25.429  35.464  1.00  0.00     0.198 A 
ATOM     91  C   UNL A   1      47.232  27.200  34.643  1.00  0.00     0.198 A 
ATOM     92  F   UNL A   1      46.319  28.889  33.288  1.00  0.00    -0.203 F 
ATOM     93  F   UNL A   1      45.674  24.336  36.224  1.00  0.00    -0.200 F 
ATOM     94  C   UNL A   1      47.076  26.047  35.396  1.00  0.00     0.200 A 
ATOM     95  F   UNL A   1      48.433  27.787  34.558  1.00  0.00    -0.200 F 
ATOM     96  F   UNL A   1      48.118  25.538  36.068  1.00  0.00    -0.200 F 
ENDBRANCH  63  86
ENDBRANCH  37  38
ENDBRANCH  29  32
ENDBRANCH  27  28
ENDBRANCH  26  27
ENDBRANCH  25  26
ENDBRANCH   1  25
TORSDOF 15
ENDMDL
