MODEL 1
REMARK VINA RESULT:     -12.0      0.000      0.000
REMARK SMILES O=C(C[C@H]1C[N@@H+](Cc2c(F)cccc2F)CCO1)NCCCCNC(=O)c1ccc(-c2c3nc(c(-c4c(F)c(F)c(F)c(F)c4F)c4ccc([nH]4)c(-c4c(F)c(F)c(F)c(F)c4F)c4nc(c(-c5c(F)c(F)c(F)c(F)c5F)c5ccc2[nH]5)C=C4)C=C3)cc1
REMARK SMILES IDX 21 1 20 2 19 3 1 4 2 5 3 7 4 8 5 9 18 10 6 11 17 12 16 13
REMARK SMILES IDX 7 15 8 16 9 17 14 18 10 19 11 20 13 21 15 22 12 23 22 24
REMARK SMILES IDX 23 25 24 26 25 27 26 29 27 30 28 31 89 32 29 33 88 34 30 35
REMARK SMILES IDX 31 36 32 37 82 38 33 39 87 40 81 41 83 42 34 43 86 44 80 45
REMARK SMILES IDX 79 46 35 48 67 49 47 50 66 51 48 52 51 53 65 54 84 55 49 56
REMARK SMILES IDX 50 57 64 59 85 60 52 61 36 62 37 63 45 64 38 65 39 66 43 67
REMARK SMILES IDX 46 68 40 69 41 70 44 71 42 72 68 73 69 74 77 75 70 76 71 77
REMARK SMILES IDX 75 78 78 79 72 80 73 81 76 82 74 83 53 84 54 85 62 86 55 87
REMARK SMILES IDX 56 88 60 89 63 90 57 91 58 92 61 93 59 94
REMARK H PARENT 19 6 6 14 24 28 83 47 51 58
REMARK Flexibility Score: inf
ROOT
ATOM      1  C   UNL A   1      31.657  30.713  26.137  1.00  0.00     0.023 C 
ENDROOT
BRANCH   1   2
ATOM      2  C   UNL A   1      32.066  29.754  27.256  1.00  0.00     0.116 C 
BRANCH   2   3
ATOM      3  N   UNL A   1      32.404  28.441  26.751  1.00  0.00    -0.356 N 
ATOM      4  O   UNL A   1      34.628  28.908  26.410  1.00  0.00    -0.275 OA
ATOM      5  C   UNL A   1      33.669  28.156  26.278  1.00  0.00     0.222 C 
ATOM      6  H   UNL A   1      31.716  27.735  26.744  1.00  0.00     0.163 HD
BRANCH   5   7
ATOM      7  C   UNL A   1      33.718  26.917  25.419  1.00  0.00     0.138 C 
BRANCH   7   8
ATOM      8  C   UNL A   1      33.233  27.046  23.982  1.00  0.00     0.182 C 
ATOM      9  C   UNL A   1      33.501  25.760  23.145  1.00  0.00     0.295 C 
ATOM     10  O   UNL A   1      31.834  27.394  23.927  1.00  0.00    -0.366 OA
ATOM     11  N   UNL A   1      32.601  24.627  23.384  1.00  0.00    -0.327 N 
ATOM     12  C   UNL A   1      30.965  26.307  24.287  1.00  0.00     0.222 C 
ATOM     13  C   UNL A   1      31.204  25.059  23.423  1.00  0.00     0.291 C 
ATOM     14  H   UNL A   1      32.711  24.053  22.549  1.00  0.00     0.348 HD
BRANCH  11  15
ATOM     15  C   UNL A   1      33.015  23.514  24.250  1.00  0.00     0.305 C 
BRANCH  15  16
ATOM     16  C   UNL A   1      34.478  23.341  24.577  1.00  0.00     0.078 A 
ATOM     17  C   UNL A   1      34.979  23.535  25.865  1.00  0.00     0.135 A 
ATOM     18  C   UNL A   1      35.410  23.018  23.582  1.00  0.00     0.135 A 
ATOM     19  F   UNL A   1      34.141  23.724  26.893  1.00  0.00    -0.206 F 
ATOM     20  C   UNL A   1      36.349  23.598  26.120  1.00  0.00     0.040 A 
ATOM     21  C   UNL A   1      36.785  23.077  23.816  1.00  0.00     0.040 A 
ATOM     22  F   UNL A   1      34.992  22.784  22.328  1.00  0.00    -0.206 F 
ATOM     23  C   UNL A   1      37.258  23.405  25.084  1.00  0.00     0.006 A 
ENDBRANCH  15  16
ENDBRANCH  11  15
ENDBRANCH   7   8
ENDBRANCH   5   7
ENDBRANCH   2   3
ENDBRANCH   1   2
BRANCH   1  24
ATOM     24  C   UNL A   1      31.424  32.163  26.569  1.00  0.00     0.023 C 
BRANCH  24  25
ATOM     25  C   UNL A   1      32.575  32.806  27.332  1.00  0.00     0.116 C 
BRANCH  25  26
ATOM     26  N   UNL A   1      32.338  34.206  27.639  1.00  0.00    -0.352 N 
ATOM     27  C   UNL A   1      32.968  35.013  28.553  1.00  0.00     0.251 C 
ATOM     28  H   UNL A   1      31.624  34.637  27.118  1.00  0.00     0.163 HD
ATOM     29  O   UNL A   1      32.541  36.144  28.776  1.00  0.00    -0.269 OA
BRANCH  27  30
ATOM     30  C   UNL A   1      34.139  34.510  29.303  1.00  0.00     0.039 A 
ATOM     31  C   UNL A   1      33.935  33.933  30.560  1.00  0.00     0.014 A 
ATOM     32  C   UNL A   1      35.429  34.593  28.773  1.00  0.00     0.014 A 
ATOM     33  C   UNL A   1      35.013  33.378  31.252  1.00  0.00     0.010 A 
ATOM     34  C   UNL A   1      36.489  33.968  29.427  1.00  0.00     0.010 A 
ATOM     35  C   UNL A   1      36.292  33.352  30.672  1.00  0.00    -0.014 A 
BRANCH  35  36
ATOM     36  C   UNL A   1      37.430  32.676  31.349  1.00  0.00     0.031 A 
ATOM     37  C   UNL A   1      38.132  31.523  30.687  1.00  0.00     0.074 A 
ATOM     38  C   UNL A   1      37.794  33.066  32.586  1.00  0.00     0.049 A 
ATOM     39  N   UNL A   1      39.098  30.768  31.149  1.00  0.00    -0.248 NA
ATOM     40  C   UNL A   1      37.676  31.152  29.339  1.00  0.00     0.031 C 
ATOM     41  C   UNL A   1      37.166  34.145  33.351  1.00  0.00     0.029 A 
ATOM     42  N   UNL A   1      38.777  32.597  33.424  1.00  0.00    -0.354 N 
ATOM     43  C   UNL A   1      39.358  29.836  30.154  1.00  0.00     0.074 A 
ATOM     44  C   UNL A   1      38.411  30.078  29.088  1.00  0.00     0.031 C 
ATOM     45  C   UNL A   1      37.795  34.274  34.529  1.00  0.00     0.029 A 
ATOM     46  C   UNL A   1      38.842  33.260  34.626  1.00  0.00     0.049 A 
ATOM     47  H   UNL A   1      39.380  31.856  33.185  1.00  0.00     0.167 HD
ATOM     48  C   UNL A   1      40.317  28.882  30.123  1.00  0.00     0.037 A 
ATOM     49  C   UNL A   1      39.644  33.069  35.690  1.00  0.00     0.037 A 
ATOM     50  C   UNL A   1      41.274  28.660  31.176  1.00  0.00     0.049 A 
ATOM     51  C   UNL A   1      40.687  31.985  35.640  1.00  0.00     0.074 A 
ATOM     52  C   UNL A   1      42.315  27.749  31.212  1.00  0.00     0.029 A 
ATOM     53  N   UNL A   1      41.306  29.353  32.377  1.00  0.00    -0.354 N 
ATOM     54  N   UNL A   1      40.961  31.147  34.669  1.00  0.00    -0.248 NA
ATOM     55  C   UNL A   1      41.538  31.822  36.827  1.00  0.00     0.031 C 
ATOM     56  C   UNL A   1      42.943  27.852  32.456  1.00  0.00     0.029 A 
ATOM     57  C   UNL A   1      42.335  28.871  33.171  1.00  0.00     0.049 A 
ATOM     58  H   UNL A   1      40.690  30.080  32.627  1.00  0.00     0.167 HD
ATOM     59  C   UNL A   1      42.027  30.379  35.115  1.00  0.00     0.074 A 
ATOM     60  C   UNL A   1      42.363  30.858  36.439  1.00  0.00     0.031 C 
ATOM     61  C   UNL A   1      42.668  29.364  34.483  1.00  0.00     0.037 A 
BRANCH  48  62
ATOM     62  C   UNL A   1      40.404  28.010  28.903  1.00  0.00     0.064 A 
ATOM     63  C   UNL A   1      41.143  28.421  27.784  1.00  0.00     0.173 A 
ATOM     64  C   UNL A   1      39.685  26.808  28.810  1.00  0.00     0.173 A 
ATOM     65  F   UNL A   1      41.843  29.565  27.816  1.00  0.00    -0.203 F 
ATOM     66  C   UNL A   1      41.144  27.670  26.611  1.00  0.00     0.198 A 
ATOM     67  C   UNL A   1      39.714  26.044  27.647  1.00  0.00     0.198 A 
ATOM     68  F   UNL A   1      38.971  26.366  29.856  1.00  0.00    -0.203 F 
ATOM     69  F   UNL A   1      41.824  28.103  25.540  1.00  0.00    -0.200 F 
ATOM     70  C   UNL A   1      40.433  26.481  26.544  1.00  0.00     0.200 A 
ATOM     71  F   UNL A   1      39.047  24.884  27.593  1.00  0.00    -0.200 F 
ATOM     72  F   UNL A   1      40.441  25.757  25.417  1.00  0.00    -0.200 F 
ENDBRANCH  48  62
BRANCH  49  73
ATOM     73  C   UNL A   1      39.507  33.944  36.885  1.00  0.00     0.064 A 
ATOM     74  C   UNL A   1      38.755  33.547  38.001  1.00  0.00     0.173 A 
ATOM     75  C   UNL A   1      40.110  35.210  36.924  1.00  0.00     0.173 A 
ATOM     76  F   UNL A   1      38.152  32.349  38.013  1.00  0.00    -0.203 F 
ATOM     77  C   UNL A   1      38.594  34.390  39.099  1.00  0.00     0.198 A 
ATOM     78  C   UNL A   1      39.976  36.039  38.036  1.00  0.00     0.198 A 
ATOM     79  F   UNL A   1      40.857  35.626  35.891  1.00  0.00    -0.203 F 
ATOM     80  F   UNL A   1      37.839  34.000  40.135  1.00  0.00    -0.200 F 
ATOM     81  C   UNL A   1      39.210  35.632  39.118  1.00  0.00     0.200 A 
ATOM     82  F   UNL A   1      40.595  37.226  38.062  1.00  0.00    -0.200 F 
ATOM     83  F   UNL A   1      39.069  36.436  40.181  1.00  0.00    -0.200 F 
ENDBRANCH  49  73
BRANCH  61  84
ATOM     84  C   UNL A   1      43.819  28.712  35.192  1.00  0.00     0.064 A 
ATOM     85  C   UNL A   1      45.134  29.139  34.950  1.00  0.00     0.173 A 
ATOM     86  C   UNL A   1      43.633  27.610  36.039  1.00  0.00     0.173 A 
ATOM     87  F   UNL A   1      45.369  30.184  34.141  1.00  0.00    -0.203 F 
ATOM     88  C   UNL A   1      46.219  28.474  35.514  1.00  0.00     0.198 A 
ATOM     89  C   UNL A   1      44.719  26.967  36.627  1.00  0.00     0.198 A 
ATOM     90  F   UNL A   1      42.395  27.169  36.311  1.00  0.00    -0.203 F 
ATOM     91  F   UNL A   1      47.468  28.873  35.233  1.00  0.00    -0.200 F 
ATOM     92  C   UNL A   1      46.011  27.391  36.354  1.00  0.00     0.200 A 
ATOM     93  F   UNL A   1      44.515  25.936  37.459  1.00  0.00    -0.200 F 
ATOM     94  F   UNL A   1      47.057  26.756  36.902  1.00  0.00    -0.200 F 
ENDBRANCH  61  84
ENDBRANCH  35  36
ENDBRANCH  27  30
ENDBRANCH  25  26
ENDBRANCH  24  25
ENDBRANCH   1  24
TORSDOF 14
ENDMDL
MODEL 2
REMARK VINA RESULT:     -12.0      0.160      1.957
REMARK SMILES O=C(C[C@H]1C[N@@H+](Cc2c(F)cccc2F)CCO1)NCCCCNC(=O)c1ccc(-c2c3nc(c(-c4c(F)c(F)c(F)c(F)c4F)c4ccc([nH]4)c(-c4c(F)c(F)c(F)c(F)c4F)c4nc(c(-c5c(F)c(F)c(F)c(F)c5F)c5ccc2[nH]5)C=C4)C=C3)cc1
REMARK SMILES IDX 21 1 20 2 19 3 1 4 2 5 3 7 4 8 5 9 18 10 6 11 17 12 16 13
REMARK SMILES IDX 7 15 8 16 9 17 14 18 10 19 11 20 13 21 15 22 12 23 22 24
REMARK SMILES IDX 23 25 24 26 25 27 26 29 27 30 28 31 89 32 29 33 88 34 30 35
REMARK SMILES IDX 31 36 32 37 82 38 33 39 87 40 81 41 83 42 34 43 86 44 80 45
REMARK SMILES IDX 79 46 35 48 67 49 47 50 66 51 48 52 51 53 65 54 84 55 49 56
REMARK SMILES IDX 50 57 64 59 85 60 52 61 36 62 37 63 45 64 38 65 39 66 43 67
REMARK SMILES IDX 46 68 40 69 41 70 44 71 42 72 68 73 69 74 77 75 70 76 71 77
REMARK SMILES IDX 75 78 78 79 72 80 73 81 76 82 74 83 53 84 54 85 62 86 55 87
REMARK SMILES IDX 56 88 60 89 63 90 57 91 58 92 61 93 59 94
REMARK H PARENT 19 6 6 14 24 28 83 47 51 58
REMARK Flexibility Score: inf
ROOT
ATOM      1  C   UNL A   1      31.598  30.749  26.136  1.00  0.00     0.023 C 
ENDROOT
BRANCH   1   2
ATOM      2  C   UNL A   1      32.084  29.816  27.246  1.00  0.00     0.116 C 
BRANCH   2   3
ATOM      3  N   UNL A   1      32.407  28.497  26.746  1.00  0.00    -0.356 N 
ATOM      4  O   UNL A   1      34.659  28.895  26.530  1.00  0.00    -0.275 OA
ATOM      5  C   UNL A   1      33.685  28.175  26.339  1.00  0.00     0.222 C 
ATOM      6  H   UNL A   1      31.698  27.815  26.695  1.00  0.00     0.163 HD
BRANCH   5   7
ATOM      7  C   UNL A   1      33.741  26.943  25.470  1.00  0.00     0.138 C 
BRANCH   7   8
ATOM      8  C   UNL A   1      33.270  27.085  24.030  1.00  0.00     0.182 C 
ATOM      9  C   UNL A   1      33.539  25.802  23.187  1.00  0.00     0.295 C 
ATOM     10  O   UNL A   1      31.874  27.440  23.964  1.00  0.00    -0.366 OA
ATOM     11  N   UNL A   1      32.631  24.674  23.410  1.00  0.00    -0.327 N 
ATOM     12  C   UNL A   1      30.995  26.357  24.308  1.00  0.00     0.222 C 
ATOM     13  C   UNL A   1      31.236  25.112  23.439  1.00  0.00     0.291 C 
ATOM     14  H   UNL A   1      32.746  24.104  22.572  1.00  0.00     0.348 HD
BRANCH  11  15
ATOM     15  C   UNL A   1      33.031  23.552  24.272  1.00  0.00     0.305 C 
BRANCH  15  16
ATOM     16  C   UNL A   1      34.489  23.369  24.611  1.00  0.00     0.078 A 
ATOM     17  C   UNL A   1      34.980  23.553  25.904  1.00  0.00     0.135 A 
ATOM     18  C   UNL A   1      35.428  23.045  23.622  1.00  0.00     0.135 A 
ATOM     19  F   UNL A   1      34.134  23.741  26.926  1.00  0.00    -0.206 F 
ATOM     20  C   UNL A   1      36.348  23.606  26.172  1.00  0.00     0.040 A 
ATOM     21  C   UNL A   1      36.802  23.094  23.869  1.00  0.00     0.040 A 
ATOM     22  F   UNL A   1      35.020  22.821  22.363  1.00  0.00    -0.206 F 
ATOM     23  C   UNL A   1      37.265  23.412  25.143  1.00  0.00     0.006 A 
ENDBRANCH  15  16
ENDBRANCH  11  15
ENDBRANCH   7   8
ENDBRANCH   5   7
ENDBRANCH   2   3
ENDBRANCH   1   2
BRANCH   1  24
ATOM     24  C   UNL A   1      31.381  32.206  26.554  1.00  0.00     0.023 C 
BRANCH  24  25
ATOM     25  C   UNL A   1      32.538  32.844  27.312  1.00  0.00     0.116 C 
BRANCH  25  26
ATOM     26  N   UNL A   1      32.295  34.236  27.648  1.00  0.00    -0.352 N 
ATOM     27  C   UNL A   1      32.928  35.029  28.573  1.00  0.00     0.251 C 
ATOM     28  H   UNL A   1      31.574  34.673  27.141  1.00  0.00     0.163 HD
ATOM     29  O   UNL A   1      32.496  36.153  28.821  1.00  0.00    -0.269 OA
BRANCH  27  30
ATOM     30  C   UNL A   1      34.107  34.518  29.304  1.00  0.00     0.039 A 
ATOM     31  C   UNL A   1      33.920  33.937  30.561  1.00  0.00     0.014 A 
ATOM     32  C   UNL A   1      35.390  34.599  28.755  1.00  0.00     0.014 A 
ATOM     33  C   UNL A   1      35.006  33.374  31.234  1.00  0.00     0.010 A 
ATOM     34  C   UNL A   1      36.457  33.967  29.391  1.00  0.00     0.010 A 
ATOM     35  C   UNL A   1      36.276  33.346  30.636  1.00  0.00    -0.014 A 
BRANCH  35  36
ATOM     36  C   UNL A   1      37.421  32.663  31.293  1.00  0.00     0.031 A 
ATOM     37  C   UNL A   1      38.096  31.498  30.625  1.00  0.00     0.074 A 
ATOM     38  C   UNL A   1      37.817  33.059  32.519  1.00  0.00     0.049 A 
ATOM     39  N   UNL A   1      39.064  30.736  31.072  1.00  0.00    -0.248 NA
ATOM     40  C   UNL A   1      37.607  31.121  29.290  1.00  0.00     0.031 C 
ATOM     41  C   UNL A   1      37.217  34.151  33.288  1.00  0.00     0.029 A 
ATOM     42  N   UNL A   1      38.813  32.586  33.339  1.00  0.00    -0.354 N 
ATOM     43  C   UNL A   1      39.293  29.794  30.079  1.00  0.00     0.074 A 
ATOM     44  C   UNL A   1      38.325  30.038  29.032  1.00  0.00     0.031 C 
ATOM     45  C   UNL A   1      37.873  34.282  34.451  1.00  0.00     0.029 A 
ATOM     46  C   UNL A   1      38.911  33.258  34.534  1.00  0.00     0.049 A 
ATOM     47  H   UNL A   1      39.402  31.836  33.092  1.00  0.00     0.167 HD
ATOM     48  C   UNL A   1      40.241  28.830  30.034  1.00  0.00     0.037 A 
ATOM     49  C   UNL A   1      39.734  33.065  35.582  1.00  0.00     0.037 A 
ATOM     50  C   UNL A   1      41.218  28.605  31.068  1.00  0.00     0.049 A 
ATOM     51  C   UNL A   1      40.765  31.970  35.517  1.00  0.00     0.074 A 
ATOM     52  C   UNL A   1      42.250  27.683  31.088  1.00  0.00     0.029 A 
ATOM     53  N   UNL A   1      41.284  29.307  32.262  1.00  0.00    -0.354 N 
ATOM     54  N   UNL A   1      41.008  31.122  34.547  1.00  0.00    -0.248 NA
ATOM     55  C   UNL A   1      41.639  31.807  36.687  1.00  0.00     0.031 C 
ATOM     56  C   UNL A   1      42.906  27.789  32.318  1.00  0.00     0.029 A 
ATOM     57  C   UNL A   1      42.324  28.820  33.037  1.00  0.00     0.049 A 
ATOM     58  H   UNL A   1      40.681  30.042  32.520  1.00  0.00     0.167 HD
ATOM     59  C   UNL A   1      42.075  30.345  34.976  1.00  0.00     0.074 A 
ATOM     60  C   UNL A   1      42.445  30.831  36.289  1.00  0.00     0.031 C 
ATOM     61  C   UNL A   1      42.691  29.320  34.338  1.00  0.00     0.037 A 
BRANCH  48  62
ATOM     62  C   UNL A   1      40.292  27.947  28.820  1.00  0.00     0.064 A 
ATOM     63  C   UNL A   1      39.636  26.706  28.814  1.00  0.00     0.173 A 
ATOM     64  C   UNL A   1      41.060  28.289  27.697  1.00  0.00     0.173 A 
ATOM     65  F   UNL A   1      38.895  26.325  29.864  1.00  0.00    -0.203 F 
ATOM     66  C   UNL A   1      39.764  25.834  27.736  1.00  0.00     0.198 A 
ATOM     67  C   UNL A   1      41.159  27.428  26.607  1.00  0.00     0.198 A 
ATOM     68  F   UNL A   1      41.698  29.468  27.649  1.00  0.00    -0.203 F 
ATOM     69  F   UNL A   1      39.163  24.636  27.769  1.00  0.00    -0.200 F 
ATOM     70  C   UNL A   1      40.522  26.197  26.632  1.00  0.00     0.200 A 
ATOM     71  F   UNL A   1      41.871  27.791  25.532  1.00  0.00    -0.200 F 
ATOM     72  F   UNL A   1      40.638  25.359  25.592  1.00  0.00    -0.200 F 
ENDBRANCH  48  62
BRANCH  49  73
ATOM     73  C   UNL A   1      39.632  33.952  36.772  1.00  0.00     0.064 A 
ATOM     74  C   UNL A   1      40.300  35.184  36.826  1.00  0.00     0.173 A 
ATOM     75  C   UNL A   1      38.881  33.570  37.893  1.00  0.00     0.173 A 
ATOM     76  F   UNL A   1      41.038  35.595  35.783  1.00  0.00    -0.203 F 
ATOM     77  C   UNL A   1      40.236  35.990  37.961  1.00  0.00     0.198 A 
ATOM     78  C   UNL A   1      38.791  34.392  39.015  1.00  0.00     0.198 A 
ATOM     79  F   UNL A   1      38.206  32.411  37.883  1.00  0.00    -0.203 F 
ATOM     80  F   UNL A   1      40.916  37.145  37.999  1.00  0.00    -0.200 F 
ATOM     81  C   UNL A   1      39.477  35.596  39.052  1.00  0.00     0.200 A 
ATOM     82  F   UNL A   1      38.034  34.020  40.055  1.00  0.00    -0.200 F 
ATOM     83  F   UNL A   1      39.403  36.379  40.137  1.00  0.00    -0.200 F 
ENDBRANCH  49  73
BRANCH  61  84
ATOM     84  C   UNL A   1      43.851  28.661  35.027  1.00  0.00     0.064 A 
ATOM     85  C   UNL A   1      43.634  27.616  35.939  1.00  0.00     0.173 A 
ATOM     86  C   UNL A   1      45.166  29.119  34.856  1.00  0.00     0.173 A 
ATOM     87  F   UNL A   1      42.394  27.145  36.146  1.00  0.00    -0.203 F 
ATOM     88  C   UNL A   1      44.686  27.069  36.667  1.00  0.00     0.198 A 
ATOM     89  C   UNL A   1      46.220  28.547  35.562  1.00  0.00     0.198 A 
ATOM     90  F   UNL A   1      45.428  30.108  33.988  1.00  0.00    -0.203 F 
ATOM     91  F   UNL A   1      44.448  26.101  37.564  1.00  0.00    -0.200 F 
ATOM     92  C   UNL A   1      45.979  27.532  36.476  1.00  0.00     0.200 A 
ATOM     93  F   UNL A   1      47.473  28.980  35.359  1.00  0.00    -0.200 F 
ATOM     94  F   UNL A   1      46.992  26.999  37.173  1.00  0.00    -0.200 F 
ENDBRANCH  61  84
ENDBRANCH  35  36
ENDBRANCH  27  30
ENDBRANCH  25  26
ENDBRANCH  24  25
ENDBRANCH   1  24
TORSDOF 14
ENDMDL
MODEL 3
REMARK VINA RESULT:     -12.0      1.519      7.843
REMARK SMILES O=C(C[C@H]1C[N@@H+](Cc2c(F)cccc2F)CCO1)NCCCCNC(=O)c1ccc(-c2c3nc(c(-c4c(F)c(F)c(F)c(F)c4F)c4ccc([nH]4)c(-c4c(F)c(F)c(F)c(F)c4F)c4nc(c(-c5c(F)c(F)c(F)c(F)c5F)c5ccc2[nH]5)C=C4)C=C3)cc1
REMARK SMILES IDX 21 1 20 2 19 3 1 4 2 5 3 7 4 8 5 9 18 10 6 11 17 12 16 13
REMARK SMILES IDX 7 15 8 16 9 17 14 18 10 19 11 20 13 21 15 22 12 23 22 24
REMARK SMILES IDX 23 25 24 26 25 27 26 29 27 30 28 31 89 32 29 33 88 34 30 35
REMARK SMILES IDX 31 36 32 37 82 38 33 39 87 40 81 41 83 42 34 43 86 44 80 45
REMARK SMILES IDX 79 46 35 48 67 49 47 50 66 51 48 52 51 53 65 54 84 55 49 56
REMARK SMILES IDX 50 57 64 59 85 60 52 61 36 62 37 63 45 64 38 65 39 66 43 67
REMARK SMILES IDX 46 68 40 69 41 70 44 71 42 72 68 73 69 74 77 75 70 76 71 77
REMARK SMILES IDX 75 78 78 79 72 80 73 81 76 82 74 83 53 84 54 85 62 86 55 87
REMARK SMILES IDX 56 88 60 89 63 90 57 91 58 92 61 93 59 94
REMARK H PARENT 19 6 6 14 24 28 83 47 51 58
REMARK Flexibility Score: inf
ROOT
ATOM      1  C   UNL A   1      31.506  30.745  26.155  1.00  0.00     0.023 C 
ENDROOT
BRANCH   1   2
ATOM      2  C   UNL A   1      32.181  29.883  27.223  1.00  0.00     0.116 C 
BRANCH   2   3
ATOM      3  N   UNL A   1      32.099  28.472  26.916  1.00  0.00    -0.356 N 
ATOM      4  O   UNL A   1      34.352  28.198  26.561  1.00  0.00    -0.275 OA
ATOM      5  C   UNL A   1      33.209  27.757  26.516  1.00  0.00     0.222 C 
ATOM      6  H   UNL A   1      31.231  28.011  26.994  1.00  0.00     0.163 HD
BRANCH   5   7
ATOM      7  C   UNL A   1      32.866  26.452  25.841  1.00  0.00     0.138 C 
BRANCH   7   8
ATOM      8  C   UNL A   1      31.888  25.533  26.559  1.00  0.00     0.182 C 
ATOM      9  C   UNL A   1      30.477  25.533  25.898  1.00  0.00     0.295 C 
ATOM     10  O   UNL A   1      32.397  24.186  26.647  1.00  0.00    -0.366 OA
ATOM     11  N   UNL A   1      30.339  24.767  24.656  1.00  0.00    -0.327 N 
ATOM     12  C   UNL A   1      32.372  23.487  25.392  1.00  0.00     0.222 C 
ATOM     13  C   UNL A   1      30.967  23.451  24.772  1.00  0.00     0.291 C 
ATOM     14  H   UNL A   1      29.334  24.611  24.581  1.00  0.00     0.348 HD
BRANCH  11  15
ATOM     15  C   UNL A   1      30.369  25.446  23.353  1.00  0.00     0.305 C 
BRANCH  15  16
ATOM     16  C   UNL A   1      29.987  26.903  23.274  1.00  0.00     0.078 A 
ATOM     17  C   UNL A   1      28.675  27.338  23.466  1.00  0.00     0.135 A 
ATOM     18  C   UNL A   1      30.935  27.885  22.957  1.00  0.00     0.135 A 
ATOM     19  F   UNL A   1      27.736  26.482  23.892  1.00  0.00    -0.206 F 
ATOM     20  C   UNL A   1      28.282  28.644  23.172  1.00  0.00     0.040 A 
ATOM     21  C   UNL A   1      30.563  29.197  22.657  1.00  0.00     0.040 A 
ATOM     22  F   UNL A   1      32.222  27.541  22.793  1.00  0.00    -0.206 F 
ATOM     23  C   UNL A   1      29.223  29.569  22.730  1.00  0.00     0.006 A 
ENDBRANCH  15  16
ENDBRANCH  11  15
ENDBRANCH   7   8
ENDBRANCH   5   7
ENDBRANCH   2   3
ENDBRANCH   1   2
BRANCH   1  24
ATOM     24  C   UNL A   1      31.382  32.232  26.495  1.00  0.00     0.023 C 
BRANCH  24  25
ATOM     25  C   UNL A   1      32.579  32.835  27.219  1.00  0.00     0.116 C 
BRANCH  25  26
ATOM     26  N   UNL A   1      32.353  34.207  27.640  1.00  0.00    -0.352 N 
ATOM     27  C   UNL A   1      32.997  34.935  28.610  1.00  0.00     0.251 C 
ATOM     28  H   UNL A   1      31.637  34.683  27.161  1.00  0.00     0.163 HD
ATOM     29  O   UNL A   1      32.579  36.047  28.926  1.00  0.00    -0.269 OA
BRANCH  27  30
ATOM     30  C   UNL A   1      34.172  34.366  29.305  1.00  0.00     0.039 A 
ATOM     31  C   UNL A   1      33.967  33.619  30.468  1.00  0.00     0.014 A 
ATOM     32  C   UNL A   1      35.466  34.556  28.815  1.00  0.00     0.014 A 
ATOM     33  C   UNL A   1      35.051  33.004  31.098  1.00  0.00     0.010 A 
ATOM     34  C   UNL A   1      36.535  33.877  29.397  1.00  0.00     0.010 A 
ATOM     35  C   UNL A   1      36.339  33.092  30.543  1.00  0.00    -0.014 A 
BRANCH  35  36
ATOM     36  C   UNL A   1      37.486  32.362  31.143  1.00  0.00     0.031 A 
ATOM     37  C   UNL A   1      37.996  32.736  32.506  1.00  0.00     0.074 A 
ATOM     38  C   UNL A   1      38.104  31.397  30.434  1.00  0.00     0.049 A 
ATOM     39  N   UNL A   1      39.023  32.260  33.164  1.00  0.00    -0.248 NA
ATOM     40  C   UNL A   1      37.273  33.801  33.218  1.00  0.00     0.031 C 
ATOM     41  C   UNL A   1      37.730  30.969  29.085  1.00  0.00     0.029 A 
ATOM     42  N   UNL A   1      39.183  30.604  30.744  1.00  0.00    -0.354 N 
ATOM     43  C   UNL A   1      39.071  32.968  34.357  1.00  0.00     0.074 A 
ATOM     44  C   UNL A   1      38.008  33.947  34.311  1.00  0.00     0.031 C 
ATOM     45  C   UNL A   1      38.544  29.976  28.696  1.00  0.00     0.029 A 
ATOM     46  C   UNL A   1      39.527  29.724  29.746  1.00  0.00     0.049 A 
ATOM     47  H   UNL A   1      39.664  30.661  31.602  1.00  0.00     0.167 HD
ATOM     48  C   UNL A   1      39.908  32.798  35.406  1.00  0.00     0.037 A 
ATOM     49  C   UNL A   1      40.526  28.824  29.678  1.00  0.00     0.037 A 
ATOM     50  C   UNL A   1      40.950  31.805  35.458  1.00  0.00     0.049 A 
ATOM     51  C   UNL A   1      41.459  28.671  30.849  1.00  0.00     0.074 A 
ATOM     52  C   UNL A   1      41.817  31.524  36.500  1.00  0.00     0.029 A 
ATOM     53  N   UNL A   1      41.266  30.932  34.427  1.00  0.00    -0.354 N 
ATOM     54  N   UNL A   1      41.457  29.308  31.996  1.00  0.00    -0.248 NA
ATOM     55  C   UNL A   1      42.530  27.672  30.723  1.00  0.00     0.031 C 
ATOM     56  C   UNL A   1      42.694  30.521  36.080  1.00  0.00     0.029 A 
ATOM     57  C   UNL A   1      42.333  30.130  34.800  1.00  0.00     0.049 A 
ATOM     58  H   UNL A   1      40.801  30.889  33.560  1.00  0.00     0.167 HD
ATOM     59  C   UNL A   1      42.503  28.771  32.734  1.00  0.00     0.074 A 
ATOM     60  C   UNL A   1      43.110  27.744  31.913  1.00  0.00     0.031 C 
ATOM     61  C   UNL A   1      42.922  29.102  33.980  1.00  0.00     0.037 A 
BRANCH  48  62
ATOM     62  C   UNL A   1      39.730  33.688  36.602  1.00  0.00     0.064 A 
ATOM     63  C   UNL A   1      38.884  33.308  37.655  1.00  0.00     0.173 A 
ATOM     64  C   UNL A   1      40.328  34.956  36.666  1.00  0.00     0.173 A 
ATOM     65  F   UNL A   1      38.281  32.110  37.640  1.00  0.00    -0.203 F 
ATOM     66  C   UNL A   1      38.629  34.171  38.717  1.00  0.00     0.198 A 
ATOM     67  C   UNL A   1      40.096  35.803  37.746  1.00  0.00     0.198 A 
ATOM     68  F   UNL A   1      41.154  35.364  35.691  1.00  0.00    -0.203 F 
ATOM     69  F   UNL A   1      37.785  33.802  39.691  1.00  0.00    -0.200 F 
ATOM     70  C   UNL A   1      39.238  35.416  38.764  1.00  0.00     0.200 A 
ATOM     71  F   UNL A   1      40.705  36.996  37.802  1.00  0.00    -0.200 F 
ATOM     72  F   UNL A   1      38.997  36.243  39.791  1.00  0.00    -0.200 F 
ENDBRANCH  48  62
BRANCH  49  73
ATOM     73  C   UNL A   1      40.676  27.978  28.464  1.00  0.00     0.064 A 
ATOM     74  C   UNL A   1      40.077  26.713  28.375  1.00  0.00     0.173 A 
ATOM     75  C   UNL A   1      41.444  28.412  27.374  1.00  0.00     0.173 A 
ATOM     76  F   UNL A   1      39.337  26.247  29.392  1.00  0.00    -0.203 F 
ATOM     77  C   UNL A   1      40.257  25.907  27.252  1.00  0.00     0.198 A 
ATOM     78  C   UNL A   1      41.597  27.619  26.238  1.00  0.00     0.198 A 
ATOM     79  F   UNL A   1      42.020  29.623  27.401  1.00  0.00    -0.203 F 
ATOM     80  F   UNL A   1      39.704  24.687  27.210  1.00  0.00    -0.200 F 
ATOM     81  C   UNL A   1      41.012  26.363  26.182  1.00  0.00     0.200 A 
ATOM     82  F   UNL A   1      42.304  28.076  25.196  1.00  0.00    -0.200 F 
ATOM     83  F   UNL A   1      41.172  25.595  25.096  1.00  0.00    -0.200 F 
ENDBRANCH  49  73
BRANCH  61  84
ATOM     84  C   UNL A   1      44.076  28.336  34.559  1.00  0.00     0.064 A 
ATOM     85  C   UNL A   1      43.850  27.169  35.304  1.00  0.00     0.173 A 
ATOM     86  C   UNL A   1      45.395  28.803  34.455  1.00  0.00     0.173 A 
ATOM     87  F   UNL A   1      42.606  26.684  35.442  1.00  0.00    -0.203 F 
ATOM     88  C   UNL A   1      44.898  26.509  35.939  1.00  0.00     0.198 A 
ATOM     89  C   UNL A   1      46.445  28.121  35.064  1.00  0.00     0.198 A 
ATOM     90  F   UNL A   1      45.666  29.908  33.744  1.00  0.00    -0.203 F 
ATOM     91  F   UNL A   1      44.651  25.420  36.682  1.00  0.00    -0.200 F 
ATOM     92  C   UNL A   1      46.195  26.983  35.817  1.00  0.00     0.200 A 
ATOM     93  F   UNL A   1      47.701  28.568  34.924  1.00  0.00    -0.200 F 
ATOM     94  F   UNL A   1      47.204  26.342  36.423  1.00  0.00    -0.200 F 
ENDBRANCH  61  84
ENDBRANCH  35  36
ENDBRANCH  27  30
ENDBRANCH  25  26
ENDBRANCH  24  25
ENDBRANCH   1  24
TORSDOF 14
ENDMDL
