MODEL 1
REMARK VINA RESULT:     -14.3      0.000      0.000
REMARK SMILES COc1cccc(-c2nn(-c3cc4c(cc3C(N)=O)OCO4)cc2C(=O)NCCCCNC(=O)c2ccc(-c3c4nc(c(-c5c(F)c(F)c(F)c(F)c5F)c5ccc([nH]5)c(-c5c(F)c(F)c(F)c(F)c5F)c5nc(c(-c6c(F)c(F)c(F)c(F)c6F)c6ccc3[nH]6)C=C5)C=C4)cc2)c1
REMARK SMILES IDX 29 1 28 2 27 3 25 4 26 5 24 7 8 8 9 9 10 10 23 11 7 12 3 13
REMARK SMILES IDX 4 14 98 15 5 16 6 17 2 18 1 19 11 20 12 21 16 22 13 23 15 24
REMARK SMILES IDX 14 25 22 26 20 27 21 28 17 29 18 30 19 31 30 34 31 35 32 36
REMARK SMILES IDX 33 37 34 39 35 40 36 41 97 42 37 43 96 44 38 45 39 46 40 47
REMARK SMILES IDX 90 48 41 49 95 50 89 51 91 52 42 53 94 54 88 55 87 56 43 58
REMARK SMILES IDX 75 59 55 60 74 61 56 62 59 63 73 64 92 65 57 66 58 67 72 69
REMARK SMILES IDX 93 70 60 71 44 72 45 73 53 74 46 75 47 76 51 77 54 78 48 79
REMARK SMILES IDX 49 80 52 81 50 82 76 83 77 84 85 85 78 86 79 87 83 88 86 89
REMARK SMILES IDX 80 90 81 91 84 92 82 93 61 94 62 95 70 96 63 97 64 98 68 99
REMARK SMILES IDX 71 100 65 101 66 102 69 103 67 104
REMARK H PARENT 27 6 18 32 18 33 32 38 91 57 59 68
REMARK Flexibility Score: inf
ROOT
ATOM      1  C   UNL A   1      32.498  30.076  27.018  1.00  0.00     0.023 C 
ENDROOT
BRANCH   1   2
ATOM      2  C   UNL A   1      31.815  29.402  25.824  1.00  0.00     0.116 C 
BRANCH   2   3
ATOM      3  N   UNL A   1      32.640  29.453  24.636  1.00  0.00    -0.352 N 
ATOM      4  C   UNL A   1      32.794  28.610  23.562  1.00  0.00     0.255 C 
ATOM      5  O   UNL A   1      33.576  29.007  22.698  1.00  0.00    -0.269 OA
ATOM      6  H   UNL A   1      33.208  30.256  24.588  1.00  0.00     0.163 HD
BRANCH   4   7
ATOM      7  C   UNL A   1      32.056  27.360  23.430  1.00  0.00     0.086 A 
ATOM      8  C   UNL A   1      30.638  27.177  23.228  1.00  0.00     0.106 A 
ATOM      9  N   UNL A   1      30.292  25.872  23.295  1.00  0.00    -0.167 NA
ATOM     10  N   UNL A   1      31.430  25.265  23.691  1.00  0.00    -0.239 N 
ATOM     11  C   UNL A   1      32.522  26.064  23.453  1.00  0.00     0.129 A 
BRANCH   8  12
ATOM     12  C   UNL A   1      29.637  28.212  22.959  1.00  0.00     0.007 A 
ATOM     13  C   UNL A   1      28.991  30.333  21.966  1.00  0.00     0.119 A 
ATOM     14  C   UNL A   1      27.674  30.119  22.382  1.00  0.00     0.046 A 
ATOM     15  C   UNL A   1      29.976  29.383  22.262  1.00  0.00     0.056 A 
ATOM     16  C   UNL A   1      27.331  28.966  23.084  1.00  0.00     0.005 A 
ATOM     17  C   UNL A   1      28.312  28.021  23.380  1.00  0.00     0.011 A 
BRANCH  13  18
ATOM     18  O   UNL A   1      29.194  31.525  21.324  1.00  0.00    -0.497 OA
ATOM     19  C   UNL A   1      28.067  32.383  21.213  1.00  0.00     0.278 C 
ENDBRANCH  13  18
ENDBRANCH   8  12
BRANCH  10  20
ATOM     20  C   UNL A   1      31.499  23.917  24.119  1.00  0.00     0.081 A 
ATOM     21  C   UNL A   1      31.845  22.936  23.171  1.00  0.00     0.079 A 
ATOM     22  C   UNL A   1      31.326  23.576  25.496  1.00  0.00     0.069 A 
ATOM     23  C   UNL A   1      32.094  21.664  23.642  1.00  0.00     0.167 A 
ATOM     24  C   UNL A   1      31.682  22.289  25.931  1.00  0.00     0.066 A 
ATOM     25  C   UNL A   1      32.043  21.362  24.983  1.00  0.00     0.166 A 
ATOM     26  O   UNL A   1      32.428  20.575  22.895  1.00  0.00    -0.454 OA
ATOM     27  O   UNL A   1      32.334  20.059  25.241  1.00  0.00    -0.454 OA
ATOM     28  C   UNL A   1      32.384  19.537  23.899  1.00  0.00     0.468 C 
BRANCH  22  29
ATOM     29  C   UNL A   1      30.595  24.470  26.461  1.00  0.00     0.251 C 
ATOM     30  N   UNL A   1      29.339  24.098  26.857  1.00  0.00    -0.366 N 
ATOM     31  O   UNL A   1      31.022  25.544  26.862  1.00  0.00    -0.269 OA
ATOM     32  H   UNL A   1      28.963  23.240  26.554  1.00  0.00     0.159 HD
ATOM     33  H   UNL A   1      28.814  24.687  27.444  1.00  0.00     0.159 HD
ENDBRANCH  22  29
ENDBRANCH  10  20
ENDBRANCH   4   7
ENDBRANCH   2   3
ENDBRANCH   1   2
BRANCH   1  34
ATOM     34  C   UNL A   1      33.957  29.654  27.252  1.00  0.00     0.023 C 
BRANCH  34  35
ATOM     35  C   UNL A   1      34.965  30.800  27.252  1.00  0.00     0.116 C 
BRANCH  35  36
ATOM     36  N   UNL A   1      34.710  31.794  28.297  1.00  0.00    -0.352 N 
ATOM     37  C   UNL A   1      35.198  31.821  29.593  1.00  0.00     0.251 C 
ATOM     38  H   UNL A   1      34.116  32.539  28.045  1.00  0.00     0.163 HD
ATOM     39  O   UNL A   1      34.639  32.449  30.473  1.00  0.00    -0.269 OA
BRANCH  37  40
ATOM     40  C   UNL A   1      36.440  31.082  29.880  1.00  0.00     0.039 A 
ATOM     41  C   UNL A   1      36.444  29.722  30.197  1.00  0.00     0.014 A 
ATOM     42  C   UNL A   1      37.629  31.797  29.781  1.00  0.00     0.014 A 
ATOM     43  C   UNL A   1      37.670  29.073  30.330  1.00  0.00     0.010 A 
ATOM     44  C   UNL A   1      38.818  31.126  29.724  1.00  0.00     0.010 A 
ATOM     45  C   UNL A   1      38.853  29.783  30.073  1.00  0.00    -0.014 A 
BRANCH  45  46
ATOM     46  C   UNL A   1      40.153  29.124  30.062  1.00  0.00     0.031 A 
ATOM     47  C   UNL A   1      40.771  28.953  31.404  1.00  0.00     0.074 A 
ATOM     48  C   UNL A   1      40.632  28.502  28.961  1.00  0.00     0.049 A 
ATOM     49  N   UNL A   1      41.865  29.483  31.842  1.00  0.00    -0.248 NA
ATOM     50  C   UNL A   1      40.020  28.210  32.430  1.00  0.00     0.031 C 
ATOM     51  C   UNL A   1      39.976  28.303  27.662  1.00  0.00     0.029 A 
ATOM     52  N   UNL A   1      41.789  27.805  28.810  1.00  0.00    -0.354 N 
ATOM     53  C   UNL A   1      42.048  28.982  33.129  1.00  0.00     0.074 A 
ATOM     54  C   UNL A   1      40.804  28.363  33.500  1.00  0.00     0.031 C 
ATOM     55  C   UNL A   1      40.626  27.347  26.963  1.00  0.00     0.029 A 
ATOM     56  C   UNL A   1      41.836  26.997  27.679  1.00  0.00     0.049 A 
ATOM     57  H   UNL A   1      42.534  27.867  29.449  1.00  0.00     0.167 HD
ATOM     58  C   UNL A   1      43.295  28.903  33.674  1.00  0.00     0.037 A 
ATOM     59  C   UNL A   1      42.792  26.081  27.382  1.00  0.00     0.037 A 
ATOM     60  C   UNL A   1      44.223  29.741  32.956  1.00  0.00     0.049 A 
ATOM     61  C   UNL A   1      43.987  26.421  28.198  1.00  0.00     0.074 A 
ATOM     62  C   UNL A   1      44.288  31.093  32.673  1.00  0.00     0.029 A 
ATOM     63  N   UNL A   1      45.077  29.141  32.062  1.00  0.00    -0.354 N 
ATOM     64  N   UNL A   1      44.690  27.508  28.031  1.00  0.00    -0.248 NA
ATOM     65  C   UNL A   1      44.093  25.800  29.510  1.00  0.00     0.031 C 
ATOM     66  C   UNL A   1      44.750  31.162  31.325  1.00  0.00     0.029 A 
ATOM     67  C   UNL A   1      45.021  29.863  30.897  1.00  0.00     0.049 A 
ATOM     68  H   UNL A   1      45.627  28.340  32.227  1.00  0.00     0.167 HD
ATOM     69  C   UNL A   1      44.969  27.946  29.317  1.00  0.00     0.074 A 
ATOM     70  C   UNL A   1      44.633  26.819  30.185  1.00  0.00     0.031 C 
ATOM     71  C   UNL A   1      45.158  29.271  29.587  1.00  0.00     0.037 A 
BRANCH  58  72
ATOM     72  C   UNL A   1      43.764  27.790  34.586  1.00  0.00     0.064 A 
ATOM     73  C   UNL A   1      43.678  26.458  34.130  1.00  0.00     0.173 A 
ATOM     74  C   UNL A   1      43.988  27.940  35.971  1.00  0.00     0.173 A 
ATOM     75  F   UNL A   1      43.462  26.191  32.833  1.00  0.00    -0.203 F 
ATOM     76  C   UNL A   1      43.708  25.371  35.008  1.00  0.00     0.198 A 
ATOM     77  C   UNL A   1      44.072  26.851  36.837  1.00  0.00     0.198 A 
ATOM     78  F   UNL A   1      44.022  29.137  36.568  1.00  0.00    -0.203 F 
ATOM     79  F   UNL A   1      43.480  24.135  34.545  1.00  0.00    -0.200 F 
ATOM     80  C   UNL A   1      43.894  25.570  36.363  1.00  0.00     0.200 A 
ATOM     81  F   UNL A   1      44.238  27.067  38.150  1.00  0.00    -0.200 F 
ATOM     82  F   UNL A   1      43.852  24.538  37.215  1.00  0.00    -0.200 F 
ENDBRANCH  58  72
BRANCH  59  83
ATOM     83  C   UNL A   1      42.621  24.762  26.725  1.00  0.00     0.064 A 
ATOM     84  C   UNL A   1      43.225  24.482  25.488  1.00  0.00     0.173 A 
ATOM     85  C   UNL A   1      42.099  23.657  27.428  1.00  0.00     0.173 A 
ATOM     86  F   UNL A   1      43.789  25.469  24.777  1.00  0.00    -0.203 F 
ATOM     87  C   UNL A   1      43.324  23.176  24.997  1.00  0.00     0.198 A 
ATOM     88  C   UNL A   1      42.193  22.354  26.934  1.00  0.00     0.198 A 
ATOM     89  F   UNL A   1      41.573  23.807  28.652  1.00  0.00    -0.203 F 
ATOM     90  F   UNL A   1      43.963  22.941  23.842  1.00  0.00    -0.200 F 
ATOM     91  C   UNL A   1      42.817  22.112  25.725  1.00  0.00     0.200 A 
ATOM     92  F   UNL A   1      41.731  21.331  27.667  1.00  0.00    -0.200 F 
ATOM     93  F   UNL A   1      42.967  20.854  25.285  1.00  0.00    -0.200 F 
ENDBRANCH  59  83
BRANCH  71  94
ATOM     94  C   UNL A   1      45.296  30.222  28.429  1.00  0.00     0.064 A 
ATOM     95  C   UNL A   1      44.219  30.888  27.818  1.00  0.00     0.173 A 
ATOM     96  C   UNL A   1      46.587  30.591  28.029  1.00  0.00     0.173 A 
ATOM     97  F   UNL A   1      42.959  30.669  28.209  1.00  0.00    -0.203 F 
ATOM     98  C   UNL A   1      44.427  31.849  26.829  1.00  0.00     0.198 A 
ATOM     99  C   UNL A   1      46.794  31.578  27.068  1.00  0.00     0.198 A 
ATOM    100  F   UNL A   1      47.657  30.030  28.614  1.00  0.00    -0.203 F 
ATOM    101  F   UNL A   1      43.381  32.466  26.257  1.00  0.00    -0.200 F 
ATOM    102  C   UNL A   1      45.715  32.198  26.461  1.00  0.00     0.200 A 
ATOM    103  F   UNL A   1      48.043  31.946  26.753  1.00  0.00    -0.200 F 
ATOM    104  F   UNL A   1      45.918  33.154  25.542  1.00  0.00    -0.200 F 
ENDBRANCH  71  94
ENDBRANCH  45  46
ENDBRANCH  37  40
ENDBRANCH  35  36
ENDBRANCH  34  35
ENDBRANCH   1  34
TORSDOF 15
ENDMDL
MODEL 2
REMARK VINA RESULT:     -14.2      1.590      1.921
REMARK SMILES COc1cccc(-c2nn(-c3cc4c(cc3C(N)=O)OCO4)cc2C(=O)NCCCCNC(=O)c2ccc(-c3c4nc(c(-c5c(F)c(F)c(F)c(F)c5F)c5ccc([nH]5)c(-c5c(F)c(F)c(F)c(F)c5F)c5nc(c(-c6c(F)c(F)c(F)c(F)c6F)c6ccc3[nH]6)C=C5)C=C4)cc2)c1
REMARK SMILES IDX 29 1 28 2 27 3 25 4 26 5 24 7 8 8 9 9 10 10 23 11 7 12 3 13
REMARK SMILES IDX 4 14 98 15 5 16 6 17 2 18 1 19 11 20 12 21 16 22 13 23 15 24
REMARK SMILES IDX 14 25 22 26 20 27 21 28 17 29 18 30 19 31 30 34 31 35 32 36
REMARK SMILES IDX 33 37 34 39 35 40 36 41 97 42 37 43 96 44 38 45 39 46 40 47
REMARK SMILES IDX 90 48 41 49 95 50 89 51 91 52 42 53 94 54 88 55 87 56 43 58
REMARK SMILES IDX 75 59 55 60 74 61 56 62 59 63 73 64 92 65 57 66 58 67 72 69
REMARK SMILES IDX 93 70 60 71 44 72 45 73 53 74 46 75 47 76 51 77 54 78 48 79
REMARK SMILES IDX 49 80 52 81 50 82 76 83 77 84 85 85 78 86 79 87 83 88 86 89
REMARK SMILES IDX 80 90 81 91 84 92 82 93 61 94 62 95 70 96 63 97 64 98 68 99
REMARK SMILES IDX 71 100 65 101 66 102 69 103 67 104
REMARK H PARENT 27 6 18 32 18 33 32 38 91 57 59 68
REMARK Flexibility Score: inf
ROOT
ATOM      1  C   UNL A   1      34.493  30.817  27.609  1.00  0.00     0.023 C 
ENDROOT
BRANCH   1   2
ATOM      2  C   UNL A   1      33.645  29.976  26.650  1.00  0.00     0.116 C 
BRANCH   2   3
ATOM      3  N   UNL A   1      32.525  29.358  27.326  1.00  0.00    -0.352 N 
ATOM      4  C   UNL A   1      31.924  28.127  27.216  1.00  0.00     0.255 C 
ATOM      5  O   UNL A   1      30.996  27.930  28.001  1.00  0.00    -0.269 OA
ATOM      6  H   UNL A   1      32.108  29.938  28.003  1.00  0.00     0.163 HD
BRANCH   4   7
ATOM      7  C   UNL A   1      32.374  27.112  26.271  1.00  0.00     0.086 A 
ATOM      8  C   UNL A   1      31.754  26.709  25.032  1.00  0.00     0.106 A 
ATOM      9  N   UNL A   1      32.377  25.638  24.491  1.00  0.00    -0.167 NA
ATOM     10  N   UNL A   1      33.260  25.274  25.444  1.00  0.00    -0.239 N 
ATOM     11  C   UNL A   1      33.489  26.306  26.322  1.00  0.00     0.129 A 
BRANCH   8  12
ATOM     12  C   UNL A   1      30.610  27.335  24.364  1.00  0.00     0.007 A 
ATOM     13  C   UNL A   1      29.603  29.208  23.187  1.00  0.00     0.119 A 
ATOM     14  C   UNL A   1      28.436  28.459  23.009  1.00  0.00     0.046 A 
ATOM     15  C   UNL A   1      30.689  28.648  23.872  1.00  0.00     0.056 A 
ATOM     16  C   UNL A   1      28.346  27.160  23.502  1.00  0.00     0.005 A 
ATOM     17  C   UNL A   1      29.425  26.605  24.186  1.00  0.00     0.011 A 
BRANCH  13  18
ATOM     18  O   UNL A   1      29.540  30.481  22.688  1.00  0.00    -0.497 OA
ATOM     19  C   UNL A   1      28.762  30.661  21.513  1.00  0.00     0.278 C 
ENDBRANCH  13  18
ENDBRANCH   8  12
BRANCH  10  20
ATOM     20  C   UNL A   1      33.986  24.058  25.426  1.00  0.00     0.081 A 
ATOM     21  C   UNL A   1      35.186  24.012  24.693  1.00  0.00     0.079 A 
ATOM     22  C   UNL A   1      33.566  22.943  26.215  1.00  0.00     0.069 A 
ATOM     23  C   UNL A   1      35.973  22.889  24.841  1.00  0.00     0.167 A 
ATOM     24  C   UNL A   1      34.449  21.868  26.402  1.00  0.00     0.066 A 
ATOM     25  C   UNL A   1      35.627  21.865  25.692  1.00  0.00     0.166 A 
ATOM     26  O   UNL A   1      37.158  22.642  24.216  1.00  0.00    -0.454 OA
ATOM     27  O   UNL A   1      36.541  20.859  25.706  1.00  0.00    -0.454 OA
ATOM     28  C   UNL A   1      37.399  21.278  24.626  1.00  0.00     0.468 C 
BRANCH  22  29
ATOM     29  C   UNL A   1      32.147  22.782  26.692  1.00  0.00     0.251 C 
ATOM     30  N   UNL A   1      31.324  21.945  25.989  1.00  0.00    -0.366 N 
ATOM     31  O   UNL A   1      31.661  23.405  27.626  1.00  0.00    -0.269 OA
ATOM     32  H   UNL A   1      31.681  21.427  25.232  1.00  0.00     0.159 HD
ATOM     33  H   UNL A   1      30.377  21.859  26.243  1.00  0.00     0.159 HD
ENDBRANCH  22  29
ENDBRANCH  10  20
ENDBRANCH   4   7
ENDBRANCH   2   3
ENDBRANCH   1   2
BRANCH   1  34
ATOM     34  C   UNL A   1      33.961  32.236  27.868  1.00  0.00     0.023 C 
BRANCH  34  35
ATOM     35  C   UNL A   1      34.921  33.155  28.617  1.00  0.00     0.116 C 
BRANCH  35  36
ATOM     36  N   UNL A   1      34.710  33.154  30.066  1.00  0.00    -0.352 N 
ATOM     37  C   UNL A   1      35.287  32.328  31.016  1.00  0.00     0.251 C 
ATOM     38  H   UNL A   1      34.078  33.828  30.408  1.00  0.00     0.163 HD
ATOM     39  O   UNL A   1      34.772  32.150  32.105  1.00  0.00    -0.269 OA
BRANCH  37  40
ATOM     40  C   UNL A   1      36.568  31.680  30.685  1.00  0.00     0.039 A 
ATOM     41  C   UNL A   1      37.753  32.403  30.533  1.00  0.00     0.014 A 
ATOM     42  C   UNL A   1      36.555  30.294  30.569  1.00  0.00     0.014 A 
ATOM     43  C   UNL A   1      38.942  31.701  30.344  1.00  0.00     0.010 A 
ATOM     44  C   UNL A   1      37.735  29.605  30.575  1.00  0.00     0.010 A 
ATOM     45  C   UNL A   1      38.923  30.298  30.385  1.00  0.00    -0.014 A 
BRANCH  45  46
ATOM     46  C   UNL A   1      40.151  29.515  30.332  1.00  0.00     0.031 A 
ATOM     47  C   UNL A   1      40.779  29.259  31.656  1.00  0.00     0.074 A 
ATOM     48  C   UNL A   1      40.543  28.871  29.210  1.00  0.00     0.049 A 
ATOM     49  N   UNL A   1      41.929  29.671  32.077  1.00  0.00    -0.248 NA
ATOM     50  C   UNL A   1      39.981  28.573  32.686  1.00  0.00     0.031 C 
ATOM     51  C   UNL A   1      39.843  28.762  27.923  1.00  0.00     0.029 A 
ATOM     52  N   UNL A   1      41.623  28.067  29.019  1.00  0.00    -0.354 N 
ATOM     53  C   UNL A   1      42.089  29.130  33.351  1.00  0.00     0.074 A 
ATOM     54  C   UNL A   1      40.799  28.628  33.740  1.00  0.00     0.031 C 
ATOM     55  C   UNL A   1      40.381  27.761  27.193  1.00  0.00     0.029 A 
ATOM     56  C   UNL A   1      41.566  27.281  27.874  1.00  0.00     0.049 A 
ATOM     57  H   UNL A   1      42.384  28.045  29.642  1.00  0.00     0.167 HD
ATOM     58  C   UNL A   1      43.334  28.919  33.865  1.00  0.00     0.037 A 
ATOM     59  C   UNL A   1      42.421  26.282  27.539  1.00  0.00     0.037 A 
ATOM     60  C   UNL A   1      44.324  29.677  33.139  1.00  0.00     0.049 A 
ATOM     61  C   UNL A   1      43.661  26.488  28.332  1.00  0.00     0.074 A 
ATOM     62  C   UNL A   1      44.515  31.021  32.878  1.00  0.00     0.029 A 
ATOM     63  N   UNL A   1      45.096  29.014  32.216  1.00  0.00    -0.354 N 
ATOM     64  N   UNL A   1      44.463  27.504  28.167  1.00  0.00    -0.248 NA
ATOM     65  C   UNL A   1      43.735  25.835  29.631  1.00  0.00     0.031 C 
ATOM     66  C   UNL A   1      44.952  31.071  31.521  1.00  0.00     0.029 A 
ATOM     67  C   UNL A   1      45.085  29.760  31.065  1.00  0.00     0.049 A 
ATOM     68  H   UNL A   1      45.568  28.160  32.353  1.00  0.00     0.167 HD
ATOM     69  C   UNL A   1      44.812  27.888  29.454  1.00  0.00     0.074 A 
ATOM     70  C   UNL A   1      44.386  26.782  30.310  1.00  0.00     0.031 C 
ATOM     71  C   UNL A   1      45.136  29.183  29.742  1.00  0.00     0.037 A 
BRANCH  58  72
ATOM     72  C   UNL A   1      43.712  27.748  34.746  1.00  0.00     0.064 A 
ATOM     73  C   UNL A   1      43.503  26.440  34.262  1.00  0.00     0.173 A 
ATOM     74  C   UNL A   1      43.962  27.847  36.131  1.00  0.00     0.173 A 
ATOM     75  F   UNL A   1      43.251  26.223  32.962  1.00  0.00    -0.203 F 
ATOM     76  C   UNL A   1      43.445  25.335  35.116  1.00  0.00     0.198 A 
ATOM     77  C   UNL A   1      43.958  26.735  36.972  1.00  0.00     0.198 A 
ATOM     78  F   UNL A   1      44.109  29.021  36.754  1.00  0.00    -0.203 F 
ATOM     79  F   UNL A   1      43.103  24.135  34.628  1.00  0.00    -0.200 F 
ATOM     80  C   UNL A   1      43.662  25.485  36.473  1.00  0.00     0.200 A 
ATOM     81  F   UNL A   1      44.155  26.904  38.288  1.00  0.00    -0.200 F 
ATOM     82  F   UNL A   1      43.537  24.442  37.302  1.00  0.00    -0.200 F 
ENDBRANCH  58  72
BRANCH  59  83
ATOM     83  C   UNL A   1      42.108  24.999  26.864  1.00  0.00     0.064 A 
ATOM     84  C   UNL A   1      42.912  24.511  25.820  1.00  0.00     0.173 A 
ATOM     85  C   UNL A   1      41.182  24.089  27.415  1.00  0.00     0.173 A 
ATOM     86  F   UNL A   1      43.851  25.296  25.272  1.00  0.00    -0.203 F 
ATOM     87  C   UNL A   1      42.814  23.188  25.373  1.00  0.00     0.198 A 
ATOM     88  C   UNL A   1      41.081  22.771  26.964  1.00  0.00     0.198 A 
ATOM     89  F   UNL A   1      40.423  24.433  28.465  1.00  0.00    -0.203 F 
ATOM     90  F   UNL A   1      43.642  22.742  24.418  1.00  0.00    -0.200 F 
ATOM     91  C   UNL A   1      41.906  22.317  25.953  1.00  0.00     0.200 A 
ATOM     92  F   UNL A   1      40.224  21.929  27.559  1.00  0.00    -0.200 F 
ATOM     93  F   UNL A   1      41.856  21.033  25.568  1.00  0.00    -0.200 F 
ENDBRANCH  59  83
BRANCH  71  94
ATOM     94  C   UNL A   1      45.341  30.138  28.597  1.00  0.00     0.064 A 
ATOM     95  C   UNL A   1      44.323  30.925  28.030  1.00  0.00     0.173 A 
ATOM     96  C   UNL A   1      46.652  30.379  28.167  1.00  0.00     0.173 A 
ATOM     97  F   UNL A   1      43.059  30.830  28.453  1.00  0.00    -0.203 F 
ATOM     98  C   UNL A   1      44.604  31.880  27.053  1.00  0.00     0.198 A 
ATOM     99  C   UNL A   1      46.935  31.358  27.218  1.00  0.00     0.198 A 
ATOM    100  F   UNL A   1      47.673  29.697  28.710  1.00  0.00    -0.203 F 
ATOM    101  F   UNL A   1      43.613  32.613  26.523  1.00  0.00    -0.200 F 
ATOM    102  C   UNL A   1      45.911  32.100  26.653  1.00  0.00     0.200 A 
ATOM    103  F   UNL A   1      48.207  31.601  26.873  1.00  0.00    -0.200 F 
ATOM    104  F   UNL A   1      46.188  33.048  25.746  1.00  0.00    -0.200 F 
ENDBRANCH  71  94
ENDBRANCH  45  46
ENDBRANCH  37  40
ENDBRANCH  35  36
ENDBRANCH  34  35
ENDBRANCH   1  34
TORSDOF 15
ENDMDL
MODEL 3
REMARK VINA RESULT:     -14.1      3.028      8.950
REMARK SMILES COc1cccc(-c2nn(-c3cc4c(cc3C(N)=O)OCO4)cc2C(=O)NCCCCNC(=O)c2ccc(-c3c4nc(c(-c5c(F)c(F)c(F)c(F)c5F)c5ccc([nH]5)c(-c5c(F)c(F)c(F)c(F)c5F)c5nc(c(-c6c(F)c(F)c(F)c(F)c6F)c6ccc3[nH]6)C=C5)C=C4)cc2)c1
REMARK SMILES IDX 29 1 28 2 27 3 25 4 26 5 24 7 8 8 9 9 10 10 23 11 7 12 3 13
REMARK SMILES IDX 4 14 98 15 5 16 6 17 2 18 1 19 11 20 12 21 16 22 13 23 15 24
REMARK SMILES IDX 14 25 22 26 20 27 21 28 17 29 18 30 19 31 30 34 31 35 32 36
REMARK SMILES IDX 33 37 34 39 35 40 36 41 97 42 37 43 96 44 38 45 39 46 40 47
REMARK SMILES IDX 90 48 41 49 95 50 89 51 91 52 42 53 94 54 88 55 87 56 43 58
REMARK SMILES IDX 75 59 55 60 74 61 56 62 59 63 73 64 92 65 57 66 58 67 72 69
REMARK SMILES IDX 93 70 60 71 44 72 45 73 53 74 46 75 47 76 51 77 54 78 48 79
REMARK SMILES IDX 49 80 52 81 50 82 76 83 77 84 85 85 78 86 79 87 83 88 86 89
REMARK SMILES IDX 80 90 81 91 84 92 82 93 61 94 62 95 70 96 63 97 64 98 68 99
REMARK SMILES IDX 71 100 65 101 66 102 69 103 67 104
REMARK H PARENT 27 6 18 32 18 33 32 38 91 57 59 68
REMARK Flexibility Score: inf
ROOT
ATOM      1  C   UNL A   1      35.549  22.559  24.443  1.00  0.00     0.023 C 
ENDROOT
BRANCH   1   2
ATOM      2  C   UNL A   1      35.207  23.778  25.303  1.00  0.00     0.116 C 
BRANCH   2   3
ATOM      3  N   UNL A   1      34.388  23.419  26.441  1.00  0.00    -0.352 N 
ATOM      4  C   UNL A   1      33.031  23.380  26.648  1.00  0.00     0.255 C 
ATOM      5  O   UNL A   1      32.686  22.976  27.759  1.00  0.00    -0.269 OA
ATOM      6  H   UNL A   1      34.912  23.148  27.229  1.00  0.00     0.163 HD
BRANCH   4   7
ATOM      7  C   UNL A   1      32.066  23.746  25.618  1.00  0.00     0.086 A 
ATOM      8  C   UNL A   1      31.641  22.971  24.477  1.00  0.00     0.106 A 
ATOM      9  N   UNL A   1      30.839  23.690  23.660  1.00  0.00    -0.167 NA
ATOM     10  N   UNL A   1      30.890  24.932  24.183  1.00  0.00    -0.239 N 
ATOM     11  C   UNL A   1      31.326  24.900  25.485  1.00  0.00     0.129 A 
BRANCH   8  12
ATOM     12  C   UNL A   1      31.970  21.575  24.177  1.00  0.00     0.007 A 
ATOM     13  C   UNL A   1      32.383  19.290  24.893  1.00  0.00     0.119 A 
ATOM     14  C   UNL A   1      32.503  18.900  23.556  1.00  0.00     0.046 A 
ATOM     15  C   UNL A   1      32.124  20.631  25.204  1.00  0.00     0.056 A 
ATOM     16  C   UNL A   1      32.363  19.832  22.531  1.00  0.00     0.005 A 
ATOM     17  C   UNL A   1      32.107  21.166  22.841  1.00  0.00     0.011 A 
BRANCH  13  18
ATOM     18  O   UNL A   1      32.584  18.282  25.796  1.00  0.00    -0.497 OA
ATOM     19  C   UNL A   1      32.615  16.961  25.273  1.00  0.00     0.278 C 
ENDBRANCH  13  18
ENDBRANCH   8  12
BRANCH  10  20
ATOM     20  C   UNL A   1      30.387  26.085  23.532  1.00  0.00     0.081 A 
ATOM     21  C   UNL A   1      29.078  26.501  23.838  1.00  0.00     0.079 A 
ATOM     22  C   UNL A   1      31.220  26.863  22.671  1.00  0.00     0.069 A 
ATOM     23  C   UNL A   1      28.673  27.725  23.346  1.00  0.00     0.167 A 
ATOM     24  C   UNL A   1      30.791  28.140  22.277  1.00  0.00     0.066 A 
ATOM     25  C   UNL A   1      29.516  28.529  22.615  1.00  0.00     0.166 A 
ATOM     26  O   UNL A   1      27.451  28.301  23.515  1.00  0.00    -0.454 OA
ATOM     27  O   UNL A   1      28.933  29.697  22.236  1.00  0.00    -0.454 OA
ATOM     28  C   UNL A   1      27.574  29.449  22.647  1.00  0.00     0.468 C 
BRANCH  22  29
ATOM     29  C   UNL A   1      32.447  26.296  22.010  1.00  0.00     0.251 C 
ATOM     30  N   UNL A   1      32.308  25.732  20.771  1.00  0.00    -0.366 N 
ATOM     31  O   UNL A   1      33.550  26.243  22.537  1.00  0.00    -0.269 OA
ATOM     32  H   UNL A   1      31.435  25.756  20.316  1.00  0.00     0.159 HD
ATOM     33  H   UNL A   1      33.079  25.304  20.335  1.00  0.00     0.159 HD
ENDBRANCH  22  29
ENDBRANCH  10  20
ENDBRANCH   4   7
ENDBRANCH   2   3
ENDBRANCH   1   2
BRANCH   1  34
ATOM     34  C   UNL A   1      36.935  21.948  24.707  1.00  0.00     0.023 C 
BRANCH  34  35
ATOM     35  C   UNL A   1      37.820  22.750  25.654  1.00  0.00     0.116 C 
BRANCH  35  36
ATOM     36  N   UNL A   1      38.736  21.917  26.436  1.00  0.00    -0.352 N 
ATOM     37  C   UNL A   1      39.919  22.289  27.053  1.00  0.00     0.251 C 
ATOM     38  H   UNL A   1      38.477  20.972  26.536  1.00  0.00     0.163 HD
ATOM     39  O   UNL A   1      40.777  21.472  27.335  1.00  0.00    -0.269 OA
BRANCH  37  40
ATOM     40  C   UNL A   1      40.108  23.711  27.388  1.00  0.00     0.039 A 
ATOM     41  C   UNL A   1      39.080  24.649  27.268  1.00  0.00     0.014 A 
ATOM     42  C   UNL A   1      41.358  24.077  27.874  1.00  0.00     0.014 A 
ATOM     43  C   UNL A   1      39.306  25.946  27.725  1.00  0.00     0.010 A 
ATOM     44  C   UNL A   1      41.515  25.286  28.492  1.00  0.00     0.010 A 
ATOM     45  C   UNL A   1      40.525  26.249  28.353  1.00  0.00    -0.014 A 
BRANCH  45  46
ATOM     46  C   UNL A   1      40.763  27.547  28.972  1.00  0.00     0.031 A 
ATOM     47  C   UNL A   1      41.877  28.325  28.367  1.00  0.00     0.074 A 
ATOM     48  C   UNL A   1      39.891  28.095  29.847  1.00  0.00     0.049 A 
ATOM     49  N   UNL A   1      42.987  28.678  28.925  1.00  0.00    -0.248 NA
ATOM     50  C   UNL A   1      41.809  28.640  26.929  1.00  0.00     0.031 C 
ATOM     51  C   UNL A   1      38.583  27.585  30.279  1.00  0.00     0.029 A 
ATOM     52  N   UNL A   1      39.945  29.306  30.462  1.00  0.00    -0.354 N 
ATOM     53  C   UNL A   1      43.674  29.431  27.975  1.00  0.00     0.074 A 
ATOM     54  C   UNL A   1      42.995  29.217  26.725  1.00  0.00     0.031 C 
ATOM     55  C   UNL A   1      37.879  28.574  30.873  1.00  0.00     0.029 A 
ATOM     56  C   UNL A   1      38.745  29.725  31.025  1.00  0.00     0.049 A 
ATOM     57  H   UNL A   1      40.768  29.842  30.506  1.00  0.00     0.167 HD
ATOM     58  C   UNL A   1      44.591  30.364  28.358  1.00  0.00     0.037 A 
ATOM     59  C   UNL A   1      38.482  30.951  31.543  1.00  0.00     0.037 A 
ATOM     60  C   UNL A   1      45.006  30.147  29.722  1.00  0.00     0.049 A 
ATOM     61  C   UNL A   1      39.793  31.587  31.838  1.00  0.00     0.074 A 
ATOM     62  C   UNL A   1      45.596  29.096  30.399  1.00  0.00     0.029 A 
ATOM     63  N   UNL A   1      44.464  30.950  30.697  1.00  0.00    -0.354 N 
ATOM     64  N   UNL A   1      40.617  31.153  32.753  1.00  0.00    -0.248 NA
ATOM     65  C   UNL A   1      40.394  32.390  30.784  1.00  0.00     0.031 C 
ATOM     66  C   UNL A   1      44.931  29.055  31.661  1.00  0.00     0.029 A 
ATOM     67  C   UNL A   1      44.043  30.129  31.713  1.00  0.00     0.049 A 
ATOM     68  H   UNL A   1      44.389  31.932  30.672  1.00  0.00     0.167 HD
ATOM     69  C   UNL A   1      41.871  31.247  32.170  1.00  0.00     0.074 A 
ATOM     70  C   UNL A   1      41.677  32.077  30.982  1.00  0.00     0.031 C 
ATOM     71  C   UNL A   1      42.883  30.403  32.529  1.00  0.00     0.037 A 
BRANCH  58  72
ATOM     72  C   UNL A   1      44.815  31.686  27.656  1.00  0.00     0.064 A 
ATOM     73  C   UNL A   1      46.015  31.879  26.940  1.00  0.00     0.173 A 
ATOM     74  C   UNL A   1      44.071  32.857  27.913  1.00  0.00     0.173 A 
ATOM     75  F   UNL A   1      46.809  30.839  26.642  1.00  0.00    -0.203 F 
ATOM     76  C   UNL A   1      46.481  33.153  26.605  1.00  0.00     0.198 A 
ATOM     77  C   UNL A   1      44.513  34.122  27.529  1.00  0.00     0.198 A 
ATOM     78  F   UNL A   1      42.949  32.851  28.641  1.00  0.00    -0.203 F 
ATOM     79  F   UNL A   1      47.693  33.294  26.052  1.00  0.00    -0.200 F 
ATOM     80  C   UNL A   1      45.734  34.275  26.910  1.00  0.00     0.200 A 
ATOM     81  F   UNL A   1      43.780  35.199  27.847  1.00  0.00    -0.200 F 
ATOM     82  F   UNL A   1      46.209  35.500  26.654  1.00  0.00    -0.200 F 
ENDBRANCH  58  72
BRANCH  59  83
ATOM     83  C   UNL A   1      37.218  31.724  31.469  1.00  0.00     0.064 A 
ATOM     84  C   UNL A   1      36.481  32.025  32.626  1.00  0.00     0.173 A 
ATOM     85  C   UNL A   1      36.856  32.424  30.300  1.00  0.00     0.173 A 
ATOM     86  F   UNL A   1      36.791  31.438  33.792  1.00  0.00    -0.203 F 
ATOM     87  C   UNL A   1      35.462  32.984  32.621  1.00  0.00     0.198 A 
ATOM     88  C   UNL A   1      35.835  33.377  30.295  1.00  0.00     0.198 A 
ATOM     89  F   UNL A   1      37.548  32.266  29.163  1.00  0.00    -0.203 F 
ATOM     90  F   UNL A   1      34.824  33.289  33.760  1.00  0.00    -0.200 F 
ATOM     91  C   UNL A   1      35.148  33.667  31.458  1.00  0.00     0.200 A 
ATOM     92  F   UNL A   1      35.567  34.057  29.170  1.00  0.00    -0.200 F 
ATOM     93  F   UNL A   1      34.215  34.631  31.466  1.00  0.00    -0.200 F 
ENDBRANCH  59  83
BRANCH  71  94
ATOM     94  C   UNL A   1      42.687  29.528  33.737  1.00  0.00     0.064 A 
ATOM     95  C   UNL A   1      42.087  28.256  33.705  1.00  0.00     0.173 A 
ATOM     96  C   UNL A   1      43.272  29.929  34.944  1.00  0.00     0.173 A 
ATOM     97  F   UNL A   1      41.592  27.754  32.569  1.00  0.00    -0.203 F 
ATOM     98  C   UNL A   1      42.046  27.445  34.839  1.00  0.00     0.198 A 
ATOM     99  C   UNL A   1      43.263  29.103  36.065  1.00  0.00     0.198 A 
ATOM    100  F   UNL A   1      43.907  31.110  35.022  1.00  0.00    -0.203 F 
ATOM    101  F   UNL A   1      41.462  26.238  34.783  1.00  0.00    -0.200 F 
ATOM    102  C   UNL A   1      42.641  27.866  36.015  1.00  0.00     0.200 A 
ATOM    103  F   UNL A   1      43.884  29.496  37.185  1.00  0.00    -0.200 F 
ATOM    104  F   UNL A   1      42.641  27.070  37.094  1.00  0.00    -0.200 F 
ENDBRANCH  71  94
ENDBRANCH  45  46
ENDBRANCH  37  40
ENDBRANCH  35  36
ENDBRANCH  34  35
ENDBRANCH   1  34
TORSDOF 15
ENDMDL
