MODEL 1
REMARK VINA RESULT:     -12.3      0.000      0.000
REMARK SMILES Cc1cnc(S[C@H]2CC[C@@]([NH2+]C(C)C)(C(=O)NCCCCNC(=O)c3ccc(-c4c5nc(c(-c6c(F)c(F)c(F)c(F)c6F)c6ccc([nH]6)c(-c6c(F)c(F)c(F)c(F)c6F)c6nc(c(-c7c(F)c(F)c(F)c(F)c7F)c7ccc4[nH]7)C=C6)C=C5)cc3)C2)nc1
REMARK SMILES IDX 19 1 18 2 17 3 15 4 16 5 10 7 7 8 8 9 88 10 9 11 6 12 5 13
REMARK SMILES IDX 1 14 2 15 3 16 90 17 4 18 89 19 11 20 12 23 13 24 14 25
REMARK SMILES IDX 20 26 21 27 22 28 23 29 24 31 25 32 26 33 87 34 27 35 86 36
REMARK SMILES IDX 28 37 29 38 30 39 80 40 31 41 85 42 79 43 81 44 32 45 84 46
REMARK SMILES IDX 78 47 77 48 33 50 65 51 45 52 64 53 46 54 49 55 63 56 82 57
REMARK SMILES IDX 47 58 48 59 62 61 83 62 50 63 34 64 35 65 43 66 36 67 37 68
REMARK SMILES IDX 41 69 44 70 38 71 39 72 42 73 40 74 66 75 67 76 75 77 68 78
REMARK SMILES IDX 69 79 73 80 76 81 70 82 71 83 74 84 72 85 51 86 52 87 60 88
REMARK SMILES IDX 53 89 54 90 58 91 61 92 55 93 56 94 59 95 57 96
REMARK H PARENT 17 6 11 21 11 22 22 30 81 49 49 60
REMARK Flexibility Score: inf
ROOT
ATOM      1  C   UNL A   1      32.037  30.572  26.831  1.00  0.00     0.023 C 
ENDROOT
BRANCH   1   2
ATOM      2  C   UNL A   1      31.503  29.980  25.526  1.00  0.00     0.116 C 
BRANCH   2   3
ATOM      3  N   UNL A   1      32.569  29.558  24.638  1.00  0.00    -0.351 N 
ATOM      4  C   UNL A   1      32.503  28.964  23.407  1.00  0.00     0.281 C 
ATOM      5  O   UNL A   1      33.552  28.936  22.756  1.00  0.00    -0.268 OA
ATOM      6  H   UNL A   1      33.481  29.722  24.974  1.00  0.00     0.163 HD
BRANCH   4   7
ATOM      7  C   UNL A   1      31.133  28.475  22.814  1.00  0.00     0.176 C 
ATOM      8  C   UNL A   1      31.115  25.998  22.843  1.00  0.00     0.062 C 
ATOM      9  C   UNL A   1      29.981  26.465  23.742  1.00  0.00     0.022 C 
ATOM     10  C   UNL A   1      31.281  27.216  21.917  1.00  0.00     0.094 C 
ATOM     11  C   UNL A   1      30.198  27.964  23.948  1.00  0.00     0.080 C 
BRANCH   8  12
ATOM     12  S   UNL A   1      32.699  25.689  23.701  1.00  0.00    -0.083 SA
BRANCH  12  13
ATOM     13  C   UNL A   1      32.724  23.948  23.975  1.00  0.00     0.187 A 
ATOM     14  C   UNL A   1      33.009  19.764  24.164  1.00  0.00     0.048 C 
ATOM     15  C   UNL A   1      32.882  21.247  24.114  1.00  0.00    -0.014 A 
ATOM     16  C   UNL A   1      33.468  22.079  25.048  1.00  0.00     0.119 A 
ATOM     17  C   UNL A   1      32.191  21.893  23.117  1.00  0.00     0.119 A 
ATOM     18  N   UNL A   1      33.403  23.426  25.006  1.00  0.00    -0.231 NA
ATOM     19  N   UNL A   1      32.101  23.228  23.025  1.00  0.00    -0.231 NA
ENDBRANCH  12  13
ENDBRANCH   8  12
BRANCH   7  20
ATOM     20  N   UNL A   1      30.504  29.614  22.084  1.00  0.00    -0.332 N 
ATOM     21  H   UNL A   1      30.409  29.340  21.107  1.00  0.00     0.347 HD
ATOM     22  H   UNL A   1      31.121  30.410  22.242  1.00  0.00     0.347 HD
BRANCH  20  23
ATOM     23  C   UNL A   1      29.178  30.048  22.560  1.00  0.00     0.176 C 
ATOM     24  C   UNL A   1      29.190  31.400  23.273  1.00  0.00     0.075 C 
ATOM     25  C   UNL A   1      28.254  30.127  21.341  1.00  0.00     0.075 C 
ENDBRANCH  20  23
ENDBRANCH   7  20
ENDBRANCH   4   7
ENDBRANCH   2   3
ENDBRANCH   1   2
BRANCH   1  26
ATOM     26  C   UNL A   1      31.696  32.045  27.053  1.00  0.00     0.023 C 
BRANCH  26  27
ATOM     27  C   UNL A   1      32.897  32.969  27.200  1.00  0.00     0.116 C 
BRANCH  27  28
ATOM     28  N   UNL A   1      32.532  34.304  27.653  1.00  0.00    -0.352 N 
ATOM     29  C   UNL A   1      33.044  35.037  28.694  1.00  0.00     0.251 C 
ATOM     30  H   UNL A   1      31.816  34.743  27.139  1.00  0.00     0.163 HD
ATOM     31  O   UNL A   1      32.517  36.094  29.027  1.00  0.00    -0.269 OA
BRANCH  29  32
ATOM     32  C   UNL A   1      34.217  34.532  29.440  1.00  0.00     0.039 A 
ATOM     33  C   UNL A   1      34.013  33.904  30.671  1.00  0.00     0.014 A 
ATOM     34  C   UNL A   1      35.507  34.662  28.920  1.00  0.00     0.014 A 
ATOM     35  C   UNL A   1      35.098  33.342  31.346  1.00  0.00     0.010 A 
ATOM     36  C   UNL A   1      36.573  34.031  29.552  1.00  0.00     0.010 A 
ATOM     37  C   UNL A   1      36.380  33.367  30.773  1.00  0.00    -0.014 A 
BRANCH  37  38
ATOM     38  C   UNL A   1      37.529  32.696  31.432  1.00  0.00     0.031 A 
ATOM     39  C   UNL A   1      38.207  31.530  30.771  1.00  0.00     0.074 A 
ATOM     40  C   UNL A   1      37.911  33.086  32.663  1.00  0.00     0.049 A 
ATOM     41  N   UNL A   1      39.182  30.777  31.215  1.00  0.00    -0.248 NA
ATOM     42  C   UNL A   1      37.699  31.138  29.448  1.00  0.00     0.031 C 
ATOM     43  C   UNL A   1      37.288  34.160  33.437  1.00  0.00     0.029 A 
ATOM     44  N   UNL A   1      38.901  32.612  33.486  1.00  0.00    -0.354 N 
ATOM     45  C   UNL A   1      39.391  29.816  30.235  1.00  0.00     0.074 A 
ATOM     46  C   UNL A   1      38.401  30.042  29.204  1.00  0.00     0.031 C 
ATOM     47  C   UNL A   1      37.919  34.272  34.616  1.00  0.00     0.029 A 
ATOM     48  C   UNL A   1      38.965  33.257  34.696  1.00  0.00     0.049 A 
ATOM     49  H   UNL A   1      39.508  31.879  33.233  1.00  0.00     0.167 HD
ATOM     50  C   UNL A   1      40.337  28.847  30.189  1.00  0.00     0.037 A 
ATOM     51  C   UNL A   1      39.768  33.047  35.755  1.00  0.00     0.037 A 
ATOM     52  C   UNL A   1      41.327  28.635  31.212  1.00  0.00     0.049 A 
ATOM     53  C   UNL A   1      40.817  31.972  35.683  1.00  0.00     0.074 A 
ATOM     54  C   UNL A   1      42.375  27.733  31.227  1.00  0.00     0.029 A 
ATOM     55  N   UNL A   1      41.381  29.328  32.413  1.00  0.00    -0.354 N 
ATOM     56  N   UNL A   1      41.067  31.126  34.713  1.00  0.00    -0.248 NA
ATOM     57  C   UNL A   1      41.702  31.831  36.846  1.00  0.00     0.031 C 
ATOM     58  C   UNL A   1      43.028  27.839  32.460  1.00  0.00     0.029 A 
ATOM     59  C   UNL A   1      42.425  28.851  33.191  1.00  0.00     0.049 A 
ATOM     60  H   UNL A   1      40.768  30.052  32.675  1.00  0.00     0.167 HD
ATOM     61  C   UNL A   1      42.146  30.365  35.139  1.00  0.00     0.074 A 
ATOM     62  C   UNL A   1      42.514  30.862  36.449  1.00  0.00     0.031 C 
ATOM     63  C   UNL A   1      42.775  29.348  34.499  1.00  0.00     0.037 A 
BRANCH  50  64
ATOM     64  C   UNL A   1      40.331  27.939  28.990  1.00  0.00     0.064 A 
ATOM     65  C   UNL A   1      39.609  26.734  28.977  1.00  0.00     0.173 A 
ATOM     66  C   UNL A   1      41.060  28.275  27.839  1.00  0.00     0.173 A 
ATOM     67  F   UNL A   1      38.901  26.360  30.055  1.00  0.00    -0.203 F 
ATOM     68  C   UNL A   1      39.659  25.877  27.881  1.00  0.00     0.198 A 
ATOM     69  C   UNL A   1      41.077  27.432  26.729  1.00  0.00     0.198 A 
ATOM     70  F   UNL A   1      41.760  29.417  27.790  1.00  0.00    -0.203 F 
ATOM     71  F   UNL A   1      39.022  24.699  27.924  1.00  0.00    -0.200 F 
ATOM     72  C   UNL A   1      40.390  26.229  26.757  1.00  0.00     0.200 A 
ATOM     73  F   UNL A   1      41.772  27.781  25.638  1.00  0.00    -0.200 F 
ATOM     74  F   UNL A   1      40.443  25.400  25.704  1.00  0.00    -0.200 F 
ENDBRANCH  50  64
BRANCH  51  75
ATOM     75  C   UNL A   1      39.615  33.898  36.963  1.00  0.00     0.064 A 
ATOM     76  C   UNL A   1      40.224  35.158  37.040  1.00  0.00     0.173 A 
ATOM     77  C   UNL A   1      38.820  33.489  38.045  1.00  0.00     0.173 A 
ATOM     78  F   UNL A   1      41.007  35.586  36.039  1.00  0.00    -0.203 F 
ATOM     79  C   UNL A   1      40.048  35.974  38.157  1.00  0.00     0.198 A 
ATOM     80  C   UNL A   1      38.625  34.316  39.147  1.00  0.00     0.198 A 
ATOM     81  F   UNL A   1      38.211  32.294  38.015  1.00  0.00    -0.203 F 
ATOM     82  F   UNL A   1      40.664  37.163  38.217  1.00  0.00    -0.200 F 
ATOM     83  C   UNL A   1      39.241  35.557  39.204  1.00  0.00     0.200 A 
ATOM     84  F   UNL A   1      37.829  33.917  40.150  1.00  0.00    -0.200 F 
ATOM     85  F   UNL A   1      39.058  36.350  40.269  1.00  0.00    -0.200 F 
ENDBRANCH  51  75
BRANCH  63  86
ATOM     86  C   UNL A   1      43.943  28.711  35.199  1.00  0.00     0.064 A 
ATOM     87  C   UNL A   1      43.783  27.604  36.045  1.00  0.00     0.173 A 
ATOM     88  C   UNL A   1      45.245  29.192  34.988  1.00  0.00     0.173 A 
ATOM     89  F   UNL A   1      42.558  27.117  36.294  1.00  0.00    -0.203 F 
ATOM     90  C   UNL A   1      44.878  27.017  36.673  1.00  0.00     0.198 A 
ATOM     91  C   UNL A   1      46.342  28.582  35.591  1.00  0.00     0.198 A 
ATOM     92  F   UNL A   1      45.456  30.243  34.183  1.00  0.00    -0.203 F 
ATOM     93  F   UNL A   1      44.695  25.991  37.516  1.00  0.00    -0.200 F 
ATOM     94  C   UNL A   1      46.157  27.501  36.440  1.00  0.00     0.200 A 
ATOM     95  F   UNL A   1      47.577  29.041  35.352  1.00  0.00    -0.200 F 
ATOM     96  F   UNL A   1      47.211  26.929  37.037  1.00  0.00    -0.200 F 
ENDBRANCH  63  86
ENDBRANCH  37  38
ENDBRANCH  29  32
ENDBRANCH  27  28
ENDBRANCH  26  27
ENDBRANCH   1  26
TORSDOF 15
ENDMDL
MODEL 2
REMARK VINA RESULT:     -12.2      0.202      1.670
REMARK SMILES Cc1cnc(S[C@H]2CC[C@@]([NH2+]C(C)C)(C(=O)NCCCCNC(=O)c3ccc(-c4c5nc(c(-c6c(F)c(F)c(F)c(F)c6F)c6ccc([nH]6)c(-c6c(F)c(F)c(F)c(F)c6F)c6nc(c(-c7c(F)c(F)c(F)c(F)c7F)c7ccc4[nH]7)C=C6)C=C5)cc3)C2)nc1
REMARK SMILES IDX 19 1 18 2 17 3 15 4 16 5 10 7 7 8 8 9 88 10 9 11 6 12 5 13
REMARK SMILES IDX 1 14 2 15 3 16 90 17 4 18 89 19 11 20 12 23 13 24 14 25
REMARK SMILES IDX 20 26 21 27 22 28 23 29 24 31 25 32 26 33 87 34 27 35 86 36
REMARK SMILES IDX 28 37 29 38 30 39 80 40 31 41 85 42 79 43 81 44 32 45 84 46
REMARK SMILES IDX 78 47 77 48 33 50 65 51 45 52 64 53 46 54 49 55 63 56 82 57
REMARK SMILES IDX 47 58 48 59 62 61 83 62 50 63 34 64 35 65 43 66 36 67 37 68
REMARK SMILES IDX 41 69 44 70 38 71 39 72 42 73 40 74 66 75 67 76 75 77 68 78
REMARK SMILES IDX 69 79 73 80 76 81 70 82 71 83 74 84 72 85 51 86 52 87 60 88
REMARK SMILES IDX 53 89 54 90 58 91 61 92 55 93 56 94 59 95 57 96
REMARK H PARENT 17 6 11 21 11 22 22 30 81 49 49 60
REMARK Flexibility Score: inf
ROOT
ATOM      1  C   UNL A   1      31.938  30.506  26.860  1.00  0.00     0.023 C 
ENDROOT
BRANCH   1   2
ATOM      2  C   UNL A   1      31.421  29.785  25.615  1.00  0.00     0.116 C 
BRANCH   2   3
ATOM      3  N   UNL A   1      32.486  29.471  24.681  1.00  0.00    -0.351 N 
ATOM      4  C   UNL A   1      32.421  28.921  23.430  1.00  0.00     0.281 C 
ATOM      5  O   UNL A   1      33.449  28.989  22.749  1.00  0.00    -0.268 OA
ATOM      6  H   UNL A   1      33.394  29.685  24.997  1.00  0.00     0.163 HD
BRANCH   4   7
ATOM      7  C   UNL A   1      31.070  28.361  22.857  1.00  0.00     0.176 C 
ATOM      8  C   UNL A   1      31.168  25.886  22.917  1.00  0.00     0.062 C 
ATOM      9  C   UNL A   1      30.022  26.312  23.823  1.00  0.00     0.022 C 
ATOM     10  C   UNL A   1      31.268  27.099  21.974  1.00  0.00     0.094 C 
ATOM     11  C   UNL A   1      30.171  27.822  24.007  1.00  0.00     0.080 C 
BRANCH   8  12
ATOM     12  S   UNL A   1      32.772  25.663  23.763  1.00  0.00    -0.083 SA
BRANCH  12  13
ATOM     13  C   UNL A   1      32.996  23.915  23.838  1.00  0.00     0.187 A 
ATOM     14  C   UNL A   1      33.399  19.793  24.514  1.00  0.00     0.048 C 
ATOM     15  C   UNL A   1      33.278  21.253  24.253  1.00  0.00    -0.014 A 
ATOM     16  C   UNL A   1      32.404  21.776  23.320  1.00  0.00     0.119 A 
ATOM     17  C   UNL A   1      34.014  22.187  24.943  1.00  0.00     0.119 A 
ATOM     18  N   UNL A   1      32.244  23.096  23.089  1.00  0.00    -0.231 NA
ATOM     19  N   UNL A   1      33.890  23.510  24.757  1.00  0.00    -0.231 NA
ENDBRANCH  12  13
ENDBRANCH   8  12
BRANCH   7  20
ATOM     20  N   UNL A   1      30.382  29.460  22.119  1.00  0.00    -0.332 N 
ATOM     21  H   UNL A   1      30.229  29.142  21.163  1.00  0.00     0.347 HD
ATOM     22  H   UNL A   1      30.997  30.268  22.204  1.00  0.00     0.347 HD
BRANCH  20  23
ATOM     23  C   UNL A   1      29.082  29.900  22.659  1.00  0.00     0.176 C 
ATOM     24  C   UNL A   1      29.153  31.206  23.451  1.00  0.00     0.075 C 
ATOM     25  C   UNL A   1      28.128  30.078  21.474  1.00  0.00     0.075 C 
ENDBRANCH  20  23
ENDBRANCH   7  20
ENDBRANCH   4   7
ENDBRANCH   2   3
ENDBRANCH   1   2
BRANCH   1  26
ATOM     26  C   UNL A   1      31.692  32.014  26.876  1.00  0.00     0.023 C 
BRANCH  26  27
ATOM     27  C   UNL A   1      32.902  32.860  27.251  1.00  0.00     0.116 C 
BRANCH  27  28
ATOM     28  N   UNL A   1      32.541  34.203  27.682  1.00  0.00    -0.352 N 
ATOM     29  C   UNL A   1      33.052  34.951  28.713  1.00  0.00     0.251 C 
ATOM     30  H   UNL A   1      31.829  34.637  27.157  1.00  0.00     0.163 HD
ATOM     31  O   UNL A   1      32.528  36.016  29.026  1.00  0.00    -0.269 OA
BRANCH  29  32
ATOM     32  C   UNL A   1      34.218  34.453  29.473  1.00  0.00     0.039 A 
ATOM     33  C   UNL A   1      34.005  33.833  30.706  1.00  0.00     0.014 A 
ATOM     34  C   UNL A   1      35.513  34.579  28.962  1.00  0.00     0.014 A 
ATOM     35  C   UNL A   1      35.085  33.278  31.395  1.00  0.00     0.010 A 
ATOM     36  C   UNL A   1      36.574  33.953  29.608  1.00  0.00     0.010 A 
ATOM     37  C   UNL A   1      36.371  33.299  30.833  1.00  0.00    -0.014 A 
BRANCH  37  38
ATOM     38  C   UNL A   1      37.515  32.634  31.506  1.00  0.00     0.031 A 
ATOM     39  C   UNL A   1      38.210  31.474  30.852  1.00  0.00     0.074 A 
ATOM     40  C   UNL A   1      37.877  33.023  32.742  1.00  0.00     0.049 A 
ATOM     41  N   UNL A   1      39.183  30.726  31.308  1.00  0.00    -0.248 NA
ATOM     42  C   UNL A   1      37.723  31.082  29.521  1.00  0.00     0.031 C 
ATOM     43  C   UNL A   1      37.236  34.092  33.511  1.00  0.00     0.029 A 
ATOM     44  N   UNL A   1      38.859  32.553  33.578  1.00  0.00    -0.354 N 
ATOM     45  C   UNL A   1      39.412  29.768  30.328  1.00  0.00     0.074 A 
ATOM     46  C   UNL A   1      38.436  29.991  29.284  1.00  0.00     0.031 C 
ATOM     47  C   UNL A   1      37.850  34.205  34.699  1.00  0.00     0.029 A 
ATOM     48  C   UNL A   1      38.901  33.196  34.791  1.00  0.00     0.049 A 
ATOM     49  H   UNL A   1      39.474  31.826  33.332  1.00  0.00     0.167 HD
ATOM     50  C   UNL A   1      40.365  28.806  30.293  1.00  0.00     0.037 A 
ATOM     51  C   UNL A   1      39.691  32.989  35.861  1.00  0.00     0.037 A 
ATOM     52  C   UNL A   1      41.342  28.598  31.329  1.00  0.00     0.049 A 
ATOM     53  C   UNL A   1      40.748  31.921  35.801  1.00  0.00     0.074 A 
ATOM     54  C   UNL A   1      42.396  27.702  31.357  1.00  0.00     0.029 A 
ATOM     55  N   UNL A   1      41.375  29.289  32.533  1.00  0.00    -0.354 N 
ATOM     56  N   UNL A   1      41.017  31.079  34.833  1.00  0.00    -0.248 NA
ATOM     57  C   UNL A   1      41.617  31.783  36.976  1.00  0.00     0.031 C 
ATOM     58  C   UNL A   1      43.031  27.810  32.600  1.00  0.00     0.029 A 
ATOM     59  C   UNL A   1      42.411  28.816  33.325  1.00  0.00     0.049 A 
ATOM     60  H   UNL A   1      40.753  30.008  32.789  1.00  0.00     0.167 HD
ATOM     61  C   UNL A   1      42.095  30.324  35.271  1.00  0.00     0.074 A 
ATOM     62  C   UNL A   1      42.442  30.820  36.588  1.00  0.00     0.031 C 
ATOM     63  C   UNL A   1      42.740  29.312  34.639  1.00  0.00     0.037 A 
BRANCH  50  64
ATOM     64  C   UNL A   1      40.382  27.901  29.093  1.00  0.00     0.064 A 
ATOM     65  C   UNL A   1      41.129  28.207  27.944  1.00  0.00     0.173 A 
ATOM     66  C   UNL A   1      39.636  26.712  29.087  1.00  0.00     0.173 A 
ATOM     67  F   UNL A   1      41.854  29.336  27.891  1.00  0.00    -0.203 F 
ATOM     68  C   UNL A   1      41.088  27.387  26.819  1.00  0.00     0.198 A 
ATOM     69  C   UNL A   1      39.627  25.875  27.974  1.00  0.00     0.198 A 
ATOM     70  F   UNL A   1      38.911  26.362  30.160  1.00  0.00    -0.203 F 
ATOM     71  F   UNL A   1      41.750  27.742  25.709  1.00  0.00    -0.200 F 
ATOM     72  C   UNL A   1      40.341  26.221  26.837  1.00  0.00     0.200 A 
ATOM     73  F   UNL A   1      38.916  24.739  27.998  1.00  0.00    -0.200 F 
ATOM     74  F   UNL A   1      40.297  25.434  25.751  1.00  0.00    -0.200 F 
ENDBRANCH  50  64
BRANCH  51  75
ATOM     75  C   UNL A   1      39.515  33.837  37.069  1.00  0.00     0.064 A 
ATOM     76  C   UNL A   1      40.076  35.119  37.138  1.00  0.00     0.173 A 
ATOM     77  C   UNL A   1      38.746  33.399  38.158  1.00  0.00     0.173 A 
ATOM     78  F   UNL A   1      40.835  35.574  36.130  1.00  0.00    -0.203 F 
ATOM     79  C   UNL A   1      39.879  35.930  38.254  1.00  0.00     0.198 A 
ATOM     80  C   UNL A   1      38.528  34.221  39.260  1.00  0.00     0.198 A 
ATOM     81  F   UNL A   1      38.182  32.182  38.135  1.00  0.00    -0.203 F 
ATOM     82  F   UNL A   1      40.449  37.142  38.308  1.00  0.00    -0.200 F 
ATOM     83  C   UNL A   1      39.097  35.485  39.309  1.00  0.00     0.200 A 
ATOM     84  F   UNL A   1      37.757  33.794  40.270  1.00  0.00    -0.200 F 
ATOM     85  F   UNL A   1      38.893  36.272  40.374  1.00  0.00    -0.200 F 
ENDBRANCH  51  75
BRANCH  63  86
ATOM     86  C   UNL A   1      43.902  28.682  35.353  1.00  0.00     0.064 A 
ATOM     87  C   UNL A   1      45.215  29.144  35.177  1.00  0.00     0.173 A 
ATOM     88  C   UNL A   1      43.694  27.626  36.255  1.00  0.00     0.173 A 
ATOM     89  F   UNL A   1      45.470  30.139  34.314  1.00  0.00    -0.203 F 
ATOM     90  C   UNL A   1      46.278  28.558  35.859  1.00  0.00     0.198 A 
ATOM     91  C   UNL A   1      44.755  27.065  36.960  1.00  0.00     0.198 A 
ATOM     92  F   UNL A   1      42.458  27.150  36.465  1.00  0.00    -0.203 F 
ATOM     93  F   UNL A   1      47.529  28.985  35.639  1.00  0.00    -0.200 F 
ATOM     94  C   UNL A   1      46.047  27.525  36.755  1.00  0.00     0.200 A 
ATOM     95  F   UNL A   1      44.527  26.077  37.836  1.00  0.00    -0.200 F 
ATOM     96  F   UNL A   1      47.070  26.969  37.418  1.00  0.00    -0.200 F 
ENDBRANCH  63  86
ENDBRANCH  37  38
ENDBRANCH  29  32
ENDBRANCH  27  28
ENDBRANCH  26  27
ENDBRANCH   1  26
TORSDOF 15
ENDMDL
MODEL 3
REMARK VINA RESULT:     -12.1      0.966      7.354
REMARK SMILES Cc1cnc(S[C@H]2CC[C@@]([NH2+]C(C)C)(C(=O)NCCCCNC(=O)c3ccc(-c4c5nc(c(-c6c(F)c(F)c(F)c(F)c6F)c6ccc([nH]6)c(-c6c(F)c(F)c(F)c(F)c6F)c6nc(c(-c7c(F)c(F)c(F)c(F)c7F)c7ccc4[nH]7)C=C6)C=C5)cc3)C2)nc1
REMARK SMILES IDX 19 1 18 2 17 3 15 4 16 5 10 7 7 8 8 9 88 10 9 11 6 12 5 13
REMARK SMILES IDX 1 14 2 15 3 16 90 17 4 18 89 19 11 20 12 23 13 24 14 25
REMARK SMILES IDX 20 26 21 27 22 28 23 29 24 31 25 32 26 33 87 34 27 35 86 36
REMARK SMILES IDX 28 37 29 38 30 39 80 40 31 41 85 42 79 43 81 44 32 45 84 46
REMARK SMILES IDX 78 47 77 48 33 50 65 51 45 52 64 53 46 54 49 55 63 56 82 57
REMARK SMILES IDX 47 58 48 59 62 61 83 62 50 63 34 64 35 65 43 66 36 67 37 68
REMARK SMILES IDX 41 69 44 70 38 71 39 72 42 73 40 74 66 75 67 76 75 77 68 78
REMARK SMILES IDX 69 79 73 80 76 81 70 82 71 83 74 84 72 85 51 86 52 87 60 88
REMARK SMILES IDX 53 89 54 90 58 91 61 92 55 93 56 94 59 95 57 96
REMARK H PARENT 17 6 11 21 11 22 22 30 81 49 49 60
REMARK Flexibility Score: inf
ROOT
ATOM      1  C   UNL A   1      31.365  31.226  25.815  1.00  0.00     0.023 C 
ENDROOT
BRANCH   1   2
ATOM      2  C   UNL A   1      32.271  29.995  25.859  1.00  0.00     0.116 C 
BRANCH   2   3
ATOM      3  N   UNL A   1      31.521  28.769  26.050  1.00  0.00    -0.351 N 
ATOM      4  C   UNL A   1      30.931  27.948  25.128  1.00  0.00     0.281 C 
ATOM      5  O   UNL A   1      30.571  26.838  25.534  1.00  0.00    -0.268 OA
ATOM      6  H   UNL A   1      31.420  28.484  26.988  1.00  0.00     0.163 HD
BRANCH   4   7
ATOM      7  C   UNL A   1      30.849  28.354  23.613  1.00  0.00     0.176 C 
ATOM      8  C   UNL A   1      32.874  27.501  22.470  1.00  0.00     0.062 C 
ATOM      9  C   UNL A   1      31.675  26.818  21.829  1.00  0.00     0.022 C 
ATOM     10  C   UNL A   1      32.224  28.779  23.029  1.00  0.00     0.094 C 
ATOM     11  C   UNL A   1      30.484  27.123  22.736  1.00  0.00     0.080 C 
BRANCH   8  12
ATOM     12  S   UNL A   1      33.638  26.576  23.848  1.00  0.00    -0.083 SA
BRANCH  12  13
ATOM     13  C   UNL A   1      33.311  24.882  23.483  1.00  0.00     0.187 A 
ATOM     14  C   UNL A   1      32.049  20.996  22.524  1.00  0.00     0.048 C 
ATOM     15  C   UNL A   1      32.518  22.362  22.884  1.00  0.00    -0.014 A 
ATOM     16  C   UNL A   1      33.522  23.013  22.195  1.00  0.00     0.119 A 
ATOM     17  C   UNL A   1      31.963  23.083  23.915  1.00  0.00     0.119 A 
ATOM     18  N   UNL A   1      33.941  24.266  22.472  1.00  0.00    -0.231 NA
ATOM     19  N   UNL A   1      32.338  24.332  24.229  1.00  0.00    -0.231 NA
ENDBRANCH  12  13
ENDBRANCH   8  12
BRANCH   7  20
ATOM     20  N   UNL A   1      29.823  29.428  23.470  1.00  0.00    -0.332 N 
ATOM     21  H   UNL A   1      30.307  30.286  23.210  1.00  0.00     0.347 HD
ATOM     22  H   UNL A   1      29.346  29.467  24.370  1.00  0.00     0.347 HD
BRANCH  20  23
ATOM     23  C   UNL A   1      28.760  29.193  22.475  1.00  0.00     0.176 C 
ATOM     24  C   UNL A   1      27.391  28.905  23.091  1.00  0.00     0.075 C 
ATOM     25  C   UNL A   1      28.667  30.445  21.597  1.00  0.00     0.075 C 
ENDBRANCH  20  23
ENDBRANCH   7  20
ENDBRANCH   4   7
ENDBRANCH   2   3
ENDBRANCH   1   2
BRANCH   1  26
ATOM     26  C   UNL A   1      31.414  32.104  27.065  1.00  0.00     0.023 C 
BRANCH  26  27
ATOM     27  C   UNL A   1      32.707  32.888  27.250  1.00  0.00     0.116 C 
BRANCH  27  28
ATOM     28  N   UNL A   1      32.479  34.260  27.681  1.00  0.00    -0.352 N 
ATOM     29  C   UNL A   1      33.092  34.968  28.685  1.00  0.00     0.251 C 
ATOM     30  H   UNL A   1      31.787  34.750  27.180  1.00  0.00     0.163 HD
ATOM     31  O   UNL A   1      32.674  36.076  29.007  1.00  0.00    -0.269 OA
BRANCH  29  32
ATOM     32  C   UNL A   1      34.241  34.376  29.404  1.00  0.00     0.039 A 
ATOM     33  C   UNL A   1      33.996  33.572  30.519  1.00  0.00     0.014 A 
ATOM     34  C   UNL A   1      35.550  34.599  28.968  1.00  0.00     0.014 A 
ATOM     35  C   UNL A   1      35.061  32.933  31.156  1.00  0.00     0.010 A 
ATOM     36  C   UNL A   1      36.600  33.897  29.552  1.00  0.00     0.010 A 
ATOM     37  C   UNL A   1      36.366  33.060  30.653  1.00  0.00    -0.014 A 
BRANCH  37  38
ATOM     38  C   UNL A   1      37.499  32.317  31.261  1.00  0.00     0.031 A 
ATOM     39  C   UNL A   1      38.006  32.690  32.624  1.00  0.00     0.074 A 
ATOM     40  C   UNL A   1      38.123  31.358  30.551  1.00  0.00     0.049 A 
ATOM     41  N   UNL A   1      39.021  32.203  33.294  1.00  0.00    -0.248 NA
ATOM     42  C   UNL A   1      37.298  33.779  33.314  1.00  0.00     0.031 C 
ATOM     43  C   UNL A   1      37.768  30.951  29.191  1.00  0.00     0.029 A 
ATOM     44  N   UNL A   1      39.198  30.566  30.867  1.00  0.00    -0.354 N 
ATOM     45  C   UNL A   1      39.081  32.935  34.472  1.00  0.00     0.074 A 
ATOM     46  C   UNL A   1      38.042  33.940  34.397  1.00  0.00     0.031 C 
ATOM     47  C   UNL A   1      38.601  29.976  28.794  1.00  0.00     0.029 A 
ATOM     48  C   UNL A   1      39.568  29.714  29.855  1.00  0.00     0.049 A 
ATOM     49  H   UNL A   1      39.659  30.604  31.736  1.00  0.00     0.167 HD
ATOM     50  C   UNL A   1      39.913  32.771  35.529  1.00  0.00     0.037 A 
ATOM     51  C   UNL A   1      40.581  28.830  29.786  1.00  0.00     0.037 A 
ATOM     52  C   UNL A   1      40.936  31.761  35.602  1.00  0.00     0.049 A 
ATOM     53  C   UNL A   1      41.489  28.656  30.972  1.00  0.00     0.074 A 
ATOM     54  C   UNL A   1      41.780  31.460  36.656  1.00  0.00     0.029 A 
ATOM     55  N   UNL A   1      41.264  30.894  34.569  1.00  0.00    -0.354 N 
ATOM     56  N   UNL A   1      41.482  29.291  32.119  1.00  0.00    -0.248 NA
ATOM     57  C   UNL A   1      42.538  27.634  30.858  1.00  0.00     0.031 C 
ATOM     58  C   UNL A   1      42.657  30.452  36.242  1.00  0.00     0.029 A 
ATOM     59  C   UNL A   1      42.321  30.080  34.949  1.00  0.00     0.049 A 
ATOM     60  H   UNL A   1      40.814  30.862  33.694  1.00  0.00     0.167 HD
ATOM     61  C   UNL A   1      42.508  28.737  32.869  1.00  0.00     0.074 A 
ATOM     62  C   UNL A   1      43.107  27.701  32.054  1.00  0.00     0.031 C 
ATOM     63  C   UNL A   1      42.915  29.058  34.123  1.00  0.00     0.037 A 
BRANCH  50  64
ATOM     64  C   UNL A   1      39.748  33.718  36.685  1.00  0.00     0.064 A 
ATOM     65  C   UNL A   1      38.928  33.410  37.783  1.00  0.00     0.173 A 
ATOM     66  C   UNL A   1      40.415  34.952  36.694  1.00  0.00     0.173 A 
ATOM     67  F   UNL A   1      38.260  32.247  37.823  1.00  0.00    -0.203 F 
ATOM     68  C   UNL A   1      38.741  34.323  38.819  1.00  0.00     0.198 A 
ATOM     69  C   UNL A   1      40.255  35.847  37.750  1.00  0.00     0.198 A 
ATOM     70  F   UNL A   1      41.219  35.296  35.677  1.00  0.00    -0.203 F 
ATOM     71  F   UNL A   1      37.895  34.036  39.817  1.00  0.00    -0.200 F 
ATOM     72  C   UNL A   1      39.407  35.538  38.803  1.00  0.00     0.200 A 
ATOM     73  F   UNL A   1      40.912  37.015  37.741  1.00  0.00    -0.200 F 
ATOM     74  F   UNL A   1      39.223  36.418  39.797  1.00  0.00    -0.200 F 
ENDBRANCH  50  64
BRANCH  51  75
ATOM     75  C   UNL A   1      40.764  28.030  28.547  1.00  0.00     0.064 A 
ATOM     76  C   UNL A   1      40.109  26.803  28.378  1.00  0.00     0.173 A 
ATOM     77  C   UNL A   1      41.560  28.498  27.491  1.00  0.00     0.173 A 
ATOM     78  F   UNL A   1      39.352  26.306  29.367  1.00  0.00    -0.203 F 
ATOM     79  C   UNL A   1      40.248  26.070  27.200  1.00  0.00     0.198 A 
ATOM     80  C   UNL A   1      41.677  27.778  26.305  1.00  0.00     0.198 A 
ATOM     81  F   UNL A   1      42.201  29.671  27.602  1.00  0.00    -0.203 F 
ATOM     82  F   UNL A   1      39.633  24.886  27.074  1.00  0.00    -0.200 F 
ATOM     83  C   UNL A   1      41.023  26.563  26.161  1.00  0.00     0.200 A 
ATOM     84  F   UNL A   1      42.412  28.266  25.296  1.00  0.00    -0.200 F 
ATOM     85  F   UNL A   1      41.142  25.867  25.022  1.00  0.00    -0.200 F 
ENDBRANCH  51  75
BRANCH  63  86
ATOM     86  C   UNL A   1      44.054  28.267  34.701  1.00  0.00     0.064 A 
ATOM     87  C   UNL A   1      43.845  27.045  35.358  1.00  0.00     0.173 A 
ATOM     88  C   UNL A   1      45.376  28.719  34.562  1.00  0.00     0.173 A 
ATOM     89  F   UNL A   1      42.600  26.576  35.533  1.00  0.00    -0.203 F 
ATOM     90  C   UNL A   1      44.914  26.317  35.874  1.00  0.00     0.198 A 
ATOM     91  C   UNL A   1      46.445  27.972  35.051  1.00  0.00     0.198 A 
ATOM     92  F   UNL A   1      45.632  29.877  33.937  1.00  0.00    -0.203 F 
ATOM     93  F   UNL A   1      44.686  25.176  36.541  1.00  0.00    -0.200 F 
ATOM     94  C   UNL A   1      46.213  26.777  35.714  1.00  0.00     0.200 A 
ATOM     95  F   UNL A   1      47.699  28.411  34.881  1.00  0.00    -0.200 F 
ATOM     96  F   UNL A   1      47.241  26.071  36.203  1.00  0.00    -0.200 F 
ENDBRANCH  63  86
ENDBRANCH  37  38
ENDBRANCH  29  32
ENDBRANCH  27  28
ENDBRANCH  26  27
ENDBRANCH   1  26
TORSDOF 15
ENDMDL
