MODEL 1
REMARK VINA RESULT:     -11.6      0.000      0.000
REMARK SMILES COC[C@H]1CC[N@@H+](Cc2ccc(C(=O)NCCCCNC(=O)c3ccc(-c4c5nc(c(-c6c(F)c(F)c(F)c(F)c6F)c6ccc([nH]6)c(-c6c(F)c(F)c(F)c(F)c6F)c6nc(c(-c7c(F)c(F)c(F)c(F)c7F)c7ccc4[nH]7)C=C6)C=C5)cc3)cn2)C1
REMARK SMILES IDX 16 1 15 2 13 3 14 4 12 6 9 7 10 8 87 9 11 10 86 11 8 12 7 13
REMARK SMILES IDX 4 14 5 15 88 16 6 17 3 19 2 20 1 21 17 22 18 23 19 24 20 25
REMARK SMILES IDX 21 26 22 28 23 29 24 30 85 31 25 32 84 33 26 34 27 35 28 36
REMARK SMILES IDX 78 37 29 38 83 39 77 40 79 41 30 42 82 43 76 44 75 45 31 47
REMARK SMILES IDX 63 48 43 49 62 50 44 51 47 52 61 53 80 54 45 55 46 56 60 58
REMARK SMILES IDX 81 59 48 60 32 61 33 62 41 63 34 64 35 65 39 66 42 67 36 68
REMARK SMILES IDX 37 69 40 70 38 71 64 72 65 73 73 74 66 75 67 76 71 77 74 78
REMARK SMILES IDX 68 79 69 80 72 81 70 82 49 83 50 84 58 85 51 86 52 87 56 88
REMARK SMILES IDX 59 89 53 90 54 91 57 92 55 93
REMARK H PARENT 15 5 7 18 20 27 79 46 47 57
REMARK Flexibility Score: inf
ROOT
ATOM      1  C   UNL A   1      32.855  30.137  26.447  1.00  0.00     0.116 C 
ENDROOT
BRANCH   1   2
ATOM      2  N   UNL A   1      33.545  29.707  25.243  1.00  0.00    -0.352 N 
ATOM      3  C   UNL A   1      33.574  28.488  24.609  1.00  0.00     0.252 C 
ATOM      4  O   UNL A   1      34.148  28.396  23.528  1.00  0.00    -0.269 OA
ATOM      5  H   UNL A   1      34.083  30.407  24.808  1.00  0.00     0.163 HD
BRANCH   3   6
ATOM      6  C   UNL A   1      32.870  27.310  25.154  1.00  0.00     0.058 A 
ATOM      7  C   UNL A   1      31.784  24.910  25.984  1.00  0.00     0.095 A 
ATOM      8  C   UNL A   1      30.937  25.931  25.556  1.00  0.00     0.030 A 
ATOM      9  N   UNL A   1      33.124  25.097  26.106  1.00  0.00    -0.255 NA
ATOM     10  C   UNL A   1      31.488  27.145  25.148  1.00  0.00     0.017 A 
ATOM     11  C   UNL A   1      33.632  26.288  25.702  1.00  0.00     0.125 A 
BRANCH   7  12
ATOM     12  C   UNL A   1      31.228  23.521  26.259  1.00  0.00     0.319 C 
BRANCH  12  13
ATOM     13  N   UNL A   1      31.195  22.554  25.139  1.00  0.00    -0.330 N 
ATOM     14  C   UNL A   1      32.797  22.576  23.316  1.00  0.00     0.076 C 
ATOM     15  C   UNL A   1      33.349  21.791  24.498  1.00  0.00     0.073 C 
ATOM     16  C   UNL A   1      31.443  23.117  23.807  1.00  0.00     0.268 C 
ATOM     17  C   UNL A   1      32.117  21.428  25.303  1.00  0.00     0.263 C 
ATOM     18  H   UNL A   1      30.225  22.240  25.185  1.00  0.00     0.348 HD
BRANCH  14  19
ATOM     19  C   UNL A   1      33.699  23.689  22.779  1.00  0.00     0.169 C 
BRANCH  19  20
ATOM     20  O   UNL A   1      33.248  24.287  21.566  1.00  0.00    -0.384 OA
ATOM     21  C   UNL A   1      32.840  25.643  21.692  1.00  0.00     0.194 C 
ENDBRANCH  19  20
ENDBRANCH  14  19
ENDBRANCH  12  13
ENDBRANCH   7  12
ENDBRANCH   3   6
ENDBRANCH   1   2
BRANCH   1  22
ATOM     22  C   UNL A   1      31.493  30.748  26.121  1.00  0.00     0.023 C 
BRANCH  22  23
ATOM     23  C   UNL A   1      31.345  32.213  26.532  1.00  0.00     0.023 C 
BRANCH  23  24
ATOM     24  C   UNL A   1      32.570  32.826  27.200  1.00  0.00     0.116 C 
BRANCH  24  25
ATOM     25  N   UNL A   1      32.352  34.190  27.653  1.00  0.00    -0.352 N 
ATOM     26  C   UNL A   1      33.008  34.895  28.633  1.00  0.00     0.251 C 
ATOM     27  H   UNL A   1      31.632  34.678  27.191  1.00  0.00     0.163 HD
ATOM     28  O   UNL A   1      32.602  35.997  28.974  1.00  0.00    -0.269 OA
BRANCH  26  29
ATOM     29  C   UNL A   1      34.190  34.304  29.299  1.00  0.00     0.039 A 
ATOM     30  C   UNL A   1      33.987  33.452  30.388  1.00  0.00     0.014 A 
ATOM     31  C   UNL A   1      35.485  34.581  28.855  1.00  0.00     0.014 A 
ATOM     32  C   UNL A   1      35.083  32.835  30.994  1.00  0.00     0.010 A 
ATOM     33  C   UNL A   1      36.567  33.899  29.406  1.00  0.00     0.010 A 
ATOM     34  C   UNL A   1      36.379  33.026  30.486  1.00  0.00    -0.014 A 
BRANCH  34  35
ATOM     35  C   UNL A   1      37.543  32.326  31.085  1.00  0.00     0.031 A 
ATOM     36  C   UNL A   1      38.029  32.701  32.458  1.00  0.00     0.074 A 
ATOM     37  C   UNL A   1      38.189  31.381  30.374  1.00  0.00     0.049 A 
ATOM     38  N   UNL A   1      39.036  32.219  33.141  1.00  0.00    -0.248 NA
ATOM     39  C   UNL A   1      37.303  33.781  33.146  1.00  0.00     0.031 C 
ATOM     40  C   UNL A   1      37.848  30.968  29.012  1.00  0.00     0.029 A 
ATOM     41  N   UNL A   1      39.270  30.599  30.697  1.00  0.00    -0.354 N 
ATOM     42  C   UNL A   1      39.070  32.939  34.327  1.00  0.00     0.074 A 
ATOM     43  C   UNL A   1      38.023  33.933  34.247  1.00  0.00     0.031 C 
ATOM     44  C   UNL A   1      38.678  29.985  28.630  1.00  0.00     0.029 A 
ATOM     45  C   UNL A   1      39.635  29.725  29.702  1.00  0.00     0.049 A 
ATOM     46  H   UNL A   1      39.740  30.659  31.561  1.00  0.00     0.167 HD
ATOM     47  C   UNL A   1      39.880  32.767  35.399  1.00  0.00     0.037 A 
ATOM     48  C   UNL A   1      40.629  28.818  29.660  1.00  0.00     0.037 A 
ATOM     49  C   UNL A   1      40.905  31.760  35.482  1.00  0.00     0.049 A 
ATOM     50  C   UNL A   1      41.523  28.655  30.860  1.00  0.00     0.074 A 
ATOM     51  C   UNL A   1      41.739  31.463  36.546  1.00  0.00     0.029 A 
ATOM     52  N   UNL A   1      41.242  30.889  34.456  1.00  0.00    -0.354 N 
ATOM     53  N   UNL A   1      41.491  29.286  32.009  1.00  0.00    -0.248 NA
ATOM     54  C   UNL A   1      42.587  27.647  30.760  1.00  0.00     0.031 C 
ATOM     55  C   UNL A   1      42.616  30.451  36.145  1.00  0.00     0.029 A 
ATOM     56  C   UNL A   1      42.289  30.073  34.853  1.00  0.00     0.049 A 
ATOM     57  H   UNL A   1      40.800  30.855  33.576  1.00  0.00     0.167 HD
ATOM     58  C   UNL A   1      42.505  28.730  32.779  1.00  0.00     0.074 A 
ATOM     59  C   UNL A   1      43.124  27.700  31.970  1.00  0.00     0.031 C 
ATOM     60  C   UNL A   1      42.889  29.045  34.039  1.00  0.00     0.037 A 
BRANCH  47  61
ATOM     61  C   UNL A   1      39.689  33.686  36.571  1.00  0.00     0.064 A 
ATOM     62  C   UNL A   1      40.308  34.946  36.629  1.00  0.00     0.173 A 
ATOM     63  C   UNL A   1      38.848  33.322  37.633  1.00  0.00     0.173 A 
ATOM     64  F   UNL A   1      41.130  35.340  35.645  1.00  0.00    -0.203 F 
ATOM     65  C   UNL A   1      40.116  35.790  37.720  1.00  0.00     0.198 A 
ATOM     66  C   UNL A   1      38.632  34.182  38.706  1.00  0.00     0.198 A 
ATOM     67  F   UNL A   1      38.226  32.133  37.627  1.00  0.00    -0.203 F 
ATOM     68  F   UNL A   1      40.760  36.964  37.778  1.00  0.00    -0.200 F 
ATOM     69  C   UNL A   1      39.272  35.411  38.754  1.00  0.00     0.200 A 
ATOM     70  F   UNL A   1      37.805  33.822  39.697  1.00  0.00    -0.200 F 
ATOM     71  F   UNL A   1      39.082  36.228  39.799  1.00  0.00    -0.200 F 
ENDBRANCH  47  61
BRANCH  48  72
ATOM     72  C   UNL A   1      40.815  27.971  28.451  1.00  0.00     0.064 A 
ATOM     73  C   UNL A   1      41.596  28.415  27.374  1.00  0.00     0.173 A 
ATOM     74  C   UNL A   1      40.210  26.711  28.342  1.00  0.00     0.173 A 
ATOM     75  F   UNL A   1      42.180  29.621  27.424  1.00  0.00    -0.203 F 
ATOM     76  C   UNL A   1      41.744  27.641  26.225  1.00  0.00     0.198 A 
ATOM     77  C   UNL A   1      40.384  25.925  27.204  1.00  0.00     0.198 A 
ATOM     78  F   UNL A   1      39.457  26.237  29.345  1.00  0.00    -0.203 F 
ATOM     79  F   UNL A   1      42.453  28.112  25.190  1.00  0.00    -0.200 F 
ATOM     80  C   UNL A   1      41.141  26.395  26.143  1.00  0.00     0.200 A 
ATOM     81  F   UNL A   1      39.814  24.714  27.135  1.00  0.00    -0.200 F 
ATOM     82  F   UNL A   1      41.286  25.650  25.037  1.00  0.00    -0.200 F 
ENDBRANCH  48  72
BRANCH  60  83
ATOM     83  C   UNL A   1      44.005  28.240  34.642  1.00  0.00     0.064 A 
ATOM     84  C   UNL A   1      43.765  27.039  35.324  1.00  0.00     0.173 A 
ATOM     85  C   UNL A   1      45.337  28.658  34.499  1.00  0.00     0.173 A 
ATOM     86  F   UNL A   1      42.509  26.602  35.501  1.00  0.00    -0.203 F 
ATOM     87  C   UNL A   1      44.814  26.300  35.866  1.00  0.00     0.198 A 
ATOM     88  C   UNL A   1      46.387  27.900  35.010  1.00  0.00     0.198 A 
ATOM     89  F   UNL A   1      45.623  29.796  33.848  1.00  0.00    -0.203 F 
ATOM     90  F   UNL A   1      44.557  25.183  36.558  1.00  0.00    -0.200 F 
ATOM     91  C   UNL A   1      46.123  26.727  35.700  1.00  0.00     0.200 A 
ATOM     92  F   UNL A   1      47.651  28.305  34.836  1.00  0.00    -0.200 F 
ATOM     93  F   UNL A   1      47.133  26.010  36.214  1.00  0.00    -0.200 F 
ENDBRANCH  60  83
ENDBRANCH  34  35
ENDBRANCH  26  29
ENDBRANCH  24  25
ENDBRANCH  23  24
ENDBRANCH  22  23
ENDBRANCH   1  22
TORSDOF 15
ENDMDL
MODEL 2
REMARK VINA RESULT:     -11.2      4.486      8.265
REMARK SMILES COC[C@H]1CC[N@@H+](Cc2ccc(C(=O)NCCCCNC(=O)c3ccc(-c4c5nc(c(-c6c(F)c(F)c(F)c(F)c6F)c6ccc([nH]6)c(-c6c(F)c(F)c(F)c(F)c6F)c6nc(c(-c7c(F)c(F)c(F)c(F)c7F)c7ccc4[nH]7)C=C6)C=C5)cc3)cn2)C1
REMARK SMILES IDX 16 1 15 2 13 3 14 4 12 6 9 7 10 8 87 9 11 10 86 11 8 12 7 13
REMARK SMILES IDX 4 14 5 15 88 16 6 17 3 19 2 20 1 21 17 22 18 23 19 24 20 25
REMARK SMILES IDX 21 26 22 28 23 29 24 30 85 31 25 32 84 33 26 34 27 35 28 36
REMARK SMILES IDX 78 37 29 38 83 39 77 40 79 41 30 42 82 43 76 44 75 45 31 47
REMARK SMILES IDX 63 48 43 49 62 50 44 51 47 52 61 53 80 54 45 55 46 56 60 58
REMARK SMILES IDX 81 59 48 60 32 61 33 62 41 63 34 64 35 65 39 66 42 67 36 68
REMARK SMILES IDX 37 69 40 70 38 71 64 72 65 73 73 74 66 75 67 76 71 77 74 78
REMARK SMILES IDX 68 79 69 80 72 81 70 82 49 83 50 84 58 85 51 86 52 87 56 88
REMARK SMILES IDX 59 89 53 90 54 91 57 92 55 93
REMARK H PARENT 15 5 7 18 20 27 79 46 47 57
REMARK Flexibility Score: inf
ROOT
ATOM      1  C   UNL A   1      38.220  34.115  30.018  1.00  0.00     0.116 C 
ENDROOT
BRANCH   1   2
ATOM      2  N   UNL A   1      37.449  34.626  31.138  1.00  0.00    -0.352 N 
ATOM      3  C   UNL A   1      37.278  34.136  32.411  1.00  0.00     0.252 C 
ATOM      4  O   UNL A   1      36.660  34.813  33.228  1.00  0.00    -0.269 OA
ATOM      5  H   UNL A   1      36.969  35.466  30.955  1.00  0.00     0.163 HD
BRANCH   3   6
ATOM      6  C   UNL A   1      37.881  32.858  32.841  1.00  0.00     0.058 A 
ATOM      7  C   UNL A   1      39.285  30.556  33.437  1.00  0.00     0.095 A 
ATOM      8  C   UNL A   1      37.931  30.467  33.119  1.00  0.00     0.030 A 
ATOM      9  N   UNL A   1      39.911  31.755  33.567  1.00  0.00    -0.255 NA
ATOM     10  C   UNL A   1      37.222  31.632  32.828  1.00  0.00     0.017 A 
ATOM     11  C   UNL A   1      39.197  32.872  33.279  1.00  0.00     0.125 A 
BRANCH   7  12
ATOM     12  C   UNL A   1      40.122  29.294  33.577  1.00  0.00     0.319 C 
BRANCH  12  13
ATOM     13  N   UNL A   1      41.450  29.411  34.218  1.00  0.00    -0.330 N 
ATOM     14  C   UNL A   1      42.329  27.760  35.765  1.00  0.00     0.076 C 
ATOM     15  C   UNL A   1      42.620  27.349  34.329  1.00  0.00     0.073 C 
ATOM     16  C   UNL A   1      41.503  29.051  35.640  1.00  0.00     0.268 C 
ATOM     17  C   UNL A   1      42.500  28.641  33.546  1.00  0.00     0.263 C 
ATOM     18  H   UNL A   1      41.620  30.413  34.128  1.00  0.00     0.348 HD
BRANCH  14  19
ATOM     19  C   UNL A   1      41.625  26.709  36.627  1.00  0.00     0.169 C 
BRANCH  19  20
ATOM     20  O   UNL A   1      40.912  25.718  35.892  1.00  0.00    -0.384 OA
ATOM     21  C   UNL A   1      41.529  24.437  35.876  1.00  0.00     0.194 C 
ENDBRANCH  19  20
ENDBRANCH  14  19
ENDBRANCH  12  13
ENDBRANCH   7  12
ENDBRANCH   3   6
ENDBRANCH   1   2
BRANCH   1  22
ATOM     22  C   UNL A   1      37.354  33.271  29.084  1.00  0.00     0.023 C 
BRANCH  22  23
ATOM     23  C   UNL A   1      35.849  33.478  29.261  1.00  0.00     0.023 C 
BRANCH  23  24
ATOM     24  C   UNL A   1      35.110  32.322  29.923  1.00  0.00     0.116 C 
BRANCH  24  25
ATOM     25  N   UNL A   1      34.397  31.481  28.975  1.00  0.00    -0.352 N 
ATOM     26  C   UNL A   1      34.864  30.432  28.220  1.00  0.00     0.251 C 
ATOM     27  H   UNL A   1      33.442  31.694  28.857  1.00  0.00     0.163 HD
ATOM     28  O   UNL A   1      34.149  29.919  27.371  1.00  0.00    -0.269 OA
BRANCH  26  29
ATOM     29  C   UNL A   1      36.248  29.945  28.415  1.00  0.00     0.039 A 
ATOM     30  C   UNL A   1      37.162  30.092  27.370  1.00  0.00     0.014 A 
ATOM     31  C   UNL A   1      36.644  29.352  29.617  1.00  0.00     0.014 A 
ATOM     32  C   UNL A   1      38.488  29.696  27.551  1.00  0.00     0.010 A 
ATOM     33  C   UNL A   1      37.984  29.036  29.825  1.00  0.00     0.010 A 
ATOM     34  C   UNL A   1      38.918  29.196  28.792  1.00  0.00    -0.014 A 
BRANCH  34  35
ATOM     35  C   UNL A   1      40.339  28.828  29.015  1.00  0.00     0.031 A 
ATOM     36  C   UNL A   1      41.269  29.783  29.710  1.00  0.00     0.074 A 
ATOM     37  C   UNL A   1      40.802  27.650  28.553  1.00  0.00     0.049 A 
ATOM     38  N   UNL A   1      42.543  29.650  29.981  1.00  0.00    -0.248 NA
ATOM     39  C   UNL A   1      40.699  31.073  30.136  1.00  0.00     0.031 C 
ATOM     40  C   UNL A   1      40.012  26.663  27.815  1.00  0.00     0.029 A 
ATOM     41  N   UNL A   1      42.050  27.084  28.632  1.00  0.00    -0.354 N 
ATOM     42  C   UNL A   1      42.926  30.835  30.596  1.00  0.00     0.074 A 
ATOM     43  C   UNL A   1      41.768  31.701  30.602  1.00  0.00     0.031 C 
ATOM     44  C   UNL A   1      40.783  25.599  27.541  1.00  0.00     0.029 A 
ATOM     45  C   UNL A   1      42.130  25.844  28.048  1.00  0.00     0.049 A 
ATOM     46  H   UNL A   1      42.815  27.526  29.068  1.00  0.00     0.167 HD
ATOM     47  C   UNL A   1      44.126  31.160  31.133  1.00  0.00     0.037 A 
ATOM     48  C   UNL A   1      43.173  25.000  27.934  1.00  0.00     0.037 A 
ATOM     49  C   UNL A   1      45.269  30.285  31.145  1.00  0.00     0.049 A 
ATOM     50  C   UNL A   1      44.500  25.390  28.530  1.00  0.00     0.074 A 
ATOM     51  C   UNL A   1      46.511  30.495  31.717  1.00  0.00     0.029 A 
ATOM     52  N   UNL A   1      45.311  29.033  30.548  1.00  0.00    -0.354 N 
ATOM     53  N   UNL A   1      44.826  26.480  29.183  1.00  0.00    -0.248 NA
ATOM     54  C   UNL A   1      45.601  24.429  28.380  1.00  0.00     0.031 C 
ATOM     55  C   UNL A   1      47.322  29.396  31.420  1.00  0.00     0.029 A 
ATOM     56  C   UNL A   1      46.567  28.472  30.714  1.00  0.00     0.049 A 
ATOM     57  H   UNL A   1      44.559  28.607  30.076  1.00  0.00     0.167 HD
ATOM     58  C   UNL A   1      46.157  26.321  29.549  1.00  0.00     0.074 A 
ATOM     59  C   UNL A   1      46.572  25.023  29.058  1.00  0.00     0.031 C 
ATOM     60  C   UNL A   1      46.962  27.174  30.229  1.00  0.00     0.037 A 
BRANCH  47  61
ATOM     61  C   UNL A   1      44.264  32.519  31.758  1.00  0.00     0.064 A 
ATOM     62  C   UNL A   1      44.620  33.647  30.999  1.00  0.00     0.173 A 
ATOM     63  C   UNL A   1      44.002  32.706  33.123  1.00  0.00     0.173 A 
ATOM     64  F   UNL A   1      44.892  33.522  29.691  1.00  0.00    -0.203 F 
ATOM     65  C   UNL A   1      44.738  34.901  31.591  1.00  0.00     0.198 A 
ATOM     66  C   UNL A   1      44.089  33.969  33.704  1.00  0.00     0.198 A 
ATOM     67  F   UNL A   1      43.652  31.666  33.894  1.00  0.00    -0.203 F 
ATOM     68  F   UNL A   1      45.132  35.952  30.857  1.00  0.00    -0.200 F 
ATOM     69  C   UNL A   1      44.465  35.063  32.941  1.00  0.00     0.200 A 
ATOM     70  F   UNL A   1      43.809  34.126  35.006  1.00  0.00    -0.200 F 
ATOM     71  F   UNL A   1      44.571  36.273  33.507  1.00  0.00    -0.200 F 
ENDBRANCH  47  61
BRANCH  48  72
ATOM     72  C   UNL A   1      43.002  23.689  27.253  1.00  0.00     0.064 A 
ATOM     73  C   UNL A   1      42.421  22.601  27.921  1.00  0.00     0.173 A 
ATOM     74  C   UNL A   1      43.423  23.491  25.930  1.00  0.00     0.173 A 
ATOM     75  F   UNL A   1      42.019  22.735  29.193  1.00  0.00    -0.203 F 
ATOM     76  C   UNL A   1      42.291  21.361  27.300  1.00  0.00     0.198 A 
ATOM     77  C   UNL A   1      43.265  22.259  25.300  1.00  0.00     0.198 A 
ATOM     78  F   UNL A   1      43.980  24.500  25.244  1.00  0.00    -0.203 F 
ATOM     79  F   UNL A   1      41.780  20.325  27.979  1.00  0.00    -0.200 F 
ATOM     80  C   UNL A   1      42.709  21.191  25.989  1.00  0.00     0.200 A 
ATOM     81  F   UNL A   1      43.655  22.104  24.028  1.00  0.00    -0.200 F 
ATOM     82  F   UNL A   1      42.582  19.998  25.392  1.00  0.00    -0.200 F 
ENDBRANCH  48  72
BRANCH  60  83
ATOM     83  C   UNL A   1      48.362  26.716  30.521  1.00  0.00     0.064 A 
ATOM     84  C   UNL A   1      49.438  27.052  29.687  1.00  0.00     0.173 A 
ATOM     85  C   UNL A   1      48.636  25.965  31.675  1.00  0.00     0.173 A 
ATOM     86  F   UNL A   1      49.229  27.755  28.564  1.00  0.00    -0.203 F 
ATOM     87  C   UNL A   1      50.732  26.628  29.982  1.00  0.00     0.198 A 
ATOM     88  C   UNL A   1      49.935  25.573  31.985  1.00  0.00     0.198 A 
ATOM     89  F   UNL A   1      47.644  25.624  32.511  1.00  0.00    -0.203 F 
ATOM     90  F   UNL A   1      51.736  26.916  29.143  1.00  0.00    -0.200 F 
ATOM     91  C   UNL A   1      50.980  25.898  31.134  1.00  0.00     0.200 A 
ATOM     92  F   UNL A   1      50.174  24.882  33.107  1.00  0.00    -0.200 F 
ATOM     93  F   UNL A   1      52.227  25.499  31.421  1.00  0.00    -0.200 F 
ENDBRANCH  60  83
ENDBRANCH  34  35
ENDBRANCH  26  29
ENDBRANCH  24  25
ENDBRANCH  23  24
ENDBRANCH  22  23
ENDBRANCH   1  22
TORSDOF 15
ENDMDL
MODEL 3
REMARK VINA RESULT:     -11.1      3.614      8.729
REMARK SMILES COC[C@H]1CC[N@@H+](Cc2ccc(C(=O)NCCCCNC(=O)c3ccc(-c4c5nc(c(-c6c(F)c(F)c(F)c(F)c6F)c6ccc([nH]6)c(-c6c(F)c(F)c(F)c(F)c6F)c6nc(c(-c7c(F)c(F)c(F)c(F)c7F)c7ccc4[nH]7)C=C6)C=C5)cc3)cn2)C1
REMARK SMILES IDX 16 1 15 2 13 3 14 4 12 6 9 7 10 8 87 9 11 10 86 11 8 12 7 13
REMARK SMILES IDX 4 14 5 15 88 16 6 17 3 19 2 20 1 21 17 22 18 23 19 24 20 25
REMARK SMILES IDX 21 26 22 28 23 29 24 30 85 31 25 32 84 33 26 34 27 35 28 36
REMARK SMILES IDX 78 37 29 38 83 39 77 40 79 41 30 42 82 43 76 44 75 45 31 47
REMARK SMILES IDX 63 48 43 49 62 50 44 51 47 52 61 53 80 54 45 55 46 56 60 58
REMARK SMILES IDX 81 59 48 60 32 61 33 62 41 63 34 64 35 65 39 66 42 67 36 68
REMARK SMILES IDX 37 69 40 70 38 71 64 72 65 73 73 74 66 75 67 76 71 77 74 78
REMARK SMILES IDX 68 79 69 80 72 81 70 82 49 83 50 84 58 85 51 86 52 87 56 88
REMARK SMILES IDX 59 89 53 90 54 91 57 92 55 93
REMARK H PARENT 15 5 7 18 20 27 79 46 47 57
REMARK Flexibility Score: inf
ROOT
ATOM      1  C   UNL A   1      34.272  21.467  27.014  1.00  0.00     0.116 C 
ENDROOT
BRANCH   1   2
ATOM      2  N   UNL A   1      33.570  20.434  26.272  1.00  0.00    -0.352 N 
ATOM      3  C   UNL A   1      32.500  20.513  25.413  1.00  0.00     0.252 C 
ATOM      4  O   UNL A   1      32.147  19.502  24.811  1.00  0.00    -0.269 OA
ATOM      5  H   UNL A   1      33.919  19.523  26.408  1.00  0.00     0.163 HD
BRANCH   3   6
ATOM      6  C   UNL A   1      31.815  21.792  25.137  1.00  0.00     0.058 A 
ATOM      7  C   UNL A   1      30.837  24.284  24.459  1.00  0.00     0.095 A 
ATOM      8  C   UNL A   1      30.645  23.805  25.753  1.00  0.00     0.030 A 
ATOM      9  N   UNL A   1      31.399  23.517  23.488  1.00  0.00    -0.255 NA
ATOM     10  C   UNL A   1      31.131  22.542  26.090  1.00  0.00     0.017 A 
ATOM     11  C   UNL A   1      31.863  22.292  23.844  1.00  0.00     0.125 A 
BRANCH   7  12
ATOM     12  C   UNL A   1      30.484  25.723  24.117  1.00  0.00     0.319 C 
BRANCH  12  13
ATOM     13  N   UNL A   1      31.354  26.795  24.648  1.00  0.00    -0.330 N 
ATOM     14  C   UNL A   1      33.058  27.904  23.323  1.00  0.00     0.076 C 
ATOM     15  C   UNL A   1      31.705  28.566  23.107  1.00  0.00     0.073 C 
ATOM     16  C   UNL A   1      32.767  26.719  24.259  1.00  0.00     0.268 C 
ATOM     17  C   UNL A   1      30.895  28.147  24.318  1.00  0.00     0.263 C 
ATOM     18  H   UNL A   1      31.282  26.622  25.651  1.00  0.00     0.348 HD
BRANCH  14  19
ATOM     19  C   UNL A   1      33.793  27.467  22.054  1.00  0.00     0.169 C 
BRANCH  19  20
ATOM     20  O   UNL A   1      33.725  26.070  21.779  1.00  0.00    -0.384 OA
ATOM     21  C   UNL A   1      32.700  25.697  20.866  1.00  0.00     0.194 C 
ENDBRANCH  19  20
ENDBRANCH  14  19
ENDBRANCH  12  13
ENDBRANCH   7  12
ENDBRANCH   3   6
ENDBRANCH   1   2
BRANCH   1  22
ATOM     22  C   UNL A   1      35.572  21.866  26.319  1.00  0.00     0.023 C 
BRANCH  22  23
ATOM     23  C   UNL A   1      35.730  23.370  26.092  1.00  0.00     0.023 C 
BRANCH  23  24
ATOM     24  C   UNL A   1      37.010  23.786  25.377  1.00  0.00     0.116 C 
BRANCH  24  25
ATOM     25  N   UNL A   1      38.105  22.851  25.574  1.00  0.00    -0.352 N 
ATOM     26  C   UNL A   1      39.321  23.051  26.182  1.00  0.00     0.251 C 
ATOM     27  H   UNL A   1      37.954  21.943  25.221  1.00  0.00     0.163 HD
ATOM     28  O   UNL A   1      40.180  22.182  26.140  1.00  0.00    -0.269 OA
BRANCH  26  29
ATOM     29  C   UNL A   1      39.600  24.336  26.861  1.00  0.00     0.039 A 
ATOM     30  C   UNL A   1      39.215  24.485  28.195  1.00  0.00     0.014 A 
ATOM     31  C   UNL A   1      40.238  25.384  26.193  1.00  0.00     0.014 A 
ATOM     32  C   UNL A   1      39.521  25.665  28.874  1.00  0.00     0.010 A 
ATOM     33  C   UNL A   1      40.618  26.525  26.894  1.00  0.00     0.010 A 
ATOM     34  C   UNL A   1      40.255  26.682  28.240  1.00  0.00    -0.014 A 
BRANCH  34  35
ATOM     35  C   UNL A   1      40.639  27.915  28.972  1.00  0.00     0.031 A 
ATOM     36  C   UNL A   1      42.030  28.069  29.521  1.00  0.00     0.074 A 
ATOM     37  C   UNL A   1      39.721  28.880  29.177  1.00  0.00     0.049 A 
ATOM     38  N   UNL A   1      42.548  29.061  30.201  1.00  0.00    -0.248 NA
ATOM     39  C   UNL A   1      42.958  26.946  29.302  1.00  0.00     0.031 C 
ATOM     40  C   UNL A   1      38.325  28.825  28.741  1.00  0.00     0.029 A 
ATOM     41  N   UNL A   1      39.823  30.095  29.808  1.00  0.00    -0.354 N 
ATOM     42  C   UNL A   1      43.851  28.679  30.496  1.00  0.00     0.074 A 
ATOM     43  C   UNL A   1      44.026  27.341  29.978  1.00  0.00     0.031 C 
ATOM     44  C   UNL A   1      37.711  29.967  29.085  1.00  0.00     0.029 A 
ATOM     45  C   UNL A   1      38.657  30.820  29.800  1.00  0.00     0.049 A 
ATOM     46  H   UNL A   1      40.655  30.416  30.227  1.00  0.00     0.167 HD
ATOM     47  C   UNL A   1      44.821  29.392  31.116  1.00  0.00     0.037 A 
ATOM     48  C   UNL A   1      38.382  32.034  30.312  1.00  0.00     0.037 A 
ATOM     49  C   UNL A   1      44.647  30.733  31.609  1.00  0.00     0.049 A 
ATOM     50  C   UNL A   1      39.475  32.801  31.007  1.00  0.00     0.074 A 
ATOM     51  C   UNL A   1      45.584  31.565  32.197  1.00  0.00     0.029 A 
ATOM     52  N   UNL A   1      43.452  31.438  31.578  1.00  0.00    -0.354 N 
ATOM     53  N   UNL A   1      40.726  32.463  31.206  1.00  0.00    -0.248 NA
ATOM     54  C   UNL A   1      39.119  34.122  31.541  1.00  0.00     0.031 C 
ATOM     55  C   UNL A   1      44.944  32.750  32.572  1.00  0.00     0.029 A 
ATOM     56  C   UNL A   1      43.622  32.683  32.162  1.00  0.00     0.049 A 
ATOM     57  H   UNL A   1      42.608  31.102  31.196  1.00  0.00     0.167 HD
ATOM     58  C   UNL A   1      41.314  33.540  31.857  1.00  0.00     0.074 A 
ATOM     59  C   UNL A   1      40.286  34.549  32.005  1.00  0.00     0.031 C 
ATOM     60  C   UNL A   1      42.589  33.680  32.293  1.00  0.00     0.037 A 
BRANCH  47  61
ATOM     61  C   UNL A   1      46.160  28.737  31.294  1.00  0.00     0.064 A 
ATOM     62  C   UNL A   1      47.171  28.848  30.324  1.00  0.00     0.173 A 
ATOM     63  C   UNL A   1      46.453  28.020  32.463  1.00  0.00     0.173 A 
ATOM     64  F   UNL A   1      46.941  29.514  29.183  1.00  0.00    -0.203 F 
ATOM     65  C   UNL A   1      48.410  28.239  30.507  1.00  0.00     0.198 A 
ATOM     66  C   UNL A   1      47.704  27.440  32.657  1.00  0.00     0.198 A 
ATOM     67  F   UNL A   1      45.527  27.886  33.425  1.00  0.00    -0.203 F 
ATOM     68  F   UNL A   1      49.339  28.314  29.543  1.00  0.00    -0.200 F 
ATOM     69  C   UNL A   1      48.679  27.543  31.676  1.00  0.00     0.200 A 
ATOM     70  F   UNL A   1      47.968  26.781  33.793  1.00  0.00    -0.200 F 
ATOM     71  F   UNL A   1      49.875  26.965  31.853  1.00  0.00    -0.200 F 
ENDBRANCH  47  61
BRANCH  48  72
ATOM     72  C   UNL A   1      37.021  32.616  30.162  1.00  0.00     0.064 A 
ATOM     73  C   UNL A   1      36.063  32.479  31.176  1.00  0.00     0.173 A 
ATOM     74  C   UNL A   1      36.647  33.310  29.002  1.00  0.00     0.173 A 
ATOM     75  F   UNL A   1      36.367  31.808  32.297  1.00  0.00    -0.203 F 
ATOM     76  C   UNL A   1      34.776  32.990  31.025  1.00  0.00     0.198 A 
ATOM     77  C   UNL A   1      35.369  33.848  28.865  1.00  0.00     0.198 A 
ATOM     78  F   UNL A   1      37.527  33.475  28.003  1.00  0.00    -0.203 F 
ATOM     79  F   UNL A   1      33.865  32.798  31.989  1.00  0.00    -0.200 F 
ATOM     80  C   UNL A   1      34.431  33.678  29.872  1.00  0.00     0.200 A 
ATOM     81  F   UNL A   1      35.044  34.526  27.756  1.00  0.00    -0.200 F 
ATOM     82  F   UNL A   1      33.193  34.172  29.729  1.00  0.00    -0.200 F 
ENDBRANCH  48  72
BRANCH  60  83
ATOM     83  C   UNL A   1      42.959  34.987  32.936  1.00  0.00     0.064 A 
ATOM     84  C   UNL A   1      43.437  36.070  32.185  1.00  0.00     0.173 A 
ATOM     85  C   UNL A   1      42.792  35.169  34.318  1.00  0.00     0.173 A 
ATOM     86  F   UNL A   1      43.628  35.945  30.863  1.00  0.00    -0.203 F 
ATOM     87  C   UNL A   1      43.764  37.278  32.798  1.00  0.00     0.198 A 
ATOM     88  C   UNL A   1      43.086  36.388  34.922  1.00  0.00     0.198 A 
ATOM     89  F   UNL A   1      42.330  34.167  35.081  1.00  0.00    -0.203 F 
ATOM     90  F   UNL A   1      44.268  38.282  32.069  1.00  0.00    -0.200 F 
ATOM     91  C   UNL A   1      43.579  37.438  34.163  1.00  0.00     0.200 A 
ATOM     92  F   UNL A   1      42.892  36.545  36.238  1.00  0.00    -0.200 F 
ATOM     93  F   UNL A   1      43.884  38.604  34.750  1.00  0.00    -0.200 F 
ENDBRANCH  60  83
ENDBRANCH  34  35
ENDBRANCH  26  29
ENDBRANCH  24  25
ENDBRANCH  23  24
ENDBRANCH  22  23
ENDBRANCH   1  22
TORSDOF 15
ENDMDL
