MODEL 1
REMARK VINA RESULT:     -12.6      0.000      0.000
REMARK SMILES O=C(NCCCCNC(=O)[C@H]1C=C[C@H](NC(=O)[C@]23C[C@H]4C[C@H](C[C@H](C4)C2)C3)C1)c1ccc(-c2c3nc(c(-c4c(F)c(F)c(F)c(F)c4F)c4ccc([nH]4)c(-c4c(F)c(F)c(F)c(F)c4F)c4nc(c(-c5c(F)c(F)c(F)c(F)c5F)c5ccc2[nH]5)C=C4)C=C3)cc1
REMARK SMILES IDX 5 1 4 2 3 3 1 4 2 5 29 7 30 8 91 9 31 10 90 11 32 12 33 13
REMARK SMILES IDX 34 14 84 15 35 16 89 17 83 18 85 19 36 20 88 21 82 22 81 23
REMARK SMILES IDX 37 25 69 26 49 27 68 28 50 29 53 30 67 31 86 32 51 33 52 34
REMARK SMILES IDX 66 36 87 37 54 38 38 39 39 40 47 41 40 42 41 43 45 44 48 45
REMARK SMILES IDX 42 46 43 47 46 48 44 49 70 50 71 51 79 52 72 53 73 54 77 55
REMARK SMILES IDX 80 56 74 57 75 58 78 59 76 60 55 61 56 62 64 63 57 64 58 65
REMARK SMILES IDX 62 66 65 67 59 68 60 69 63 70 61 71 6 72 7 73 8 74 9 75
REMARK SMILES IDX 10 77 11 78 12 79 28 80 13 81 14 82 15 83 16 84 17 86 18 87
REMARK SMILES IDX 19 88 26 89 27 90 20 91 24 92 22 93 21 94 25 95 23 96
REMARK H PARENT 3 6 85 24 53 35 8 76 15 85
REMARK Flexibility Score: inf
ROOT
ATOM      1  C   UNL A   1      35.326  23.092  25.709  1.00  0.00     0.023 C 
ENDROOT
BRANCH   1   2
ATOM      2  C   UNL A   1      36.679  23.746  25.953  1.00  0.00     0.116 C 
BRANCH   2   3
ATOM      3  N   UNL A   1      37.765  22.779  25.980  1.00  0.00    -0.352 N 
ATOM      4  O   UNL A   1      39.916  22.106  26.156  1.00  0.00    -0.269 OA
ATOM      5  C   UNL A   1      39.072  22.975  26.355  1.00  0.00     0.251 C 
ATOM      6  H   UNL A   1      37.534  21.866  25.693  1.00  0.00     0.163 HD
BRANCH   5   7
ATOM      7  C   UNL A   1      39.461  24.253  26.988  1.00  0.00     0.039 A 
ATOM      8  C   UNL A   1      39.167  24.492  28.334  1.00  0.00     0.014 A 
ATOM      9  C   UNL A   1      40.132  25.217  26.232  1.00  0.00     0.014 A 
ATOM     10  C   UNL A   1      39.435  25.737  28.890  1.00  0.00     0.010 A 
ATOM     11  C   UNL A   1      40.482  26.437  26.819  1.00  0.00     0.010 A 
ATOM     12  C   UNL A   1      40.127  26.708  28.150  1.00  0.00    -0.014 A 
BRANCH  12  13
ATOM     13  C   UNL A   1      40.591  27.940  28.833  1.00  0.00     0.031 A 
ATOM     14  C   UNL A   1      41.994  28.076  29.348  1.00  0.00     0.074 A 
ATOM     15  C   UNL A   1      39.704  28.943  28.990  1.00  0.00     0.049 A 
ATOM     16  N   UNL A   1      42.536  29.080  29.991  1.00  0.00    -0.248 NA
ATOM     17  C   UNL A   1      42.906  26.945  29.123  1.00  0.00     0.031 C 
ATOM     18  C   UNL A   1      38.307  28.906  28.546  1.00  0.00     0.029 A 
ATOM     19  N   UNL A   1      39.835  30.183  29.560  1.00  0.00    -0.354 N 
ATOM     20  C   UNL A   1      43.843  28.697  30.263  1.00  0.00     0.074 A 
ATOM     21  C   UNL A   1      44.011  27.362  29.728  1.00  0.00     0.031 C 
ATOM     22  C   UNL A   1      37.719  30.072  28.839  1.00  0.00     0.029 A 
ATOM     23  C   UNL A   1      38.671  30.913  29.552  1.00  0.00     0.049 A 
ATOM     24  H   UNL A   1      40.680  30.517  29.938  1.00  0.00     0.167 HD
ATOM     25  C   UNL A   1      44.806  29.404  30.902  1.00  0.00     0.037 A 
ATOM     26  C   UNL A   1      38.388  32.111  30.095  1.00  0.00     0.037 A 
ATOM     27  C   UNL A   1      44.630  30.742  31.408  1.00  0.00     0.049 A 
ATOM     28  C   UNL A   1      39.471  32.849  30.826  1.00  0.00     0.074 A 
ATOM     29  C   UNL A   1      45.573  31.572  31.991  1.00  0.00     0.029 A 
ATOM     30  N   UNL A   1      43.431  31.440  31.407  1.00  0.00    -0.354 N 
ATOM     31  N   UNL A   1      40.723  32.507  31.008  1.00  0.00    -0.248 NA
ATOM     32  C   UNL A   1      39.102  34.133  31.435  1.00  0.00     0.031 C 
ATOM     33  C   UNL A   1      44.930  32.746  32.400  1.00  0.00     0.029 A 
ATOM     34  C   UNL A   1      43.600  32.670  32.023  1.00  0.00     0.049 A 
ATOM     35  H   UNL A   1      42.586  31.110  31.024  1.00  0.00     0.167 HD
ATOM     36  C   UNL A   1      41.293  33.534  31.746  1.00  0.00     0.074 A 
ATOM     37  C   UNL A   1      40.259  34.528  31.947  1.00  0.00     0.031 C 
ATOM     38  C   UNL A   1      42.556  33.642  32.223  1.00  0.00     0.037 A 
BRANCH  25  39
ATOM     39  C   UNL A   1      46.144  28.759  31.118  1.00  0.00     0.064 A 
ATOM     40  C   UNL A   1      47.184  28.883  30.186  1.00  0.00     0.173 A 
ATOM     41  C   UNL A   1      46.421  28.105  32.330  1.00  0.00     0.173 A 
ATOM     42  F   UNL A   1      46.968  29.495  29.012  1.00  0.00    -0.203 F 
ATOM     43  C   UNL A   1      48.452  28.375  30.459  1.00  0.00     0.198 A 
ATOM     44  C   UNL A   1      47.697  27.619  32.607  1.00  0.00     0.198 A 
ATOM     45  F   UNL A   1      45.464  27.967  33.258  1.00  0.00    -0.203 F 
ATOM     46  F   UNL A   1      49.428  28.492  29.548  1.00  0.00    -0.200 F 
ATOM     47  C   UNL A   1      48.710  27.754  31.672  1.00  0.00     0.200 A 
ATOM     48  F   UNL A   1      47.947  27.034  33.786  1.00  0.00    -0.200 F 
ATOM     49  F   UNL A   1      49.937  27.289  31.941  1.00  0.00    -0.200 F 
ENDBRANCH  25  39
BRANCH  26  50
ATOM     50  C   UNL A   1      37.008  32.657  30.011  1.00  0.00     0.064 A 
ATOM     51  C   UNL A   1      36.597  33.425  28.914  1.00  0.00     0.173 A 
ATOM     52  C   UNL A   1      36.078  32.437  31.038  1.00  0.00     0.173 A 
ATOM     53  F   UNL A   1      37.456  33.679  27.915  1.00  0.00    -0.203 F 
ATOM     54  C   UNL A   1      35.319  33.975  28.861  1.00  0.00     0.198 A 
ATOM     55  C   UNL A   1      34.788  32.957  30.967  1.00  0.00     0.198 A 
ATOM     56  F   UNL A   1      36.418  31.704  32.109  1.00  0.00    -0.203 F 
ATOM     57  F   UNL A   1      34.971  34.755  27.827  1.00  0.00    -0.200 F 
ATOM     58  C   UNL A   1      34.414  33.737  29.884  1.00  0.00     0.200 A 
ATOM     59  F   UNL A   1      33.913  32.707  31.949  1.00  0.00    -0.200 F 
ATOM     60  F   UNL A   1      33.185  34.266  29.832  1.00  0.00    -0.200 F 
ENDBRANCH  26  50
BRANCH  38  61
ATOM     61  C   UNL A   1      42.885  34.877  33.007  1.00  0.00     0.064 A 
ATOM     62  C   UNL A   1      43.362  36.035  32.376  1.00  0.00     0.173 A 
ATOM     63  C   UNL A   1      42.694  34.915  34.396  1.00  0.00     0.173 A 
ATOM     64  F   UNL A   1      43.581  36.041  31.052  1.00  0.00    -0.203 F 
ATOM     65  C   UNL A   1      43.658  37.180  33.110  1.00  0.00     0.198 A 
ATOM     66  C   UNL A   1      42.960  36.071  35.124  1.00  0.00     0.198 A 
ATOM     67  F   UNL A   1      42.237  33.834  35.046  1.00  0.00    -0.203 F 
ATOM     68  F   UNL A   1      44.159  38.258  32.494  1.00  0.00    -0.200 F 
ATOM     69  C   UNL A   1      43.449  37.200  34.481  1.00  0.00     0.200 A 
ATOM     70  F   UNL A   1      42.747  36.093  36.446  1.00  0.00    -0.200 F 
ATOM     71  F   UNL A   1      43.727  38.305  35.187  1.00  0.00    -0.200 F 
ENDBRANCH  38  61
ENDBRANCH  12  13
ENDBRANCH   5   7
ENDBRANCH   2   3
ENDBRANCH   1   2
BRANCH   1  72
ATOM     72  C   UNL A   1      34.287  23.384  26.786  1.00  0.00     0.023 C 
BRANCH  72  73
ATOM     73  C   UNL A   1      32.871  23.578  26.251  1.00  0.00     0.116 C 
BRANCH  73  74
ATOM     74  N   UNL A   1      32.611  22.777  25.063  1.00  0.00    -0.356 N 
ATOM     75  C   UNL A   1      32.372  23.182  23.773  1.00  0.00     0.227 C 
ATOM     76  H   UNL A   1      32.605  21.803  25.206  1.00  0.00     0.163 HD
ATOM     77  O   UNL A   1      32.194  22.329  22.906  1.00  0.00    -0.274 OA
BRANCH  75  78
ATOM     78  C   UNL A   1      32.414  24.678  23.485  1.00  0.00     0.103 C 
ATOM     79  C   UNL A   1      33.679  25.249  22.918  1.00  0.00    -0.016 C 
ATOM     80  C   UNL A   1      31.359  25.150  22.474  1.00  0.00     0.047 C 
ATOM     81  C   UNL A   1      33.419  26.246  22.059  1.00  0.00    -0.006 C 
ATOM     82  C   UNL A   1      31.961  26.387  21.801  1.00  0.00     0.106 C 
BRANCH  82  83
ATOM     83  N   UNL A   1      31.388  27.706  22.099  1.00  0.00    -0.349 N 
ATOM     84  C   UNL A   1      31.237  28.639  23.072  1.00  0.00     0.226 C 
ATOM     85  H   UNL A   1      30.946  28.038  21.285  1.00  0.00     0.164 HD
ATOM     86  O   UNL A   1      30.525  29.600  22.746  1.00  0.00    -0.274 OA
BRANCH  84  87
ATOM     87  C   UNL A   1      31.848  28.605  24.485  1.00  0.00     0.050 C 
ATOM     88  C   UNL A   1      33.386  28.634  24.408  1.00  0.00     0.020 C 
ATOM     89  C   UNL A   1      31.290  27.422  25.279  1.00  0.00     0.020 C 
ATOM     90  C   UNL A   1      31.441  29.850  25.343  1.00  0.00     0.020 C 
ATOM     91  C   UNL A   1      34.020  28.526  25.797  1.00  0.00    -0.010 C 
ATOM     92  C   UNL A   1      31.999  27.261  26.630  1.00  0.00    -0.010 C 
ATOM     93  C   UNL A   1      32.064  29.767  26.764  1.00  0.00    -0.010 C 
ATOM     94  C   UNL A   1      33.595  29.736  26.639  1.00  0.00     0.007 C 
ATOM     95  C   UNL A   1      33.530  27.232  26.463  1.00  0.00     0.007 C 
ATOM     96  C   UNL A   1      31.615  28.478  27.481  1.00  0.00     0.007 C 
ENDBRANCH  84  87
ENDBRANCH  82  83
ENDBRANCH  75  78
ENDBRANCH  73  74
ENDBRANCH  72  73
ENDBRANCH   1  72
TORSDOF 13
ENDMDL
MODEL 2
REMARK VINA RESULT:     -12.5      3.108      8.698
REMARK SMILES O=C(NCCCCNC(=O)[C@H]1C=C[C@H](NC(=O)[C@]23C[C@H]4C[C@H](C[C@H](C4)C2)C3)C1)c1ccc(-c2c3nc(c(-c4c(F)c(F)c(F)c(F)c4F)c4ccc([nH]4)c(-c4c(F)c(F)c(F)c(F)c4F)c4nc(c(-c5c(F)c(F)c(F)c(F)c5F)c5ccc2[nH]5)C=C4)C=C3)cc1
REMARK SMILES IDX 5 1 4 2 3 3 1 4 2 5 29 7 30 8 91 9 31 10 90 11 32 12 33 13
REMARK SMILES IDX 34 14 84 15 35 16 89 17 83 18 85 19 36 20 88 21 82 22 81 23
REMARK SMILES IDX 37 25 69 26 49 27 68 28 50 29 53 30 67 31 86 32 51 33 52 34
REMARK SMILES IDX 66 36 87 37 54 38 38 39 39 40 47 41 40 42 41 43 45 44 48 45
REMARK SMILES IDX 42 46 43 47 46 48 44 49 70 50 71 51 79 52 72 53 73 54 77 55
REMARK SMILES IDX 80 56 74 57 75 58 78 59 76 60 55 61 56 62 64 63 57 64 58 65
REMARK SMILES IDX 62 66 65 67 59 68 60 69 63 70 61 71 6 72 7 73 8 74 9 75
REMARK SMILES IDX 10 77 11 78 12 79 28 80 13 81 14 82 15 83 16 84 17 86 18 87
REMARK SMILES IDX 19 88 26 89 27 90 20 91 24 92 22 93 21 94 25 95 23 96
REMARK H PARENT 3 6 85 24 53 35 8 76 15 85
REMARK Flexibility Score: inf
ROOT
ATOM      1  C   UNL A   1      33.159  28.006  25.519  1.00  0.00     0.023 C 
ENDROOT
BRANCH   1   2
ATOM      2  C   UNL A   1      34.081  28.390  26.667  1.00  0.00     0.116 C 
BRANCH   2   3
ATOM      3  N   UNL A   1      33.819  29.732  27.163  1.00  0.00    -0.352 N 
ATOM      4  O   UNL A   1      34.177  31.554  28.452  1.00  0.00    -0.269 OA
ATOM      5  C   UNL A   1      34.611  30.512  27.972  1.00  0.00     0.251 C 
ATOM      6  H   UNL A   1      32.965  30.134  26.883  1.00  0.00     0.163 HD
BRANCH   5   7
ATOM      7  C   UNL A   1      35.990  30.075  28.276  1.00  0.00     0.039 A 
ATOM      8  C   UNL A   1      37.004  30.228  27.325  1.00  0.00     0.014 A 
ATOM      9  C   UNL A   1      36.273  29.514  29.524  1.00  0.00     0.014 A 
ATOM     10  C   UNL A   1      38.270  29.713  27.576  1.00  0.00     0.010 A 
ATOM     11  C   UNL A   1      37.571  29.078  29.808  1.00  0.00     0.010 A 
ATOM     12  C   UNL A   1      38.575  29.167  28.832  1.00  0.00    -0.014 A 
BRANCH  12  13
ATOM     13  C   UNL A   1      39.985  28.826  29.146  1.00  0.00     0.031 A 
ATOM     14  C   UNL A   1      40.886  29.784  29.868  1.00  0.00     0.074 A 
ATOM     15  C   UNL A   1      40.443  27.621  28.752  1.00  0.00     0.049 A 
ATOM     16  N   UNL A   1      42.148  29.639  30.188  1.00  0.00    -0.248 NA
ATOM     17  C   UNL A   1      40.307  31.072  30.280  1.00  0.00     0.031 C 
ATOM     18  C   UNL A   1      39.656  26.621  28.023  1.00  0.00     0.029 A 
ATOM     19  N   UNL A   1      41.669  27.028  28.903  1.00  0.00    -0.354 N 
ATOM     20  C   UNL A   1      42.519  30.818  30.820  1.00  0.00     0.074 A 
ATOM     21  C   UNL A   1      41.354  31.677  30.828  1.00  0.00     0.031 C 
ATOM     22  C   UNL A   1      40.409  25.535  27.811  1.00  0.00     0.029 A 
ATOM     23  C   UNL A   1      41.749  25.785  28.324  1.00  0.00     0.049 A 
ATOM     24  H   UNL A   1      42.420  27.451  29.379  1.00  0.00     0.167 HD
ATOM     25  C   UNL A   1      43.727  31.143  31.342  1.00  0.00     0.037 A 
ATOM     26  C   UNL A   1      42.797  24.952  28.183  1.00  0.00     0.037 A 
ATOM     27  C   UNL A   1      44.871  30.267  31.347  1.00  0.00     0.049 A 
ATOM     28  C   UNL A   1      44.128  25.362  28.744  1.00  0.00     0.074 A 
ATOM     29  C   UNL A   1      46.110  30.474  31.930  1.00  0.00     0.029 A 
ATOM     30  N   UNL A   1      44.924  29.028  30.728  1.00  0.00    -0.354 N 
ATOM     31  N   UNL A   1      44.444  26.448  29.407  1.00  0.00    -0.248 NA
ATOM     32  C   UNL A   1      45.248  24.439  28.530  1.00  0.00     0.031 C 
ATOM     33  C   UNL A   1      46.932  29.389  31.610  1.00  0.00     0.029 A 
ATOM     34  C   UNL A   1      46.190  28.480  30.874  1.00  0.00     0.049 A 
ATOM     35  H   UNL A   1      44.174  28.599  30.256  1.00  0.00     0.167 HD
ATOM     36  C   UNL A   1      45.796  26.335  29.694  1.00  0.00     0.074 A 
ATOM     37  C   UNL A   1      46.232  25.060  29.165  1.00  0.00     0.031 C 
ATOM     38  C   UNL A   1      46.608  27.214  30.331  1.00  0.00     0.037 A 
BRANCH  25  39
ATOM     39  C   UNL A   1      43.903  32.507  31.943  1.00  0.00     0.064 A 
ATOM     40  C   UNL A   1      44.293  33.611  31.171  1.00  0.00     0.173 A 
ATOM     41  C   UNL A   1      43.563  32.732  33.287  1.00  0.00     0.173 A 
ATOM     42  F   UNL A   1      44.632  33.448  29.883  1.00  0.00    -0.203 F 
ATOM     43  C   UNL A   1      44.338  34.889  31.723  1.00  0.00     0.198 A 
ATOM     44  C   UNL A   1      43.587  34.015  33.828  1.00  0.00     0.198 A 
ATOM     45  F   UNL A   1      43.176  31.712  34.066  1.00  0.00    -0.203 F 
ATOM     46  F   UNL A   1      44.728  35.928  30.971  1.00  0.00    -0.200 F 
ATOM     47  C   UNL A   1      43.975  35.091  33.046  1.00  0.00     0.200 A 
ATOM     48  F   UNL A   1      43.221  34.210  35.102  1.00  0.00    -0.200 F 
ATOM     49  F   UNL A   1      43.996  36.326  33.568  1.00  0.00    -0.200 F 
ENDBRANCH  25  39
BRANCH  26  50
ATOM     50  C   UNL A   1      42.638  23.677  27.437  1.00  0.00     0.064 A 
ATOM     51  C   UNL A   1      42.121  22.532  28.058  1.00  0.00     0.173 A 
ATOM     52  C   UNL A   1      43.020  23.573  26.091  1.00  0.00     0.173 A 
ATOM     53  F   UNL A   1      41.759  22.577  29.349  1.00  0.00    -0.203 F 
ATOM     54  C   UNL A   1      42.017  21.326  27.368  1.00  0.00     0.198 A 
ATOM     55  C   UNL A   1      42.882  22.376  25.392  1.00  0.00     0.198 A 
ATOM     56  F   UNL A   1      43.516  24.640  25.447  1.00  0.00    -0.203 F 
ATOM     57  F   UNL A   1      41.574  20.232  28.003  1.00  0.00    -0.200 F 
ATOM     58  C   UNL A   1      42.393  21.250  26.036  1.00  0.00     0.200 A 
ATOM     59  F   UNL A   1      43.228  22.314  24.100  1.00  0.00    -0.200 F 
ATOM     60  F   UNL A   1      42.293  20.090  25.374  1.00  0.00    -0.200 F 
ENDBRANCH  26  50
BRANCH  38  61
ATOM     61  C   UNL A   1      48.046  26.821  30.488  1.00  0.00     0.064 A 
ATOM     62  C   UNL A   1      48.470  26.020  31.559  1.00  0.00     0.173 A 
ATOM     63  C   UNL A   1      49.004  27.221  29.545  1.00  0.00     0.173 A 
ATOM     64  F   UNL A   1      47.595  25.630  32.498  1.00  0.00    -0.203 F 
ATOM     65  C   UNL A   1      49.806  25.654  31.693  1.00  0.00     0.198 A 
ATOM     66  C   UNL A   1      50.333  26.827  29.665  1.00  0.00     0.198 A 
ATOM     67  F   UNL A   1      48.648  27.985  28.501  1.00  0.00    -0.203 F 
ATOM     68  F   UNL A   1      50.198  24.931  32.751  1.00  0.00    -0.200 F 
ATOM     69  C   UNL A   1      50.734  26.050  30.742  1.00  0.00     0.200 A 
ATOM     70  F   UNL A   1      51.227  27.200  28.739  1.00  0.00    -0.200 F 
ATOM     71  F   UNL A   1      52.019  25.691  30.868  1.00  0.00    -0.200 F 
ENDBRANCH  38  61
ENDBRANCH  12  13
ENDBRANCH   5   7
ENDBRANCH   2   3
ENDBRANCH   1   2
BRANCH   1  72
ATOM     72  C   UNL A   1      33.886  27.552  24.258  1.00  0.00     0.023 C 
BRANCH  72  73
ATOM     73  C   UNL A   1      33.081  26.594  23.384  1.00  0.00     0.116 C 
BRANCH  73  74
ATOM     74  N   UNL A   1      31.654  26.646  23.670  1.00  0.00    -0.356 N 
ATOM     75  C   UNL A   1      30.871  25.757  24.364  1.00  0.00     0.227 C 
ATOM     76  H   UNL A   1      31.183  27.434  23.314  1.00  0.00     0.163 HD
ATOM     77  O   UNL A   1      29.676  26.005  24.508  1.00  0.00    -0.274 OA
BRANCH  75  78
ATOM     78  C   UNL A   1      31.557  24.542  24.977  1.00  0.00     0.103 C 
ATOM     79  C   UNL A   1      31.830  24.559  26.450  1.00  0.00    -0.016 C 
ATOM     80  C   UNL A   1      30.780  23.230  24.801  1.00  0.00     0.047 C 
ATOM     81  C   UNL A   1      31.705  23.332  26.980  1.00  0.00    -0.006 C 
ATOM     82  C   UNL A   1      31.181  22.354  25.990  1.00  0.00     0.106 C 
BRANCH  82  83
ATOM     83  N   UNL A   1      32.028  21.178  25.751  1.00  0.00    -0.349 N 
ATOM     84  C   UNL A   1      33.274  20.782  25.385  1.00  0.00     0.226 C 
ATOM     85  H   UNL A   1      31.488  20.373  25.919  1.00  0.00     0.164 HD
ATOM     86  O   UNL A   1      33.398  19.556  25.260  1.00  0.00    -0.274 OA
BRANCH  84  87
ATOM     87  C   UNL A   1      34.489  21.690  25.123  1.00  0.00     0.050 C 
ATOM     88  C   UNL A   1      34.854  22.481  26.392  1.00  0.00     0.020 C 
ATOM     89  C   UNL A   1      34.244  22.569  23.894  1.00  0.00     0.020 C 
ATOM     90  C   UNL A   1      35.772  20.876  24.744  1.00  0.00     0.020 C 
ATOM     91  C   UNL A   1      36.015  23.447  26.137  1.00  0.00    -0.010 C 
ATOM     92  C   UNL A   1      35.363  23.600  23.703  1.00  0.00    -0.010 C 
ATOM     93  C   UNL A   1      36.968  21.830  24.473  1.00  0.00    -0.010 C 
ATOM     94  C   UNL A   1      37.260  22.644  25.742  1.00  0.00     0.007 C 
ATOM     95  C   UNL A   1      35.624  24.395  24.994  1.00  0.00     0.007 C 
ATOM     96  C   UNL A   1      36.631  22.817  23.336  1.00  0.00     0.007 C 
ENDBRANCH  84  87
ENDBRANCH  82  83
ENDBRANCH  75  78
ENDBRANCH  73  74
ENDBRANCH  72  73
ENDBRANCH   1  72
TORSDOF 13
ENDMDL
MODEL 3
REMARK VINA RESULT:     -12.5      3.613      8.550
REMARK SMILES O=C(NCCCCNC(=O)[C@H]1C=C[C@H](NC(=O)[C@]23C[C@H]4C[C@H](C[C@H](C4)C2)C3)C1)c1ccc(-c2c3nc(c(-c4c(F)c(F)c(F)c(F)c4F)c4ccc([nH]4)c(-c4c(F)c(F)c(F)c(F)c4F)c4nc(c(-c5c(F)c(F)c(F)c(F)c5F)c5ccc2[nH]5)C=C4)C=C3)cc1
REMARK SMILES IDX 5 1 4 2 3 3 1 4 2 5 29 7 30 8 91 9 31 10 90 11 32 12 33 13
REMARK SMILES IDX 34 14 84 15 35 16 89 17 83 18 85 19 36 20 88 21 82 22 81 23
REMARK SMILES IDX 37 25 69 26 49 27 68 28 50 29 53 30 67 31 86 32 51 33 52 34
REMARK SMILES IDX 66 36 87 37 54 38 38 39 39 40 47 41 40 42 41 43 45 44 48 45
REMARK SMILES IDX 42 46 43 47 46 48 44 49 70 50 71 51 79 52 72 53 73 54 77 55
REMARK SMILES IDX 80 56 74 57 75 58 78 59 76 60 55 61 56 62 64 63 57 64 58 65
REMARK SMILES IDX 62 66 65 67 59 68 60 69 63 70 61 71 6 72 7 73 8 74 9 75
REMARK SMILES IDX 10 77 11 78 12 79 28 80 13 81 14 82 15 83 16 84 17 86 18 87
REMARK SMILES IDX 19 88 26 89 27 90 20 91 24 92 22 93 21 94 25 95 23 96
REMARK H PARENT 3 6 85 24 53 35 8 76 15 85
REMARK Flexibility Score: inf
ROOT
ATOM      1  C   UNL A   1      37.977  19.760  25.001  1.00  0.00     0.023 C 
ENDROOT
BRANCH   1   2
ATOM      2  C   UNL A   1      39.110  20.168  25.931  1.00  0.00     0.116 C 
BRANCH   2   3
ATOM      3  N   UNL A   1      40.162  19.166  25.996  1.00  0.00    -0.352 N 
ATOM      4  O   UNL A   1      42.296  18.421  25.989  1.00  0.00    -0.269 OA
ATOM      5  C   UNL A   1      41.516  19.358  26.126  1.00  0.00     0.251 C 
ATOM      6  H   UNL A   1      39.865  18.228  25.942  1.00  0.00     0.163 HD
BRANCH   5   7
ATOM      7  C   UNL A   1      42.032  20.712  26.417  1.00  0.00     0.039 A 
ATOM      8  C   UNL A   1      42.264  21.617  25.376  1.00  0.00     0.014 A 
ATOM      9  C   UNL A   1      42.279  21.084  27.741  1.00  0.00     0.014 A 
ATOM     10  C   UNL A   1      42.852  22.846  25.647  1.00  0.00     0.010 A 
ATOM     11  C   UNL A   1      42.788  22.356  28.019  1.00  0.00     0.010 A 
ATOM     12  C   UNL A   1      43.087  23.242  26.973  1.00  0.00    -0.014 A 
BRANCH  12  13
ATOM     13  C   UNL A   1      43.511  24.637  27.244  1.00  0.00     0.031 A 
ATOM     14  C   UNL A   1      42.554  25.664  27.776  1.00  0.00     0.074 A 
ATOM     15  C   UNL A   1      44.793  24.965  26.989  1.00  0.00     0.049 A 
ATOM     16  N   UNL A   1      42.771  26.929  28.036  1.00  0.00    -0.248 NA
ATOM     17  C   UNL A   1      41.177  25.223  28.046  1.00  0.00     0.031 C 
ATOM     18  C   UNL A   1      45.802  24.049  26.448  1.00  0.00     0.029 A 
ATOM     19  N   UNL A   1      45.471  26.147  27.143  1.00  0.00    -0.354 N 
ATOM     20  C   UNL A   1      41.559  27.440  28.481  1.00  0.00     0.074 A 
ATOM     21  C   UNL A   1      40.604  26.353  28.444  1.00  0.00     0.031 C 
ATOM     22  C   UNL A   1      46.971  24.692  26.339  1.00  0.00     0.029 A 
ATOM     23  C   UNL A   1      46.780  26.082  26.732  1.00  0.00     0.049 A 
ATOM     24  H   UNL A   1      45.060  26.961  27.513  1.00  0.00     0.167 HD
ATOM     25  C   UNL A   1      41.281  28.704  28.881  1.00  0.00     0.037 A 
ATOM     26  C   UNL A   1      47.716  27.045  26.641  1.00  0.00     0.037 A 
ATOM     27  C   UNL A   1      42.250  29.770  28.935  1.00  0.00     0.049 A 
ATOM     28  C   UNL A   1      47.360  28.442  27.061  1.00  0.00     0.074 A 
ATOM     29  C   UNL A   1      42.083  31.061  29.409  1.00  0.00     0.029 A 
ATOM     30  N   UNL A   1      43.558  29.677  28.485  1.00  0.00    -0.354 N 
ATOM     31  N   UNL A   1      46.232  28.893  27.552  1.00  0.00    -0.248 NA
ATOM     32  C   UNL A   1      48.401  29.464  26.906  1.00  0.00     0.031 C 
ATOM     33  C   UNL A   1      43.271  31.765  29.188  1.00  0.00     0.029 A 
ATOM     34  C   UNL A   1      44.195  30.900  28.626  1.00  0.00     0.049 A 
ATOM     35  H   UNL A   1      43.973  28.862  28.121  1.00  0.00     0.167 HD
ATOM     36  C   UNL A   1      46.429  30.248  27.771  1.00  0.00     0.074 A 
ATOM     37  C   UNL A   1      47.795  30.539  27.392  1.00  0.00     0.031 C 
ATOM     38  C   UNL A   1      45.553  31.173  28.234  1.00  0.00     0.037 A 
BRANCH  25  39
ATOM     39  C   UNL A   1      39.873  29.035  29.283  1.00  0.00     0.064 A 
ATOM     40  C   UNL A   1      38.915  29.450  28.346  1.00  0.00     0.173 A 
ATOM     41  C   UNL A   1      39.451  28.820  30.605  1.00  0.00     0.173 A 
ATOM     42  F   UNL A   1      39.270  29.673  27.072  1.00  0.00    -0.203 F 
ATOM     43  C   UNL A   1      37.587  29.639  28.720  1.00  0.00     0.198 A 
ATOM     44  C   UNL A   1      38.117  28.988  30.968  1.00  0.00     0.198 A 
ATOM     45  F   UNL A   1      40.326  28.415  31.536  1.00  0.00    -0.203 F 
ATOM     46  F   UNL A   1      36.690  30.050  27.812  1.00  0.00    -0.200 F 
ATOM     47  C   UNL A   1      37.187  29.398  30.026  1.00  0.00     0.200 A 
ATOM     48  F   UNL A   1      37.730  28.740  32.227  1.00  0.00    -0.200 F 
ATOM     49  F   UNL A   1      35.903  29.557  30.376  1.00  0.00    -0.200 F 
ENDBRANCH  25  39
BRANCH  26  50
ATOM     50  C   UNL A   1      49.056  26.729  26.084  1.00  0.00     0.064 A 
ATOM     51  C   UNL A   1      50.065  26.180  26.886  1.00  0.00     0.173 A 
ATOM     52  C   UNL A   1      49.361  26.988  24.739  1.00  0.00     0.173 A 
ATOM     53  F   UNL A   1      49.828  25.930  28.182  1.00  0.00    -0.203 F 
ATOM     54  C   UNL A   1      51.335  25.929  26.371  1.00  0.00     0.198 A 
ATOM     55  C   UNL A   1      50.620  26.703  24.216  1.00  0.00     0.198 A 
ATOM     56  F   UNL A   1      48.430  27.509  23.926  1.00  0.00    -0.203 F 
ATOM     57  F   UNL A   1      52.299  25.458  27.175  1.00  0.00    -0.200 F 
ATOM     58  C   UNL A   1      51.610  26.186  25.036  1.00  0.00     0.200 A 
ATOM     59  F   UNL A   1      50.873  26.935  22.922  1.00  0.00    -0.200 F 
ATOM     60  F   UNL A   1      52.831  25.944  24.543  1.00  0.00    -0.200 F 
ENDBRANCH  26  50
BRANCH  38  61
ATOM     61  C   UNL A   1      46.052  32.582  28.356  1.00  0.00     0.064 A 
ATOM     62  C   UNL A   1      45.895  33.504  27.311  1.00  0.00     0.173 A 
ATOM     63  C   UNL A   1      46.665  33.024  29.537  1.00  0.00     0.173 A 
ATOM     64  F   UNL A   1      45.334  33.122  26.153  1.00  0.00    -0.203 F 
ATOM     65  C   UNL A   1      46.355  34.811  27.435  1.00  0.00     0.198 A 
ATOM     66  C   UNL A   1      47.096  34.340  29.670  1.00  0.00     0.198 A 
ATOM     67  F   UNL A   1      46.837  32.181  30.567  1.00  0.00    -0.203 F 
ATOM     68  F   UNL A   1      46.239  35.661  26.405  1.00  0.00    -0.200 F 
ATOM     69  C   UNL A   1      46.947  35.231  28.616  1.00  0.00     0.200 A 
ATOM     70  F   UNL A   1      47.656  34.748  30.817  1.00  0.00    -0.200 F 
ATOM     71  F   UNL A   1      47.382  36.492  28.738  1.00  0.00    -0.200 F 
ENDBRANCH  38  61
ENDBRANCH  12  13
ENDBRANCH   5   7
ENDBRANCH   2   3
ENDBRANCH   1   2
BRANCH   1  72
ATOM     72  C   UNL A   1      37.058  20.907  24.596  1.00  0.00     0.023 C 
BRANCH  72  73
ATOM     73  C   UNL A   1      36.226  21.476  25.743  1.00  0.00     0.116 C 
BRANCH  73  74
ATOM     74  N   UNL A   1      35.043  20.675  26.022  1.00  0.00    -0.356 N 
ATOM     75  C   UNL A   1      33.819  20.682  25.398  1.00  0.00     0.227 C 
ATOM     76  H   UNL A   1      35.133  20.037  26.765  1.00  0.00     0.163 HD
ATOM     77  O   UNL A   1      32.952  19.900  25.784  1.00  0.00    -0.274 OA
BRANCH  75  78
ATOM     78  C   UNL A   1      33.638  21.619  24.210  1.00  0.00     0.103 C 
ATOM     79  C   UNL A   1      32.691  21.202  23.126  1.00  0.00    -0.016 C 
ATOM     80  C   UNL A   1      33.114  23.012  24.587  1.00  0.00     0.047 C 
ATOM     81  C   UNL A   1      32.056  22.263  22.603  1.00  0.00    -0.006 C 
ATOM     82  C   UNL A   1      32.355  23.511  23.355  1.00  0.00     0.106 C 
BRANCH  82  83
ATOM     83  N   UNL A   1      32.929  24.606  22.563  1.00  0.00    -0.349 N 
ATOM     84  C   UNL A   1      33.199  25.936  22.567  1.00  0.00     0.226 C 
ATOM     85  H   UNL A   1      33.233  24.235  21.703  1.00  0.00     0.164 HD
ATOM     86  O   UNL A   1      33.653  26.364  21.497  1.00  0.00    -0.274 OA
BRANCH  84  87
ATOM     87  C   UNL A   1      32.995  26.913  23.739  1.00  0.00     0.050 C 
ATOM     88  C   UNL A   1      33.857  26.496  24.945  1.00  0.00     0.020 C 
ATOM     89  C   UNL A   1      31.506  27.057  24.061  1.00  0.00     0.020 C 
ATOM     90  C   UNL A   1      33.438  28.373  23.384  1.00  0.00     0.020 C 
ATOM     91  C   UNL A   1      33.616  27.410  26.150  1.00  0.00    -0.010 C 
ATOM     92  C   UNL A   1      31.279  27.893  25.327  1.00  0.00    -0.010 C 
ATOM     93  C   UNL A   1      33.201  29.328  24.586  1.00  0.00    -0.010 C 
ATOM     94  C   UNL A   1      34.028  28.841  25.785  1.00  0.00     0.007 C 
ATOM     95  C   UNL A   1      32.123  27.374  26.505  1.00  0.00     0.007 C 
ATOM     96  C   UNL A   1      31.714  29.327  24.997  1.00  0.00     0.007 C 
ENDBRANCH  84  87
ENDBRANCH  82  83
ENDBRANCH  75  78
ENDBRANCH  73  74
ENDBRANCH  72  73
ENDBRANCH   1  72
TORSDOF 13
ENDMDL
