MODEL 1
REMARK VINA RESULT:     -13.6      0.000      0.000
REMARK SMILES C[C@@H]1CCCN(c2ccc(NC(=O)Cc3cccs3)c(C(=O)NCCCCNC(=O)c3ccc(-c4c5nc(c(-c6c(F)c(F)c(F)c(F)c6F)c6ccc([nH]6)c(-c6c(F)c(F)c(F)c(F)c6F)c6nc(c(-c7c(F)c(F)c(F)c(F)c7F)c7ccc4[nH]7)C=C6)C=C5)cc3)c2)C1
REMARK SMILES IDX 25 1 24 2 23 3 21 4 22 5 20 7 7 8 8 9 94 10 9 11 10 12 6 13
REMARK SMILES IDX 1 14 2 15 3 16 95 17 4 18 5 19 11 20 12 21 13 23 14 24 15 25
REMARK SMILES IDX 16 26 19 27 17 28 18 29 26 30 27 31 28 32 29 33 30 35 31 36
REMARK SMILES IDX 32 37 93 38 33 39 92 40 34 41 35 42 36 43 86 44 37 45 91 46
REMARK SMILES IDX 85 47 87 48 38 49 90 50 84 51 83 52 39 54 71 55 51 56 70 57
REMARK SMILES IDX 52 58 55 59 69 60 88 61 53 62 54 63 68 65 89 66 56 67 40 68
REMARK SMILES IDX 41 69 49 70 42 71 43 72 47 73 50 74 44 75 45 76 48 77 46 78
REMARK SMILES IDX 72 79 73 80 81 81 74 82 75 83 79 84 82 85 76 86 77 87 80 88
REMARK SMILES IDX 78 89 57 90 58 91 66 92 59 93 60 94 64 95 67 96 61 97 62 98
REMARK SMILES IDX 65 99 63 100
REMARK H PARENT 23 6 11 22 28 34 87 53 55 64
REMARK Flexibility Score: inf
ROOT
ATOM      1  C   UNL A   1      31.644  30.786  25.974  1.00  0.00     0.023 C 
ENDROOT
BRANCH   1   2
ATOM      2  C   UNL A   1      32.872  29.924  26.237  1.00  0.00     0.116 C 
BRANCH   2   3
ATOM      3  N   UNL A   1      33.669  29.588  25.068  1.00  0.00    -0.352 N 
ATOM      4  C   UNL A   1      33.300  28.991  23.876  1.00  0.00     0.253 C 
ATOM      5  O   UNL A   1      34.166  28.829  23.015  1.00  0.00    -0.269 OA
ATOM      6  H   UNL A   1      34.623  29.825  25.134  1.00  0.00     0.163 HD
BRANCH   4   7
ATOM      7  C   UNL A   1      31.920  28.464  23.630  1.00  0.00     0.065 A 
ATOM      8  C   UNL A   1      29.591  29.006  23.160  1.00  0.00     0.038 A 
ATOM      9  C   UNL A   1      29.255  27.710  23.542  1.00  0.00     0.028 A 
ATOM     10  C   UNL A   1      30.945  29.316  23.088  1.00  0.00     0.042 A 
ATOM     11  C   UNL A   1      30.229  26.776  23.908  1.00  0.00     0.029 A 
ATOM     12  C   UNL A   1      31.567  27.147  24.023  1.00  0.00     0.054 A 
BRANCH   8  13
ATOM     13  N   UNL A   1      28.609  29.953  22.943  1.00  0.00    -0.371 N 
ATOM     14  C   UNL A   1      29.119  33.723  23.299  1.00  0.00     0.009 C 
ATOM     15  C   UNL A   1      29.089  32.354  22.620  1.00  0.00     0.005 C 
ATOM     16  C   UNL A   1      28.097  32.355  21.450  1.00  0.00     0.007 C 
ATOM     17  C   UNL A   1      28.736  31.246  23.631  1.00  0.00     0.119 C 
ATOM     18  C   UNL A   1      28.044  30.981  20.785  1.00  0.00     0.022 C 
ATOM     19  C   UNL A   1      27.705  29.891  21.799  1.00  0.00     0.116 C 
ENDBRANCH   8  13
BRANCH  12  20
ATOM     20  N   UNL A   1      32.570  26.287  24.530  1.00  0.00    -0.325 N 
ATOM     21  C   UNL A   1      32.972  25.005  24.282  1.00  0.00     0.229 C 
ATOM     22  H   UNL A   1      33.107  26.715  25.235  1.00  0.00     0.169 HD
ATOM     23  O   UNL A   1      33.928  24.582  24.946  1.00  0.00    -0.274 OA
BRANCH  21  24
ATOM     24  C   UNL A   1      32.334  24.093  23.256  1.00  0.00     0.147 C 
BRANCH  24  25
ATOM     25  C   UNL A   1      32.292  22.640  23.654  1.00  0.00     0.014 A 
ATOM     26  C   UNL A   1      32.538  21.487  22.930  1.00  0.00     0.016 A 
ATOM     27  S   UNL A   1      31.904  22.260  25.288  1.00  0.00    -0.148 S 
ATOM     28  C   UNL A   1      32.454  20.307  23.724  1.00  0.00     0.012 A 
ATOM     29  C   UNL A   1      32.094  20.584  25.021  1.00  0.00     0.065 A 
ENDBRANCH  24  25
ENDBRANCH  21  24
ENDBRANCH  12  20
ENDBRANCH   4   7
ENDBRANCH   2   3
ENDBRANCH   1   2
BRANCH   1  30
ATOM     30  C   UNL A   1      31.423  31.975  26.904  1.00  0.00     0.023 C 
BRANCH  30  31
ATOM     31  C   UNL A   1      32.654  32.798  27.266  1.00  0.00     0.116 C 
BRANCH  31  32
ATOM     32  N   UNL A   1      32.366  34.179  27.627  1.00  0.00    -0.352 N 
ATOM     33  C   UNL A   1      32.975  35.011  28.540  1.00  0.00     0.251 C 
ATOM     34  H   UNL A   1      31.612  34.583  27.139  1.00  0.00     0.163 HD
ATOM     35  O   UNL A   1      32.533  36.136  28.734  1.00  0.00    -0.269 OA
BRANCH  33  36
ATOM     36  C   UNL A   1      34.131  34.531  29.331  1.00  0.00     0.039 A 
ATOM     37  C   UNL A   1      33.897  33.992  30.600  1.00  0.00     0.014 A 
ATOM     38  C   UNL A   1      35.428  34.574  28.819  1.00  0.00     0.014 A 
ATOM     39  C   UNL A   1      34.943  33.384  31.300  1.00  0.00     0.010 A 
ATOM     40  C   UNL A   1      36.451  33.897  29.479  1.00  0.00     0.010 A 
ATOM     41  C   UNL A   1      36.213  33.273  30.714  1.00  0.00    -0.014 A 
BRANCH  41  42
ATOM     42  C   UNL A   1      37.295  32.469  31.341  1.00  0.00     0.031 A 
ATOM     43  C   UNL A   1      37.804  32.819  32.709  1.00  0.00     0.074 A 
ATOM     44  C   UNL A   1      37.888  31.489  30.632  1.00  0.00     0.049 A 
ATOM     45  N   UNL A   1      38.828  32.327  33.363  1.00  0.00    -0.248 NA
ATOM     46  C   UNL A   1      37.087  33.884  33.426  1.00  0.00     0.031 C 
ATOM     47  C   UNL A   1      37.520  31.080  29.275  1.00  0.00     0.029 A 
ATOM     48  N   UNL A   1      38.945  30.668  30.946  1.00  0.00    -0.354 N 
ATOM     49  C   UNL A   1      38.888  33.036  34.554  1.00  0.00     0.074 A 
ATOM     50  C   UNL A   1      37.828  34.021  34.516  1.00  0.00     0.031 C 
ATOM     51  C   UNL A   1      38.323  30.079  28.881  1.00  0.00     0.029 A 
ATOM     52  C   UNL A   1      39.291  29.803  29.937  1.00  0.00     0.049 A 
ATOM     53  H   UNL A   1      39.410  30.698  31.813  1.00  0.00     0.167 HD
ATOM     54  C   UNL A   1      39.739  32.868  35.595  1.00  0.00     0.037 A 
ATOM     55  C   UNL A   1      40.286  28.898  29.864  1.00  0.00     0.037 A 
ATOM     56  C   UNL A   1      40.775  31.870  35.645  1.00  0.00     0.049 A 
ATOM     57  C   UNL A   1      41.223  28.738  31.029  1.00  0.00     0.074 A 
ATOM     58  C   UNL A   1      41.643  31.578  36.683  1.00  0.00     0.029 A 
ATOM     59  N   UNL A   1      41.080  30.998  34.611  1.00  0.00    -0.354 N 
ATOM     60  N   UNL A   1      41.234  29.374  32.175  1.00  0.00    -0.248 NA
ATOM     61  C   UNL A   1      42.289  27.734  30.891  1.00  0.00     0.031 C 
ATOM     62  C   UNL A   1      42.499  30.555  36.262  1.00  0.00     0.029 A 
ATOM     63  C   UNL A   1      42.138  30.181  34.978  1.00  0.00     0.049 A 
ATOM     64  H   UNL A   1      40.615  30.963  33.744  1.00  0.00     0.167 HD
ATOM     65  C   UNL A   1      42.286  28.834  32.901  1.00  0.00     0.074 A 
ATOM     66  C   UNL A   1      42.885  27.809  32.072  1.00  0.00     0.031 C 
ATOM     67  C   UNL A   1      42.717  29.158  34.144  1.00  0.00     0.037 A 
BRANCH  54  68
ATOM     68  C   UNL A   1      39.582  33.787  36.771  1.00  0.00     0.064 A 
ATOM     69  C   UNL A   1      38.813  33.424  37.887  1.00  0.00     0.173 A 
ATOM     70  C   UNL A   1      40.231  35.031  36.797  1.00  0.00     0.173 A 
ATOM     71  F   UNL A   1      38.163  32.250  37.905  1.00  0.00    -0.203 F 
ATOM     72  C   UNL A   1      38.675  34.284  38.972  1.00  0.00     0.198 A 
ATOM     73  C   UNL A   1      40.113  35.876  37.896  1.00  0.00     0.198 A 
ATOM     74  F   UNL A   1      40.984  35.423  35.758  1.00  0.00    -0.203 F 
ATOM     75  F   UNL A   1      37.894  33.937  40.005  1.00  0.00    -0.200 F 
ATOM     76  C   UNL A   1      39.329  35.507  38.979  1.00  0.00     0.200 A 
ATOM     77  F   UNL A   1      40.755  37.053  37.906  1.00  0.00    -0.200 F 
ATOM     78  F   UNL A   1      39.197  36.333  40.026  1.00  0.00    -0.200 F 
ENDBRANCH  54  68
BRANCH  55  79
ATOM     79  C   UNL A   1      40.438  28.058  28.648  1.00  0.00     0.064 A 
ATOM     80  C   UNL A   1      39.814  26.806  28.563  1.00  0.00     0.173 A 
ATOM     81  C   UNL A   1      41.203  28.484  27.553  1.00  0.00     0.173 A 
ATOM     82  F   UNL A   1      39.089  26.349  29.595  1.00  0.00    -0.203 F 
ATOM     83  C   UNL A   1      39.962  26.003  27.435  1.00  0.00     0.198 A 
ATOM     84  C   UNL A   1      41.331  27.690  26.414  1.00  0.00     0.198 A 
ATOM     85  F   UNL A   1      41.818  29.675  27.585  1.00  0.00    -0.203 F 
ATOM     86  F   UNL A   1      39.386  24.795  27.395  1.00  0.00    -0.200 F 
ATOM     87  C   UNL A   1      40.715  26.448  26.359  1.00  0.00     0.200 A 
ATOM     88  F   UNL A   1      42.049  28.128  25.373  1.00  0.00    -0.200 F 
ATOM     89  F   UNL A   1      40.854  25.678  25.272  1.00  0.00    -0.200 F 
ENDBRANCH  55  79
BRANCH  67  90
ATOM     90  C   UNL A   1      43.871  28.378  34.698  1.00  0.00     0.064 A 
ATOM     91  C   UNL A   1      43.677  27.169  35.382  1.00  0.00     0.173 A 
ATOM     92  C   UNL A   1      45.187  28.821  34.501  1.00  0.00     0.173 A 
ATOM     93  F   UNL A   1      42.436  26.713  35.610  1.00  0.00    -0.203 F 
ATOM     94  C   UNL A   1      44.761  26.439  35.863  1.00  0.00     0.198 A 
ATOM     95  C   UNL A   1      46.269  28.076  34.962  1.00  0.00     0.198 A 
ATOM     96  F   UNL A   1      45.424  29.969  33.850  1.00  0.00    -0.203 F 
ATOM     97  F   UNL A   1      44.553  25.305  36.546  1.00  0.00    -0.200 F 
ATOM     98  C   UNL A   1      46.056  26.888  35.645  1.00  0.00     0.200 A 
ATOM     99  F   UNL A   1      47.519  28.506  34.741  1.00  0.00    -0.200 F 
ATOM    100  F   UNL A   1      47.097  26.181  36.101  1.00  0.00    -0.200 F 
ENDBRANCH  67  90
ENDBRANCH  41  42
ENDBRANCH  33  36
ENDBRANCH  31  32
ENDBRANCH  30  31
ENDBRANCH   1  30
TORSDOF 15
ENDMDL
MODEL 2
REMARK VINA RESULT:     -13.6      1.034      7.243
REMARK SMILES C[C@@H]1CCCN(c2ccc(NC(=O)Cc3cccs3)c(C(=O)NCCCCNC(=O)c3ccc(-c4c5nc(c(-c6c(F)c(F)c(F)c(F)c6F)c6ccc([nH]6)c(-c6c(F)c(F)c(F)c(F)c6F)c6nc(c(-c7c(F)c(F)c(F)c(F)c7F)c7ccc4[nH]7)C=C6)C=C5)cc3)c2)C1
REMARK SMILES IDX 25 1 24 2 23 3 21 4 22 5 20 7 7 8 8 9 94 10 9 11 10 12 6 13
REMARK SMILES IDX 1 14 2 15 3 16 95 17 4 18 5 19 11 20 12 21 13 23 14 24 15 25
REMARK SMILES IDX 16 26 19 27 17 28 18 29 26 30 27 31 28 32 29 33 30 35 31 36
REMARK SMILES IDX 32 37 93 38 33 39 92 40 34 41 35 42 36 43 86 44 37 45 91 46
REMARK SMILES IDX 85 47 87 48 38 49 90 50 84 51 83 52 39 54 71 55 51 56 70 57
REMARK SMILES IDX 52 58 55 59 69 60 88 61 53 62 54 63 68 65 89 66 56 67 40 68
REMARK SMILES IDX 41 69 49 70 42 71 43 72 47 73 50 74 44 75 45 76 48 77 46 78
REMARK SMILES IDX 72 79 73 80 81 81 74 82 75 83 79 84 82 85 76 86 77 87 80 88
REMARK SMILES IDX 78 89 57 90 58 91 66 92 59 93 60 94 64 95 67 96 61 97 62 98
REMARK SMILES IDX 65 99 63 100
REMARK H PARENT 23 6 11 22 28 34 87 53 55 64
REMARK Flexibility Score: inf
ROOT
ATOM      1  C   UNL A   1      31.926  30.461  25.946  1.00  0.00     0.023 C 
ENDROOT
BRANCH   1   2
ATOM      2  C   UNL A   1      33.043  29.427  26.017  1.00  0.00     0.116 C 
BRANCH   2   3
ATOM      3  N   UNL A   1      33.906  29.350  24.849  1.00  0.00    -0.352 N 
ATOM      4  C   UNL A   1      33.620  28.968  23.551  1.00  0.00     0.253 C 
ATOM      5  O   UNL A   1      34.529  29.007  22.721  1.00  0.00    -0.269 OA
ATOM      6  H   UNL A   1      34.842  29.612  25.007  1.00  0.00     0.163 HD
BRANCH   4   7
ATOM      7  C   UNL A   1      32.282  28.435  23.142  1.00  0.00     0.065 A 
ATOM      8  C   UNL A   1      29.923  28.927  22.776  1.00  0.00     0.038 A 
ATOM      9  C   UNL A   1      29.676  27.557  22.795  1.00  0.00     0.028 A 
ATOM     10  C   UNL A   1      31.253  29.333  22.821  1.00  0.00     0.042 A 
ATOM     11  C   UNL A   1      30.712  26.625  22.924  1.00  0.00     0.029 A 
ATOM     12  C   UNL A   1      32.020  27.040  23.165  1.00  0.00     0.054 A 
BRANCH   8  13
ATOM     13  N   UNL A   1      28.878  29.830  22.793  1.00  0.00    -0.371 N 
ATOM     14  C   UNL A   1      29.275  33.589  23.354  1.00  0.00     0.009 C 
ATOM     15  C   UNL A   1      29.194  32.271  22.585  1.00  0.00     0.005 C 
ATOM     16  C   UNL A   1      28.024  32.299  21.592  1.00  0.00     0.007 C 
ATOM     17  C   UNL A   1      29.059  31.078  23.551  1.00  0.00     0.119 C 
ATOM     18  C   UNL A   1      27.924  30.973  20.839  1.00  0.00     0.022 C 
ATOM     19  C   UNL A   1      27.803  29.798  21.807  1.00  0.00     0.116 C 
ENDBRANCH   8  13
BRANCH  12  20
ATOM     20  N   UNL A   1      33.077  26.145  23.452  1.00  0.00    -0.325 N 
ATOM     21  C   UNL A   1      33.578  25.556  24.578  1.00  0.00     0.229 C 
ATOM     22  H   UNL A   1      33.573  25.883  22.643  1.00  0.00     0.169 HD
ATOM     23  O   UNL A   1      34.544  24.795  24.427  1.00  0.00    -0.274 OA
BRANCH  21  24
ATOM     24  C   UNL A   1      33.027  25.770  25.972  1.00  0.00     0.147 C 
BRANCH  24  25
ATOM     25  C   UNL A   1      31.809  24.943  26.294  1.00  0.00     0.014 A 
ATOM     26  C   UNL A   1      30.459  25.235  26.216  1.00  0.00     0.016 A 
ATOM     27  S   UNL A   1      32.050  23.326  26.836  1.00  0.00    -0.148 S 
ATOM     28  C   UNL A   1      29.632  24.126  26.554  1.00  0.00     0.012 A 
ATOM     29  C   UNL A   1      30.371  23.029  26.932  1.00  0.00     0.065 A 
ENDBRANCH  24  25
ENDBRANCH  21  24
ENDBRANCH  12  20
ENDBRANCH   4   7
ENDBRANCH   2   3
ENDBRANCH   1   2
BRANCH   1  30
ATOM     30  C   UNL A   1      31.815  31.439  27.112  1.00  0.00     0.023 C 
BRANCH  30  31
ATOM     31  C   UNL A   1      32.955  32.440  27.274  1.00  0.00     0.116 C 
BRANCH  31  32
ATOM     32  N   UNL A   1      32.520  33.797  27.570  1.00  0.00    -0.352 N 
ATOM     33  C   UNL A   1      33.031  34.729  28.447  1.00  0.00     0.251 C 
ATOM     34  H   UNL A   1      31.732  34.098  27.061  1.00  0.00     0.163 HD
ATOM     35  O   UNL A   1      32.471  35.810  28.587  1.00  0.00    -0.269 OA
BRANCH  33  36
ATOM     36  C   UNL A   1      34.222  34.410  29.264  1.00  0.00     0.039 A 
ATOM     37  C   UNL A   1      34.035  33.841  30.528  1.00  0.00     0.014 A 
ATOM     38  C   UNL A   1      35.513  34.630  28.782  1.00  0.00     0.014 A 
ATOM     39  C   UNL A   1      35.139  33.379  31.252  1.00  0.00     0.010 A 
ATOM     40  C   UNL A   1      36.604  34.098  29.466  1.00  0.00     0.010 A 
ATOM     41  C   UNL A   1      36.425  33.445  30.695  1.00  0.00    -0.014 A 
BRANCH  41  42
ATOM     42  C   UNL A   1      37.592  32.794  31.347  1.00  0.00     0.031 A 
ATOM     43  C   UNL A   1      38.277  31.631  30.691  1.00  0.00     0.074 A 
ATOM     44  C   UNL A   1      37.965  33.186  32.582  1.00  0.00     0.049 A 
ATOM     45  N   UNL A   1      39.216  30.848  31.161  1.00  0.00    -0.248 NA
ATOM     46  C   UNL A   1      37.826  31.282  29.334  1.00  0.00     0.031 C 
ATOM     47  C   UNL A   1      37.352  34.271  33.349  1.00  0.00     0.029 A 
ATOM     48  N   UNL A   1      38.940  32.700  33.420  1.00  0.00    -0.354 N 
ATOM     49  C   UNL A   1      39.451  29.905  30.171  1.00  0.00     0.074 A 
ATOM     50  C   UNL A   1      38.528  30.184  29.091  1.00  0.00     0.031 C 
ATOM     51  C   UNL A   1      37.973  34.380  34.534  1.00  0.00     0.029 A 
ATOM     52  C   UNL A   1      38.999  33.347  34.630  1.00  0.00     0.049 A 
ATOM     53  H   UNL A   1      39.540  31.959  33.175  1.00  0.00     0.167 HD
ATOM     54  C   UNL A   1      40.368  28.907  30.155  1.00  0.00     0.037 A 
ATOM     55  C   UNL A   1      39.781  33.122  35.704  1.00  0.00     0.037 A 
ATOM     56  C   UNL A   1      41.305  28.648  31.216  1.00  0.00     0.049 A 
ATOM     57  C   UNL A   1      40.783  32.003  35.664  1.00  0.00     0.074 A 
ATOM     58  C   UNL A   1      42.316  27.704  31.263  1.00  0.00     0.029 A 
ATOM     59  N   UNL A   1      41.347  29.339  32.418  1.00  0.00    -0.354 N 
ATOM     60  N   UNL A   1      41.038  31.154  34.699  1.00  0.00    -0.248 NA
ATOM     61  C   UNL A   1      41.608  31.808  36.866  1.00  0.00     0.031 C 
ATOM     62  C   UNL A   1      42.945  27.798  32.509  1.00  0.00     0.029 A 
ATOM     63  C   UNL A   1      42.353  28.828  33.223  1.00  0.00     0.049 A 
ATOM     64  H   UNL A   1      40.750  30.082  32.664  1.00  0.00     0.167 HD
ATOM     65  C   UNL A   1      42.063  30.344  35.163  1.00  0.00     0.074 A 
ATOM     66  C   UNL A   1      42.395  30.808  36.494  1.00  0.00     0.031 C 
ATOM     67  C   UNL A   1      42.677  29.307  34.542  1.00  0.00     0.037 A 
BRANCH  54  68
ATOM     68  C   UNL A   1      40.404  28.022  28.945  1.00  0.00     0.064 A 
ATOM     69  C   UNL A   1      39.677  26.823  28.892  1.00  0.00     0.173 A 
ATOM     70  C   UNL A   1      41.148  28.388  27.813  1.00  0.00     0.173 A 
ATOM     71  F   UNL A   1      38.959  26.422  29.953  1.00  0.00    -0.203 F 
ATOM     72  C   UNL A   1      39.717  26.009  27.764  1.00  0.00     0.198 A 
ATOM     73  C   UNL A   1      41.163  27.586  26.676  1.00  0.00     0.198 A 
ATOM     74  F   UNL A   1      41.855  29.528  27.809  1.00  0.00    -0.203 F 
ATOM     75  F   UNL A   1      39.055  24.844  27.756  1.00  0.00    -0.200 F 
ATOM     76  C   UNL A   1      40.455  26.393  26.654  1.00  0.00     0.200 A 
ATOM     77  F   UNL A   1      41.868  27.964  25.600  1.00  0.00    -0.200 F 
ATOM     78  F   UNL A   1      40.491  25.610  25.568  1.00  0.00    -0.200 F 
ENDBRANCH  54  68
BRANCH  55  79
ATOM     79  C   UNL A   1      39.659  33.990  36.904  1.00  0.00     0.064 A 
ATOM     80  C   UNL A   1      40.355  35.204  36.981  1.00  0.00     0.173 A 
ATOM     81  C   UNL A   1      38.853  33.628  37.993  1.00  0.00     0.173 A 
ATOM     82  F   UNL A   1      41.155  35.581  35.972  1.00  0.00    -0.203 F 
ATOM     83  C   UNL A   1      40.261  36.018  38.107  1.00  0.00     0.198 A 
ATOM     84  C   UNL A   1      38.741  34.454  39.110  1.00  0.00     0.198 A 
ATOM     85  F   UNL A   1      38.166  32.477  37.967  1.00  0.00    -0.203 F 
ATOM     86  F   UNL A   1      40.966  37.155  38.170  1.00  0.00    -0.200 F 
ATOM     87  C   UNL A   1      39.450  35.645  39.169  1.00  0.00     0.200 A 
ATOM     88  F   UNL A   1      37.947  34.097  40.127  1.00  0.00    -0.200 F 
ATOM     89  F   UNL A   1      39.356  36.429  40.250  1.00  0.00    -0.200 F 
ENDBRANCH  55  79
BRANCH  67  90
ATOM     90  C   UNL A   1      43.789  28.624  35.279  1.00  0.00     0.064 A 
ATOM     91  C   UNL A   1      45.124  29.028  35.130  1.00  0.00     0.173 A 
ATOM     92  C   UNL A   1      43.511  27.585  36.179  1.00  0.00     0.173 A 
ATOM     93  F   UNL A   1      45.441  30.006  34.268  1.00  0.00    -0.203 F 
ATOM     94  C   UNL A   1      46.142  28.404  35.846  1.00  0.00     0.198 A 
ATOM     95  C   UNL A   1      44.529  26.980  36.911  1.00  0.00     0.198 A 
ATOM     96  F   UNL A   1      42.249  27.165  36.358  1.00  0.00    -0.203 F 
ATOM     97  F   UNL A   1      47.415  28.780  35.662  1.00  0.00    -0.200 F 
ATOM     98  C   UNL A   1      45.843  27.387  36.742  1.00  0.00     0.200 A 
ATOM     99  F   UNL A   1      44.236  26.005  37.783  1.00  0.00    -0.200 F 
ATOM    100  F   UNL A   1      46.823  26.794  37.436  1.00  0.00    -0.200 F 
ENDBRANCH  67  90
ENDBRANCH  41  42
ENDBRANCH  33  36
ENDBRANCH  31  32
ENDBRANCH  30  31
ENDBRANCH   1  30
TORSDOF 15
ENDMDL
MODEL 3
REMARK VINA RESULT:     -13.5      5.391      9.551
REMARK SMILES C[C@@H]1CCCN(c2ccc(NC(=O)Cc3cccs3)c(C(=O)NCCCCNC(=O)c3ccc(-c4c5nc(c(-c6c(F)c(F)c(F)c(F)c6F)c6ccc([nH]6)c(-c6c(F)c(F)c(F)c(F)c6F)c6nc(c(-c7c(F)c(F)c(F)c(F)c7F)c7ccc4[nH]7)C=C6)C=C5)cc3)c2)C1
REMARK SMILES IDX 25 1 24 2 23 3 21 4 22 5 20 7 7 8 8 9 94 10 9 11 10 12 6 13
REMARK SMILES IDX 1 14 2 15 3 16 95 17 4 18 5 19 11 20 12 21 13 23 14 24 15 25
REMARK SMILES IDX 16 26 19 27 17 28 18 29 26 30 27 31 28 32 29 33 30 35 31 36
REMARK SMILES IDX 32 37 93 38 33 39 92 40 34 41 35 42 36 43 86 44 37 45 91 46
REMARK SMILES IDX 85 47 87 48 38 49 90 50 84 51 83 52 39 54 71 55 51 56 70 57
REMARK SMILES IDX 52 58 55 59 69 60 88 61 53 62 54 63 68 65 89 66 56 67 40 68
REMARK SMILES IDX 41 69 49 70 42 71 43 72 47 73 50 74 44 75 45 76 48 77 46 78
REMARK SMILES IDX 72 79 73 80 81 81 74 82 75 83 79 84 82 85 76 86 77 87 80 88
REMARK SMILES IDX 78 89 57 90 58 91 66 92 59 93 60 94 64 95 67 96 61 97 62 98
REMARK SMILES IDX 65 99 63 100
REMARK H PARENT 23 6 11 22 28 34 87 53 55 64
REMARK Flexibility Score: inf
ROOT
ATOM      1  C   UNL A   1      37.157  21.913  24.304  1.00  0.00     0.023 C 
ENDROOT
BRANCH   1   2
ATOM      2  C   UNL A   1      36.705  23.071  25.186  1.00  0.00     0.116 C 
BRANCH   2   3
ATOM      3  N   UNL A   1      36.054  22.697  26.431  1.00  0.00    -0.352 N 
ATOM      4  C   UNL A   1      34.748  22.881  26.847  1.00  0.00     0.253 C 
ATOM      5  O   UNL A   1      34.425  22.450  27.955  1.00  0.00    -0.269 OA
ATOM      6  H   UNL A   1      36.635  22.239  27.081  1.00  0.00     0.163 HD
BRANCH   4   7
ATOM      7  C   UNL A   1      33.744  23.649  26.044  1.00  0.00     0.065 A 
ATOM      8  C   UNL A   1      33.017  25.838  25.255  1.00  0.00     0.038 A 
ATOM      9  C   UNL A   1      31.786  25.269  24.939  1.00  0.00     0.028 A 
ATOM     10  C   UNL A   1      34.022  24.977  25.684  1.00  0.00     0.042 A 
ATOM     11  C   UNL A   1      31.542  23.902  25.111  1.00  0.00     0.029 A 
ATOM     12  C   UNL A   1      32.484  23.079  25.724  1.00  0.00     0.054 A 
BRANCH   8  13
ATOM     13  N   UNL A   1      33.191  27.207  25.215  1.00  0.00    -0.371 N 
ATOM     14  C   UNL A   1      30.577  29.684  23.936  1.00  0.00     0.009 C 
ATOM     15  C   UNL A   1      31.325  28.801  24.934  1.00  0.00     0.005 C 
ATOM     16  C   UNL A   1      31.936  29.654  26.054  1.00  0.00     0.007 C 
ATOM     17  C   UNL A   1      32.413  27.970  24.227  1.00  0.00     0.119 C 
ATOM     18  C   UNL A   1      32.706  28.779  27.041  1.00  0.00     0.022 C 
ATOM     19  C   UNL A   1      33.774  27.952  26.327  1.00  0.00     0.116 C 
ENDBRANCH   8  13
BRANCH  12  20
ATOM     20  N   UNL A   1      32.234  21.728  26.057  1.00  0.00    -0.325 N 
ATOM     21  C   UNL A   1      32.560  20.514  25.520  1.00  0.00     0.229 C 
ATOM     22  H   UNL A   1      31.692  21.639  26.873  1.00  0.00     0.169 HD
ATOM     23  O   UNL A   1      32.151  19.511  26.120  1.00  0.00    -0.274 OA
BRANCH  21  24
ATOM     24  C   UNL A   1      33.382  20.330  24.262  1.00  0.00     0.147 C 
BRANCH  24  25
ATOM     25  C   UNL A   1      33.778  18.904  23.980  1.00  0.00     0.014 A 
ATOM     26  C   UNL A   1      34.840  18.143  24.435  1.00  0.00     0.016 A 
ATOM     27  S   UNL A   1      32.769  17.975  22.938  1.00  0.00    -0.148 S 
ATOM     28  C   UNL A   1      34.798  16.799  23.968  1.00  0.00     0.012 A 
ATOM     29  C   UNL A   1      33.734  16.579  23.126  1.00  0.00     0.065 A 
ENDBRANCH  24  25
ENDBRANCH  21  24
ENDBRANCH  12  20
ENDBRANCH   4   7
ENDBRANCH   2   3
ENDBRANCH   1   2
BRANCH   1  30
ATOM     30  C   UNL A   1      37.652  20.657  25.013  1.00  0.00     0.023 C 
BRANCH  30  31
ATOM     31  C   UNL A   1      38.931  20.794  25.832  1.00  0.00     0.116 C 
BRANCH  31  32
ATOM     32  N   UNL A   1      39.831  19.654  25.730  1.00  0.00    -0.352 N 
ATOM     33  C   UNL A   1      41.188  19.562  25.954  1.00  0.00     0.251 C 
ATOM     34  H   UNL A   1      39.401  18.812  25.455  1.00  0.00     0.163 HD
ATOM     35  O   UNL A   1      41.771  18.505  25.752  1.00  0.00    -0.269 OA
BRANCH  33  36
ATOM     36  C   UNL A   1      41.954  20.752  26.386  1.00  0.00     0.039 A 
ATOM     37  C   UNL A   1      42.450  21.621  25.408  1.00  0.00     0.014 A 
ATOM     38  C   UNL A   1      42.154  21.036  27.737  1.00  0.00     0.014 A 
ATOM     39  C   UNL A   1      43.034  22.833  25.788  1.00  0.00     0.010 A 
ATOM     40  C   UNL A   1      42.661  22.277  28.113  1.00  0.00     0.010 A 
ATOM     41  C   UNL A   1      43.082  23.199  27.142  1.00  0.00    -0.014 A 
BRANCH  41  42
ATOM     42  C   UNL A   1      43.517  24.555  27.568  1.00  0.00     0.031 A 
ATOM     43  C   UNL A   1      42.501  25.598  27.931  1.00  0.00     0.074 A 
ATOM     44  C   UNL A   1      44.825  24.876  27.525  1.00  0.00     0.049 A 
ATOM     45  N   UNL A   1      42.675  26.870  28.193  1.00  0.00    -0.248 NA
ATOM     46  C   UNL A   1      41.097  25.162  27.978  1.00  0.00     0.031 C 
ATOM     47  C   UNL A   1      45.909  23.969  27.144  1.00  0.00     0.029 A 
ATOM     48  N   UNL A   1      45.466  26.064  27.785  1.00  0.00    -0.354 N 
ATOM     49  C   UNL A   1      41.406  27.387  28.413  1.00  0.00     0.074 A 
ATOM     50  C   UNL A   1      40.467  26.304  28.211  1.00  0.00     0.031 C 
ATOM     51  C   UNL A   1      47.079  24.625  27.211  1.00  0.00     0.029 A 
ATOM     52  C   UNL A   1      46.826  26.010  27.597  1.00  0.00     0.049 A 
ATOM     53  H   UNL A   1      44.995  26.876  28.079  1.00  0.00     0.167 HD
ATOM     54  C   UNL A   1      41.057  28.647  28.769  1.00  0.00     0.037 A 
ATOM     55  C   UNL A   1      47.763  26.971  27.706  1.00  0.00     0.037 A 
ATOM     56  C   UNL A   1      41.993  29.716  28.998  1.00  0.00     0.049 A 
ATOM     57  C   UNL A   1      47.347  28.363  28.094  1.00  0.00     0.074 A 
ATOM     58  C   UNL A   1      41.741  31.007  29.427  1.00  0.00     0.029 A 
ATOM     59  N   UNL A   1      43.365  29.615  28.816  1.00  0.00    -0.354 N 
ATOM     60  N   UNL A   1      46.150  28.826  28.357  1.00  0.00    -0.248 NA
ATOM     61  C   UNL A   1      48.415  29.369  28.199  1.00  0.00     0.031 C 
ATOM     62  C   UNL A   1      42.956  31.700  29.468  1.00  0.00     0.029 A 
ATOM     63  C   UNL A   1      43.970  30.828  29.105  1.00  0.00     0.049 A 
ATOM     64  H   UNL A   1      43.839  28.803  28.525  1.00  0.00     0.167 HD
ATOM     65  C   UNL A   1      46.321  30.164  28.681  1.00  0.00     0.074 A 
ATOM     66  C   UNL A   1      47.740  30.439  28.594  1.00  0.00     0.031 C 
ATOM     67  C   UNL A   1      45.385  31.083  29.022  1.00  0.00     0.037 A 
BRANCH  54  68
ATOM     68  C   UNL A   1      39.595  28.936  28.939  1.00  0.00     0.064 A 
ATOM     69  C   UNL A   1      38.967  28.834  30.189  1.00  0.00     0.173 A 
ATOM     70  C   UNL A   1      38.817  29.348  27.846  1.00  0.00     0.173 A 
ATOM     71  F   UNL A   1      39.665  28.432  31.263  1.00  0.00    -0.203 F 
ATOM     72  C   UNL A   1      37.611  29.105  30.335  1.00  0.00     0.198 A 
ATOM     73  C   UNL A   1      37.466  29.646  28.001  1.00  0.00     0.198 A 
ATOM     74  F   UNL A   1      39.370  29.469  26.630  1.00  0.00    -0.203 F 
ATOM     75  F   UNL A   1      37.022  28.952  31.529  1.00  0.00    -0.200 F 
ATOM     76  C   UNL A   1      36.862  29.517  29.242  1.00  0.00     0.200 A 
ATOM     77  F   UNL A   1      36.747  30.054  26.946  1.00  0.00    -0.200 F 
ATOM     78  F   UNL A   1      35.556  29.780  29.384  1.00  0.00    -0.200 F 
ENDBRANCH  54  68
BRANCH  55  79
ATOM     79  C   UNL A   1      49.192  26.646  27.463  1.00  0.00     0.064 A 
ATOM     80  C   UNL A   1      50.063  26.412  28.536  1.00  0.00     0.173 A 
ATOM     81  C   UNL A   1      49.715  26.561  26.165  1.00  0.00     0.173 A 
ATOM     82  F   UNL A   1      49.612  26.503  29.796  1.00  0.00    -0.203 F 
ATOM     83  C   UNL A   1      51.409  26.122  28.320  1.00  0.00     0.198 A 
ATOM     84  C   UNL A   1      51.056  26.247  25.950  1.00  0.00     0.198 A 
ATOM     85  F   UNL A   1      48.921  26.773  25.105  1.00  0.00    -0.203 F 
ATOM     86  F   UNL A   1      52.228  25.942  29.364  1.00  0.00    -0.200 F 
ATOM     87  C   UNL A   1      51.903  26.034  27.028  1.00  0.00     0.200 A 
ATOM     88  F   UNL A   1      51.526  26.151  24.700  1.00  0.00    -0.200 F 
ATOM     89  F   UNL A   1      53.195  25.751  26.820  1.00  0.00    -0.200 F 
ENDBRANCH  55  79
BRANCH  67  90
ATOM     90  C   UNL A   1      45.866  32.463  29.356  1.00  0.00     0.064 A 
ATOM     91  C   UNL A   1      46.273  32.804  30.654  1.00  0.00     0.173 A 
ATOM     92  C   UNL A   1      45.964  33.442  28.356  1.00  0.00     0.173 A 
ATOM     93  F   UNL A   1      46.181  31.906  31.648  1.00  0.00    -0.203 F 
ATOM     94  C   UNL A   1      46.748  34.081  30.942  1.00  0.00     0.198 A 
ATOM     95  C   UNL A   1      46.462  34.710  28.643  1.00  0.00     0.198 A 
ATOM     96  F   UNL A   1      45.590  33.164  27.098  1.00  0.00    -0.203 F 
ATOM     97  F   UNL A   1      47.097  34.397  32.197  1.00  0.00    -0.200 F 
ATOM     98  C   UNL A   1      46.850  35.030  29.935  1.00  0.00     0.200 A 
ATOM     99  F   UNL A   1      46.570  35.622  27.666  1.00  0.00    -0.200 F 
ATOM    100  F   UNL A   1      47.314  36.255  30.212  1.00  0.00    -0.200 F 
ENDBRANCH  67  90
ENDBRANCH  41  42
ENDBRANCH  33  36
ENDBRANCH  31  32
ENDBRANCH  30  31
ENDBRANCH   1  30
TORSDOF 15
ENDMDL
