MODEL 1
REMARK VINA RESULT:     -13.0      0.000      0.000
REMARK SMILES O=C(NCCCCNC(=O)c1cncc(Oc2cc(F)ccc2F)n1)c1ccc(-c2c3nc(c(-c4c(F)c(F)c(F)c(F)c4F)c4ccc([nH]4)c(-c4c(F)c(F)c(F)c(F)c4F)c4nc(c(-c5c(F)c(F)c(F)c(F)c5F)c5ccc2[nH]5)C=C4)C=C3)cc1
REMARK SMILES IDX 5 1 4 2 3 3 1 4 2 5 26 7 27 8 88 9 28 10 87 11 29 12 30 13
REMARK SMILES IDX 31 14 81 15 32 16 86 17 80 18 82 19 33 20 85 21 79 22 78 23
REMARK SMILES IDX 34 25 66 26 46 27 65 28 47 29 50 30 64 31 83 32 48 33 49 34
REMARK SMILES IDX 63 36 84 37 51 38 35 39 36 40 44 41 37 42 38 43 42 44 45 45
REMARK SMILES IDX 39 46 40 47 43 48 41 49 67 50 68 51 76 52 69 53 70 54 74 55
REMARK SMILES IDX 77 56 71 57 72 58 75 59 73 60 52 61 53 62 61 63 54 64 55 65
REMARK SMILES IDX 59 66 62 67 56 68 57 69 60 70 58 71 6 72 7 73 8 74 9 75
REMARK SMILES IDX 10 77 11 78 12 79 25 80 13 81 15 82 14 83 16 84 17 85 18 86
REMARK SMILES IDX 23 87 19 88 22 89 24 90 20 91 21 92
REMARK H PARENT 3 6 82 24 50 35 8 76
REMARK Flexibility Score: inf
ROOT
ATOM      1  C   UNL A   1      31.445  32.146  26.631  1.00  0.00     0.023 C 
ENDROOT
BRANCH   1   2
ATOM      2  C   UNL A   1      32.634  32.819  27.304  1.00  0.00     0.116 C 
BRANCH   2   3
ATOM      3  N   UNL A   1      32.373  34.195  27.699  1.00  0.00    -0.352 N 
ATOM      4  O   UNL A   1      32.580  36.084  28.919  1.00  0.00    -0.269 OA
ATOM      5  C   UNL A   1      33.012  34.969  28.640  1.00  0.00     0.251 C 
ATOM      6  H   UNL A   1      31.631  34.636  27.224  1.00  0.00     0.163 HD
BRANCH   5   7
ATOM      7  C   UNL A   1      34.201  34.443  29.346  1.00  0.00     0.039 A 
ATOM      8  C   UNL A   1      35.481  34.625  28.821  1.00  0.00     0.014 A 
ATOM      9  C   UNL A   1      34.032  33.747  30.548  1.00  0.00     0.014 A 
ATOM     10  C   UNL A   1      36.561  33.969  29.397  1.00  0.00     0.010 A 
ATOM     11  C   UNL A   1      35.137  33.167  31.181  1.00  0.00     0.010 A 
ATOM     12  C   UNL A   1      36.405  33.239  30.589  1.00  0.00    -0.014 A 
BRANCH  12  13
ATOM     13  C   UNL A   1      37.605  32.615  31.204  1.00  0.00     0.031 A 
ATOM     14  C   UNL A   1      38.045  32.962  32.597  1.00  0.00     0.074 A 
ATOM     15  C   UNL A   1      38.261  31.668  30.506  1.00  0.00     0.049 A 
ATOM     16  N   UNL A   1      39.003  32.427  33.314  1.00  0.00    -0.248 NA
ATOM     17  C   UNL A   1      37.334  34.056  33.276  1.00  0.00     0.031 C 
ATOM     18  C   UNL A   1      37.938  31.269  29.135  1.00  0.00     0.029 A 
ATOM     19  N   UNL A   1      39.297  30.843  30.859  1.00  0.00    -0.354 N 
ATOM     20  C   UNL A   1      39.022  33.127  34.512  1.00  0.00     0.074 A 
ATOM     21  C   UNL A   1      37.995  34.143  34.422  1.00  0.00     0.031 C 
ATOM     22  C   UNL A   1      38.705  30.227  28.790  1.00  0.00     0.029 A 
ATOM     23  C   UNL A   1      39.613  29.920  29.893  1.00  0.00     0.049 A 
ATOM     24  H   UNL A   1      39.771  30.908  31.720  1.00  0.00     0.167 HD
ATOM     25  C   UNL A   1      39.818  32.930  35.590  1.00  0.00     0.037 A 
ATOM     26  C   UNL A   1      40.524  28.931  29.890  1.00  0.00     0.037 A 
ATOM     27  C   UNL A   1      40.816  31.895  35.686  1.00  0.00     0.049 A 
ATOM     28  C   UNL A   1      41.384  28.724  31.101  1.00  0.00     0.074 A 
ATOM     29  C   UNL A   1      41.630  31.580  36.761  1.00  0.00     0.029 A 
ATOM     30  N   UNL A   1      41.138  31.009  34.668  1.00  0.00    -0.354 N 
ATOM     31  N   UNL A   1      41.362  29.366  32.243  1.00  0.00    -0.248 NA
ATOM     32  C   UNL A   1      42.399  27.666  31.023  1.00  0.00     0.031 C 
ATOM     33  C   UNL A   1      42.475  30.533  36.378  1.00  0.00     0.029 A 
ATOM     34  C   UNL A   1      42.158  30.166  35.079  1.00  0.00     0.049 A 
ATOM     35  H   UNL A   1      40.706  30.983  33.783  1.00  0.00     0.167 HD
ATOM     36  C   UNL A   1      42.357  28.795  33.021  1.00  0.00     0.074 A 
ATOM     37  C   UNL A   1      42.949  27.736  32.229  1.00  0.00     0.031 C 
ATOM     38  C   UNL A   1      42.747  29.125  34.275  1.00  0.00     0.037 A 
BRANCH  25  39
ATOM     39  C   UNL A   1      39.657  33.855  36.761  1.00  0.00     0.064 A 
ATOM     40  C   UNL A   1      38.830  33.500  37.837  1.00  0.00     0.173 A 
ATOM     41  C   UNL A   1      40.265  35.119  36.791  1.00  0.00     0.173 A 
ATOM     42  F   UNL A   1      38.217  32.306  37.853  1.00  0.00    -0.203 F 
ATOM     43  C   UNL A   1      38.611  34.377  38.895  1.00  0.00     0.198 A 
ATOM     44  C   UNL A   1      40.064  35.985  37.863  1.00  0.00     0.198 A 
ATOM     45  F   UNL A   1      41.072  35.504  35.790  1.00  0.00    -0.203 F 
ATOM     46  F   UNL A   1      37.797  34.025  39.900  1.00  0.00    -0.200 F 
ATOM     47  C   UNL A   1      39.232  35.617  38.910  1.00  0.00     0.200 A 
ATOM     48  F   UNL A   1      40.680  37.176  37.886  1.00  0.00    -0.200 F 
ATOM     49  F   UNL A   1      39.031  36.457  39.935  1.00  0.00    -0.200 F 
ENDBRANCH  25  39
BRANCH  26  50
ATOM     50  C   UNL A   1      40.632  28.057  28.695  1.00  0.00     0.064 A 
ATOM     51  C   UNL A   1      41.388  28.444  27.579  1.00  0.00     0.173 A 
ATOM     52  C   UNL A   1      39.908  26.862  28.614  1.00  0.00     0.173 A 
ATOM     53  F   UNL A   1      42.090  29.587  27.609  1.00  0.00    -0.203 F 
ATOM     54  C   UNL A   1      41.387  27.685  26.413  1.00  0.00     0.198 A 
ATOM     55  C   UNL A   1      39.927  26.090  27.455  1.00  0.00     0.198 A 
ATOM     56  F   UNL A   1      39.182  26.445  29.662  1.00  0.00    -0.203 F 
ATOM     57  F   UNL A   1      42.076  28.105  25.342  1.00  0.00    -0.200 F 
ATOM     58  C   UNL A   1      40.656  26.509  26.350  1.00  0.00     0.200 A 
ATOM     59  F   UNL A   1      39.232  24.946  27.402  1.00  0.00    -0.200 F 
ATOM     60  F   UNL A   1      40.649  25.781  25.225  1.00  0.00    -0.200 F 
ENDBRANCH  26  50
BRANCH  38  61
ATOM     61  C   UNL A   1      43.873  28.340  34.875  1.00  0.00     0.064 A 
ATOM     62  C   UNL A   1      45.202  28.750  34.697  1.00  0.00     0.173 A 
ATOM     63  C   UNL A   1      43.638  27.141  35.562  1.00  0.00     0.173 A 
ATOM     64  F   UNL A   1      45.477  29.886  34.041  1.00  0.00    -0.203 F 
ATOM     65  C   UNL A   1      46.258  27.978  35.175  1.00  0.00     0.198 A 
ATOM     66  C   UNL A   1      44.694  26.384  36.058  1.00  0.00     0.198 A 
ATOM     67  F   UNL A   1      42.382  26.717  35.769  1.00  0.00    -0.203 F 
ATOM     68  F   UNL A   1      47.522  28.373  34.968  1.00  0.00    -0.200 F 
ATOM     69  C   UNL A   1      46.002  26.797  35.856  1.00  0.00     0.200 A 
ATOM     70  F   UNL A   1      44.446  25.252  36.734  1.00  0.00    -0.200 F 
ATOM     71  F   UNL A   1      47.019  26.058  36.319  1.00  0.00    -0.200 F 
ENDBRANCH  38  61
ENDBRANCH  12  13
ENDBRANCH   5   7
ENDBRANCH   2   3
ENDBRANCH   1   2
BRANCH   1  72
ATOM     72  C   UNL A   1      31.674  30.708  26.167  1.00  0.00     0.023 C 
BRANCH  72  73
ATOM     73  C   UNL A   1      32.714  29.917  26.957  1.00  0.00     0.116 C 
BRANCH  73  74
ATOM     74  N   UNL A   1      32.206  28.647  27.446  1.00  0.00    -0.351 N 
ATOM     75  C   UNL A   1      31.899  27.504  26.741  1.00  0.00     0.271 C 
ATOM     76  H   UNL A   1      32.060  28.596  28.419  1.00  0.00     0.163 HD
ATOM     77  O   UNL A   1      31.430  26.534  27.331  1.00  0.00    -0.267 OA
BRANCH  75  78
ATOM     78  C   UNL A   1      32.156  27.446  25.287  1.00  0.00     0.150 A 
ATOM     79  C   UNL A   1      33.444  27.217  24.821  1.00  0.00     0.145 A 
ATOM     80  N   UNL A   1      31.098  27.645  24.462  1.00  0.00    -0.205 NA
ATOM     81  N   UNL A   1      33.746  27.217  23.499  1.00  0.00    -0.257 NA
ATOM     82  C   UNL A   1      31.392  27.612  23.142  1.00  0.00     0.238 A 
ATOM     83  C   UNL A   1      32.688  27.419  22.673  1.00  0.00     0.179 A 
BRANCH  82  84
ATOM     84  O   UNL A   1      30.403  27.817  22.188  1.00  0.00    -0.434 OA
BRANCH  84  85
ATOM     85  C   UNL A   1      29.540  28.858  22.420  1.00  0.00     0.168 A 
ATOM     86  C   UNL A   1      29.850  30.155  22.011  1.00  0.00     0.089 A 
ATOM     87  C   UNL A   1      28.293  28.584  22.986  1.00  0.00     0.166 A 
ATOM     88  C   UNL A   1      28.919  31.167  22.214  1.00  0.00     0.127 A 
ATOM     89  C   UNL A   1      27.361  29.600  23.179  1.00  0.00     0.046 A 
ATOM     90  F   UNL A   1      27.977  27.331  23.342  1.00  0.00    -0.203 F 
ATOM     91  F   UNL A   1      29.213  32.417  21.834  1.00  0.00    -0.207 F 
ATOM     92  C   UNL A   1      27.678  30.903  22.793  1.00  0.00     0.042 A 
ENDBRANCH  84  85
ENDBRANCH  82  84
ENDBRANCH  75  78
ENDBRANCH  73  74
ENDBRANCH  72  73
ENDBRANCH   1  72
TORSDOF 13
ENDMDL
MODEL 2
REMARK VINA RESULT:     -13.0      0.201      1.614
REMARK SMILES O=C(NCCCCNC(=O)c1cncc(Oc2cc(F)ccc2F)n1)c1ccc(-c2c3nc(c(-c4c(F)c(F)c(F)c(F)c4F)c4ccc([nH]4)c(-c4c(F)c(F)c(F)c(F)c4F)c4nc(c(-c5c(F)c(F)c(F)c(F)c5F)c5ccc2[nH]5)C=C4)C=C3)cc1
REMARK SMILES IDX 5 1 4 2 3 3 1 4 2 5 26 7 27 8 88 9 28 10 87 11 29 12 30 13
REMARK SMILES IDX 31 14 81 15 32 16 86 17 80 18 82 19 33 20 85 21 79 22 78 23
REMARK SMILES IDX 34 25 66 26 46 27 65 28 47 29 50 30 64 31 83 32 48 33 49 34
REMARK SMILES IDX 63 36 84 37 51 38 35 39 36 40 44 41 37 42 38 43 42 44 45 45
REMARK SMILES IDX 39 46 40 47 43 48 41 49 67 50 68 51 76 52 69 53 70 54 74 55
REMARK SMILES IDX 77 56 71 57 72 58 75 59 73 60 52 61 53 62 61 63 54 64 55 65
REMARK SMILES IDX 59 66 62 67 56 68 57 69 60 70 58 71 6 72 7 73 8 74 9 75
REMARK SMILES IDX 10 77 11 78 12 79 25 80 13 81 15 82 14 83 16 84 17 85 18 86
REMARK SMILES IDX 23 87 19 88 22 89 24 90 20 91 21 92
REMARK H PARENT 3 6 82 24 50 35 8 76
REMARK Flexibility Score: inf
ROOT
ATOM      1  C   UNL A   1      31.389  32.110  26.741  1.00  0.00     0.023 C 
ENDROOT
BRANCH   1   2
ATOM      2  C   UNL A   1      32.629  32.846  27.233  1.00  0.00     0.116 C 
BRANCH   2   3
ATOM      3  N   UNL A   1      32.357  34.202  27.684  1.00  0.00    -0.352 N 
ATOM      4  O   UNL A   1      32.545  36.039  28.984  1.00  0.00    -0.269 OA
ATOM      5  C   UNL A   1      32.986  34.940  28.660  1.00  0.00     0.251 C 
ATOM      6  H   UNL A   1      31.614  34.658  27.225  1.00  0.00     0.163 HD
BRANCH   5   7
ATOM      7  C   UNL A   1      34.177  34.392  29.348  1.00  0.00     0.039 A 
ATOM      8  C   UNL A   1      35.454  34.580  28.821  1.00  0.00     0.014 A 
ATOM      9  C   UNL A   1      34.009  33.671  30.535  1.00  0.00     0.014 A 
ATOM     10  C   UNL A   1      36.534  33.906  29.377  1.00  0.00     0.010 A 
ATOM     11  C   UNL A   1      35.115  33.072  31.150  1.00  0.00     0.010 A 
ATOM     12  C   UNL A   1      36.380  33.150  30.553  1.00  0.00    -0.014 A 
BRANCH  12  13
ATOM     13  C   UNL A   1      37.580  32.507  31.149  1.00  0.00     0.031 A 
ATOM     14  C   UNL A   1      38.034  32.828  32.543  1.00  0.00     0.074 A 
ATOM     15  C   UNL A   1      38.223  31.567  30.430  1.00  0.00     0.049 A 
ATOM     16  N   UNL A   1      38.993  32.273  33.244  1.00  0.00    -0.248 NA
ATOM     17  C   UNL A   1      37.337  33.916  33.245  1.00  0.00     0.031 C 
ATOM     18  C   UNL A   1      37.886  31.192  29.055  1.00  0.00     0.029 A 
ATOM     19  N   UNL A   1      39.255  30.728  30.761  1.00  0.00    -0.354 N 
ATOM     20  C   UNL A   1      39.027  32.953  34.453  1.00  0.00     0.074 A 
ATOM     21  C   UNL A   1      38.008  33.979  34.387  1.00  0.00     0.031 C 
ATOM     22  C   UNL A   1      38.642  30.150  28.687  1.00  0.00     0.029 A 
ATOM     23  C   UNL A   1      39.555  29.818  29.777  1.00  0.00     0.049 A 
ATOM     24  H   UNL A   1      39.736  30.775  31.619  1.00  0.00     0.167 HD
ATOM     25  C   UNL A   1      39.830  32.732  35.521  1.00  0.00     0.037 A 
ATOM     26  C   UNL A   1      40.459  28.822  29.751  1.00  0.00     0.037 A 
ATOM     27  C   UNL A   1      40.820  31.689  35.592  1.00  0.00     0.049 A 
ATOM     28  C   UNL A   1      41.327  28.589  30.951  1.00  0.00     0.074 A 
ATOM     29  C   UNL A   1      41.641  31.349  36.655  1.00  0.00     0.029 A 
ATOM     30  N   UNL A   1      41.128  30.817  34.557  1.00  0.00    -0.354 N 
ATOM     31  N   UNL A   1      41.319  29.212  32.104  1.00  0.00    -0.248 NA
ATOM     32  C   UNL A   1      42.332  27.524  30.848  1.00  0.00     0.031 C 
ATOM     33  C   UNL A   1      42.474  30.302  36.248  1.00  0.00     0.029 A 
ATOM     34  C   UNL A   1      42.144  29.959  34.946  1.00  0.00     0.049 A 
ATOM     35  H   UNL A   1      40.688  30.809  33.675  1.00  0.00     0.167 HD
ATOM     36  C   UNL A   1      42.315  28.620  32.864  1.00  0.00     0.074 A 
ATOM     37  C   UNL A   1      42.893  27.570  32.050  1.00  0.00     0.031 C 
ATOM     38  C   UNL A   1      42.718  28.927  34.121  1.00  0.00     0.037 A 
BRANCH  25  39
ATOM     39  C   UNL A   1      39.686  33.640  36.708  1.00  0.00     0.064 A 
ATOM     40  C   UNL A   1      38.825  33.297  37.762  1.00  0.00     0.173 A 
ATOM     41  C   UNL A   1      40.345  34.877  36.775  1.00  0.00     0.173 A 
ATOM     42  F   UNL A   1      38.164  32.130  37.742  1.00  0.00    -0.203 F 
ATOM     43  C   UNL A   1      38.623  34.162  38.834  1.00  0.00     0.198 A 
ATOM     44  C   UNL A   1      40.160  35.728  37.862  1.00  0.00     0.198 A 
ATOM     45  F   UNL A   1      41.185  35.248  35.797  1.00  0.00    -0.203 F 
ATOM     46  F   UNL A   1      37.777  33.824  39.817  1.00  0.00    -0.200 F 
ATOM     47  C   UNL A   1      39.294  35.374  38.886  1.00  0.00     0.200 A 
ATOM     48  F   UNL A   1      40.824  36.892  37.920  1.00  0.00    -0.200 F 
ATOM     49  F   UNL A   1      39.109  36.201  39.924  1.00  0.00    -0.200 F 
ENDBRANCH  25  39
BRANCH  26  50
ATOM     50  C   UNL A   1      40.551  27.967  28.541  1.00  0.00     0.064 A 
ATOM     51  C   UNL A   1      39.909  26.722  28.483  1.00  0.00     0.173 A 
ATOM     52  C   UNL A   1      41.357  28.341  27.459  1.00  0.00     0.173 A 
ATOM     53  F   UNL A   1      39.135  26.318  29.501  1.00  0.00    -0.203 F 
ATOM     54  C   UNL A   1      40.099  25.867  27.401  1.00  0.00     0.198 A 
ATOM     55  C   UNL A   1      41.526  27.495  26.366  1.00  0.00     0.198 A 
ATOM     56  F   UNL A   1      41.979  29.530  27.465  1.00  0.00    -0.203 F 
ATOM     57  F   UNL A   1      39.516  24.659  27.394  1.00  0.00    -0.200 F 
ATOM     58  C   UNL A   1      40.908  26.253  26.343  1.00  0.00     0.200 A 
ATOM     59  F   UNL A   1      42.297  27.876  25.339  1.00  0.00    -0.200 F 
ATOM     60  F   UNL A   1      41.096  25.427  25.305  1.00  0.00    -0.200 F 
ENDBRANCH  26  50
BRANCH  38  61
ATOM     61  C   UNL A   1      43.843  28.124  34.699  1.00  0.00     0.064 A 
ATOM     62  C   UNL A   1      43.584  26.970  35.451  1.00  0.00     0.173 A 
ATOM     63  C   UNL A   1      45.175  28.544  34.570  1.00  0.00     0.173 A 
ATOM     64  F   UNL A   1      42.326  26.533  35.607  1.00  0.00    -0.203 F 
ATOM     65  C   UNL A   1      44.619  26.270  36.066  1.00  0.00     0.198 A 
ATOM     66  C   UNL A   1      46.209  27.829  35.167  1.00  0.00     0.198 A 
ATOM     67  F   UNL A   1      45.472  29.634  33.847  1.00  0.00    -0.203 F 
ATOM     68  F   UNL A   1      44.346  25.186  36.805  1.00  0.00    -0.200 F 
ATOM     69  C   UNL A   1      45.930  26.700  35.922  1.00  0.00     0.200 A 
ATOM     70  F   UNL A   1      47.477  28.234  35.011  1.00  0.00    -0.200 F 
ATOM     71  F   UNL A   1      46.925  26.023  36.510  1.00  0.00    -0.200 F 
ENDBRANCH  38  61
ENDBRANCH  12  13
ENDBRANCH   5   7
ENDBRANCH   2   3
ENDBRANCH   1   2
BRANCH   1  72
ATOM     72  C   UNL A   1      31.632  30.720  26.157  1.00  0.00     0.023 C 
BRANCH  72  73
ATOM     73  C   UNL A   1      32.702  29.887  26.861  1.00  0.00     0.116 C 
BRANCH  73  74
ATOM     74  N   UNL A   1      32.194  28.618  27.356  1.00  0.00    -0.351 N 
ATOM     75  C   UNL A   1      31.868  27.479  26.655  1.00  0.00     0.271 C 
ATOM     76  H   UNL A   1      32.066  28.566  28.331  1.00  0.00     0.163 HD
ATOM     77  O   UNL A   1      31.404  26.511  27.250  1.00  0.00    -0.267 OA
BRANCH  75  78
ATOM     78  C   UNL A   1      32.098  27.423  25.195  1.00  0.00     0.150 A 
ATOM     79  C   UNL A   1      33.366  27.141  24.706  1.00  0.00     0.145 A 
ATOM     80  N   UNL A   1      31.036  27.676  24.390  1.00  0.00    -0.205 NA
ATOM     81  N   UNL A   1      33.646  27.138  23.380  1.00  0.00    -0.257 NA
ATOM     82  C   UNL A   1      31.306  27.641  23.066  1.00  0.00     0.238 A 
ATOM     83  C   UNL A   1      32.584  27.395  22.573  1.00  0.00     0.179 A 
BRANCH  82  84
ATOM     84  O   UNL A   1      30.312  27.898  22.130  1.00  0.00    -0.434 OA
BRANCH  84  85
ATOM     85  C   UNL A   1      29.470  28.946  22.409  1.00  0.00     0.168 A 
ATOM     86  C   UNL A   1      29.775  30.243  21.996  1.00  0.00     0.089 A 
ATOM     87  C   UNL A   1      28.248  28.679  23.028  1.00  0.00     0.166 A 
ATOM     88  C   UNL A   1      28.863  31.262  22.249  1.00  0.00     0.127 A 
ATOM     89  C   UNL A   1      27.336  29.703  23.271  1.00  0.00     0.046 A 
ATOM     90  F   UNL A   1      27.935  27.427  23.388  1.00  0.00    -0.203 F 
ATOM     91  F   UNL A   1      29.153  32.513  21.866  1.00  0.00    -0.207 F 
ATOM     92  C   UNL A   1      27.648  31.006  22.880  1.00  0.00     0.042 A 
ENDBRANCH  84  85
ENDBRANCH  82  84
ENDBRANCH  75  78
ENDBRANCH  73  74
ENDBRANCH  72  73
ENDBRANCH   1  72
TORSDOF 13
ENDMDL
MODEL 3
REMARK VINA RESULT:     -12.8      6.576     11.824
REMARK SMILES O=C(NCCCCNC(=O)c1cncc(Oc2cc(F)ccc2F)n1)c1ccc(-c2c3nc(c(-c4c(F)c(F)c(F)c(F)c4F)c4ccc([nH]4)c(-c4c(F)c(F)c(F)c(F)c4F)c4nc(c(-c5c(F)c(F)c(F)c(F)c5F)c5ccc2[nH]5)C=C4)C=C3)cc1
REMARK SMILES IDX 5 1 4 2 3 3 1 4 2 5 26 7 27 8 88 9 28 10 87 11 29 12 30 13
REMARK SMILES IDX 31 14 81 15 32 16 86 17 80 18 82 19 33 20 85 21 79 22 78 23
REMARK SMILES IDX 34 25 66 26 46 27 65 28 47 29 50 30 64 31 83 32 48 33 49 34
REMARK SMILES IDX 63 36 84 37 51 38 35 39 36 40 44 41 37 42 38 43 42 44 45 45
REMARK SMILES IDX 39 46 40 47 43 48 41 49 67 50 68 51 76 52 69 53 70 54 74 55
REMARK SMILES IDX 77 56 71 57 72 58 75 59 73 60 52 61 53 62 61 63 54 64 55 65
REMARK SMILES IDX 59 66 62 67 56 68 57 69 60 70 58 71 6 72 7 73 8 74 9 75
REMARK SMILES IDX 10 77 11 78 12 79 25 80 13 81 15 82 14 83 16 84 17 85 18 86
REMARK SMILES IDX 23 87 19 88 22 89 24 90 20 91 21 92
REMARK H PARENT 3 6 82 24 50 35 8 76
REMARK Flexibility Score: inf
ROOT
ATOM      1  C   UNL A   1      38.172  19.271  25.324  1.00  0.00     0.023 C 
ENDROOT
BRANCH   1   2
ATOM      2  C   UNL A   1      39.510  19.854  25.759  1.00  0.00     0.116 C 
BRANCH   2   3
ATOM      3  N   UNL A   1      40.583  18.871  25.802  1.00  0.00    -0.352 N 
ATOM      4  O   UNL A   1      42.708  18.116  25.908  1.00  0.00    -0.269 OA
ATOM      5  C   UNL A   1      41.929  19.058  26.018  1.00  0.00     0.251 C 
ATOM      6  H   UNL A   1      40.306  17.938  25.654  1.00  0.00     0.163 HD
BRANCH   5   7
ATOM      7  C   UNL A   1      42.444  20.406  26.348  1.00  0.00     0.039 A 
ATOM      8  C   UNL A   1      42.518  20.836  27.673  1.00  0.00     0.014 A 
ATOM      9  C   UNL A   1      42.852  21.254  25.313  1.00  0.00     0.014 A 
ATOM     10  C   UNL A   1      42.828  22.163  27.949  1.00  0.00     0.010 A 
ATOM     11  C   UNL A   1      43.258  22.562  25.602  1.00  0.00     0.010 A 
ATOM     12  C   UNL A   1      43.210  23.040  26.919  1.00  0.00    -0.014 A 
BRANCH  12  13
ATOM     13  C   UNL A   1      43.602  24.428  27.274  1.00  0.00     0.031 A 
ATOM     14  C   UNL A   1      44.972  24.961  26.971  1.00  0.00     0.074 A 
ATOM     15  C   UNL A   1      42.670  25.234  27.820  1.00  0.00     0.049 A 
ATOM     16  N   UNL A   1      45.431  26.181  27.118  1.00  0.00    -0.248 NA
ATOM     17  C   UNL A   1      45.963  24.011  26.445  1.00  0.00     0.031 C 
ATOM     18  C   UNL A   1      41.314  24.816  28.182  1.00  0.00     0.029 A 
ATOM     19  N   UNL A   1      42.700  26.570  28.124  1.00  0.00    -0.354 N 
ATOM     20  C   UNL A   1      46.761  26.139  26.726  1.00  0.00     0.074 A 
ATOM     21  C   UNL A   1      47.047  24.770  26.353  1.00  0.00     0.031 C 
ATOM     22  C   UNL A   1      40.619  25.887  28.586  1.00  0.00     0.029 A 
ATOM     23  C   UNL A   1      41.494  27.056  28.565  1.00  0.00     0.049 A 
ATOM     24  H   UNL A   1      43.507  27.127  28.036  1.00  0.00     0.167 HD
ATOM     25  C   UNL A   1      47.656  27.155  26.672  1.00  0.00     0.037 A 
ATOM     26  C   UNL A   1      41.125  28.303  28.910  1.00  0.00     0.037 A 
ATOM     27  C   UNL A   1      47.355  28.522  27.013  1.00  0.00     0.049 A 
ATOM     28  C   UNL A   1      42.130  29.413  28.829  1.00  0.00     0.074 A 
ATOM     29  C   UNL A   1      48.180  29.631  26.933  1.00  0.00     0.029 A 
ATOM     30  N   UNL A   1      46.135  28.966  27.501  1.00  0.00    -0.354 N 
ATOM     31  N   UNL A   1      43.372  29.367  28.416  1.00  0.00    -0.248 NA
ATOM     32  C   UNL A   1      41.688  30.742  29.270  1.00  0.00     0.031 C 
ATOM     33  C   UNL A   1      47.473  30.738  27.416  1.00  0.00     0.029 A 
ATOM     34  C   UNL A   1      46.193  30.327  27.754  1.00  0.00     0.049 A 
ATOM     35  H   UNL A   1      45.343  28.398  27.647  1.00  0.00     0.167 HD
ATOM     36  C   UNL A   1      43.864  30.656  28.545  1.00  0.00     0.074 A 
ATOM     37  C   UNL A   1      42.778  31.469  29.054  1.00  0.00     0.031 C 
ATOM     38  C   UNL A   1      45.107  31.120  28.273  1.00  0.00     0.037 A 
BRANCH  25  39
ATOM     39  C   UNL A   1      49.056  26.835  26.237  1.00  0.00     0.064 A 
ATOM     40  C   UNL A   1      49.426  26.962  24.890  1.00  0.00     0.173 A 
ATOM     41  C   UNL A   1      50.013  26.342  27.137  1.00  0.00     0.173 A 
ATOM     42  F   UNL A   1      48.546  27.421  23.987  1.00  0.00    -0.203 F 
ATOM     43  C   UNL A   1      50.699  26.599  24.457  1.00  0.00     0.198 A 
ATOM     44  C   UNL A   1      51.294  26.003  26.705  1.00  0.00     0.198 A 
ATOM     45  F   UNL A   1      49.712  26.209  28.437  1.00  0.00    -0.203 F 
ATOM     46  F   UNL A   1      51.021  26.705  23.160  1.00  0.00    -0.200 F 
ATOM     47  C   UNL A   1      51.633  26.125  25.365  1.00  0.00     0.200 A 
ATOM     48  F   UNL A   1      52.202  25.563  27.587  1.00  0.00    -0.200 F 
ATOM     49  F   UNL A   1      52.862  25.787  24.951  1.00  0.00    -0.200 F 
ENDBRANCH  25  39
BRANCH  26  50
ATOM     50  C   UNL A   1      39.724  28.545  29.337  1.00  0.00     0.064 A 
ATOM     51  C   UNL A   1      38.775  29.067  28.446  1.00  0.00     0.173 A 
ATOM     52  C   UNL A   1      39.334  28.343  30.666  1.00  0.00     0.173 A 
ATOM     53  F   UNL A   1      39.106  29.286  27.165  1.00  0.00    -0.203 F 
ATOM     54  C   UNL A   1      37.498  29.412  28.879  1.00  0.00     0.198 A 
ATOM     55  C   UNL A   1      38.049  28.666  31.093  1.00  0.00     0.198 A 
ATOM     56  F   UNL A   1      40.205  27.833  31.550  1.00  0.00    -0.203 F 
ATOM     57  F   UNL A   1      36.626  29.959  28.020  1.00  0.00    -0.200 F 
ATOM     58  C   UNL A   1      37.135  29.212  30.203  1.00  0.00     0.200 A 
ATOM     59  F   UNL A   1      37.696  28.458  32.369  1.00  0.00    -0.200 F 
ATOM     60  F   UNL A   1      35.908  29.551  30.621  1.00  0.00    -0.200 F 
ENDBRANCH  26  50
BRANCH  38  61
ATOM     61  C   UNL A   1      45.371  32.574  28.525  1.00  0.00     0.064 A 
ATOM     62  C   UNL A   1      45.129  33.527  27.526  1.00  0.00     0.173 A 
ATOM     63  C   UNL A   1      45.935  33.010  29.732  1.00  0.00     0.173 A 
ATOM     64  F   UNL A   1      44.597  33.156  26.352  1.00  0.00    -0.203 F 
ATOM     65  C   UNL A   1      45.456  34.866  27.721  1.00  0.00     0.198 A 
ATOM     66  C   UNL A   1      46.239  34.353  29.933  1.00  0.00     0.198 A 
ATOM     67  F   UNL A   1      46.170  32.136  30.722  1.00  0.00    -0.203 F 
ATOM     68  F   UNL A   1      45.244  35.756  26.742  1.00  0.00    -0.200 F 
ATOM     69  C   UNL A   1      46.009  35.277  28.925  1.00  0.00     0.200 A 
ATOM     70  F   UNL A   1      46.755  34.753  31.104  1.00  0.00    -0.200 F 
ATOM     71  F   UNL A   1      46.319  36.567  29.114  1.00  0.00    -0.200 F 
ENDBRANCH  38  61
ENDBRANCH  12  13
ENDBRANCH   5   7
ENDBRANCH   2   3
ENDBRANCH   1   2
BRANCH   1  72
ATOM     72  C   UNL A   1      37.122  20.286  24.876  1.00  0.00     0.023 C 
BRANCH  72  73
ATOM     73  C   UNL A   1      37.510  21.753  25.043  1.00  0.00     0.116 C 
BRANCH  73  74
ATOM     74  N   UNL A   1      37.003  22.597  23.973  1.00  0.00    -0.351 N 
ATOM     75  C   UNL A   1      35.713  23.016  23.734  1.00  0.00     0.271 C 
ATOM     76  H   UNL A   1      37.677  22.913  23.329  1.00  0.00     0.163 HD
ATOM     77  O   UNL A   1      35.469  23.694  22.740  1.00  0.00    -0.267 OA
BRANCH  75  78
ATOM     78  C   UNL A   1      34.637  22.664  24.685  1.00  0.00     0.150 A 
ATOM     79  C   UNL A   1      34.521  23.355  25.884  1.00  0.00     0.145 A 
ATOM     80  N   UNL A   1      33.811  21.645  24.337  1.00  0.00    -0.205 NA
ATOM     81  N   UNL A   1      33.593  23.032  26.818  1.00  0.00    -0.257 NA
ATOM     82  C   UNL A   1      32.864  21.344  25.254  1.00  0.00     0.238 A 
ATOM     83  C   UNL A   1      32.768  22.010  26.472  1.00  0.00     0.179 A 
BRANCH  82  84
ATOM     84  O   UNL A   1      31.962  20.310  25.032  1.00  0.00    -0.434 OA
BRANCH  84  85
ATOM     85  C   UNL A   1      32.501  19.102  24.667  1.00  0.00     0.168 A 
ATOM     86  C   UNL A   1      32.896  18.171  25.628  1.00  0.00     0.089 A 
ATOM     87  C   UNL A   1      32.554  18.772  23.312  1.00  0.00     0.166 A 
ATOM     88  C   UNL A   1      33.380  16.936  25.211  1.00  0.00     0.127 A 
ATOM     89  C   UNL A   1      33.032  17.530  22.901  1.00  0.00     0.046 A 
ATOM     90  F   UNL A   1      32.136  19.649  22.389  1.00  0.00    -0.203 F 
ATOM     91  F   UNL A   1      33.773  16.041  26.126  1.00  0.00    -0.207 F 
ATOM     92  C   UNL A   1      33.451  16.606  23.859  1.00  0.00     0.042 A 
ENDBRANCH  84  85
ENDBRANCH  82  84
ENDBRANCH  75  78
ENDBRANCH  73  74
ENDBRANCH  72  73
ENDBRANCH   1  72
TORSDOF 13
ENDMDL
