MODEL 1
REMARK VINA RESULT:     -14.0      0.000      0.000
REMARK SMILES O=C1OC(c2ccc(Cl)cc2)=N/C1=C/Nc1ccc(O)c(C(=O)NCCCCNC(=O)c2ccc(-c3c4nc(c(-c5c(F)c(F)c(F)c(F)c5F)c5ccc([nH]5)c(-c5c(F)c(F)c(F)c(F)c5F)c5nc(c(-c6c(F)c(F)c(F)c(F)c6F)c6ccc3[nH]6)C=C5)C=C4)cc2)c1
REMARK SMILES IDX 26 1 25 2 24 3 22 4 23 5 21 7 16 8 17 9 95 10 18 11 19 12
REMARK SMILES IDX 15 13 14 15 1 16 2 17 3 18 13 19 4 20 12 21 5 22 6 23 11 24
REMARK SMILES IDX 7 25 10 26 8 27 9 28 20 29 27 31 28 32 29 33 30 34 31 36
REMARK SMILES IDX 32 37 33 38 94 39 34 40 93 41 35 42 36 43 37 44 87 45 38 46
REMARK SMILES IDX 92 47 86 48 88 49 39 50 91 51 85 52 84 53 40 55 72 56 52 57
REMARK SMILES IDX 71 58 53 59 56 60 70 61 89 62 54 63 55 64 69 66 90 67 57 68
REMARK SMILES IDX 41 69 42 70 50 71 43 72 44 73 48 74 51 75 45 76 46 77 49 78
REMARK SMILES IDX 47 79 73 80 74 81 82 82 75 83 76 84 80 85 83 86 77 87 78 88
REMARK SMILES IDX 81 89 79 90 58 91 59 92 67 93 60 94 61 95 65 96 68 97 62 98
REMARK SMILES IDX 63 99 66 100 64 101
REMARK H PARENT 24 6 15 14 20 30 29 35 88 54 56 65
REMARK Flexibility Score: inf
ROOT
ATOM      1  C   UNL A   1      32.858  29.281  24.420  1.00  0.00     0.023 C 
ENDROOT
BRANCH   1   2
ATOM      2  C   UNL A   1      32.444  28.596  23.113  1.00  0.00     0.116 C 
BRANCH   2   3
ATOM      3  N   UNL A   1      31.617  29.490  22.341  1.00  0.00    -0.352 N 
ATOM      4  C   UNL A   1      30.275  29.491  22.071  1.00  0.00     0.255 C 
ATOM      5  O   UNL A   1      29.901  30.337  21.252  1.00  0.00    -0.269 OA
ATOM      6  H   UNL A   1      32.107  30.239  21.933  1.00  0.00     0.163 HD
BRANCH   4   7
ATOM      7  C   UNL A   1      29.242  28.639  22.747  1.00  0.00     0.083 A 
ATOM      8  C   UNL A   1      28.952  26.467  23.873  1.00  0.00     0.039 A 
ATOM      9  C   UNL A   1      27.582  26.704  23.958  1.00  0.00     0.030 A 
ATOM     10  C   UNL A   1      29.757  27.423  23.247  1.00  0.00     0.043 A 
ATOM     11  C   UNL A   1      27.050  27.914  23.527  1.00  0.00     0.049 A 
ATOM     12  C   UNL A   1      27.879  28.888  22.957  1.00  0.00     0.128 A 
BRANCH   8  13
ATOM     13  N   UNL A   1      29.531  25.282  24.338  1.00  0.00    -0.360 N 
ATOM     14  H   UNL A   1      29.018  24.767  25.002  1.00  0.00     0.166 HD
BRANCH  13  15
ATOM     15  C   UNL A   1      30.741  24.767  23.958  1.00  0.00     0.119 C 
ATOM     16  O   UNL A   1      30.921  24.756  26.972  1.00  0.00    -0.244 OA
ATOM     17  C   UNL A   1      31.782  24.395  26.197  1.00  0.00     0.365 C 
ATOM     18  O   UNL A   1      33.005  23.866  26.492  1.00  0.00    -0.402 OA
ATOM     19  C   UNL A   1      31.781  24.406  24.710  1.00  0.00     0.168 C 
ATOM     20  C   UNL A   1      33.617  23.663  25.304  1.00  0.00     0.231 C 
ATOM     21  N   UNL A   1      32.977  23.957  24.221  1.00  0.00    -0.204 NA
BRANCH  20  22
ATOM     22  C   UNL A   1      34.989  23.184  25.385  1.00  0.00     0.037 A 
ATOM     23  C   UNL A   1      36.030  24.059  25.703  1.00  0.00     0.015 A 
ATOM     24  C   UNL A   1      35.229  21.821  25.182  1.00  0.00     0.015 A 
ATOM     25  C   UNL A   1      37.328  23.557  25.820  1.00  0.00     0.021 A 
ATOM     26  C   UNL A   1      36.530  21.330  25.281  1.00  0.00     0.021 A 
ATOM     27  C   UNL A   1      37.573  22.199  25.606  1.00  0.00     0.041 A 
ATOM     28  Cl  UNL A   1      39.174  21.588  25.750  1.00  0.00    -0.084 Cl
ENDBRANCH  20  22
ENDBRANCH  13  15
ENDBRANCH   8  13
BRANCH  12  29
ATOM     29  O   UNL A   1      27.292  30.087  22.692  1.00  0.00    -0.507 OA
ATOM     30  H   UNL A   1      27.822  30.836  22.502  1.00  0.00     0.293 HD
ENDBRANCH  12  29
ENDBRANCH   4   7
ENDBRANCH   2   3
ENDBRANCH   1   2
BRANCH   1  31
ATOM     31  C   UNL A   1      31.958  28.957  25.609  1.00  0.00     0.023 C 
BRANCH  31  32
ATOM     32  C   UNL A   1      32.387  29.616  26.912  1.00  0.00     0.116 C 
BRANCH  32  33
ATOM     33  N   UNL A   1      32.348  31.069  26.860  1.00  0.00    -0.352 N 
ATOM     34  C   UNL A   1      33.280  31.968  27.315  1.00  0.00     0.251 C 
ATOM     35  H   UNL A   1      31.547  31.460  26.444  1.00  0.00     0.163 HD
ATOM     36  O   UNL A   1      33.042  33.170  27.305  1.00  0.00    -0.269 OA
BRANCH  34  37
ATOM     37  C   UNL A   1      34.554  31.464  27.862  1.00  0.00     0.039 A 
ATOM     38  C   UNL A   1      35.592  32.371  28.074  1.00  0.00     0.014 A 
ATOM     39  C   UNL A   1      34.706  30.118  28.203  1.00  0.00     0.014 A 
ATOM     40  C   UNL A   1      36.764  31.936  28.689  1.00  0.00     0.010 A 
ATOM     41  C   UNL A   1      35.839  29.706  28.898  1.00  0.00     0.010 A 
ATOM     42  C   UNL A   1      36.882  30.610  29.143  1.00  0.00    -0.014 A 
BRANCH  42  43
ATOM     43  C   UNL A   1      38.087  30.179  29.892  1.00  0.00     0.031 A 
ATOM     44  C   UNL A   1      38.321  30.643  31.301  1.00  0.00     0.074 A 
ATOM     45  C   UNL A   1      38.983  29.378  29.283  1.00  0.00     0.049 A 
ATOM     46  N   UNL A   1      39.289  30.328  32.124  1.00  0.00    -0.248 NA
ATOM     47  C   UNL A   1      37.357  31.608  31.853  1.00  0.00     0.031 C 
ATOM     48  C   UNL A   1      38.900  28.920  27.895  1.00  0.00     0.029 A 
ATOM     49  N   UNL A   1      40.133  28.799  29.755  1.00  0.00    -0.354 N 
ATOM     50  C   UNL A   1      39.050  31.050  33.285  1.00  0.00     0.074 A 
ATOM     51  C   UNL A   1      37.888  31.875  33.037  1.00  0.00     0.031 C 
ATOM     52  C   UNL A   1      39.927  28.093  27.642  1.00  0.00     0.029 A 
ATOM     53  C   UNL A   1      40.760  27.994  28.836  1.00  0.00     0.049 A 
ATOM     54  H   UNL A   1      40.478  28.947  30.666  1.00  0.00     0.167 HD
ATOM     55  C   UNL A   1      39.722  31.008  34.460  1.00  0.00     0.037 A 
ATOM     56  C   UNL A   1      41.878  27.253  28.946  1.00  0.00     0.037 A 
ATOM     57  C   UNL A   1      40.876  30.179  34.700  1.00  0.00     0.049 A 
ATOM     58  C   UNL A   1      42.608  27.227  30.261  1.00  0.00     0.074 A 
ATOM     59  C   UNL A   1      41.596  30.020  35.871  1.00  0.00     0.029 A 
ATOM     60  N   UNL A   1      41.487  29.380  33.745  1.00  0.00    -0.354 N 
ATOM     61  N   UNL A   1      42.318  27.843  31.384  1.00  0.00    -0.248 NA
ATOM     62  C   UNL A   1      43.814  26.394  30.328  1.00  0.00     0.031 C 
ATOM     63  C   UNL A   1      42.678  29.174  35.608  1.00  0.00     0.029 A 
ATOM     64  C   UNL A   1      42.595  28.750  34.291  1.00  0.00     0.049 A 
ATOM     65  H   UNL A   1      41.180  29.275  32.815  1.00  0.00     0.167 HD
ATOM     66  C   UNL A   1      43.291  27.453  32.294  1.00  0.00     0.074 A 
ATOM     67  C   UNL A   1      44.159  26.522  31.601  1.00  0.00     0.031 C 
ATOM     68  C   UNL A   1      43.457  27.835  33.585  1.00  0.00     0.037 A 
BRANCH  55  69
ATOM     69  C   UNL A   1      39.225  31.883  35.577  1.00  0.00     0.064 A 
ATOM     70  C   UNL A   1      39.572  33.242  35.661  1.00  0.00     0.173 A 
ATOM     71  C   UNL A   1      38.364  31.369  36.557  1.00  0.00     0.173 A 
ATOM     72  F   UNL A   1      40.403  33.784  34.756  1.00  0.00    -0.203 F 
ATOM     73  C   UNL A   1      39.104  34.041  36.700  1.00  0.00     0.198 A 
ATOM     74  C   UNL A   1      37.868  32.180  37.575  1.00  0.00     0.198 A 
ATOM     75  F   UNL A   1      37.996  30.080  36.525  1.00  0.00    -0.203 F 
ATOM     76  F   UNL A   1      39.494  35.320  36.789  1.00  0.00    -0.200 F 
ATOM     77  C   UNL A   1      38.245  33.511  37.651  1.00  0.00     0.200 A 
ATOM     78  F   UNL A   1      37.026  31.670  38.485  1.00  0.00    -0.200 F 
ATOM     79  F   UNL A   1      37.787  34.283  38.646  1.00  0.00    -0.200 F 
ENDBRANCH  55  69
BRANCH  56  80
ATOM     80  C   UNL A   1      42.359  26.452  27.788  1.00  0.00     0.064 A 
ATOM     81  C   UNL A   1      41.859  25.167  27.539  1.00  0.00     0.173 A 
ATOM     82  C   UNL A   1      43.336  26.950  26.914  1.00  0.00     0.173 A 
ATOM     83  F   UNL A   1      40.937  24.636  28.357  1.00  0.00    -0.203 F 
ATOM     84  C   UNL A   1      42.336  24.400  26.478  1.00  0.00     0.198 A 
ATOM     85  C   UNL A   1      43.788  26.198  25.833  1.00  0.00     0.198 A 
ATOM     86  F   UNL A   1      43.842  28.178  27.102  1.00  0.00    -0.203 F 
ATOM     87  F   UNL A   1      41.881  23.153  26.297  1.00  0.00    -0.200 F 
ATOM     88  C   UNL A   1      43.296  24.918  25.623  1.00  0.00     0.200 A 
ATOM     89  F   UNL A   1      44.701  26.710  24.997  1.00  0.00    -0.200 F 
ATOM     90  F   UNL A   1      43.753  24.183  24.600  1.00  0.00    -0.200 F 
ENDBRANCH  56  80
BRANCH  68  91
ATOM     91  C   UNL A   1      44.610  27.224  34.333  1.00  0.00     0.064 A 
ATOM     92  C   UNL A   1      44.485  26.003  35.015  1.00  0.00     0.173 A 
ATOM     93  C   UNL A   1      45.857  27.868  34.368  1.00  0.00     0.173 A 
ATOM     94  F   UNL A   1      43.312  25.351  35.023  1.00  0.00    -0.203 F 
ATOM     95  C   UNL A   1      45.548  25.478  35.745  1.00  0.00     0.198 A 
ATOM     96  C   UNL A   1      46.929  27.319  35.065  1.00  0.00     0.198 A 
ATOM     97  F   UNL A   1      46.036  29.031  33.725  1.00  0.00    -0.203 F 
ATOM     98  F   UNL A   1      45.381  24.351  36.452  1.00  0.00    -0.200 F 
ATOM     99  C   UNL A   1      46.769  26.133  35.766  1.00  0.00     0.200 A 
ATOM    100  F   UNL A   1      48.114  27.944  35.069  1.00  0.00    -0.200 F 
ATOM    101  F   UNL A   1      47.791  25.629  36.472  1.00  0.00    -0.200 F 
ENDBRANCH  68  91
ENDBRANCH  42  43
ENDBRANCH  34  37
ENDBRANCH  32  33
ENDBRANCH  31  32
ENDBRANCH   1  31
TORSDOF 15
ENDMDL
MODEL 2
REMARK VINA RESULT:     -13.9      2.115      2.991
REMARK SMILES O=C1OC(c2ccc(Cl)cc2)=N/C1=C/Nc1ccc(O)c(C(=O)NCCCCNC(=O)c2ccc(-c3c4nc(c(-c5c(F)c(F)c(F)c(F)c5F)c5ccc([nH]5)c(-c5c(F)c(F)c(F)c(F)c5F)c5nc(c(-c6c(F)c(F)c(F)c(F)c6F)c6ccc3[nH]6)C=C5)C=C4)cc2)c1
REMARK SMILES IDX 26 1 25 2 24 3 22 4 23 5 21 7 16 8 17 9 95 10 18 11 19 12
REMARK SMILES IDX 15 13 14 15 1 16 2 17 3 18 13 19 4 20 12 21 5 22 6 23 11 24
REMARK SMILES IDX 7 25 10 26 8 27 9 28 20 29 27 31 28 32 29 33 30 34 31 36
REMARK SMILES IDX 32 37 33 38 94 39 34 40 93 41 35 42 36 43 37 44 87 45 38 46
REMARK SMILES IDX 92 47 86 48 88 49 39 50 91 51 85 52 84 53 40 55 72 56 52 57
REMARK SMILES IDX 71 58 53 59 56 60 70 61 89 62 54 63 55 64 69 66 90 67 57 68
REMARK SMILES IDX 41 69 42 70 50 71 43 72 44 73 48 74 51 75 45 76 46 77 49 78
REMARK SMILES IDX 47 79 73 80 74 81 82 82 75 83 76 84 80 85 83 86 77 87 78 88
REMARK SMILES IDX 81 89 79 90 58 91 59 92 67 93 60 94 61 95 65 96 68 97 62 98
REMARK SMILES IDX 63 99 66 100 64 101
REMARK H PARENT 24 6 15 14 20 30 29 35 88 54 56 65
REMARK Flexibility Score: inf
ROOT
ATOM      1  C   UNL A   1      31.733  30.794  26.021  1.00  0.00     0.023 C 
ENDROOT
BRANCH   1   2
ATOM      2  C   UNL A   1      33.024  30.007  26.272  1.00  0.00     0.116 C 
BRANCH   2   3
ATOM      3  N   UNL A   1      33.641  29.676  25.011  1.00  0.00    -0.352 N 
ATOM      4  C   UNL A   1      33.201  28.940  23.944  1.00  0.00     0.255 C 
ATOM      5  O   UNL A   1      34.042  28.735  23.062  1.00  0.00    -0.269 OA
ATOM      6  H   UNL A   1      34.544  30.049  24.896  1.00  0.00     0.163 HD
BRANCH   4   7
ATOM      7  C   UNL A   1      31.796  28.466  23.722  1.00  0.00     0.083 A 
ATOM      8  C   UNL A   1      30.160  26.804  24.516  1.00  0.00     0.039 A 
ATOM      9  C   UNL A   1      29.277  27.209  23.517  1.00  0.00     0.030 A 
ATOM     10  C   UNL A   1      31.414  27.419  24.587  1.00  0.00     0.043 A 
ATOM     11  C   UNL A   1      29.599  28.275  22.685  1.00  0.00     0.049 A 
ATOM     12  C   UNL A   1      30.836  28.920  22.809  1.00  0.00     0.128 A 
BRANCH   8  13
ATOM     13  N   UNL A   1      29.853  25.767  25.404  1.00  0.00    -0.360 N 
ATOM     14  H   UNL A   1      28.945  25.762  25.784  1.00  0.00     0.166 HD
BRANCH  13  15
ATOM     15  C   UNL A   1      30.692  24.760  25.794  1.00  0.00     0.119 C 
ATOM     16  O   UNL A   1      30.179  24.120  22.888  1.00  0.00    -0.244 OA
ATOM     17  C   UNL A   1      30.865  23.480  23.656  1.00  0.00     0.365 C 
ATOM     18  O   UNL A   1      31.596  22.358  23.390  1.00  0.00    -0.402 OA
ATOM     19  C   UNL A   1      31.135  23.709  25.101  1.00  0.00     0.168 C 
ATOM     20  C   UNL A   1      32.152  21.991  24.566  1.00  0.00     0.231 C 
ATOM     21  N   UNL A   1      31.929  22.719  25.610  1.00  0.00    -0.204 NA
BRANCH  20  22
ATOM     22  C   UNL A   1      32.908  20.748  24.536  1.00  0.00     0.037 A 
ATOM     23  C   UNL A   1      34.256  20.726  24.902  1.00  0.00     0.015 A 
ATOM     24  C   UNL A   1      32.240  19.573  24.175  1.00  0.00     0.015 A 
ATOM     25  C   UNL A   1      34.940  19.508  24.908  1.00  0.00     0.021 A 
ATOM     26  C   UNL A   1      32.933  18.363  24.164  1.00  0.00     0.021 A 
ATOM     27  C   UNL A   1      34.278  18.335  24.537  1.00  0.00     0.041 A 
ATOM     28  Cl  UNL A   1      35.126  16.839  24.544  1.00  0.00    -0.084 Cl
ENDBRANCH  20  22
ENDBRANCH  13  15
ENDBRANCH   8  13
BRANCH  12  29
ATOM     29  O   UNL A   1      31.004  30.035  22.045  1.00  0.00    -0.507 OA
ATOM     30  H   UNL A   1      30.975  29.970  21.110  1.00  0.00     0.293 HD
ENDBRANCH  12  29
ENDBRANCH   4   7
ENDBRANCH   2   3
ENDBRANCH   1   2
BRANCH   1  31
ATOM     31  C   UNL A   1      31.498  31.940  27.002  1.00  0.00     0.023 C 
BRANCH  31  32
ATOM     32  C   UNL A   1      32.720  32.813  27.244  1.00  0.00     0.116 C 
BRANCH  32  33
ATOM     33  N   UNL A   1      32.384  34.173  27.641  1.00  0.00    -0.352 N 
ATOM     34  C   UNL A   1      32.977  34.956  28.599  1.00  0.00     0.251 C 
ATOM     35  H   UNL A   1      31.632  34.585  27.159  1.00  0.00     0.163 HD
ATOM     36  O   UNL A   1      32.496  36.043  28.899  1.00  0.00    -0.269 OA
BRANCH  34  37
ATOM     37  C   UNL A   1      34.174  34.451  29.298  1.00  0.00     0.039 A 
ATOM     38  C   UNL A   1      33.998  33.670  30.440  1.00  0.00     0.014 A 
ATOM     39  C   UNL A   1      35.455  34.710  28.805  1.00  0.00     0.014 A 
ATOM     40  C   UNL A   1      35.110  33.096  31.052  1.00  0.00     0.010 A 
ATOM     41  C   UNL A   1      36.553  34.062  29.362  1.00  0.00     0.010 A 
ATOM     42  C   UNL A   1      36.392  33.253  30.495  1.00  0.00    -0.014 A 
BRANCH  42  43
ATOM     43  C   UNL A   1      37.557  32.552  31.087  1.00  0.00     0.031 A 
ATOM     44  C   UNL A   1      38.058  32.919  32.454  1.00  0.00     0.074 A 
ATOM     45  C   UNL A   1      38.176  31.593  30.372  1.00  0.00     0.049 A 
ATOM     46  N   UNL A   1      39.029  32.381  33.150  1.00  0.00    -0.248 NA
ATOM     47  C   UNL A   1      37.404  34.055  33.122  1.00  0.00     0.031 C 
ATOM     48  C   UNL A   1      37.824  31.199  29.006  1.00  0.00     0.029 A 
ATOM     49  N   UNL A   1      39.222  30.767  30.696  1.00  0.00    -0.354 N 
ATOM     50  C   UNL A   1      39.098  33.108  34.330  1.00  0.00     0.074 A 
ATOM     51  C   UNL A   1      38.122  34.170  34.229  1.00  0.00     0.031 C 
ATOM     52  C   UNL A   1      38.607  30.177  28.627  1.00  0.00     0.029 A 
ATOM     53  C   UNL A   1      39.540  29.869  29.706  1.00  0.00     0.049 A 
ATOM     54  H   UNL A   1      39.700  30.814  31.556  1.00  0.00     0.167 HD
ATOM     55  C   UNL A   1      39.884  32.892  35.411  1.00  0.00     0.037 A 
ATOM     56  C   UNL A   1      40.475  28.901  29.677  1.00  0.00     0.037 A 
ATOM     57  C   UNL A   1      40.851  31.827  35.506  1.00  0.00     0.049 A 
ATOM     58  C   UNL A   1      41.338  28.685  30.890  1.00  0.00     0.074 A 
ATOM     59  C   UNL A   1      41.657  31.486  36.577  1.00  0.00     0.029 A 
ATOM     60  N   UNL A   1      41.151  30.939  34.482  1.00  0.00    -0.354 N 
ATOM     61  N   UNL A   1      41.330  29.320  32.038  1.00  0.00    -0.248 NA
ATOM     62  C   UNL A   1      42.333  27.609  30.806  1.00  0.00     0.031 C 
ATOM     63  C   UNL A   1      42.489  30.434  36.181  1.00  0.00     0.029 A 
ATOM     64  C   UNL A   1      42.154  30.071  34.886  1.00  0.00     0.049 A 
ATOM     65  H   UNL A   1      40.716  30.927  33.599  1.00  0.00     0.167 HD
ATOM     66  C   UNL A   1      42.299  28.706  32.819  1.00  0.00     0.074 A 
ATOM     67  C   UNL A   1      42.851  27.628  32.024  1.00  0.00     0.031 C 
ATOM     68  C   UNL A   1      42.702  29.010  34.079  1.00  0.00     0.037 A 
BRANCH  55  69
ATOM     69  C   UNL A   1      39.731  33.825  36.580  1.00  0.00     0.064 A 
ATOM     70  C   UNL A   1      40.384  35.067  36.623  1.00  0.00     0.173 A 
ATOM     71  C   UNL A   1      38.895  33.490  37.655  1.00  0.00     0.173 A 
ATOM     72  F   UNL A   1      41.206  35.434  35.628  1.00  0.00    -0.203 F 
ATOM     73  C   UNL A   1      40.233  35.921  37.712  1.00  0.00     0.198 A 
ATOM     74  C   UNL A   1      38.717  34.363  38.726  1.00  0.00     0.198 A 
ATOM     75  F   UNL A   1      38.243  32.318  37.666  1.00  0.00    -0.203 F 
ATOM     76  F   UNL A   1      40.910  37.077  37.755  1.00  0.00    -0.200 F 
ATOM     77  C   UNL A   1      39.392  35.572  38.758  1.00  0.00     0.200 A 
ATOM     78  F   UNL A   1      37.893  34.031  39.729  1.00  0.00    -0.200 F 
ATOM     79  F   UNL A   1      39.239  36.400  39.801  1.00  0.00    -0.200 F 
ENDBRANCH  55  69
BRANCH  56  80
ATOM     80  C   UNL A   1      40.624  28.046  28.469  1.00  0.00     0.064 A 
ATOM     81  C   UNL A   1      41.406  28.459  27.381  1.00  0.00     0.173 A 
ATOM     82  C   UNL A   1      39.979  26.804  28.372  1.00  0.00     0.173 A 
ATOM     83  F   UNL A   1      42.028  29.647  27.416  1.00  0.00    -0.203 F 
ATOM     84  C   UNL A   1      41.515  27.677  26.233  1.00  0.00     0.198 A 
ATOM     85  C   UNL A   1      40.116  26.007  27.239  1.00  0.00     0.198 A 
ATOM     86  F   UNL A   1      39.225  26.358  29.387  1.00  0.00    -0.203 F 
ATOM     87  F   UNL A   1      42.223  28.122  25.187  1.00  0.00    -0.200 F 
ATOM     88  C   UNL A   1      40.875  26.449  26.165  1.00  0.00     0.200 A 
ATOM     89  F   UNL A   1      39.512  24.812  27.185  1.00  0.00    -0.200 F 
ATOM     90  F   UNL A   1      40.982  25.695  25.062  1.00  0.00    -0.200 F 
ENDBRANCH  56  80
BRANCH  68  91
ATOM     91  C   UNL A   1      43.778  28.145  34.677  1.00  0.00     0.064 A 
ATOM     92  C   UNL A   1      43.477  26.955  35.356  1.00  0.00     0.173 A 
ATOM     93  C   UNL A   1      45.129  28.513  34.568  1.00  0.00     0.173 A 
ATOM     94  F   UNL A   1      42.201  26.562  35.499  1.00  0.00    -0.203 F 
ATOM     95  C   UNL A   1      44.481  26.194  35.948  1.00  0.00     0.198 A 
ATOM     96  C   UNL A   1      46.133  27.727  35.126  1.00  0.00     0.198 A 
ATOM     97  F   UNL A   1      45.475  29.634  33.920  1.00  0.00    -0.203 F 
ATOM     98  F   UNL A   1      44.161  25.103  36.659  1.00  0.00    -0.200 F 
ATOM     99  C   UNL A   1      45.808  26.577  35.829  1.00  0.00     0.200 A 
ATOM    100  F   UNL A   1      47.416  28.089  34.993  1.00  0.00    -0.200 F 
ATOM    101  F   UNL A   1      46.773  25.846  36.402  1.00  0.00    -0.200 F 
ENDBRANCH  68  91
ENDBRANCH  42  43
ENDBRANCH  34  37
ENDBRANCH  32  33
ENDBRANCH  31  32
ENDBRANCH   1  31
TORSDOF 15
ENDMDL
MODEL 3
REMARK VINA RESULT:     -13.7      1.628      2.911
REMARK SMILES O=C1OC(c2ccc(Cl)cc2)=N/C1=C/Nc1ccc(O)c(C(=O)NCCCCNC(=O)c2ccc(-c3c4nc(c(-c5c(F)c(F)c(F)c(F)c5F)c5ccc([nH]5)c(-c5c(F)c(F)c(F)c(F)c5F)c5nc(c(-c6c(F)c(F)c(F)c(F)c6F)c6ccc3[nH]6)C=C5)C=C4)cc2)c1
REMARK SMILES IDX 26 1 25 2 24 3 22 4 23 5 21 7 16 8 17 9 95 10 18 11 19 12
REMARK SMILES IDX 15 13 14 15 1 16 2 17 3 18 13 19 4 20 12 21 5 22 6 23 11 24
REMARK SMILES IDX 7 25 10 26 8 27 9 28 20 29 27 31 28 32 29 33 30 34 31 36
REMARK SMILES IDX 32 37 33 38 94 39 34 40 93 41 35 42 36 43 37 44 87 45 38 46
REMARK SMILES IDX 92 47 86 48 88 49 39 50 91 51 85 52 84 53 40 55 72 56 52 57
REMARK SMILES IDX 71 58 53 59 56 60 70 61 89 62 54 63 55 64 69 66 90 67 57 68
REMARK SMILES IDX 41 69 42 70 50 71 43 72 44 73 48 74 51 75 45 76 46 77 49 78
REMARK SMILES IDX 47 79 73 80 74 81 82 82 75 83 76 84 80 85 83 86 77 87 78 88
REMARK SMILES IDX 81 89 79 90 58 91 59 92 67 93 60 94 61 95 65 96 68 97 62 98
REMARK SMILES IDX 63 99 66 100 64 101
REMARK H PARENT 24 6 15 14 20 30 29 35 88 54 56 65
REMARK Flexibility Score: inf
ROOT
ATOM      1  C   UNL A   1      31.530  30.281  26.598  1.00  0.00     0.023 C 
ENDROOT
BRANCH   1   2
ATOM      2  C   UNL A   1      32.841  29.526  26.351  1.00  0.00     0.116 C 
BRANCH   2   3
ATOM      3  N   UNL A   1      33.204  29.634  24.960  1.00  0.00    -0.352 N 
ATOM      4  C   UNL A   1      32.596  29.185  23.819  1.00  0.00     0.255 C 
ATOM      5  O   UNL A   1      33.250  29.330  22.780  1.00  0.00    -0.269 OA
ATOM      6  H   UNL A   1      34.045  30.120  24.801  1.00  0.00     0.163 HD
BRANCH   4   7
ATOM      7  C   UNL A   1      31.202  28.642  23.721  1.00  0.00     0.083 A 
ATOM      8  C   UNL A   1      29.914  26.551  23.922  1.00  0.00     0.039 A 
ATOM      9  C   UNL A   1      28.770  27.226  23.501  1.00  0.00     0.030 A 
ATOM     10  C   UNL A   1      31.116  27.261  24.000  1.00  0.00     0.043 A 
ATOM     11  C   UNL A   1      28.807  28.596  23.271  1.00  0.00     0.049 A 
ATOM     12  C   UNL A   1      30.007  29.305  23.413  1.00  0.00     0.128 A 
BRANCH   8  13
ATOM     13  N   UNL A   1      29.907  25.182  24.208  1.00  0.00    -0.360 N 
ATOM     14  H   UNL A   1      29.143  24.841  24.727  1.00  0.00     0.166 HD
BRANCH  13  15
ATOM     15  C   UNL A   1      30.857  24.271  23.834  1.00  0.00     0.119 C 
ATOM     16  O   UNL A   1      31.673  24.977  26.654  1.00  0.00    -0.244 OA
ATOM     17  C   UNL A   1      32.242  24.205  25.911  1.00  0.00     0.365 C 
ATOM     18  O   UNL A   1      33.346  23.448  26.176  1.00  0.00    -0.402 OA
ATOM     19  C   UNL A   1      31.924  23.836  24.505  1.00  0.00     0.168 C 
ATOM     20  C   UNL A   1      33.625  22.786  25.031  1.00  0.00     0.231 C 
ATOM     21  N   UNL A   1      32.851  22.961  24.011  1.00  0.00    -0.204 NA
BRANCH  20  22
ATOM     22  C   UNL A   1      34.836  21.979  25.058  1.00  0.00     0.037 A 
ATOM     23  C   UNL A   1      34.762  20.585  25.022  1.00  0.00     0.015 A 
ATOM     24  C   UNL A   1      36.072  22.636  25.074  1.00  0.00     0.015 A 
ATOM     25  C   UNL A   1      35.944  19.841  25.000  1.00  0.00     0.021 A 
ATOM     26  C   UNL A   1      37.248  21.887  25.072  1.00  0.00     0.021 A 
ATOM     27  C   UNL A   1      37.179  20.494  25.029  1.00  0.00     0.041 A 
ATOM     28  Cl  UNL A   1      38.631  19.573  25.004  1.00  0.00    -0.084 Cl
ENDBRANCH  20  22
ENDBRANCH  13  15
ENDBRANCH   8  13
BRANCH  12  29
ATOM     29  O   UNL A   1      29.914  30.659  23.301  1.00  0.00    -0.507 OA
ATOM     30  H   UNL A   1      30.325  31.099  22.583  1.00  0.00     0.293 HD
ENDBRANCH  12  29
ENDBRANCH   4   7
ENDBRANCH   2   3
ENDBRANCH   1   2
BRANCH   1  31
ATOM     31  C   UNL A   1      31.629  31.791  26.400  1.00  0.00     0.023 C 
BRANCH  31  32
ATOM     32  C   UNL A   1      32.704  32.460  27.244  1.00  0.00     0.116 C 
BRANCH  32  33
ATOM     33  N   UNL A   1      32.391  33.841  27.581  1.00  0.00    -0.352 N 
ATOM     34  C   UNL A   1      33.000  34.658  28.500  1.00  0.00     0.251 C 
ATOM     35  H   UNL A   1      31.642  34.242  27.085  1.00  0.00     0.163 HD
ATOM     36  O   UNL A   1      32.538  35.764  28.753  1.00  0.00    -0.269 OA
BRANCH  34  37
ATOM     37  C   UNL A   1      34.193  34.167  29.215  1.00  0.00     0.039 A 
ATOM     38  C   UNL A   1      34.012  33.351  30.331  1.00  0.00     0.014 A 
ATOM     39  C   UNL A   1      35.479  34.473  28.761  1.00  0.00     0.014 A 
ATOM     40  C   UNL A   1      35.124  32.791  30.956  1.00  0.00     0.010 A 
ATOM     41  C   UNL A   1      36.580  33.840  29.328  1.00  0.00     0.010 A 
ATOM     42  C   UNL A   1      36.414  32.997  30.435  1.00  0.00    -0.014 A 
BRANCH  42  43
ATOM     43  C   UNL A   1      37.584  32.312  31.038  1.00  0.00     0.031 A 
ATOM     44  C   UNL A   1      38.059  32.676  32.415  1.00  0.00     0.074 A 
ATOM     45  C   UNL A   1      38.229  31.370  30.324  1.00  0.00     0.049 A 
ATOM     46  N   UNL A   1      39.030  32.150  33.119  1.00  0.00    -0.248 NA
ATOM     47  C   UNL A   1      37.376  33.795  33.082  1.00  0.00     0.031 C 
ATOM     48  C   UNL A   1      37.903  30.982  28.950  1.00  0.00     0.029 A 
ATOM     49  N   UNL A   1      39.285  30.561  30.655  1.00  0.00    -0.354 N 
ATOM     50  C   UNL A   1      39.069  32.868  34.306  1.00  0.00     0.074 A 
ATOM     51  C   UNL A   1      38.076  33.914  34.200  1.00  0.00     0.031 C 
ATOM     52  C   UNL A   1      38.710  29.977  28.574  1.00  0.00     0.029 A 
ATOM     53  C   UNL A   1      39.633  29.676  29.663  1.00  0.00     0.049 A 
ATOM     54  H   UNL A   1      39.751  30.608  31.522  1.00  0.00     0.167 HD
ATOM     55  C   UNL A   1      39.844  32.657  35.396  1.00  0.00     0.037 A 
ATOM     56  C   UNL A   1      40.585  28.726  29.639  1.00  0.00     0.037 A 
ATOM     57  C   UNL A   1      40.829  31.609  35.495  1.00  0.00     0.049 A 
ATOM     58  C   UNL A   1      41.435  28.515  30.861  1.00  0.00     0.074 A 
ATOM     59  C   UNL A   1      41.627  31.274  36.575  1.00  0.00     0.029 A 
ATOM     60  N   UNL A   1      41.159  30.735  34.469  1.00  0.00    -0.354 N 
ATOM     61  N   UNL A   1      41.400  29.140  32.015  1.00  0.00    -0.248 NA
ATOM     62  C   UNL A   1      42.450  27.458  30.783  1.00  0.00     0.031 C 
ATOM     63  C   UNL A   1      42.482  30.240  36.182  1.00  0.00     0.029 A 
ATOM     64  C   UNL A   1      42.172  29.882  34.880  1.00  0.00     0.049 A 
ATOM     65  H   UNL A   1      40.736  30.723  33.580  1.00  0.00     0.167 HD
ATOM     66  C   UNL A   1      42.370  28.537  32.804  1.00  0.00     0.074 A 
ATOM     67  C   UNL A   1      42.952  27.475  32.008  1.00  0.00     0.031 C 
ATOM     68  C   UNL A   1      42.750  28.837  34.072  1.00  0.00     0.037 A 
BRANCH  55  69
ATOM     69  C   UNL A   1      39.659  33.578  36.570  1.00  0.00     0.064 A 
ATOM     70  C   UNL A   1      38.804  33.253  37.635  1.00  0.00     0.173 A 
ATOM     71  C   UNL A   1      40.370  34.784  36.650  1.00  0.00     0.173 A 
ATOM     72  F   UNL A   1      38.089  32.117  37.607  1.00  0.00    -0.203 F 
ATOM     73  C   UNL A   1      38.643  34.115  38.717  1.00  0.00     0.198 A 
ATOM     74  C   UNL A   1      40.234  35.627  37.750  1.00  0.00     0.198 A 
ATOM     75  F   UNL A   1      41.205  35.144  35.663  1.00  0.00    -0.203 F 
ATOM     76  F   UNL A   1      37.779  33.808  39.695  1.00  0.00    -0.200 F 
ATOM     77  C   UNL A   1      39.366  35.297  38.777  1.00  0.00     0.200 A 
ATOM     78  F   UNL A   1      40.945  36.762  37.814  1.00  0.00    -0.200 F 
ATOM     79  F   UNL A   1      39.217  36.121  39.823  1.00  0.00    -0.200 F 
ENDBRANCH  55  69
BRANCH  56  80
ATOM     80  C   UNL A   1      40.766  27.883  28.426  1.00  0.00     0.064 A 
ATOM     81  C   UNL A   1      41.595  28.297  27.374  1.00  0.00     0.173 A 
ATOM     82  C   UNL A   1      40.106  26.653  28.289  1.00  0.00     0.173 A 
ATOM     83  F   UNL A   1      42.234  29.474  27.448  1.00  0.00    -0.203 F 
ATOM     84  C   UNL A   1      41.735  27.528  26.221  1.00  0.00     0.198 A 
ATOM     85  C   UNL A   1      40.273  25.868  27.151  1.00  0.00     0.198 A 
ATOM     86  F   UNL A   1      39.307  26.206  29.270  1.00  0.00    -0.203 F 
ATOM     87  F   UNL A   1      42.488  27.974  25.207  1.00  0.00    -0.200 F 
ATOM     88  C   UNL A   1      41.078  26.311  26.113  1.00  0.00     0.200 A 
ATOM     89  F   UNL A   1      39.653  24.684  27.059  1.00  0.00    -0.200 F 
ATOM     90  F   UNL A   1      41.215  25.569  25.005  1.00  0.00    -0.200 F 
ENDBRANCH  56  80
BRANCH  68  91
ATOM     91  C   UNL A   1      43.832  27.987  34.677  1.00  0.00     0.064 A 
ATOM     92  C   UNL A   1      45.186  28.351  34.604  1.00  0.00     0.173 A 
ATOM     93  C   UNL A   1      43.512  26.792  35.340  1.00  0.00     0.173 A 
ATOM     94  F   UNL A   1      45.549  29.478  33.972  1.00  0.00    -0.203 F 
ATOM     95  C   UNL A   1      46.179  27.527  35.125  1.00  0.00     0.198 A 
ATOM     96  C   UNL A   1      44.505  25.991  35.896  1.00  0.00     0.198 A 
ATOM     97  F   UNL A   1      42.234  26.400  35.450  1.00  0.00    -0.203 F 
ATOM     98  F   UNL A   1      47.470  27.858  34.973  1.00  0.00    -0.200 F 
ATOM     99  C   UNL A   1      45.839  26.350  35.774  1.00  0.00     0.200 A 
ATOM    100  F   UNL A   1      44.173  24.864  36.540  1.00  0.00    -0.200 F 
ATOM    101  F   UNL A   1      46.796  25.556  36.272  1.00  0.00    -0.200 F 
ENDBRANCH  68  91
ENDBRANCH  42  43
ENDBRANCH  34  37
ENDBRANCH  32  33
ENDBRANCH  31  32
ENDBRANCH   1  31
TORSDOF 15
ENDMDL
