MODEL 1
REMARK VINA RESULT:     -12.4      0.000      0.000
REMARK SMILES O=C(COc1ccccc1/C=N\N1CC[NH+](Cc2ccc(Cl)cc2)CC1)NCCCCNC(=O)c1ccc(-c2c3nc(c(-c4c(F)c(F)c(F)c(F)c4F)c4ccc([nH]4)c(-c4c(F)c(F)c(F)c(F)c4F)c4nc(c(-c5c(F)c(F)c(F)c(F)c5F)c5ccc2[nH]5)C=C4)C=C3)cc1
REMARK SMILES IDX 1 1 2 2 27 3 3 5 4 6 5 7 6 8 10 9 7 10 9 11 8 12 11 13 12 14
REMARK SMILES IDX 13 15 14 16 26 17 15 18 25 19 16 20 17 22 18 23 19 24 24 25
REMARK SMILES IDX 20 26 23 27 21 28 22 29 28 30 29 31 30 32 31 33 32 34 33 35
REMARK SMILES IDX 34 37 35 38 36 39 97 40 37 41 96 42 38 43 39 44 40 45 90 46
REMARK SMILES IDX 41 47 95 48 89 49 91 50 42 51 94 52 88 53 87 54 43 56 75 57
REMARK SMILES IDX 55 58 74 59 56 60 59 61 73 62 92 63 57 64 58 65 72 67 93 68
REMARK SMILES IDX 60 69 44 70 45 71 53 72 46 73 47 74 51 75 54 76 48 77 49 78
REMARK SMILES IDX 52 79 50 80 76 81 77 82 85 83 78 84 79 85 83 86 86 87 80 88
REMARK SMILES IDX 81 89 84 90 82 91 61 92 62 93 70 94 63 95 64 96 68 97 71 98
REMARK SMILES IDX 65 99 66 100 69 101 67 102
REMARK H PARENT 27 4 16 21 32 36 91 55 59 66
REMARK Flexibility Score: inf
ROOT
ATOM      1  O   UNL A   1      37.093  24.431  26.090  1.00  0.00    -0.271 OA
ATOM      2  C   UNL A   1      36.051  23.806  25.911  1.00  0.00     0.257 C 
ATOM      3  N   UNL A   1      36.008  22.422  25.788  1.00  0.00    -0.353 N 
ATOM      4  H   UNL A   1      35.168  21.941  25.968  1.00  0.00     0.163 HD
ENDROOT
BRANCH   2   5
ATOM      5  C   UNL A   1      34.690  24.530  25.827  1.00  0.00     0.329 C 
BRANCH   5   6
ATOM      6  O   UNL A   1      34.612  25.569  24.847  1.00  0.00    -0.483 OA
BRANCH   6   7
ATOM      7  C   UNL A   1      33.652  26.525  25.095  1.00  0.00     0.128 A 
ATOM      8  C   UNL A   1      33.340  26.849  26.418  1.00  0.00     0.047 A 
ATOM      9  C   UNL A   1      32.844  27.024  24.062  1.00  0.00     0.037 A 
ATOM     10  C   UNL A   1      32.233  27.662  26.699  1.00  0.00     0.004 A 
ATOM     11  C   UNL A   1      31.699  27.766  24.354  1.00  0.00     0.013 A 
ATOM     12  C   UNL A   1      31.403  28.107  25.671  1.00  0.00     0.001 A 
BRANCH   9  13
ATOM     13  C   UNL A   1      33.240  26.725  22.682  1.00  0.00     0.145 C 
ATOM     14  N   UNL A   1      33.197  25.639  21.971  1.00  0.00    -0.185 NA
BRANCH  14  15
ATOM     15  N   UNL A   1      32.917  24.469  22.564  1.00  0.00    -0.286 NA
ATOM     16  C   UNL A   1      33.730  23.359  22.053  1.00  0.00     0.200 C 
ATOM     17  C   UNL A   1      31.541  23.965  22.750  1.00  0.00     0.200 C 
ATOM     18  C   UNL A   1      33.830  22.265  23.120  1.00  0.00     0.286 C 
ATOM     19  C   UNL A   1      31.559  22.842  23.831  1.00  0.00     0.286 C 
ATOM     20  N   UNL A   1      32.558  21.769  23.664  1.00  0.00    -0.328 N 
ATOM     21  H   UNL A   1      32.764  21.459  24.614  1.00  0.00     0.348 HD
BRANCH  20  22
ATOM     22  C   UNL A   1      32.069  20.533  23.048  1.00  0.00     0.299 C 
BRANCH  22  23
ATOM     23  C   UNL A   1      32.542  19.250  23.688  1.00  0.00     0.006 A 
ATOM     24  C   UNL A   1      32.535  19.122  25.086  1.00  0.00     0.011 A 
ATOM     25  C   UNL A   1      32.903  18.145  22.904  1.00  0.00     0.011 A 
ATOM     26  C   UNL A   1      32.790  17.889  25.684  1.00  0.00     0.021 A 
ATOM     27  C   UNL A   1      33.148  16.909  23.503  1.00  0.00     0.021 A 
ATOM     28  C   UNL A   1      33.072  16.782  24.888  1.00  0.00     0.041 A 
ATOM     29  Cl  UNL A   1      33.303  15.244  25.619  1.00  0.00    -0.084 Cl
ENDBRANCH  22  23
ENDBRANCH  20  22
ENDBRANCH  14  15
ENDBRANCH   9  13
ENDBRANCH   6   7
ENDBRANCH   5   6
ENDBRANCH   2   5
BRANCH   3  30
ATOM     30  C   UNL A   1      37.200  21.676  25.395  1.00  0.00     0.116 C 
BRANCH  30  31
ATOM     31  C   UNL A   1      36.957  20.255  24.889  1.00  0.00     0.023 C 
BRANCH  31  32
ATOM     32  C   UNL A   1      38.103  19.259  25.086  1.00  0.00     0.023 C 
BRANCH  32  33
ATOM     33  C   UNL A   1      39.378  19.808  25.728  1.00  0.00     0.116 C 
BRANCH  33  34
ATOM     34  N   UNL A   1      40.451  18.828  25.820  1.00  0.00    -0.352 N 
ATOM     35  C   UNL A   1      41.797  18.995  26.050  1.00  0.00     0.251 C 
ATOM     36  H   UNL A   1      40.168  17.894  25.698  1.00  0.00     0.163 HD
ATOM     37  O   UNL A   1      42.557  18.028  25.961  1.00  0.00    -0.269 OA
BRANCH  35  38
ATOM     38  C   UNL A   1      42.363  20.325  26.377  1.00  0.00     0.039 A 
ATOM     39  C   UNL A   1      43.025  21.043  25.376  1.00  0.00     0.014 A 
ATOM     40  C   UNL A   1      42.275  20.861  27.664  1.00  0.00     0.014 A 
ATOM     41  C   UNL A   1      43.518  22.326  25.640  1.00  0.00     0.010 A 
ATOM     42  C   UNL A   1      42.699  22.169  27.907  1.00  0.00     0.010 A 
ATOM     43  C   UNL A   1      43.318  22.920  26.896  1.00  0.00    -0.014 A 
BRANCH  43  44
ATOM     44  C   UNL A   1      43.728  24.327  27.160  1.00  0.00     0.031 A 
ATOM     45  C   UNL A   1      42.729  25.336  27.662  1.00  0.00     0.074 A 
ATOM     46  C   UNL A   1      44.989  24.719  26.882  1.00  0.00     0.049 A 
ATOM     47  N   UNL A   1      42.885  26.618  27.881  1.00  0.00    -0.248 NA
ATOM     48  C   UNL A   1      41.371  24.843  27.931  1.00  0.00     0.031 C 
ATOM     49  C   UNL A   1      46.044  23.855  26.355  1.00  0.00     0.029 A 
ATOM     50  N   UNL A   1      45.594  25.947  26.997  1.00  0.00    -0.354 N 
ATOM     51  C   UNL A   1      41.645  27.086  28.299  1.00  0.00     0.074 A 
ATOM     52  C   UNL A   1      40.734  25.961  28.252  1.00  0.00     0.031 C 
ATOM     53  C   UNL A   1      47.171  24.570  26.214  1.00  0.00     0.029 A 
ATOM     54  C   UNL A   1      46.909  25.954  26.597  1.00  0.00     0.049 A 
ATOM     55  H   UNL A   1      45.130  26.747  27.334  1.00  0.00     0.167 HD
ATOM     56  C   UNL A   1      41.300  28.333  28.702  1.00  0.00     0.037 A 
ATOM     57  C   UNL A   1      47.802  26.961  26.535  1.00  0.00     0.037 A 
ATOM     58  C   UNL A   1      42.211  29.448  28.766  1.00  0.00     0.049 A 
ATOM     59  C   UNL A   1      47.384  28.343  26.966  1.00  0.00     0.074 A 
ATOM     60  C   UNL A   1      41.970  30.732  29.222  1.00  0.00     0.029 A 
ATOM     61  N   UNL A   1      43.536  29.412  28.356  1.00  0.00    -0.354 N 
ATOM     62  N   UNL A   1      46.229  28.754  27.427  1.00  0.00    -0.248 NA
ATOM     63  C   UNL A   1      48.401  29.400  26.870  1.00  0.00     0.031 C 
ATOM     64  C   UNL A   1      43.129  31.491  29.031  1.00  0.00     0.029 A 
ATOM     65  C   UNL A   1      44.114  30.662  28.519  1.00  0.00     0.049 A 
ATOM     66  H   UNL A   1      43.997  28.618  28.002  1.00  0.00     0.167 HD
ATOM     67  C   UNL A   1      46.389  30.104  27.710  1.00  0.00     0.074 A 
ATOM     68  C   UNL A   1      47.758  30.441  27.381  1.00  0.00     0.031 C 
ATOM     69  C   UNL A   1      45.482  30.985  28.199  1.00  0.00     0.037 A 
BRANCH  56  70
ATOM     70  C   UNL A   1      39.871  28.568  29.103  1.00  0.00     0.064 A 
ATOM     71  C   UNL A   1      39.423  28.337  30.413  1.00  0.00     0.173 A 
ATOM     72  C   UNL A   1      38.947  29.080  28.177  1.00  0.00     0.173 A 
ATOM     73  F   UNL A   1      40.261  27.843  31.336  1.00  0.00    -0.203 F 
ATOM     74  C   UNL A   1      38.099  28.579  30.772  1.00  0.00     0.198 A 
ATOM     75  C   UNL A   1      37.634  29.352  28.550  1.00  0.00     0.198 A 
ATOM     76  F   UNL A   1      39.322  29.328  26.914  1.00  0.00    -0.203 F 
ATOM     77  F   UNL A   1      37.683  28.303  32.016  1.00  0.00    -0.200 F 
ATOM     78  C   UNL A   1      37.208  29.095  29.843  1.00  0.00     0.200 A 
ATOM     79  F   UNL A   1      36.778  29.867  27.654  1.00  0.00    -0.200 F 
ATOM     80  F   UNL A   1      35.938  29.337  30.194  1.00  0.00    -0.200 F 
ENDBRANCH  56  70
BRANCH  57  81
ATOM     81  C   UNL A   1      49.188  26.704  26.062  1.00  0.00     0.064 A 
ATOM     82  C   UNL A   1      50.175  26.236  26.942  1.00  0.00     0.173 A 
ATOM     83  C   UNL A   1      49.563  26.938  24.730  1.00  0.00     0.173 A 
ATOM     84  F   UNL A   1      49.872  26.019  28.230  1.00  0.00    -0.203 F 
ATOM     85  C   UNL A   1      51.487  26.039  26.517  1.00  0.00     0.198 A 
ATOM     86  C   UNL A   1      50.868  26.708  24.298  1.00  0.00     0.198 A 
ATOM     87  F   UNL A   1      48.659  27.382  23.845  1.00  0.00    -0.203 F 
ATOM     88  F   UNL A   1      52.421  25.647  27.394  1.00  0.00    -0.200 F 
ATOM     89  C   UNL A   1      51.831  26.270  25.194  1.00  0.00     0.200 A 
ATOM     90  F   UNL A   1      51.193  26.918  23.015  1.00  0.00    -0.200 F 
ATOM     91  F   UNL A   1      53.093  26.079  24.784  1.00  0.00    -0.200 F 
ENDBRANCH  57  81
BRANCH  69  92
ATOM     92  C   UNL A   1      45.949  32.391  28.454  1.00  0.00     0.064 A 
ATOM     93  C   UNL A   1      46.539  32.767  29.670  1.00  0.00     0.173 A 
ATOM     94  C   UNL A   1      45.838  33.367  27.451  1.00  0.00     0.173 A 
ATOM     95  F   UNL A   1      46.656  31.877  30.668  1.00  0.00    -0.203 F 
ATOM     96  C   UNL A   1      46.973  34.073  29.881  1.00  0.00     0.198 A 
ATOM     97  C   UNL A   1      46.306  34.662  27.653  1.00  0.00     0.198 A 
ATOM     98  F   UNL A   1      45.288  33.060  26.266  1.00  0.00    -0.203 F 
ATOM     99  F   UNL A   1      47.484  34.423  31.070  1.00  0.00    -0.200 F 
ATOM    100  C   UNL A   1      46.864  35.017  28.871  1.00  0.00     0.200 A 
ATOM    101  F   UNL A   1      46.214  35.568  26.669  1.00  0.00    -0.200 F 
ATOM    102  F   UNL A   1      47.291  36.271  29.074  1.00  0.00    -0.200 F 
ENDBRANCH  69  92
ENDBRANCH  43  44
ENDBRANCH  35  38
ENDBRANCH  33  34
ENDBRANCH  32  33
ENDBRANCH  31  32
ENDBRANCH  30  31
ENDBRANCH   3  30
TORSDOF 17
ENDMDL
MODEL 2
REMARK VINA RESULT:     -12.4      0.193      1.613
REMARK SMILES O=C(COc1ccccc1/C=N\N1CC[NH+](Cc2ccc(Cl)cc2)CC1)NCCCCNC(=O)c1ccc(-c2c3nc(c(-c4c(F)c(F)c(F)c(F)c4F)c4ccc([nH]4)c(-c4c(F)c(F)c(F)c(F)c4F)c4nc(c(-c5c(F)c(F)c(F)c(F)c5F)c5ccc2[nH]5)C=C4)C=C3)cc1
REMARK SMILES IDX 1 1 2 2 27 3 3 5 4 6 5 7 6 8 10 9 7 10 9 11 8 12 11 13 12 14
REMARK SMILES IDX 13 15 14 16 26 17 15 18 25 19 16 20 17 22 18 23 19 24 24 25
REMARK SMILES IDX 20 26 23 27 21 28 22 29 28 30 29 31 30 32 31 33 32 34 33 35
REMARK SMILES IDX 34 37 35 38 36 39 97 40 37 41 96 42 38 43 39 44 40 45 90 46
REMARK SMILES IDX 41 47 95 48 89 49 91 50 42 51 94 52 88 53 87 54 43 56 75 57
REMARK SMILES IDX 55 58 74 59 56 60 59 61 73 62 92 63 57 64 58 65 72 67 93 68
REMARK SMILES IDX 60 69 44 70 45 71 53 72 46 73 47 74 51 75 54 76 48 77 49 78
REMARK SMILES IDX 52 79 50 80 76 81 77 82 85 83 78 84 79 85 83 86 86 87 80 88
REMARK SMILES IDX 81 89 84 90 82 91 61 92 62 93 70 94 63 95 64 96 68 97 71 98
REMARK SMILES IDX 65 99 66 100 69 101 67 102
REMARK H PARENT 27 4 16 21 32 36 91 55 59 66
REMARK Flexibility Score: inf
ROOT
ATOM      1  O   UNL A   1      37.050  24.451  26.107  1.00  0.00    -0.271 OA
ATOM      2  C   UNL A   1      35.993  23.868  25.877  1.00  0.00     0.257 C 
ATOM      3  N   UNL A   1      35.908  22.490  25.713  1.00  0.00    -0.353 N 
ATOM      4  H   UNL A   1      35.046  22.034  25.851  1.00  0.00     0.163 HD
ENDROOT
BRANCH   2   5
ATOM      5  C   UNL A   1      34.662  24.641  25.769  1.00  0.00     0.329 C 
BRANCH   5   6
ATOM      6  O   UNL A   1      34.751  25.925  25.146  1.00  0.00    -0.483 OA
BRANCH   6   7
ATOM      7  C   UNL A   1      33.623  26.706  25.266  1.00  0.00     0.128 A 
ATOM      8  C   UNL A   1      33.148  27.021  26.542  1.00  0.00     0.047 A 
ATOM      9  C   UNL A   1      32.832  27.012  24.148  1.00  0.00     0.037 A 
ATOM     10  C   UNL A   1      31.896  27.635  26.692  1.00  0.00     0.004 A 
ATOM     11  C   UNL A   1      31.555  27.551  24.311  1.00  0.00     0.013 A 
ATOM     12  C   UNL A   1      31.093  27.886  25.580  1.00  0.00     0.001 A 
BRANCH   9  13
ATOM     13  C   UNL A   1      33.391  26.733  22.822  1.00  0.00     0.145 C 
ATOM     14  N   UNL A   1      33.427  25.661  22.090  1.00  0.00    -0.185 NA
BRANCH  14  15
ATOM     15  N   UNL A   1      33.068  24.483  22.623  1.00  0.00    -0.286 NA
ATOM     16  C   UNL A   1      33.871  23.361  22.124  1.00  0.00     0.200 C 
ATOM     17  C   UNL A   1      31.665  24.027  22.706  1.00  0.00     0.200 C 
ATOM     18  C   UNL A   1      33.864  22.229  23.156  1.00  0.00     0.286 C 
ATOM     19  C   UNL A   1      31.575  22.868  23.745  1.00  0.00     0.286 C 
ATOM     20  N   UNL A   1      32.544  21.764  23.602  1.00  0.00    -0.328 N 
ATOM     21  H   UNL A   1      32.678  21.415  24.551  1.00  0.00     0.348 HD
BRANCH  20  22
ATOM     22  C   UNL A   1      32.050  20.568  22.914  1.00  0.00     0.299 C 
BRANCH  22  23
ATOM     23  C   UNL A   1      32.416  19.248  23.548  1.00  0.00     0.006 A 
ATOM     24  C   UNL A   1      32.754  18.154  22.738  1.00  0.00     0.011 A 
ATOM     25  C   UNL A   1      32.514  19.122  24.941  1.00  0.00     0.011 A 
ATOM     26  C   UNL A   1      33.272  16.989  23.303  1.00  0.00     0.021 A 
ATOM     27  C   UNL A   1      33.042  17.960  25.506  1.00  0.00     0.021 A 
ATOM     28  C   UNL A   1      33.435  16.907  24.683  1.00  0.00     0.041 A 
ATOM     29  Cl  UNL A   1      34.151  15.505  25.374  1.00  0.00    -0.084 Cl
ENDBRANCH  22  23
ENDBRANCH  20  22
ENDBRANCH  14  15
ENDBRANCH   9  13
ENDBRANCH   6   7
ENDBRANCH   5   6
ENDBRANCH   2   5
BRANCH   3  30
ATOM     30  C   UNL A   1      37.087  21.714  25.338  1.00  0.00     0.116 C 
BRANCH  30  31
ATOM     31  C   UNL A   1      36.832  20.251  24.979  1.00  0.00     0.023 C 
BRANCH  31  32
ATOM     32  C   UNL A   1      38.056  19.332  24.967  1.00  0.00     0.023 C 
BRANCH  32  33
ATOM     33  C   UNL A   1      39.287  19.829  25.726  1.00  0.00     0.116 C 
BRANCH  33  34
ATOM     34  N   UNL A   1      40.347  18.836  25.830  1.00  0.00    -0.352 N 
ATOM     35  C   UNL A   1      41.693  18.986  26.070  1.00  0.00     0.251 C 
ATOM     36  H   UNL A   1      40.053  17.905  25.709  1.00  0.00     0.163 HD
ATOM     37  O   UNL A   1      42.441  18.010  25.989  1.00  0.00    -0.269 OA
BRANCH  35  38
ATOM     38  C   UNL A   1      42.274  20.310  26.397  1.00  0.00     0.039 A 
ATOM     39  C   UNL A   1      42.888  21.049  25.381  1.00  0.00     0.014 A 
ATOM     40  C   UNL A   1      42.245  20.820  27.697  1.00  0.00     0.014 A 
ATOM     41  C   UNL A   1      43.392  22.327  25.648  1.00  0.00     0.010 A 
ATOM     42  C   UNL A   1      42.679  22.123  27.947  1.00  0.00     0.010 A 
ATOM     43  C   UNL A   1      43.251  22.896  26.924  1.00  0.00    -0.014 A 
BRANCH  43  44
ATOM     44  C   UNL A   1      43.672  24.297  27.196  1.00  0.00     0.031 A 
ATOM     45  C   UNL A   1      42.683  25.311  27.708  1.00  0.00     0.074 A 
ATOM     46  C   UNL A   1      44.936  24.681  26.919  1.00  0.00     0.049 A 
ATOM     47  N   UNL A   1      42.849  26.590  27.936  1.00  0.00    -0.248 NA
ATOM     48  C   UNL A   1      41.321  24.826  27.976  1.00  0.00     0.031 C 
ATOM     49  C   UNL A   1      45.983  23.812  26.382  1.00  0.00     0.029 A 
ATOM     50  N   UNL A   1      45.551  25.904  27.040  1.00  0.00    -0.354 N 
ATOM     51  C   UNL A   1      41.613  27.064  28.359  1.00  0.00     0.074 A 
ATOM     52  C   UNL A   1      40.695  25.947  28.307  1.00  0.00     0.031 C 
ATOM     53  C   UNL A   1      47.115  24.520  26.244  1.00  0.00     0.029 A 
ATOM     54  C   UNL A   1      46.865  25.903  26.638  1.00  0.00     0.049 A 
ATOM     55  H   UNL A   1      45.094  26.705  27.384  1.00  0.00     0.167 HD
ATOM     56  C   UNL A   1      41.280  28.311  28.772  1.00  0.00     0.037 A 
ATOM     57  C   UNL A   1      47.766  26.904  26.581  1.00  0.00     0.037 A 
ATOM     58  C   UNL A   1      42.199  29.418  28.842  1.00  0.00     0.049 A 
ATOM     59  C   UNL A   1      47.360  28.286  27.022  1.00  0.00     0.074 A 
ATOM     60  C   UNL A   1      41.969  30.701  29.308  1.00  0.00     0.029 A 
ATOM     61  N   UNL A   1      43.523  29.375  28.429  1.00  0.00    -0.354 N 
ATOM     62  N   UNL A   1      46.209  28.702  27.489  1.00  0.00    -0.248 NA
ATOM     63  C   UNL A   1      48.384  29.336  26.931  1.00  0.00     0.031 C 
ATOM     64  C   UNL A   1      43.134  31.452  29.120  1.00  0.00     0.029 A 
ATOM     65  C   UNL A   1      44.111  30.619  28.599  1.00  0.00     0.049 A 
ATOM     66  H   UNL A   1      43.977  28.580  28.068  1.00  0.00     0.167 HD
ATOM     67  C   UNL A   1      46.380  30.049  27.781  1.00  0.00     0.074 A 
ATOM     68  C   UNL A   1      47.751  30.377  27.451  1.00  0.00     0.031 C 
ATOM     69  C   UNL A   1      45.481  30.934  28.278  1.00  0.00     0.037 A 
BRANCH  56  70
ATOM     70  C   UNL A   1      39.853  28.554  29.178  1.00  0.00     0.064 A 
ATOM     71  C   UNL A   1      39.408  28.327  30.490  1.00  0.00     0.173 A 
ATOM     72  C   UNL A   1      38.929  29.070  28.255  1.00  0.00     0.173 A 
ATOM     73  F   UNL A   1      40.247  27.828  31.410  1.00  0.00    -0.203 F 
ATOM     74  C   UNL A   1      38.087  28.576  30.853  1.00  0.00     0.198 A 
ATOM     75  C   UNL A   1      37.618  29.351  28.632  1.00  0.00     0.198 A 
ATOM     76  F   UNL A   1      39.301  29.316  26.990  1.00  0.00    -0.203 F 
ATOM     77  F   UNL A   1      37.675  28.303  32.099  1.00  0.00    -0.200 F 
ATOM     78  C   UNL A   1      37.196  29.096  29.927  1.00  0.00     0.200 A 
ATOM     79  F   UNL A   1      36.762  29.869  27.739  1.00  0.00    -0.200 F 
ATOM     80  F   UNL A   1      35.928  29.346  30.282  1.00  0.00    -0.200 F 
ENDBRANCH  56  70
BRANCH  57  81
ATOM     81  C   UNL A   1      49.149  26.639  26.102  1.00  0.00     0.064 A 
ATOM     82  C   UNL A   1      49.522  26.928  24.782  1.00  0.00     0.173 A 
ATOM     83  C   UNL A   1      50.120  26.075  26.944  1.00  0.00     0.173 A 
ATOM     84  F   UNL A   1      48.623  27.446  23.931  1.00  0.00    -0.203 F 
ATOM     85  C   UNL A   1      50.801  26.638  24.313  1.00  0.00     0.198 A 
ATOM     86  C   UNL A   1      51.410  25.817  26.484  1.00  0.00     0.198 A 
ATOM     87  F   UNL A   1      49.819  25.782  28.217  1.00  0.00    -0.203 F 
ATOM     88  F   UNL A   1      51.112  26.872  23.030  1.00  0.00    -0.200 F 
ATOM     89  C   UNL A   1      51.746  26.088  25.165  1.00  0.00     0.200 A 
ATOM     90  F   UNL A   1      52.324  25.299  27.315  1.00  0.00    -0.200 F 
ATOM     91  F   UNL A   1      52.978  25.810  24.716  1.00  0.00    -0.200 F 
ENDBRANCH  57  81
BRANCH  69  92
ATOM     92  C   UNL A   1      45.960  32.334  28.542  1.00  0.00     0.064 A 
ATOM     93  C   UNL A   1      45.855  33.347  27.577  1.00  0.00     0.173 A 
ATOM     94  C   UNL A   1      46.497  32.675  29.793  1.00  0.00     0.173 A 
ATOM     95  F   UNL A   1      45.362  33.073  26.359  1.00  0.00    -0.203 F 
ATOM     96  C   UNL A   1      46.297  34.640  27.846  1.00  0.00     0.198 A 
ATOM     97  C   UNL A   1      46.905  33.977  30.070  1.00  0.00     0.198 A 
ATOM     98  F   UNL A   1      46.614  31.746  30.754  1.00  0.00    -0.203 F 
ATOM     99  F   UNL A   1      46.236  35.579  26.890  1.00  0.00    -0.200 F 
ATOM    100  C   UNL A   1      46.814  34.956  29.093  1.00  0.00     0.200 A 
ATOM    101  F   UNL A   1      47.389  34.282  31.282  1.00  0.00    -0.200 F 
ATOM    102  F   UNL A   1      47.230  36.203  29.353  1.00  0.00    -0.200 F 
ENDBRANCH  69  92
ENDBRANCH  43  44
ENDBRANCH  35  38
ENDBRANCH  33  34
ENDBRANCH  32  33
ENDBRANCH  31  32
ENDBRANCH  30  31
ENDBRANCH   3  30
TORSDOF 17
ENDMDL
MODEL 3
REMARK VINA RESULT:     -12.1      0.994      7.027
REMARK SMILES O=C(COc1ccccc1/C=N\N1CC[NH+](Cc2ccc(Cl)cc2)CC1)NCCCCNC(=O)c1ccc(-c2c3nc(c(-c4c(F)c(F)c(F)c(F)c4F)c4ccc([nH]4)c(-c4c(F)c(F)c(F)c(F)c4F)c4nc(c(-c5c(F)c(F)c(F)c(F)c5F)c5ccc2[nH]5)C=C4)C=C3)cc1
REMARK SMILES IDX 1 1 2 2 27 3 3 5 4 6 5 7 6 8 10 9 7 10 9 11 8 12 11 13 12 14
REMARK SMILES IDX 13 15 14 16 26 17 15 18 25 19 16 20 17 22 18 23 19 24 24 25
REMARK SMILES IDX 20 26 23 27 21 28 22 29 28 30 29 31 30 32 31 33 32 34 33 35
REMARK SMILES IDX 34 37 35 38 36 39 97 40 37 41 96 42 38 43 39 44 40 45 90 46
REMARK SMILES IDX 41 47 95 48 89 49 91 50 42 51 94 52 88 53 87 54 43 56 75 57
REMARK SMILES IDX 55 58 74 59 56 60 59 61 73 62 92 63 57 64 58 65 72 67 93 68
REMARK SMILES IDX 60 69 44 70 45 71 53 72 46 73 47 74 51 75 54 76 48 77 49 78
REMARK SMILES IDX 52 79 50 80 76 81 77 82 85 83 78 84 79 85 83 86 86 87 80 88
REMARK SMILES IDX 81 89 84 90 82 91 61 92 62 93 70 94 63 95 64 96 68 97 71 98
REMARK SMILES IDX 65 99 66 100 69 101 67 102
REMARK H PARENT 27 4 16 21 32 36 91 55 59 66
REMARK Flexibility Score: inf
ROOT
ATOM      1  O   UNL A   1      36.382  23.849  23.349  1.00  0.00    -0.271 OA
ATOM      2  C   UNL A   1      36.101  23.948  24.542  1.00  0.00     0.257 C 
ATOM      3  N   UNL A   1      36.925  23.476  25.557  1.00  0.00    -0.353 N 
ATOM      4  H   UNL A   1      36.840  23.843  26.467  1.00  0.00     0.163 HD
ENDROOT
BRANCH   2   5
ATOM      5  C   UNL A   1      34.796  24.634  25.000  1.00  0.00     0.329 C 
BRANCH   5   6
ATOM      6  O   UNL A   1      34.379  25.745  24.203  1.00  0.00    -0.483 OA
BRANCH   6   7
ATOM      7  C   UNL A   1      33.517  26.616  24.832  1.00  0.00     0.128 A 
ATOM      8  C   UNL A   1      33.654  26.835  26.204  1.00  0.00     0.047 A 
ATOM      9  C   UNL A   1      32.386  27.120  24.170  1.00  0.00     0.037 A 
ATOM     10  C   UNL A   1      32.672  27.551  26.903  1.00  0.00     0.004 A 
ATOM     11  C   UNL A   1      31.375  27.762  24.885  1.00  0.00     0.013 A 
ATOM     12  C   UNL A   1      31.525  28.000  26.248  1.00  0.00     0.001 A 
BRANCH   9  13
ATOM     13  C   UNL A   1      32.308  26.934  22.718  1.00  0.00     0.145 C 
ATOM     14  N   UNL A   1      32.126  25.885  21.975  1.00  0.00    -0.185 NA
BRANCH  14  15
ATOM     15  N   UNL A   1      32.182  24.663  22.527  1.00  0.00    -0.286 NA
ATOM     16  C   UNL A   1      32.858  23.679  21.673  1.00  0.00     0.200 C 
ATOM     17  C   UNL A   1      31.012  23.997  23.137  1.00  0.00     0.200 C 
ATOM     18  C   UNL A   1      33.428  22.555  22.543  1.00  0.00     0.286 C 
ATOM     19  C   UNL A   1      31.513  22.833  24.044  1.00  0.00     0.286 C 
ATOM     20  N   UNL A   1      32.482  21.891  23.451  1.00  0.00    -0.328 N 
ATOM     21  H   UNL A   1      33.038  21.563  24.240  1.00  0.00     0.348 HD
BRANCH  20  22
ATOM     22  C   UNL A   1      31.920  20.637  22.942  1.00  0.00     0.299 C 
BRANCH  22  23
ATOM     23  C   UNL A   1      32.468  19.374  23.561  1.00  0.00     0.006 A 
ATOM     24  C   UNL A   1      32.523  19.248  24.958  1.00  0.00     0.011 A 
ATOM     25  C   UNL A   1      32.839  18.284  22.762  1.00  0.00     0.011 A 
ATOM     26  C   UNL A   1      32.850  18.026  25.544  1.00  0.00     0.021 A 
ATOM     27  C   UNL A   1      33.156  17.058  23.350  1.00  0.00     0.021 A 
ATOM     28  C   UNL A   1      33.142  16.930  24.737  1.00  0.00     0.041 A 
ATOM     29  Cl  UNL A   1      33.462  15.403  25.457  1.00  0.00    -0.084 Cl
ENDBRANCH  22  23
ENDBRANCH  20  22
ENDBRANCH  14  15
ENDBRANCH   9  13
ENDBRANCH   6   7
ENDBRANCH   5   6
ENDBRANCH   2   5
BRANCH   3  30
ATOM     30  C   UNL A   1      37.916  22.438  25.284  1.00  0.00     0.116 C 
BRANCH  30  31
ATOM     31  C   UNL A   1      37.362  21.112  24.764  1.00  0.00     0.023 C 
BRANCH  31  32
ATOM     32  C   UNL A   1      38.262  19.886  24.939  1.00  0.00     0.023 C 
BRANCH  32  33
ATOM     33  C   UNL A   1      39.236  19.920  26.117  1.00  0.00     0.116 C 
BRANCH  33  34
ATOM     34  N   UNL A   1      40.374  19.024  25.958  1.00  0.00    -0.352 N 
ATOM     35  C   UNL A   1      41.724  19.277  26.010  1.00  0.00     0.251 C 
ATOM     36  H   UNL A   1      40.137  18.085  25.785  1.00  0.00     0.163 HD
ATOM     37  O   UNL A   1      42.525  18.386  25.717  1.00  0.00    -0.269 OA
BRANCH  35  38
ATOM     38  C   UNL A   1      42.245  20.614  26.383  1.00  0.00     0.039 A 
ATOM     39  C   UNL A   1      42.671  21.481  25.372  1.00  0.00     0.014 A 
ATOM     40  C   UNL A   1      42.344  21.012  27.718  1.00  0.00     0.014 A 
ATOM     41  C   UNL A   1      43.110  22.770  25.691  1.00  0.00     0.010 A 
ATOM     42  C   UNL A   1      42.710  22.323  28.031  1.00  0.00     0.010 A 
ATOM     43  C   UNL A   1      43.090  23.220  27.021  1.00  0.00    -0.014 A 
BRANCH  43  44
ATOM     44  C   UNL A   1      43.440  24.626  27.367  1.00  0.00     0.031 A 
ATOM     45  C   UNL A   1      44.879  25.068  27.421  1.00  0.00     0.074 A 
ATOM     46  C   UNL A   1      42.464  25.495  27.701  1.00  0.00     0.049 A 
ATOM     47  N   UNL A   1      45.378  26.227  27.770  1.00  0.00    -0.248 NA
ATOM     48  C   UNL A   1      45.891  24.066  27.057  1.00  0.00     0.031 C 
ATOM     49  C   UNL A   1      41.034  25.187  27.730  1.00  0.00     0.029 A 
ATOM     50  N   UNL A   1      42.526  26.811  28.091  1.00  0.00    -0.354 N 
ATOM     51  C   UNL A   1      46.757  26.090  27.682  1.00  0.00     0.074 A 
ATOM     52  C   UNL A   1      47.019  24.720  27.297  1.00  0.00     0.031 C 
ATOM     53  C   UNL A   1      40.353  26.286  28.090  1.00  0.00     0.029 A 
ATOM     54  C   UNL A   1      41.299  27.365  28.364  1.00  0.00     0.049 A 
ATOM     55  H   UNL A   1      43.371  27.310  28.166  1.00  0.00     0.167 HD
ATOM     56  C   UNL A   1      47.718  27.025  27.884  1.00  0.00     0.037 A 
ATOM     57  C   UNL A   1      40.969  28.597  28.797  1.00  0.00     0.037 A 
ATOM     58  C   UNL A   1      47.456  28.394  28.249  1.00  0.00     0.049 A 
ATOM     59  C   UNL A   1      42.059  29.609  29.038  1.00  0.00     0.074 A 
ATOM     60  C   UNL A   1      48.359  29.430  28.413  1.00  0.00     0.029 A 
ATOM     61  N   UNL A   1      46.198  28.916  28.512  1.00  0.00    -0.354 N 
ATOM     62  N   UNL A   1      43.353  29.487  28.879  1.00  0.00    -0.248 NA
ATOM     63  C   UNL A   1      41.637  30.934  29.515  1.00  0.00     0.031 C 
ATOM     64  C   UNL A   1      47.656  30.563  28.835  1.00  0.00     0.029 A 
ATOM     65  C   UNL A   1      46.306  30.252  28.869  1.00  0.00     0.049 A 
ATOM     66  H   UNL A   1      45.353  28.414  28.455  1.00  0.00     0.167 HD
ATOM     67  C   UNL A   1      43.896  30.724  29.201  1.00  0.00     0.074 A 
ATOM     68  C   UNL A   1      42.789  31.588  29.550  1.00  0.00     0.031 C 
ATOM     69  C   UNL A   1      45.197  31.108  29.205  1.00  0.00     0.037 A 
BRANCH  56  70
ATOM     70  C   UNL A   1      49.151  26.602  27.722  1.00  0.00     0.064 A 
ATOM     71  C   UNL A   1      49.754  26.503  26.459  1.00  0.00     0.173 A 
ATOM     72  C   UNL A   1      49.946  26.339  28.849  1.00  0.00     0.173 A 
ATOM     73  F   UNL A   1      49.039  26.736  25.349  1.00  0.00    -0.203 F 
ATOM     74  C   UNL A   1      51.089  26.128  26.329  1.00  0.00     0.198 A 
ATOM     75  C   UNL A   1      51.290  25.998  28.715  1.00  0.00     0.198 A 
ATOM     76  F   UNL A   1      49.425  26.427  30.081  1.00  0.00    -0.203 F 
ATOM     77  F   UNL A   1      51.629  25.992  25.109  1.00  0.00    -0.200 F 
ATOM     78  C   UNL A   1      51.858  25.885  27.457  1.00  0.00     0.200 A 
ATOM     79  F   UNL A   1      52.036  25.779  29.808  1.00  0.00    -0.200 F 
ATOM     80  F   UNL A   1      53.145  25.535  27.329  1.00  0.00    -0.200 F 
ENDBRANCH  56  70
BRANCH  57  81
ATOM     81  C   UNL A   1      39.542  28.957  29.017  1.00  0.00     0.064 A 
ATOM     82  C   UNL A   1      38.957  28.835  30.285  1.00  0.00     0.173 A 
ATOM     83  C   UNL A   1      38.730  29.408  27.966  1.00  0.00     0.173 A 
ATOM     84  F   UNL A   1      39.686  28.387  31.318  1.00  0.00    -0.203 F 
ATOM     85  C   UNL A   1      37.609  29.124  30.489  1.00  0.00     0.198 A 
ATOM     86  C   UNL A   1      37.390  29.728  28.178  1.00  0.00     0.198 A 
ATOM     87  F   UNL A   1      39.239  29.545  26.733  1.00  0.00    -0.203 F 
ATOM     88  F   UNL A   1      37.063  28.944  31.700  1.00  0.00    -0.200 F 
ATOM     89  C   UNL A   1      36.828  29.576  29.436  1.00  0.00     0.200 A 
ATOM     90  F   UNL A   1      36.643  30.179  27.161  1.00  0.00    -0.200 F 
ATOM     91  F   UNL A   1      35.532  29.854  29.632  1.00  0.00    -0.200 F 
ENDBRANCH  57  81
BRANCH  69  92
ATOM     92  C   UNL A   1      45.495  32.539  29.555  1.00  0.00     0.064 A 
ATOM     93  C   UNL A   1      45.838  32.928  30.858  1.00  0.00     0.173 A 
ATOM     94  C   UNL A   1      45.472  33.531  28.561  1.00  0.00     0.173 A 
ATOM     95  F   UNL A   1      45.860  32.023  31.849  1.00  0.00    -0.203 F 
ATOM     96  C   UNL A   1      46.120  34.258  31.158  1.00  0.00     0.198 A 
ATOM     97  C   UNL A   1      45.789  34.853  28.858  1.00  0.00     0.198 A 
ATOM     98  F   UNL A   1      45.157  33.213  27.296  1.00  0.00    -0.203 F 
ATOM     99  F   UNL A   1      46.392  34.615  32.422  1.00  0.00    -0.200 F 
ATOM    100  C   UNL A   1      46.103  35.218  30.158  1.00  0.00     0.200 A 
ATOM    101  F   UNL A   1      45.788  35.775  27.885  1.00  0.00    -0.200 F 
ATOM    102  F   UNL A   1      46.383  36.496  30.447  1.00  0.00    -0.200 F 
ENDBRANCH  69  92
ENDBRANCH  43  44
ENDBRANCH  35  38
ENDBRANCH  33  34
ENDBRANCH  32  33
ENDBRANCH  31  32
ENDBRANCH  30  31
ENDBRANCH   3  30
TORSDOF 17
ENDMDL
