MODEL 1
REMARK VINA RESULT:     -12.6      0.000      0.000
REMARK SMILES N#C/C(=C\c1ccc(-c2ccc(C(=O)NCCCCNC(=O)c3ccc(-c4c5nc(c(-c6c(F)c(F)c(F)c(F)c6F)c6ccc([nH]6)c(-c6c(F)c(F)c(F)c(F)c6F)c6nc(c(-c7c(F)c(F)c(F)c(F)c7F)c7ccc4[nH]7)C=C6)C=C5)cc3)cc2)o1)[C@@H]1N=c2cc(Br)cnc2=N1
REMARK SMILES IDX 17 1 16 2 15 3 13 4 14 5 12 7 9 8 10 9 87 10 11 11 86 12
REMARK SMILES IDX 8 13 5 14 6 15 88 16 7 17 4 18 3 19 2 20 1 21 89 22 90 23
REMARK SMILES IDX 98 24 91 25 97 26 92 27 96 28 93 29 95 30 94 31 18 32 19 33
REMARK SMILES IDX 20 34 21 35 22 37 23 38 24 39 85 40 25 41 84 42 26 43 27 44
REMARK SMILES IDX 28 45 78 46 29 47 83 48 77 49 79 50 30 51 82 52 76 53 75 54
REMARK SMILES IDX 31 56 63 57 43 58 62 59 44 60 47 61 61 62 80 63 45 64 46 65
REMARK SMILES IDX 60 67 81 68 48 69 32 70 33 71 41 72 34 73 35 74 39 75 42 76
REMARK SMILES IDX 36 77 37 78 40 79 38 80 64 81 65 82 73 83 66 84 67 85 71 86
REMARK SMILES IDX 74 87 68 88 69 89 72 90 70 91 49 92 50 93 58 94 51 95 52 96
REMARK SMILES IDX 56 97 59 98 53 99 54 100 57 101 55 102
REMARK H PARENT 15 6 20 36 79 55 47 66
REMARK Flexibility Score: inf
ROOT
ATOM      1  C   UNL A   1      44.082  21.644  25.386  1.00  0.00     0.023 C 
ENDROOT
BRANCH   1   2
ATOM      2  C   UNL A   1      43.135  20.892  26.326  1.00  0.00     0.116 C 
BRANCH   2   3
ATOM      3  N   UNL A   1      42.934  21.632  27.558  1.00  0.00    -0.352 N 
ATOM      4  C   UNL A   1      41.878  22.394  27.997  1.00  0.00     0.251 C 
ATOM      5  O   UNL A   1      41.935  22.869  29.130  1.00  0.00    -0.269 OA
ATOM      6  H   UNL A   1      43.686  21.578  28.191  1.00  0.00     0.163 HD
BRANCH   4   7
ATOM      7  C   UNL A   1      40.654  22.612  27.177  1.00  0.00     0.039 A 
ATOM      8  C   UNL A   1      38.262  23.115  25.796  1.00  0.00     0.017 A 
ATOM      9  C   UNL A   1      38.918  24.158  26.452  1.00  0.00     0.013 A 
ATOM     10  C   UNL A   1      38.838  21.845  25.770  1.00  0.00     0.013 A 
ATOM     11  C   UNL A   1      40.107  23.904  27.147  1.00  0.00     0.014 A 
ATOM     12  C   UNL A   1      40.040  21.607  26.429  1.00  0.00     0.014 A 
BRANCH   8  13
ATOM     13  C   UNL A   1      36.970  23.290  25.182  1.00  0.00     0.134 A 
ATOM     14  C   UNL A   1      35.015  24.295  24.972  1.00  0.00     0.128 A 
ATOM     15  C   UNL A   1      35.159  23.406  23.911  1.00  0.00     0.051 A 
ATOM     16  O   UNL A   1      36.162  24.234  25.726  1.00  0.00    -0.457 OA
ATOM     17  C   UNL A   1      36.393  22.743  24.063  1.00  0.00     0.051 A 
BRANCH  14  18
ATOM     18  C   UNL A   1      33.930  25.155  25.299  1.00  0.00     0.066 C 
ATOM     19  C   UNL A   1      32.913  24.772  26.102  1.00  0.00     0.080 C 
BRANCH  19  20
ATOM     20  C   UNL A   1      32.996  23.389  26.729  1.00  0.00     0.099 C 
ATOM     21  N   UNL A   1      33.066  22.242  27.249  1.00  0.00    -0.193 NA
ENDBRANCH  19  20
BRANCH  19  22
ATOM     22  C   UNL A   1      31.746  25.662  26.430  1.00  0.00     0.265 C 
ATOM     23  N   UNL A   1      30.789  25.655  25.278  1.00  0.00    -0.249 NA
ATOM     24  N   UNL A   1      32.226  27.045  26.689  1.00  0.00    -0.232 NA
ATOM     25  C   UNL A   1      30.779  26.891  24.921  1.00  0.00     0.106 A 
ATOM     26  C   UNL A   1      31.640  27.737  25.775  1.00  0.00     0.175 A 
ATOM     27  C   UNL A   1      30.091  27.534  23.803  1.00  0.00     0.049 A 
ATOM     28  N   UNL A   1      31.828  29.075  25.602  1.00  0.00    -0.234 NA
ATOM     29  C   UNL A   1      30.307  28.844  23.628  1.00  0.00     0.038 A 
ATOM     30  C   UNL A   1      31.200  29.576  24.585  1.00  0.00     0.129 A 
ATOM     31  Br  UNL A   1      29.550  29.816  22.236  1.00  0.00    -0.049 Br
ENDBRANCH  19  22
ENDBRANCH  14  18
ENDBRANCH   8  13
ENDBRANCH   4   7
ENDBRANCH   2   3
ENDBRANCH   1   2
BRANCH   1  32
ATOM     32  C   UNL A   1      43.394  22.652  24.469  1.00  0.00     0.023 C 
BRANCH  32  33
ATOM     33  C   UNL A   1      43.450  24.094  24.954  1.00  0.00     0.116 C 
BRANCH  33  34
ATOM     34  N   UNL A   1      44.770  24.692  24.832  1.00  0.00    -0.352 N 
ATOM     35  C   UNL A   1      45.278  25.783  25.496  1.00  0.00     0.251 C 
ATOM     36  H   UNL A   1      45.380  24.259  24.191  1.00  0.00     0.163 HD
ATOM     37  O   UNL A   1      46.379  26.232  25.211  1.00  0.00    -0.269 OA
BRANCH  35  38
ATOM     38  C   UNL A   1      44.452  26.436  26.532  1.00  0.00     0.039 A 
ATOM     39  C   UNL A   1      43.727  25.633  27.416  1.00  0.00     0.014 A 
ATOM     40  C   UNL A   1      44.435  27.827  26.658  1.00  0.00     0.014 A 
ATOM     41  C   UNL A   1      43.039  26.225  28.476  1.00  0.00     0.010 A 
ATOM     42  C   UNL A   1      43.807  28.409  27.753  1.00  0.00     0.010 A 
ATOM     43  C   UNL A   1      43.107  27.614  28.673  1.00  0.00    -0.014 A 
BRANCH  43  44
ATOM     44  C   UNL A   1      42.465  28.255  29.845  1.00  0.00     0.031 A 
ATOM     45  C   UNL A   1      41.110  28.887  29.710  1.00  0.00     0.074 A 
ATOM     46  C   UNL A   1      43.143  28.346  31.004  1.00  0.00     0.049 A 
ATOM     47  N   UNL A   1      40.421  29.563  30.594  1.00  0.00    -0.248 NA
ATOM     48  C   UNL A   1      40.459  28.775  28.396  1.00  0.00     0.031 C 
ATOM     49  C   UNL A   1      44.493  27.829  31.235  1.00  0.00     0.029 A 
ATOM     50  N   UNL A   1      42.798  28.922  32.200  1.00  0.00    -0.354 N 
ATOM     51  C   UNL A   1      39.270  29.975  29.938  1.00  0.00     0.074 A 
ATOM     52  C   UNL A   1      39.373  29.513  28.570  1.00  0.00     0.031 C 
ATOM     53  C   UNL A   1      44.858  28.104  32.498  1.00  0.00     0.029 A 
ATOM     54  C   UNL A   1      43.782  28.842  33.154  1.00  0.00     0.049 A 
ATOM     55  H   UNL A   1      41.927  29.353  32.360  1.00  0.00     0.167 HD
ATOM     56  C   UNL A   1      38.213  30.658  30.437  1.00  0.00     0.037 A 
ATOM     57  C   UNL A   1      43.817  29.317  34.413  1.00  0.00     0.037 A 
ATOM     58  C   UNL A   1      38.101  31.083  31.808  1.00  0.00     0.049 A 
ATOM     59  C   UNL A   1      42.619  30.046  34.956  1.00  0.00     0.074 A 
ATOM     60  C   UNL A   1      37.031  31.691  32.438  1.00  0.00     0.029 A 
ATOM     61  N   UNL A   1      39.101  30.947  32.760  1.00  0.00    -0.354 N 
ATOM     62  N   UNL A   1      41.492  30.346  34.355  1.00  0.00    -0.248 NA
ATOM     63  C   UNL A   1      42.692  30.493  36.354  1.00  0.00     0.031 C 
ATOM     64  C   UNL A   1      37.401  31.968  33.759  1.00  0.00     0.029 A 
ATOM     65  C   UNL A   1      38.684  31.488  33.965  1.00  0.00     0.049 A 
ATOM     66  H   UNL A   1      39.979  30.529  32.601  1.00  0.00     0.167 HD
ATOM     67  C   UNL A   1      40.717  31.000  35.302  1.00  0.00     0.074 A 
ATOM     68  C   UNL A   1      41.495  31.037  36.524  1.00  0.00     0.031 C 
ATOM     69  C   UNL A   1      39.473  31.522  35.171  1.00  0.00     0.037 A 
BRANCH  56  70
ATOM     70  C   UNL A   1      37.094  30.990  29.493  1.00  0.00     0.064 A 
ATOM     71  C   UNL A   1      36.964  32.264  28.920  1.00  0.00     0.173 A 
ATOM     72  C   UNL A   1      36.148  30.014  29.144  1.00  0.00     0.173 A 
ATOM     73  F   UNL A   1      37.836  33.236  29.231  1.00  0.00    -0.203 F 
ATOM     74  C   UNL A   1      35.911  32.559  28.059  1.00  0.00     0.198 A 
ATOM     75  C   UNL A   1      35.113  30.304  28.258  1.00  0.00     0.198 A 
ATOM     76  F   UNL A   1      36.228  28.778  29.659  1.00  0.00    -0.203 F 
ATOM     77  F   UNL A   1      35.777  33.798  27.568  1.00  0.00    -0.200 F 
ATOM     78  C   UNL A   1      34.990  31.578  27.725  1.00  0.00     0.200 A 
ATOM     79  F   UNL A   1      34.230  29.352  27.927  1.00  0.00    -0.200 F 
ATOM     80  F   UNL A   1      33.977  31.863  26.896  1.00  0.00    -0.200 F 
ENDBRANCH  56  70
BRANCH  57  81
ATOM     81  C   UNL A   1      45.023  29.093  35.249  1.00  0.00     0.064 A 
ATOM     82  C   UNL A   1      46.019  30.073  35.355  1.00  0.00     0.173 A 
ATOM     83  C   UNL A   1      45.191  27.907  35.980  1.00  0.00     0.173 A 
ATOM     84  F   UNL A   1      45.910  31.215  34.661  1.00  0.00    -0.203 F 
ATOM     85  C   UNL A   1      47.145  29.871  36.150  1.00  0.00     0.198 A 
ATOM     86  C   UNL A   1      46.305  27.717  36.794  1.00  0.00     0.198 A 
ATOM     87  F   UNL A   1      44.262  26.942  35.917  1.00  0.00    -0.203 F 
ATOM     88  F   UNL A   1      48.098  30.811  36.208  1.00  0.00    -0.200 F 
ATOM     89  C   UNL A   1      47.284  28.697  36.875  1.00  0.00     0.200 A 
ATOM     90  F   UNL A   1      46.428  26.588  37.504  1.00  0.00    -0.200 F 
ATOM     91  F   UNL A   1      48.361  28.508  37.648  1.00  0.00    -0.200 F 
ENDBRANCH  57  81
BRANCH  69  92
ATOM     92  C   UNL A   1      38.866  32.165  36.383  1.00  0.00     0.064 A 
ATOM     93  C   UNL A   1      38.034  31.447  37.254  1.00  0.00     0.173 A 
ATOM     94  C   UNL A   1      39.157  33.500  36.701  1.00  0.00     0.173 A 
ATOM     95  F   UNL A   1      37.714  30.172  36.984  1.00  0.00    -0.203 F 
ATOM     96  C   UNL A   1      37.500  32.049  38.390  1.00  0.00     0.198 A 
ATOM     97  C   UNL A   1      38.643  34.090  37.852  1.00  0.00     0.198 A 
ATOM     98  F   UNL A   1      39.952  34.228  35.902  1.00  0.00    -0.203 F 
ATOM     99  F   UNL A   1      36.674  31.356  39.187  1.00  0.00    -0.200 F 
ATOM    100  C   UNL A   1      37.811  33.366  38.693  1.00  0.00     0.200 A 
ATOM    101  F   UNL A   1      38.955  35.359  38.150  1.00  0.00    -0.200 F 
ATOM    102  F   UNL A   1      37.303  33.940  39.792  1.00  0.00    -0.200 F 
ENDBRANCH  69  92
ENDBRANCH  43  44
ENDBRANCH  35  38
ENDBRANCH  33  34
ENDBRANCH  32  33
ENDBRANCH   1  32
TORSDOF 15
ENDMDL
MODEL 2
REMARK VINA RESULT:     -12.5      4.537     10.143
REMARK SMILES N#C/C(=C\c1ccc(-c2ccc(C(=O)NCCCCNC(=O)c3ccc(-c4c5nc(c(-c6c(F)c(F)c(F)c(F)c6F)c6ccc([nH]6)c(-c6c(F)c(F)c(F)c(F)c6F)c6nc(c(-c7c(F)c(F)c(F)c(F)c7F)c7ccc4[nH]7)C=C6)C=C5)cc3)cc2)o1)[C@@H]1N=c2cc(Br)cnc2=N1
REMARK SMILES IDX 17 1 16 2 15 3 13 4 14 5 12 7 9 8 10 9 87 10 11 11 86 12
REMARK SMILES IDX 8 13 5 14 6 15 88 16 7 17 4 18 3 19 2 20 1 21 89 22 90 23
REMARK SMILES IDX 98 24 91 25 97 26 92 27 96 28 93 29 95 30 94 31 18 32 19 33
REMARK SMILES IDX 20 34 21 35 22 37 23 38 24 39 85 40 25 41 84 42 26 43 27 44
REMARK SMILES IDX 28 45 78 46 29 47 83 48 77 49 79 50 30 51 82 52 76 53 75 54
REMARK SMILES IDX 31 56 63 57 43 58 62 59 44 60 47 61 61 62 80 63 45 64 46 65
REMARK SMILES IDX 60 67 81 68 48 69 32 70 33 71 41 72 34 73 35 74 39 75 42 76
REMARK SMILES IDX 36 77 37 78 40 79 38 80 64 81 65 82 73 83 66 84 67 85 71 86
REMARK SMILES IDX 74 87 68 88 69 89 72 90 70 91 49 92 50 93 58 94 51 95 52 96
REMARK SMILES IDX 56 97 59 98 53 99 54 100 57 101 55 102
REMARK H PARENT 15 6 20 36 79 55 47 66
REMARK Flexibility Score: inf
ROOT
ATOM      1  C   UNL A   1      42.661  23.385  28.718  1.00  0.00     0.023 C 
ENDROOT
BRANCH   1   2
ATOM      2  C   UNL A   1      44.110  23.259  29.196  1.00  0.00     0.116 C 
BRANCH   2   3
ATOM      3  N   UNL A   1      44.989  22.904  28.097  1.00  0.00    -0.352 N 
ATOM      4  C   UNL A   1      45.710  23.682  27.224  1.00  0.00     0.251 C 
ATOM      5  O   UNL A   1      46.440  23.118  26.410  1.00  0.00    -0.269 OA
ATOM      6  H   UNL A   1      45.084  21.935  27.951  1.00  0.00     0.163 HD
BRANCH   4   7
ATOM      7  C   UNL A   1      45.684  25.170  27.269  1.00  0.00     0.039 A 
ATOM      8  C   UNL A   1      45.624  27.974  27.150  1.00  0.00     0.017 A 
ATOM      9  C   UNL A   1      44.645  27.229  26.490  1.00  0.00     0.013 A 
ATOM     10  C   UNL A   1      46.584  27.322  27.923  1.00  0.00     0.013 A 
ATOM     11  C   UNL A   1      44.680  25.831  26.545  1.00  0.00     0.014 A 
ATOM     12  C   UNL A   1      46.591  25.933  28.006  1.00  0.00     0.014 A 
BRANCH   8  13
ATOM     13  C   UNL A   1      45.715  29.407  27.015  1.00  0.00     0.134 A 
ATOM     14  C   UNL A   1      45.338  31.472  27.701  1.00  0.00     0.128 A 
ATOM     15  C   UNL A   1      46.192  31.530  26.602  1.00  0.00     0.051 A 
ATOM     16  O   UNL A   1      45.084  30.146  27.962  1.00  0.00    -0.457 OA
ATOM     17  C   UNL A   1      46.407  30.214  26.148  1.00  0.00     0.051 A 
BRANCH  14  18
ATOM     18  C   UNL A   1      44.783  32.525  28.480  1.00  0.00     0.066 C 
ATOM     19  C   UNL A   1      44.134  33.574  27.929  1.00  0.00     0.080 C 
BRANCH  19  20
ATOM     20  C   UNL A   1      43.937  33.566  26.421  1.00  0.00     0.099 C 
ATOM     21  N   UNL A   1      43.774  33.559  25.171  1.00  0.00    -0.193 NA
ENDBRANCH  19  20
BRANCH  19  22
ATOM     22  C   UNL A   1      43.569  34.708  28.741  1.00  0.00     0.265 C 
ATOM     23  N   UNL A   1      42.450  35.344  27.976  1.00  0.00    -0.249 NA
ATOM     24  N   UNL A   1      44.634  35.707  29.016  1.00  0.00    -0.232 NA
ATOM     25  C   UNL A   1      42.874  36.548  27.816  1.00  0.00     0.106 A 
ATOM     26  C   UNL A   1      44.191  36.776  28.450  1.00  0.00     0.175 A 
ATOM     27  C   UNL A   1      42.272  37.661  27.085  1.00  0.00     0.049 A 
ATOM     28  N   UNL A   1      44.878  37.951  28.412  1.00  0.00    -0.234 NA
ATOM     29  C   UNL A   1      42.971  38.803  27.032  1.00  0.00     0.038 A 
ATOM     30  C   UNL A   1      44.292  38.890  27.736  1.00  0.00     0.129 A 
ATOM     31  Br  UNL A   1      42.380  40.307  26.113  1.00  0.00    -0.049 Br
ENDBRANCH  19  22
ENDBRANCH  14  18
ENDBRANCH   8  13
ENDBRANCH   4   7
ENDBRANCH   2   3
ENDBRANCH   1   2
BRANCH   1  32
ATOM     32  C   UNL A   1      42.201  22.262  27.790  1.00  0.00     0.023 C 
BRANCH  32  33
ATOM     33  C   UNL A   1      41.895  22.700  26.365  1.00  0.00     0.116 C 
BRANCH  33  34
ATOM     34  N   UNL A   1      40.511  22.475  25.978  1.00  0.00    -0.352 N 
ATOM     35  C   UNL A   1      39.415  23.263  26.235  1.00  0.00     0.251 C 
ATOM     36  H   UNL A   1      40.337  21.653  25.466  1.00  0.00     0.163 HD
ATOM     37  O   UNL A   1      38.291  22.890  25.931  1.00  0.00    -0.269 OA
BRANCH  35  38
ATOM     38  C   UNL A   1      39.609  24.553  26.928  1.00  0.00     0.039 A 
ATOM     39  C   UNL A   1      39.130  24.692  28.233  1.00  0.00     0.014 A 
ATOM     40  C   UNL A   1      40.303  25.597  26.311  1.00  0.00     0.014 A 
ATOM     41  C   UNL A   1      39.409  25.858  28.947  1.00  0.00     0.010 A 
ATOM     42  C   UNL A   1      40.640  26.727  27.047  1.00  0.00     0.010 A 
ATOM     43  C   UNL A   1      40.199  26.867  28.372  1.00  0.00    -0.014 A 
BRANCH  43  44
ATOM     44  C   UNL A   1      40.589  28.070  29.143  1.00  0.00     0.031 A 
ATOM     45  C   UNL A   1      41.943  28.147  29.787  1.00  0.00     0.074 A 
ATOM     46  C   UNL A   1      39.689  29.052  29.339  1.00  0.00     0.049 A 
ATOM     47  N   UNL A   1      42.438  29.076  30.564  1.00  0.00    -0.248 NA
ATOM     48  C   UNL A   1      42.848  27.012  29.553  1.00  0.00     0.031 C 
ATOM     49  C   UNL A   1      38.320  29.058  28.821  1.00  0.00     0.029 A 
ATOM     50  N   UNL A   1      39.783  30.226  30.043  1.00  0.00    -0.354 N 
ATOM     51  C   UNL A   1      43.699  28.627  30.930  1.00  0.00     0.074 A 
ATOM     52  C   UNL A   1      43.877  27.323  30.328  1.00  0.00     0.031 C 
ATOM     53  C   UNL A   1      37.705  30.184  29.217  1.00  0.00     0.029 A 
ATOM     54  C   UNL A   1      38.625  30.963  30.040  1.00  0.00     0.049 A 
ATOM     55  H   UNL A   1      40.603  30.512  30.505  1.00  0.00     0.167 HD
ATOM     56  C   UNL A   1      44.633  29.256  31.683  1.00  0.00     0.037 A 
ATOM     57  C   UNL A   1      38.335  32.132  30.642  1.00  0.00     0.037 A 
ATOM     58  C   UNL A   1      44.463  30.569  32.250  1.00  0.00     0.049 A 
ATOM     59  C   UNL A   1      39.398  32.826  31.448  1.00  0.00     0.074 A 
ATOM     60  C   UNL A   1      45.382  31.334  32.942  1.00  0.00     0.029 A 
ATOM     61  N   UNL A   1      43.289  31.307  32.192  1.00  0.00    -0.354 N 
ATOM     62  N   UNL A   1      40.623  32.438  31.708  1.00  0.00    -0.248 NA
ATOM     63  C   UNL A   1      39.042  34.126  32.035  1.00  0.00     0.031 C 
ATOM     64  C   UNL A   1      44.751  32.516  33.345  1.00  0.00     0.029 A 
ATOM     65  C   UNL A   1      43.452  32.507  32.862  1.00  0.00     0.049 A 
ATOM     66  H   UNL A   1      42.462  31.018  31.741  1.00  0.00     0.167 HD
ATOM     67  C   UNL A   1      41.190  33.449  32.472  1.00  0.00     0.074 A 
ATOM     68  C   UNL A   1      40.179  34.477  32.619  1.00  0.00     0.031 C 
ATOM     69  C   UNL A   1      42.434  33.518  33.004  1.00  0.00     0.037 A 
BRANCH  56  70
ATOM     70  C   UNL A   1      45.920  28.529  31.939  1.00  0.00     0.064 A 
ATOM     71  C   UNL A   1      47.070  28.771  31.173  1.00  0.00     0.173 A 
ATOM     72  C   UNL A   1      46.009  27.590  32.978  1.00  0.00     0.173 A 
ATOM     73  F   UNL A   1      47.034  29.651  30.160  1.00  0.00    -0.203 F 
ATOM     74  C   UNL A   1      48.252  28.076  31.415  1.00  0.00     0.198 A 
ATOM     75  C   UNL A   1      47.202  26.919  33.237  1.00  0.00     0.198 A 
ATOM     76  F   UNL A   1      44.941  27.324  33.745  1.00  0.00    -0.203 F 
ATOM     77  F   UNL A   1      49.321  28.285  30.634  1.00  0.00    -0.200 F 
ATOM     78  C   UNL A   1      48.319  27.155  32.449  1.00  0.00     0.200 A 
ATOM     79  F   UNL A   1      47.269  26.037  34.243  1.00  0.00    -0.200 F 
ATOM     80  F   UNL A   1      49.457  26.488  32.681  1.00  0.00    -0.200 F 
ENDBRANCH  56  70
BRANCH  57  81
ATOM     81  C   UNL A   1      36.984  32.725  30.480  1.00  0.00     0.064 A 
ATOM     82  C   UNL A   1      36.004  32.566  31.469  1.00  0.00     0.173 A 
ATOM     83  C   UNL A   1      36.654  33.484  29.347  1.00  0.00     0.173 A 
ATOM     84  F   UNL A   1      36.268  31.834  32.561  1.00  0.00    -0.203 F 
ATOM     85  C   UNL A   1      34.739  33.134  31.326  1.00  0.00     0.198 A 
ATOM     86  C   UNL A   1      35.398  34.072  29.217  1.00  0.00     0.198 A 
ATOM     87  F   UNL A   1      37.560  33.671  28.377  1.00  0.00    -0.203 F 
ATOM     88  F   UNL A   1      33.810  32.940  32.271  1.00  0.00    -0.200 F 
ATOM     89  C   UNL A   1      34.440  33.892  30.204  1.00  0.00     0.200 A 
ATOM     90  F   UNL A   1      35.117  34.816  28.139  1.00  0.00    -0.200 F 
ATOM     91  F   UNL A   1      33.228  34.447  30.072  1.00  0.00    -0.200 F 
ENDBRANCH  57  81
BRANCH  69  92
ATOM     92  C   UNL A   1      42.782  34.753  33.781  1.00  0.00     0.064 A 
ATOM     93  C   UNL A   1      43.163  35.940  33.138  1.00  0.00     0.173 A 
ATOM     94  C   UNL A   1      42.689  34.763  35.180  1.00  0.00     0.173 A 
ATOM     95  F   UNL A   1      43.282  35.976  31.803  1.00  0.00    -0.203 F 
ATOM     96  C   UNL A   1      43.456  37.087  33.871  1.00  0.00     0.198 A 
ATOM     97  C   UNL A   1      42.955  35.920  35.908  1.00  0.00     0.198 A 
ATOM     98  F   UNL A   1      42.323  33.655  35.842  1.00  0.00    -0.203 F 
ATOM     99  F   UNL A   1      43.858  38.199  33.239  1.00  0.00    -0.200 F 
ATOM    100  C   UNL A   1      43.344  37.079  35.253  1.00  0.00     0.200 A 
ATOM    101  F   UNL A   1      42.835  35.913  37.243  1.00  0.00    -0.200 F 
ATOM    102  F   UNL A   1      43.618  38.187  35.956  1.00  0.00    -0.200 F 
ENDBRANCH  69  92
ENDBRANCH  43  44
ENDBRANCH  35  38
ENDBRANCH  33  34
ENDBRANCH  32  33
ENDBRANCH   1  32
TORSDOF 15
ENDMDL
MODEL 3
REMARK VINA RESULT:     -12.3      5.328     12.280
REMARK SMILES N#C/C(=C\c1ccc(-c2ccc(C(=O)NCCCCNC(=O)c3ccc(-c4c5nc(c(-c6c(F)c(F)c(F)c(F)c6F)c6ccc([nH]6)c(-c6c(F)c(F)c(F)c(F)c6F)c6nc(c(-c7c(F)c(F)c(F)c(F)c7F)c7ccc4[nH]7)C=C6)C=C5)cc3)cc2)o1)[C@@H]1N=c2cc(Br)cnc2=N1
REMARK SMILES IDX 17 1 16 2 15 3 13 4 14 5 12 7 9 8 10 9 87 10 11 11 86 12
REMARK SMILES IDX 8 13 5 14 6 15 88 16 7 17 4 18 3 19 2 20 1 21 89 22 90 23
REMARK SMILES IDX 98 24 91 25 97 26 92 27 96 28 93 29 95 30 94 31 18 32 19 33
REMARK SMILES IDX 20 34 21 35 22 37 23 38 24 39 85 40 25 41 84 42 26 43 27 44
REMARK SMILES IDX 28 45 78 46 29 47 83 48 77 49 79 50 30 51 82 52 76 53 75 54
REMARK SMILES IDX 31 56 63 57 43 58 62 59 44 60 47 61 61 62 80 63 45 64 46 65
REMARK SMILES IDX 60 67 81 68 48 69 32 70 33 71 41 72 34 73 35 74 39 75 42 76
REMARK SMILES IDX 36 77 37 78 40 79 38 80 64 81 65 82 73 83 66 84 67 85 71 86
REMARK SMILES IDX 74 87 68 88 69 89 72 90 70 91 49 92 50 93 58 94 51 95 52 96
REMARK SMILES IDX 56 97 59 98 53 99 54 100 57 101 55 102
REMARK H PARENT 15 6 20 36 79 55 47 66
REMARK Flexibility Score: inf
ROOT
ATOM      1  C   UNL A   1      37.419  33.404  29.062  1.00  0.00     0.023 C 
ENDROOT
BRANCH   1   2
ATOM      2  C   UNL A   1      38.257  34.134  30.116  1.00  0.00     0.116 C 
BRANCH   2   3
ATOM      3  N   UNL A   1      37.427  34.577  31.220  1.00  0.00    -0.352 N 
ATOM      4  C   UNL A   1      37.427  34.232  32.551  1.00  0.00     0.251 C 
ATOM      5  O   UNL A   1      36.647  34.814  33.302  1.00  0.00    -0.269 OA
ATOM      6  H   UNL A   1      36.745  35.242  30.974  1.00  0.00     0.163 HD
BRANCH   4   7
ATOM      7  C   UNL A   1      38.371  33.229  33.117  1.00  0.00     0.039 A 
ATOM      8  C   UNL A   1      39.995  31.269  34.300  1.00  0.00     0.017 A 
ATOM      9  C   UNL A   1      38.778  30.906  33.720  1.00  0.00     0.013 A 
ATOM     10  C   UNL A   1      40.429  32.592  34.224  1.00  0.00     0.013 A 
ATOM     11  C   UNL A   1      37.966  31.886  33.137  1.00  0.00     0.014 A 
ATOM     12  C   UNL A   1      39.635  33.555  33.608  1.00  0.00     0.014 A 
BRANCH   8  13
ATOM     13  C   UNL A   1      40.805  30.327  35.032  1.00  0.00     0.134 A 
ATOM     14  C   UNL A   1      41.634  28.312  35.392  1.00  0.00     0.128 A 
ATOM     15  C   UNL A   1      42.273  29.202  36.252  1.00  0.00     0.051 A 
ATOM     16  O   UNL A   1      40.755  29.036  34.620  1.00  0.00    -0.457 OA
ATOM     17  C   UNL A   1      41.721  30.481  36.042  1.00  0.00     0.051 A 
BRANCH  14  18
ATOM     18  C   UNL A   1      41.794  26.905  35.253  1.00  0.00     0.066 C 
ATOM     19  C   UNL A   1      42.876  26.350  34.665  1.00  0.00     0.080 C 
BRANCH  19  20
ATOM     20  C   UNL A   1      43.987  27.283  34.213  1.00  0.00     0.099 C 
ATOM     21  N   UNL A   1      44.908  28.059  33.838  1.00  0.00    -0.193 NA
ENDBRANCH  19  20
BRANCH  19  22
ATOM     22  C   UNL A   1      43.041  24.865  34.486  1.00  0.00     0.265 C 
ATOM     23  N   UNL A   1      43.267  24.236  35.826  1.00  0.00    -0.249 NA
ATOM     24  N   UNL A   1      44.196  24.593  33.591  1.00  0.00    -0.232 NA
ATOM     25  C   UNL A   1      44.434  23.711  35.691  1.00  0.00     0.106 A 
ATOM     26  C   UNL A   1      44.998  23.918  34.339  1.00  0.00     0.175 A 
ATOM     27  C   UNL A   1      45.260  23.006  36.669  1.00  0.00     0.049 A 
ATOM     28  N   UNL A   1      46.226  23.487  33.937  1.00  0.00    -0.234 NA
ATOM     29  C   UNL A   1      46.476  22.612  36.268  1.00  0.00     0.038 A 
ATOM     30  C   UNL A   1      46.908  22.882  34.858  1.00  0.00     0.129 A 
ATOM     31  Br  UNL A   1      47.676  21.741  37.389  1.00  0.00    -0.049 Br
ENDBRANCH  19  22
ENDBRANCH  14  18
ENDBRANCH   8  13
ENDBRANCH   4   7
ENDBRANCH   2   3
ENDBRANCH   1   2
BRANCH   1  32
ATOM     32  C   UNL A   1      35.911  33.601  29.205  1.00  0.00     0.023 C 
BRANCH  32  33
ATOM     33  C   UNL A   1      35.188  32.470  29.922  1.00  0.00     0.116 C 
BRANCH  33  34
ATOM     34  N   UNL A   1      34.367  31.659  29.037  1.00  0.00    -0.352 N 
ATOM     35  C   UNL A   1      34.722  30.528  28.342  1.00  0.00     0.251 C 
ATOM     36  H   UNL A   1      33.436  31.959  28.920  1.00  0.00     0.163 HD
ATOM     37  O   UNL A   1      33.946  30.009  27.552  1.00  0.00    -0.269 OA
BRANCH  35  38
ATOM     38  C   UNL A   1      36.077  29.971  28.529  1.00  0.00     0.039 A 
ATOM     39  C   UNL A   1      37.003  30.096  27.490  1.00  0.00     0.014 A 
ATOM     40  C   UNL A   1      36.442  29.374  29.738  1.00  0.00     0.014 A 
ATOM     41  C   UNL A   1      38.321  29.686  27.691  1.00  0.00     0.010 A 
ATOM     42  C   UNL A   1      37.771  29.031  29.961  1.00  0.00     0.010 A 
ATOM     43  C   UNL A   1      38.722  29.186  28.941  1.00  0.00    -0.014 A 
BRANCH  43  44
ATOM     44  C   UNL A   1      40.137  28.834  29.209  1.00  0.00     0.031 A 
ATOM     45  C   UNL A   1      41.047  29.823  29.877  1.00  0.00     0.074 A 
ATOM     46  C   UNL A   1      40.621  27.658  28.767  1.00  0.00     0.049 A 
ATOM     47  N   UNL A   1      42.329  29.733  30.124  1.00  0.00    -0.248 NA
ATOM     48  C   UNL A   1      40.442  31.098  30.290  1.00  0.00     0.031 C 
ATOM     49  C   UNL A   1      39.850  26.645  28.045  1.00  0.00     0.029 A 
ATOM     50  N   UNL A   1      41.882  27.124  28.843  1.00  0.00    -0.354 N 
ATOM     51  C   UNL A   1      42.687  30.943  30.699  1.00  0.00     0.074 A 
ATOM     52  C   UNL A   1      41.499  31.770  30.723  1.00  0.00     0.031 C 
ATOM     53  C   UNL A   1      40.652  25.609  27.752  1.00  0.00     0.029 A 
ATOM     54  C   UNL A   1      41.998  25.897  28.237  1.00  0.00     0.049 A 
ATOM     55  H   UNL A   1      42.634  27.578  29.289  1.00  0.00     0.167 HD
ATOM     56  C   UNL A   1      43.893  31.323  31.182  1.00  0.00     0.037 A 
ATOM     57  C   UNL A   1      43.072  25.100  28.083  1.00  0.00     0.037 A 
ATOM     58  C   UNL A   1      45.062  30.482  31.188  1.00  0.00     0.049 A 
ATOM     59  C   UNL A   1      44.394  25.529  28.656  1.00  0.00     0.074 A 
ATOM     60  C   UNL A   1      46.303  30.734  31.743  1.00  0.00     0.029 A 
ATOM     61  N   UNL A   1      45.133  29.226  30.603  1.00  0.00    -0.354 N 
ATOM     62  N   UNL A   1      44.701  26.637  29.285  1.00  0.00    -0.248 NA
ATOM     63  C   UNL A   1      45.517  24.593  28.506  1.00  0.00     0.031 C 
ATOM     64  C   UNL A   1      47.140  29.651  31.453  1.00  0.00     0.029 A 
ATOM     65  C   UNL A   1      46.406  28.703  30.758  1.00  0.00     0.049 A 
ATOM     66  H   UNL A   1      44.387  28.774  30.144  1.00  0.00     0.167 HD
ATOM     67  C   UNL A   1      46.043  26.527  29.622  1.00  0.00     0.074 A 
ATOM     68  C   UNL A   1      46.488  25.234  29.142  1.00  0.00     0.031 C 
ATOM     69  C   UNL A   1      46.834  27.416  30.269  1.00  0.00     0.037 A 
BRANCH  56  70
ATOM     70  C   UNL A   1      44.009  32.710  31.743  1.00  0.00     0.064 A 
ATOM     71  C   UNL A   1      43.905  32.961  33.120  1.00  0.00     0.173 A 
ATOM     72  C   UNL A   1      44.247  33.801  30.893  1.00  0.00     0.173 A 
ATOM     73  F   UNL A   1      43.667  31.954  33.974  1.00  0.00    -0.203 F 
ATOM     74  C   UNL A   1      43.999  34.257  33.621  1.00  0.00     0.198 A 
ATOM     75  C   UNL A   1      44.371  35.092  31.402  1.00  0.00     0.198 A 
ATOM     76  F   UNL A   1      44.360  33.616  29.570  1.00  0.00    -0.203 F 
ATOM     77  F   UNL A   1      43.841  34.479  34.933  1.00  0.00    -0.200 F 
ATOM     78  C   UNL A   1      44.238  35.319  32.763  1.00  0.00     0.200 A 
ATOM     79  F   UNL A   1      44.613  36.116  30.573  1.00  0.00    -0.200 F 
ATOM     80  F   UNL A   1      44.329  36.566  33.247  1.00  0.00    -0.200 F 
ENDBRANCH  56  70
BRANCH  57  81
ATOM     81  C   UNL A   1      42.926  23.803  27.375  1.00  0.00     0.064 A 
ATOM     82  C   UNL A   1      42.418  22.676  28.033  1.00  0.00     0.173 A 
ATOM     83  C   UNL A   1      43.266  23.672  26.020  1.00  0.00     0.173 A 
ATOM     84  F   UNL A   1      42.095  22.749  29.333  1.00  0.00    -0.203 F 
ATOM     85  C   UNL A   1      42.266  21.461  27.367  1.00  0.00     0.198 A 
ATOM     86  C   UNL A   1      43.090  22.464  25.348  1.00  0.00     0.198 A 
ATOM     87  F   UNL A   1      43.750  24.724  25.344  1.00  0.00    -0.203 F 
ATOM     88  F   UNL A   1      41.808  20.390  28.029  1.00  0.00    -0.200 F 
ATOM     89  C   UNL A   1      42.595  21.358  26.024  1.00  0.00     0.200 A 
ATOM     90  F   UNL A   1      43.395  22.373  24.047  1.00  0.00    -0.200 F 
ATOM     91  F   UNL A   1      42.438  20.194  25.381  1.00  0.00    -0.200 F 
ENDBRANCH  57  81
BRANCH  69  92
ATOM     92  C   UNL A   1      48.260  27.017  30.513  1.00  0.00     0.064 A 
ATOM     93  C   UNL A   1      48.643  26.347  31.684  1.00  0.00     0.173 A 
ATOM     94  C   UNL A   1      49.244  27.267  29.546  1.00  0.00     0.173 A 
ATOM     95  F   UNL A   1      47.741  26.100  32.646  1.00  0.00    -0.203 F 
ATOM     96  C   UNL A   1      49.964  25.959  31.885  1.00  0.00     0.198 A 
ATOM     97  C   UNL A   1      50.559  26.852  29.737  1.00  0.00     0.198 A 
ATOM     98  F   UNL A   1      48.927  27.900  28.405  1.00  0.00    -0.203 F 
ATOM     99  F   UNL A   1      50.317  25.356  33.030  1.00  0.00    -0.200 F 
ATOM    100  C   UNL A   1      50.919  26.204  30.909  1.00  0.00     0.200 A 
ATOM    101  F   UNL A   1      51.477  27.078  28.788  1.00  0.00    -0.200 F 
ATOM    102  F   UNL A   1      52.189  25.820  31.100  1.00  0.00    -0.200 F 
ENDBRANCH  69  92
ENDBRANCH  43  44
ENDBRANCH  35  38
ENDBRANCH  33  34
ENDBRANCH  32  33
ENDBRANCH   1  32
TORSDOF 15
ENDMDL
