MODEL 1
REMARK VINA RESULT:     -12.9      0.000      0.000
REMARK SMILES COc1cccc(NC(=O)[C@@H]2[C@@H](C(=O)NCCCCNC(=O)c3ccc(-c4c5nc(c(-c6c(F)c(F)c(F)c(F)c6F)c6ccc([nH]6)c(-c6c(F)c(F)c(F)c(F)c6F)c6nc(c(-c7c(F)c(F)c(F)c(F)c7F)c7ccc4[nH]7)C=C6)C=C5)cc3)[C@H]3C=C[C@@H]2C3)c1
REMARK SMILES IDX 17 1 16 2 15 3 13 4 14 5 12 7 11 8 89 9 86 10 88 11 90 12
REMARK SMILES IDX 87 13 9 14 8 15 10 17 7 18 3 19 4 20 91 21 5 22 6 23 2 24
REMARK SMILES IDX 1 25 18 26 19 27 20 28 21 29 22 31 23 32 24 33 85 34 25 35
REMARK SMILES IDX 84 36 26 37 27 38 28 39 78 40 29 41 83 42 77 43 79 44 30 45
REMARK SMILES IDX 82 46 76 47 75 48 31 50 63 51 43 52 62 53 44 54 47 55 61 56
REMARK SMILES IDX 80 57 45 58 46 59 60 61 81 62 48 63 32 64 33 65 41 66 34 67
REMARK SMILES IDX 35 68 39 69 42 70 36 71 37 72 40 73 38 74 64 75 65 76 73 77
REMARK SMILES IDX 66 78 67 79 71 80 74 81 68 82 69 83 72 84 70 85 49 86 50 87
REMARK SMILES IDX 58 88 51 89 52 90 56 91 59 92 53 93 54 94 57 95 55 96
REMARK H PARENT 15 6 8 16 20 30 79 49 47 60
REMARK Flexibility Score: inf
ROOT
ATOM      1  C   UNL A   1      31.576  30.812  26.133  1.00  0.00     0.023 C 
ENDROOT
BRANCH   1   2
ATOM      2  C   UNL A   1      31.749  29.579  27.024  1.00  0.00     0.116 C 
BRANCH   2   3
ATOM      3  N   UNL A   1      33.137  29.241  27.235  1.00  0.00    -0.356 N 
ATOM      4  C   UNL A   1      34.047  28.590  26.479  1.00  0.00     0.224 C 
ATOM      5  O   UNL A   1      35.196  28.570  26.948  1.00  0.00    -0.275 OA
ATOM      6  H   UNL A   1      33.489  29.546  28.101  1.00  0.00     0.163 HD
BRANCH   4   7
ATOM      7  C   UNL A   1      33.797  27.911  25.131  1.00  0.00     0.098 C 
ATOM      8  C   UNL A   1      32.394  27.834  24.412  1.00  0.00     0.099 C 
ATOM      9  C   UNL A   1      32.165  26.311  24.342  1.00  0.00     0.025 C 
ATOM     10  C   UNL A   1      34.162  26.397  25.304  1.00  0.00     0.025 C 
ATOM     11  C   UNL A   1      32.008  25.774  25.755  1.00  0.00    -0.027 C 
ATOM     12  C   UNL A   1      33.564  25.781  24.044  1.00  0.00     0.017 C 
ATOM     13  C   UNL A   1      33.219  25.799  26.323  1.00  0.00    -0.027 C 
BRANCH   8  14
ATOM     14  C   UNL A   1      32.462  28.770  23.187  1.00  0.00     0.228 C 
ATOM     15  N   UNL A   1      31.422  29.239  22.453  1.00  0.00    -0.326 N 
ATOM     16  H   UNL A   1      31.672  29.480  21.531  1.00  0.00     0.169 HD
ATOM     17  O   UNL A   1      33.585  29.003  22.710  1.00  0.00    -0.274 OA
BRANCH  15  18
ATOM     18  C   UNL A   1      30.073  29.449  22.733  1.00  0.00     0.044 A 
ATOM     19  C   UNL A   1      28.256  31.024  22.990  1.00  0.00     0.120 A 
ATOM     20  C   UNL A   1      27.351  29.963  22.993  1.00  0.00     0.046 A 
ATOM     21  C   UNL A   1      29.622  30.767  22.855  1.00  0.00     0.072 A 
ATOM     22  C   UNL A   1      27.813  28.651  23.005  1.00  0.00     0.006 A 
ATOM     23  C   UNL A   1      29.183  28.402  22.934  1.00  0.00     0.026 A 
BRANCH  19  24
ATOM     24  O   UNL A   1      27.696  32.268  23.069  1.00  0.00    -0.497 OA
ATOM     25  C   UNL A   1      28.588  33.351  22.830  1.00  0.00     0.278 C 
ENDBRANCH  19  24
ENDBRANCH  15  18
ENDBRANCH   8  14
ENDBRANCH   4   7
ENDBRANCH   2   3
ENDBRANCH   1   2
BRANCH   1  26
ATOM     26  C   UNL A   1      31.350  32.131  26.865  1.00  0.00     0.023 C 
BRANCH  26  27
ATOM     27  C   UNL A   1      32.613  32.924  27.144  1.00  0.00     0.116 C 
BRANCH  27  28
ATOM     28  N   UNL A   1      32.357  34.254  27.673  1.00  0.00    -0.352 N 
ATOM     29  C   UNL A   1      33.028  34.913  28.674  1.00  0.00     0.251 C 
ATOM     30  H   UNL A   1      31.609  34.744  27.261  1.00  0.00     0.163 HD
ATOM     31  O   UNL A   1      32.629  35.994  29.084  1.00  0.00    -0.269 OA
BRANCH  29  32
ATOM     32  C   UNL A   1      34.213  34.276  29.282  1.00  0.00     0.039 A 
ATOM     33  C   UNL A   1      34.020  33.330  30.290  1.00  0.00     0.014 A 
ATOM     34  C   UNL A   1      35.502  34.596  28.848  1.00  0.00     0.014 A 
ATOM     35  C   UNL A   1      35.123  32.675  30.837  1.00  0.00     0.010 A 
ATOM     36  C   UNL A   1      36.591  33.878  29.327  1.00  0.00     0.010 A 
ATOM     37  C   UNL A   1      36.414  32.931  30.345  1.00  0.00    -0.014 A 
BRANCH  37  38
ATOM     38  C   UNL A   1      37.596  32.254  30.928  1.00  0.00     0.031 A 
ATOM     39  C   UNL A   1      38.064  32.628  32.308  1.00  0.00     0.074 A 
ATOM     40  C   UNL A   1      38.261  31.333  30.207  1.00  0.00     0.049 A 
ATOM     41  N   UNL A   1      39.072  32.154  32.996  1.00  0.00    -0.248 NA
ATOM     42  C   UNL A   1      37.323  33.699  32.993  1.00  0.00     0.031 C 
ATOM     43  C   UNL A   1      37.939  30.939  28.834  1.00  0.00     0.029 A 
ATOM     44  N   UNL A   1      39.346  30.560  30.530  1.00  0.00    -0.354 N 
ATOM     45  C   UNL A   1      39.088  32.878  34.182  1.00  0.00     0.074 A 
ATOM     46  C   UNL A   1      38.040  33.867  34.092  1.00  0.00     0.031 C 
ATOM     47  C   UNL A   1      38.785  29.971  28.446  1.00  0.00     0.029 A 
ATOM     48  C   UNL A   1      39.722  29.696  29.531  1.00  0.00     0.049 A 
ATOM     49  H   UNL A   1      39.811  30.618  31.395  1.00  0.00     0.167 HD
ATOM     50  C   UNL A   1      39.885  32.709  35.263  1.00  0.00     0.037 A 
ATOM     51  C   UNL A   1      40.706  28.779  29.504  1.00  0.00     0.037 A 
ATOM     52  C   UNL A   1      40.906  31.700  35.359  1.00  0.00     0.049 A 
ATOM     53  C   UNL A   1      41.558  28.589  30.730  1.00  0.00     0.074 A 
ATOM     54  C   UNL A   1      41.730  31.401  36.428  1.00  0.00     0.029 A 
ATOM     55  N   UNL A   1      41.240  30.821  34.337  1.00  0.00    -0.354 N 
ATOM     56  N   UNL A   1      41.512  29.222  31.879  1.00  0.00    -0.248 NA
ATOM     57  C   UNL A   1      42.586  27.542  30.663  1.00  0.00     0.031 C 
ATOM     58  C   UNL A   1      42.590  30.368  36.040  1.00  0.00     0.029 A 
ATOM     59  C   UNL A   1      42.268  29.988  34.748  1.00  0.00     0.049 A 
ATOM     60  H   UNL A   1      40.808  30.792  33.453  1.00  0.00     0.167 HD
ATOM     61  C   UNL A   1      42.483  28.634  32.677  1.00  0.00     0.074 A 
ATOM     62  C   UNL A   1      43.085  27.578  31.889  1.00  0.00     0.031 C 
ATOM     63  C   UNL A   1      42.848  28.941  33.947  1.00  0.00     0.037 A 
BRANCH  50  64
ATOM     64  C   UNL A   1      39.671  33.629  36.431  1.00  0.00     0.064 A 
ATOM     65  C   UNL A   1      38.843  33.271  37.507  1.00  0.00     0.173 A 
ATOM     66  C   UNL A   1      40.308  34.876  36.483  1.00  0.00     0.173 A 
ATOM     67  F   UNL A   1      38.197  32.095  37.501  1.00  0.00    -0.203 F 
ATOM     68  C   UNL A   1      38.636  34.142  38.574  1.00  0.00     0.198 A 
ATOM     69  C   UNL A   1      40.125  35.731  37.568  1.00  0.00     0.198 A 
ATOM     70  F   UNL A   1      41.112  35.268  35.483  1.00  0.00    -0.203 F 
ATOM     71  F   UNL A   1      37.796  33.801  39.561  1.00  0.00    -0.200 F 
ATOM     72  C   UNL A   1      39.282  35.367  38.606  1.00  0.00     0.200 A 
ATOM     73  F   UNL A   1      40.759  36.912  37.603  1.00  0.00    -0.200 F 
ATOM     74  F   UNL A   1      39.085  36.203  39.635  1.00  0.00    -0.200 F 
ENDBRANCH  50  64
BRANCH  51  75
ATOM     75  C   UNL A   1      40.906  27.936  28.297  1.00  0.00     0.064 A 
ATOM     76  C   UNL A   1      40.292  26.680  28.186  1.00  0.00     0.173 A 
ATOM     77  C   UNL A   1      41.718  28.360  27.236  1.00  0.00     0.173 A 
ATOM     78  F   UNL A   1      39.519  26.223  29.182  1.00  0.00    -0.203 F 
ATOM     79  C   UNL A   1      40.504  25.870  27.073  1.00  0.00     0.198 A 
ATOM     80  C   UNL A   1      41.907  27.562  26.110  1.00  0.00     0.198 A 
ATOM     81  F   UNL A   1      42.322  29.556  27.288  1.00  0.00    -0.203 F 
ATOM     82  F   UNL A   1      39.945  24.654  27.016  1.00  0.00    -0.200 F 
ATOM     83  C   UNL A   1      41.307  26.313  26.033  1.00  0.00     0.200 A 
ATOM     84  F   UNL A   1      42.673  27.999  25.101  1.00  0.00    -0.200 F 
ATOM     85  F   UNL A   1      41.511  25.535  24.962  1.00  0.00    -0.200 F 
ENDBRANCH  51  75
BRANCH  63  86
ATOM     86  C   UNL A   1      43.926  28.099  34.567  1.00  0.00     0.064 A 
ATOM     87  C   UNL A   1      45.278  28.468  34.502  1.00  0.00     0.173 A 
ATOM     88  C   UNL A   1      43.599  26.917  35.248  1.00  0.00     0.173 A 
ATOM     89  F   UNL A   1      45.643  29.581  33.851  1.00  0.00    -0.203 F 
ATOM     90  C   UNL A   1      46.266  27.663  35.062  1.00  0.00     0.198 A 
ATOM     91  C   UNL A   1      44.586  26.132  35.836  1.00  0.00     0.198 A 
ATOM     92  F   UNL A   1      42.319  26.525  35.347  1.00  0.00    -0.203 F 
ATOM     93  F   UNL A   1      47.556  28.001  34.933  1.00  0.00    -0.200 F 
ATOM     94  C   UNL A   1      45.919  26.499  35.733  1.00  0.00     0.200 A 
ATOM     95  F   UNL A   1      44.249  25.016  36.496  1.00  0.00    -0.200 F 
ATOM     96  F   UNL A   1      46.872  25.725  36.270  1.00  0.00    -0.200 F 
ENDBRANCH  63  86
ENDBRANCH  37  38
ENDBRANCH  29  32
ENDBRANCH  27  28
ENDBRANCH  26  27
ENDBRANCH   1  26
TORSDOF 14
ENDMDL
MODEL 2
REMARK VINA RESULT:     -12.8      0.662      7.352
REMARK SMILES COc1cccc(NC(=O)[C@@H]2[C@@H](C(=O)NCCCCNC(=O)c3ccc(-c4c5nc(c(-c6c(F)c(F)c(F)c(F)c6F)c6ccc([nH]6)c(-c6c(F)c(F)c(F)c(F)c6F)c6nc(c(-c7c(F)c(F)c(F)c(F)c7F)c7ccc4[nH]7)C=C6)C=C5)cc3)[C@H]3C=C[C@@H]2C3)c1
REMARK SMILES IDX 17 1 16 2 15 3 13 4 14 5 12 7 11 8 89 9 86 10 88 11 90 12
REMARK SMILES IDX 87 13 9 14 8 15 10 17 7 18 3 19 4 20 91 21 5 22 6 23 2 24
REMARK SMILES IDX 1 25 18 26 19 27 20 28 21 29 22 31 23 32 24 33 85 34 25 35
REMARK SMILES IDX 84 36 26 37 27 38 28 39 78 40 29 41 83 42 77 43 79 44 30 45
REMARK SMILES IDX 82 46 76 47 75 48 31 50 63 51 43 52 62 53 44 54 47 55 61 56
REMARK SMILES IDX 80 57 45 58 46 59 60 61 81 62 48 63 32 64 33 65 41 66 34 67
REMARK SMILES IDX 35 68 39 69 42 70 36 71 37 72 40 73 38 74 64 75 65 76 73 77
REMARK SMILES IDX 66 78 67 79 71 80 74 81 68 82 69 83 72 84 70 85 49 86 50 87
REMARK SMILES IDX 58 88 51 89 52 90 56 91 59 92 53 93 54 94 57 95 55 96
REMARK H PARENT 15 6 8 16 20 30 79 49 47 60
REMARK Flexibility Score: inf
ROOT
ATOM      1  C   UNL A   1      31.559  30.869  26.012  1.00  0.00     0.023 C 
ENDROOT
BRANCH   1   2
ATOM      2  C   UNL A   1      31.706  29.647  26.923  1.00  0.00     0.116 C 
BRANCH   2   3
ATOM      3  N   UNL A   1      33.087  29.297  27.159  1.00  0.00    -0.356 N 
ATOM      4  C   UNL A   1      33.999  28.619  26.431  1.00  0.00     0.224 C 
ATOM      5  O   UNL A   1      35.141  28.596  26.915  1.00  0.00    -0.275 OA
ATOM      6  H   UNL A   1      33.431  29.617  28.023  1.00  0.00     0.163 HD
BRANCH   4   7
ATOM      7  C   UNL A   1      33.758  27.913  25.094  1.00  0.00     0.098 C 
ATOM      8  C   UNL A   1      32.364  27.835  24.359  1.00  0.00     0.099 C 
ATOM      9  C   UNL A   1      32.119  26.313  24.320  1.00  0.00     0.025 C 
ATOM     10  C   UNL A   1      34.105  26.400  25.306  1.00  0.00     0.025 C 
ATOM     11  C   UNL A   1      31.938  25.810  25.742  1.00  0.00    -0.027 C 
ATOM     12  C   UNL A   1      33.515  25.762  24.051  1.00  0.00     0.017 C 
ATOM     13  C   UNL A   1      33.142  25.834  26.325  1.00  0.00    -0.027 C 
BRANCH   8  14
ATOM     14  C   UNL A   1      32.457  28.744  23.115  1.00  0.00     0.228 C 
ATOM     15  N   UNL A   1      31.431  29.232  22.375  1.00  0.00    -0.326 N 
ATOM     16  H   UNL A   1      31.684  29.445  21.448  1.00  0.00     0.169 HD
ATOM     17  O   UNL A   1      33.585  28.928  22.628  1.00  0.00    -0.274 OA
BRANCH  15  18
ATOM     18  C   UNL A   1      30.090  29.492  22.656  1.00  0.00     0.044 A 
ATOM     19  C   UNL A   1      28.325  31.131  22.870  1.00  0.00     0.120 A 
ATOM     20  C   UNL A   1      27.387  30.099  22.915  1.00  0.00     0.046 A 
ATOM     21  C   UNL A   1      29.681  30.828  22.736  1.00  0.00     0.072 A 
ATOM     22  C   UNL A   1      27.809  28.775  22.970  1.00  0.00     0.006 A 
ATOM     23  C   UNL A   1      29.170  28.481  22.899  1.00  0.00     0.026 A 
BRANCH  19  24
ATOM     24  O   UNL A   1      27.804  32.394  22.911  1.00  0.00    -0.497 OA
ATOM     25  C   UNL A   1      28.762  33.443  23.010  1.00  0.00     0.278 C 
ENDBRANCH  19  24
ENDBRANCH  15  18
ENDBRANCH   8  14
ENDBRANCH   4   7
ENDBRANCH   2   3
ENDBRANCH   1   2
BRANCH   1  26
ATOM     26  C   UNL A   1      31.305  32.196  26.720  1.00  0.00     0.023 C 
BRANCH  26  27
ATOM     27  C   UNL A   1      32.553  32.889  27.232  1.00  0.00     0.116 C 
BRANCH  27  28
ATOM     28  N   UNL A   1      32.333  34.275  27.612  1.00  0.00    -0.352 N 
ATOM     29  C   UNL A   1      32.990  35.008  28.570  1.00  0.00     0.251 C 
ATOM     30  H   UNL A   1      31.622  34.748  27.122  1.00  0.00     0.163 HD
ATOM     31  O   UNL A   1      32.621  36.139  28.851  1.00  0.00    -0.269 OA
BRANCH  29  32
ATOM     32  C   UNL A   1      34.124  34.394  29.290  1.00  0.00     0.039 A 
ATOM     33  C   UNL A   1      33.856  33.604  30.409  1.00  0.00     0.014 A 
ATOM     34  C   UNL A   1      35.438  34.579  28.852  1.00  0.00     0.014 A 
ATOM     35  C   UNL A   1      34.908  32.969  31.068  1.00  0.00     0.010 A 
ATOM     36  C   UNL A   1      36.473  33.873  29.451  1.00  0.00     0.010 A 
ATOM     37  C   UNL A   1      36.221  33.083  30.581  1.00  0.00    -0.014 A 
BRANCH  37  38
ATOM     38  C   UNL A   1      37.349  32.426  31.282  1.00  0.00     0.031 A 
ATOM     39  C   UNL A   1      38.089  31.301  30.613  1.00  0.00     0.074 A 
ATOM     40  C   UNL A   1      37.680  32.818  32.526  1.00  0.00     0.049 A 
ATOM     41  N   UNL A   1      39.102  30.598  31.054  1.00  0.00    -0.248 NA
ATOM     42  C   UNL A   1      37.609  30.888  29.285  1.00  0.00     0.031 C 
ATOM     43  C   UNL A   1      36.991  33.851  33.300  1.00  0.00     0.029 A 
ATOM     44  N   UNL A   1      38.685  32.394  33.357  1.00  0.00    -0.354 N 
ATOM     45  C   UNL A   1      39.366  29.659  30.066  1.00  0.00     0.074 A 
ATOM     46  C   UNL A   1      38.367  29.832  29.036  1.00  0.00     0.031 C 
ATOM     47  C   UNL A   1      37.614  34.007  34.479  1.00  0.00     0.029 A 
ATOM     48  C   UNL A   1      38.730  33.068  34.552  1.00  0.00     0.049 A 
ATOM     49  H   UNL A   1      39.314  31.675  33.120  1.00  0.00     0.167 HD
ATOM     50  C   UNL A   1      40.373  28.756  30.006  1.00  0.00     0.037 A 
ATOM     51  C   UNL A   1      39.586  32.946  35.583  1.00  0.00     0.037 A 
ATOM     52  C   UNL A   1      41.384  28.611  31.019  1.00  0.00     0.049 A 
ATOM     53  C   UNL A   1      40.716  31.957  35.479  1.00  0.00     0.074 A 
ATOM     54  C   UNL A   1      42.481  27.771  31.033  1.00  0.00     0.029 A 
ATOM     55  N   UNL A   1      41.416  29.334  32.205  1.00  0.00    -0.354 N 
ATOM     56  N   UNL A   1      41.006  31.130  34.503  1.00  0.00    -0.248 NA
ATOM     57  C   UNL A   1      41.648  31.899  36.613  1.00  0.00     0.031 C 
ATOM     58  C   UNL A   1      43.156  27.956  32.245  1.00  0.00     0.029 A 
ATOM     59  C   UNL A   1      42.509  28.947  32.963  1.00  0.00     0.049 A 
ATOM     60  H   UNL A   1      40.760  30.019  32.467  1.00  0.00     0.167 HD
ATOM     61  C   UNL A   1      42.166  30.474  34.892  1.00  0.00     0.074 A 
ATOM     62  C   UNL A   1      42.538  31.017  36.182  1.00  0.00     0.031 C 
ATOM     63  C   UNL A   1      42.861  29.506  34.243  1.00  0.00     0.037 A 
BRANCH  50  64
ATOM     64  C   UNL A   1      40.433  27.866  28.797  1.00  0.00     0.064 A 
ATOM     65  C   UNL A   1      41.166  28.225  27.656  1.00  0.00     0.173 A 
ATOM     66  C   UNL A   1      39.761  26.636  28.783  1.00  0.00     0.173 A 
ATOM     67  F   UNL A   1      41.816  29.399  27.610  1.00  0.00    -0.203 F 
ATOM     68  C   UNL A   1      41.197  27.401  26.533  1.00  0.00     0.198 A 
ATOM     69  C   UNL A   1      39.821  25.798  27.671  1.00  0.00     0.198 A 
ATOM     70  F   UNL A   1      39.047  26.242  29.848  1.00  0.00    -0.203 F 
ATOM     71  F   UNL A   1      41.857  27.793  25.435  1.00  0.00    -0.200 F 
ATOM     72  C   UNL A   1      40.531  26.186  26.545  1.00  0.00     0.200 A 
ATOM     73  F   UNL A   1      39.185  24.618  27.688  1.00  0.00    -0.200 F 
ATOM     74  F   UNL A   1      40.564  25.392  25.466  1.00  0.00    -0.200 F 
ENDBRANCH  50  64
BRANCH  51  75
ATOM     75  C   UNL A   1      39.441  33.817  36.779  1.00  0.00     0.064 A 
ATOM     76  C   UNL A   1      40.032  35.088  36.820  1.00  0.00     0.173 A 
ATOM     77  C   UNL A   1      38.720  33.398  37.905  1.00  0.00     0.173 A 
ATOM     78  F   UNL A   1      40.747  35.528  35.773  1.00  0.00    -0.203 F 
ATOM     79  C   UNL A   1      39.930  35.895  37.951  1.00  0.00     0.198 A 
ATOM     80  C   UNL A   1      38.594  34.216  39.025  1.00  0.00     0.198 A 
ATOM     81  F   UNL A   1      38.128  32.194  37.914  1.00  0.00    -0.203 F 
ATOM     82  F   UNL A   1      40.548  37.083  37.981  1.00  0.00    -0.200 F 
ATOM     83  C   UNL A   1      39.207  35.461  39.051  1.00  0.00     0.200 A 
ATOM     84  F   UNL A   1      37.882  33.799  40.081  1.00  0.00    -0.200 F 
ATOM     85  F   UNL A   1      39.108  36.236  40.139  1.00  0.00    -0.200 F 
ENDBRANCH  51  75
BRANCH  63  86
ATOM     86  C   UNL A   1      44.109  29.002  34.909  1.00  0.00     0.064 A 
ATOM     87  C   UNL A   1      45.356  29.606  34.692  1.00  0.00     0.173 A 
ATOM     88  C   UNL A   1      44.051  27.910  35.788  1.00  0.00     0.173 A 
ATOM     89  F   UNL A   1      45.465  30.645  33.850  1.00  0.00    -0.203 F 
ATOM     90  C   UNL A   1      46.506  29.110  35.299  1.00  0.00     0.198 A 
ATOM     91  C   UNL A   1      45.198  27.437  36.419  1.00  0.00     0.198 A 
ATOM     92  F   UNL A   1      42.881  27.302  36.037  1.00  0.00    -0.203 F 
ATOM     93  F   UNL A   1      47.696  29.663  35.027  1.00  0.00    -0.200 F 
ATOM     94  C   UNL A   1      46.425  28.030  36.166  1.00  0.00     0.200 A 
ATOM     95  F   UNL A   1      45.117  26.403  37.268  1.00  0.00    -0.200 F 
ATOM     96  F   UNL A   1      47.534  27.553  36.748  1.00  0.00    -0.200 F 
ENDBRANCH  63  86
ENDBRANCH  37  38
ENDBRANCH  29  32
ENDBRANCH  27  28
ENDBRANCH  26  27
ENDBRANCH   1  26
TORSDOF 14
ENDMDL
MODEL 3
REMARK VINA RESULT:     -12.8      6.045     11.517
REMARK SMILES COc1cccc(NC(=O)[C@@H]2[C@@H](C(=O)NCCCCNC(=O)c3ccc(-c4c5nc(c(-c6c(F)c(F)c(F)c(F)c6F)c6ccc([nH]6)c(-c6c(F)c(F)c(F)c(F)c6F)c6nc(c(-c7c(F)c(F)c(F)c(F)c7F)c7ccc4[nH]7)C=C6)C=C5)cc3)[C@H]3C=C[C@@H]2C3)c1
REMARK SMILES IDX 17 1 16 2 15 3 13 4 14 5 12 7 11 8 89 9 86 10 88 11 90 12
REMARK SMILES IDX 87 13 9 14 8 15 10 17 7 18 3 19 4 20 91 21 5 22 6 23 2 24
REMARK SMILES IDX 1 25 18 26 19 27 20 28 21 29 22 31 23 32 24 33 85 34 25 35
REMARK SMILES IDX 84 36 26 37 27 38 28 39 78 40 29 41 83 42 77 43 79 44 30 45
REMARK SMILES IDX 82 46 76 47 75 48 31 50 63 51 43 52 62 53 44 54 47 55 61 56
REMARK SMILES IDX 80 57 45 58 46 59 60 61 81 62 48 63 32 64 33 65 41 66 34 67
REMARK SMILES IDX 35 68 39 69 42 70 36 71 37 72 40 73 38 74 64 75 65 76 73 77
REMARK SMILES IDX 66 78 67 79 71 80 74 81 68 82 69 83 72 84 70 85 49 86 50 87
REMARK SMILES IDX 58 88 51 89 52 90 56 91 59 92 53 93 54 94 57 95 55 96
REMARK H PARENT 15 6 8 16 20 30 79 49 47 60
REMARK Flexibility Score: inf
ROOT
ATOM      1  C   UNL A   1      36.888  20.354  24.987  1.00  0.00     0.023 C 
ENDROOT
BRANCH   1   2
ATOM      2  C   UNL A   1      36.976  21.653  24.181  1.00  0.00     0.116 C 
BRANCH   2   3
ATOM      3  N   UNL A   1      37.301  22.793  25.006  1.00  0.00    -0.356 N 
ATOM      4  C   UNL A   1      36.575  23.541  25.864  1.00  0.00     0.224 C 
ATOM      5  O   UNL A   1      37.222  24.398  26.485  1.00  0.00    -0.275 OA
ATOM      6  H   UNL A   1      38.238  23.081  24.927  1.00  0.00     0.163 HD
BRANCH   4   7
ATOM      7  C   UNL A   1      35.075  23.416  26.140  1.00  0.00     0.098 C 
ATOM      8  C   UNL A   1      34.113  22.390  25.424  1.00  0.00     0.099 C 
ATOM      9  C   UNL A   1      33.116  23.337  24.726  1.00  0.00     0.025 C 
ATOM     10  C   UNL A   1      34.424  24.792  25.770  1.00  0.00     0.025 C 
ATOM     11  C   UNL A   1      33.854  24.125  23.658  1.00  0.00    -0.027 C 
ATOM     12  C   UNL A   1      32.939  24.446  25.756  1.00  0.00     0.017 C 
ATOM     13  C   UNL A   1      34.620  25.022  24.288  1.00  0.00    -0.027 C 
BRANCH   8  14
ATOM     14  C   UNL A   1      33.729  21.324  26.471  1.00  0.00     0.228 C 
ATOM     15  N   UNL A   1      33.174  20.108  26.240  1.00  0.00    -0.326 N 
ATOM     16  H   UNL A   1      32.664  19.759  27.007  1.00  0.00     0.169 HD
ATOM     17  O   UNL A   1      33.775  21.657  27.667  1.00  0.00    -0.274 OA
BRANCH  15  18
ATOM     18  C   UNL A   1      33.176  19.250  25.141  1.00  0.00     0.044 A 
ATOM     19  C   UNL A   1      33.809  17.107  24.217  1.00  0.00     0.120 A 
ATOM     20  C   UNL A   1      32.990  17.352  23.115  1.00  0.00     0.046 A 
ATOM     21  C   UNL A   1      33.900  18.057  25.237  1.00  0.00     0.072 A 
ATOM     22  C   UNL A   1      32.378  18.592  22.962  1.00  0.00     0.006 A 
ATOM     23  C   UNL A   1      32.525  19.561  23.954  1.00  0.00     0.026 A 
BRANCH  19  24
ATOM     24  O   UNL A   1      34.430  15.891  24.222  1.00  0.00    -0.497 OA
ATOM     25  C   UNL A   1      35.392  15.704  25.256  1.00  0.00     0.278 C 
ENDBRANCH  19  24
ENDBRANCH  15  18
ENDBRANCH   8  14
ENDBRANCH   4   7
ENDBRANCH   2   3
ENDBRANCH   1   2
BRANCH   1  26
ATOM     26  C   UNL A   1      38.121  19.456  24.932  1.00  0.00     0.023 C 
BRANCH  26  27
ATOM     27  C   UNL A   1      39.291  19.936  25.769  1.00  0.00     0.116 C 
BRANCH  27  28
ATOM     28  N   UNL A   1      40.389  18.984  25.831  1.00  0.00    -0.352 N 
ATOM     29  C   UNL A   1      41.715  19.232  26.092  1.00  0.00     0.251 C 
ATOM     30  H   UNL A   1      40.152  18.043  25.665  1.00  0.00     0.163 HD
ATOM     31  O   UNL A   1      42.544  18.339  26.006  1.00  0.00    -0.269 OA
BRANCH  29  32
ATOM     32  C   UNL A   1      42.133  20.607  26.433  1.00  0.00     0.039 A 
ATOM     33  C   UNL A   1      42.348  21.517  25.396  1.00  0.00     0.014 A 
ATOM     34  C   UNL A   1      42.291  21.000  27.764  1.00  0.00     0.014 A 
ATOM     35  C   UNL A   1      42.688  22.835  25.699  1.00  0.00     0.010 A 
ATOM     36  C   UNL A   1      42.537  22.333  28.066  1.00  0.00     0.010 A 
ATOM     37  C   UNL A   1      42.764  23.256  27.037  1.00  0.00    -0.014 A 
BRANCH  37  38
ATOM     38  C   UNL A   1      43.140  24.650  27.372  1.00  0.00     0.031 A 
ATOM     39  C   UNL A   1      44.540  25.131  27.105  1.00  0.00     0.074 A 
ATOM     40  C   UNL A   1      42.234  25.465  27.943  1.00  0.00     0.049 A 
ATOM     41  N   UNL A   1      45.066  26.309  27.323  1.00  0.00    -0.248 NA
ATOM     42  C   UNL A   1      45.484  24.148  26.549  1.00  0.00     0.031 C 
ATOM     43  C   UNL A   1      40.868  25.089  28.310  1.00  0.00     0.029 A 
ATOM     44  N   UNL A   1      42.328  26.782  28.314  1.00  0.00    -0.354 N 
ATOM     45  C   UNL A   1      46.398  26.201  26.944  1.00  0.00     0.074 A 
ATOM     46  C   UNL A   1      46.619  24.829  26.550  1.00  0.00     0.031 C 
ATOM     47  C   UNL A   1      40.240  26.160  28.820  1.00  0.00     0.029 A 
ATOM     48  C   UNL A   1      41.165  27.289  28.838  1.00  0.00     0.049 A 
ATOM     49  H   UNL A   1      43.151  27.313  28.213  1.00  0.00     0.167 HD
ATOM     50  C   UNL A   1      47.343  27.168  26.895  1.00  0.00     0.037 A 
ATOM     51  C   UNL A   1      40.880  28.531  29.272  1.00  0.00     0.037 A 
ATOM     52  C   UNL A   1      47.108  28.541  27.258  1.00  0.00     0.049 A 
ATOM     53  C   UNL A   1      41.938  29.596  29.178  1.00  0.00     0.074 A 
ATOM     54  C   UNL A   1      47.976  29.614  27.191  1.00  0.00     0.029 A 
ATOM     55  N   UNL A   1      45.907  29.026  27.757  1.00  0.00    -0.354 N 
ATOM     56  N   UNL A   1      43.172  29.504  28.740  1.00  0.00    -0.248 NA
ATOM     57  C   UNL A   1      41.558  30.944  29.622  1.00  0.00     0.031 C 
ATOM     58  C   UNL A   1      47.313  30.743  27.687  1.00  0.00     0.029 A 
ATOM     59  C   UNL A   1      46.017  30.383  28.015  1.00  0.00     0.049 A 
ATOM     60  H   UNL A   1      45.097  28.486  27.904  1.00  0.00     0.167 HD
ATOM     61  C   UNL A   1      43.705  30.782  28.830  1.00  0.00     0.074 A 
ATOM     62  C   UNL A   1      42.652  31.636  29.342  1.00  0.00     0.031 C 
ATOM     63  C   UNL A   1      44.953  31.212  28.520  1.00  0.00     0.037 A 
BRANCH  50  64
ATOM     64  C   UNL A   1      48.713  26.774  26.421  1.00  0.00     0.064 A 
ATOM     65  C   UNL A   1      49.112  26.963  25.089  1.00  0.00     0.173 A 
ATOM     66  C   UNL A   1      49.641  26.213  27.309  1.00  0.00     0.173 A 
ATOM     67  F   UNL A   1      48.258  27.481  24.193  1.00  0.00    -0.203 F 
ATOM     68  C   UNL A   1      50.378  26.574  24.656  1.00  0.00     0.198 A 
ATOM     69  C   UNL A   1      50.918  25.856  26.881  1.00  0.00     0.198 A 
ATOM     70  F   UNL A   1      49.314  26.012  28.594  1.00  0.00    -0.203 F 
ATOM     71  F   UNL A   1      50.715  26.711  23.366  1.00  0.00    -0.200 F 
ATOM     72  C   UNL A   1      51.281  26.027  25.554  1.00  0.00     0.200 A 
ATOM     73  F   UNL A   1      51.795  25.337  27.753  1.00  0.00    -0.200 F 
ATOM     74  F   UNL A   1      52.500  25.656  25.138  1.00  0.00    -0.200 F 
ENDBRANCH  50  64
BRANCH  51  75
ATOM     75  C   UNL A   1      39.521  28.847  29.785  1.00  0.00     0.064 A 
ATOM     76  C   UNL A   1      38.538  29.378  28.938  1.00  0.00     0.173 A 
ATOM     77  C   UNL A   1      39.178  28.633  31.127  1.00  0.00     0.173 A 
ATOM     78  F   UNL A   1      38.822  29.616  27.649  1.00  0.00    -0.203 F 
ATOM     79  C   UNL A   1      37.274  29.710  29.420  1.00  0.00     0.198 A 
ATOM     80  C   UNL A   1      37.906  28.938  31.602  1.00  0.00     0.198 A 
ATOM     81  F   UNL A   1      40.080  28.119  31.977  1.00  0.00    -0.203 F 
ATOM     82  F   UNL A   1      36.371  30.264  28.600  1.00  0.00    -0.200 F 
ATOM     83  C   UNL A   1      36.956  29.486  30.751  1.00  0.00     0.200 A 
ATOM     84  F   UNL A   1      37.598  28.707  32.886  1.00  0.00    -0.200 F 
ATOM     85  F   UNL A   1      35.741  29.804  31.215  1.00  0.00    -0.200 F 
ENDBRANCH  51  75
BRANCH  63  86
ATOM     86  C   UNL A   1      45.232  32.677  28.699  1.00  0.00     0.064 A 
ATOM     87  C   UNL A   1      45.792  33.183  29.881  1.00  0.00     0.173 A 
ATOM     88  C   UNL A   1      44.948  33.583  27.665  1.00  0.00     0.173 A 
ATOM     89  F   UNL A   1      46.068  32.360  30.903  1.00  0.00    -0.203 F 
ATOM     90  C   UNL A   1      46.020  34.547  30.037  1.00  0.00     0.198 A 
ATOM     91  C   UNL A   1      45.209  34.942  27.813  1.00  0.00     0.198 A 
ATOM     92  F   UNL A   1      44.420  33.150  26.510  1.00  0.00    -0.203 F 
ATOM     93  F   UNL A   1      46.496  35.016  31.199  1.00  0.00    -0.200 F 
ATOM     94  C   UNL A   1      45.734  35.424  29.002  1.00  0.00     0.200 A 
ATOM     95  F   UNL A   1      44.946  35.787  26.806  1.00  0.00    -0.200 F 
ATOM     96  F   UNL A   1      45.953  36.738  29.155  1.00  0.00    -0.200 F 
ENDBRANCH  63  86
ENDBRANCH  37  38
ENDBRANCH  29  32
ENDBRANCH  27  28
ENDBRANCH  26  27
ENDBRANCH   1  26
TORSDOF 14
ENDMDL
