MODEL 1
REMARK VINA RESULT:     -10.9      0.000      0.000
REMARK SMILES CCC[C@](C)(CC(F)(F)F)C(=O)NCCCCNC(=O)c1ccc(-c2c3nc(c(-c4c(F)c(F)c(F)c(F)c4F)c4ccc([nH]4)c(-c4c(F)c(F)c(F)c(F)c4F)c4nc(c(-c5c(F)c(F)c(F)c(F)c5F)c5ccc2[nH]5)C=C4)C=C3)cc1
REMARK SMILES IDX 15 1 14 2 13 3 11 4 12 5 4 7 5 8 3 9 2 10 1 11 6 12 7 13
REMARK SMILES IDX 8 14 9 15 10 16 16 17 17 18 18 19 19 20 20 22 21 23 22 24
REMARK SMILES IDX 83 25 23 26 82 27 24 28 25 29 26 30 76 31 27 32 81 33 75 34
REMARK SMILES IDX 77 35 28 36 80 37 74 38 73 39 29 41 61 42 41 43 60 44 42 45
REMARK SMILES IDX 45 46 59 47 78 48 43 49 44 50 58 52 79 53 46 54 30 55 31 56
REMARK SMILES IDX 39 57 32 58 33 59 37 60 40 61 34 62 35 63 38 64 36 65 62 66
REMARK SMILES IDX 63 67 71 68 64 69 65 70 69 71 72 72 66 73 67 74 70 75 68 76
REMARK SMILES IDX 47 77 48 78 56 79 49 80 50 81 54 82 57 83 51 84 52 85 55 86
REMARK SMILES IDX 53 87
REMARK H PARENT 13 6 18 21 77 40 45 51
REMARK Flexibility Score: inf
ROOT
ATOM      1  C   UNL A   1      31.870  30.244  26.802  1.00  0.00     0.023 C 
ENDROOT
BRANCH   1   2
ATOM      2  C   UNL A   1      33.269  29.670  26.575  1.00  0.00     0.116 C 
BRANCH   2   3
ATOM      3  N   UNL A   1      33.619  29.627  25.168  1.00  0.00    -0.356 N 
ATOM      4  C   UNL A   1      33.549  28.651  24.224  1.00  0.00     0.226 C 
ATOM      5  O   UNL A   1      33.887  28.976  23.083  1.00  0.00    -0.274 OA
ATOM      6  H   UNL A   1      33.978  30.478  24.827  1.00  0.00     0.163 HD
BRANCH   4   7
ATOM      7  C   UNL A   1      33.060  27.219  24.533  1.00  0.00     0.055 C 
ATOM      8  C   UNL A   1      33.743  26.716  25.833  1.00  0.00     0.022 C 
BRANCH   7   9
ATOM      9  C   UNL A   1      33.406  26.219  23.385  1.00  0.00     0.017 C 
BRANCH   9  10
ATOM     10  C   UNL A   1      34.030  24.860  23.756  1.00  0.00    -0.002 C 
ATOM     11  C   UNL A   1      33.801  23.739  22.758  1.00  0.00     0.004 C 
ENDBRANCH   9  10
ENDBRANCH   7   9
BRANCH   7  12
ATOM     12  C   UNL A   1      31.524  27.198  24.791  1.00  0.00     0.132 C 
BRANCH  12  13
ATOM     13  C   UNL A   1      30.658  27.881  23.744  1.00  0.00     0.390 C 
ATOM     14  F   UNL A   1      30.981  27.515  22.490  1.00  0.00    -0.171 F 
ATOM     15  F   UNL A   1      29.363  27.529  23.938  1.00  0.00    -0.171 F 
ATOM     16  F   UNL A   1      30.719  29.223  23.827  1.00  0.00    -0.171 F 
ENDBRANCH  12  13
ENDBRANCH   7  12
ENDBRANCH   4   7
ENDBRANCH   2   3
ENDBRANCH   1   2
BRANCH   1  17
ATOM     17  C   UNL A   1      31.765  31.760  26.631  1.00  0.00     0.023 C 
BRANCH  17  18
ATOM     18  C   UNL A   1      32.828  32.571  27.362  1.00  0.00     0.116 C 
BRANCH  18  19
ATOM     19  N   UNL A   1      32.424  33.941  27.638  1.00  0.00    -0.352 N 
ATOM     20  C   UNL A   1      32.966  34.822  28.544  1.00  0.00     0.251 C 
ATOM     21  H   UNL A   1      31.664  34.280  27.111  1.00  0.00     0.163 HD
ATOM     22  O   UNL A   1      32.453  35.920  28.738  1.00  0.00    -0.269 OA
BRANCH  20  23
ATOM     23  C   UNL A   1      34.160  34.414  29.311  1.00  0.00     0.039 A 
ATOM     24  C   UNL A   1      33.992  33.777  30.542  1.00  0.00     0.014 A 
ATOM     25  C   UNL A   1      35.437  34.615  28.781  1.00  0.00     0.014 A 
ATOM     26  C   UNL A   1      35.106  33.270  31.214  1.00  0.00     0.010 A 
ATOM     27  C   UNL A   1      36.537  34.057  29.419  1.00  0.00     0.010 A 
ATOM     28  C   UNL A   1      36.382  33.374  30.638  1.00  0.00    -0.014 A 
BRANCH  28  29
ATOM     29  C   UNL A   1      37.588  32.801  31.282  1.00  0.00     0.031 A 
ATOM     30  C   UNL A   1      38.320  31.679  30.606  1.00  0.00     0.074 A 
ATOM     31  C   UNL A   1      37.953  33.206  32.514  1.00  0.00     0.049 A 
ATOM     32  N   UNL A   1      39.259  30.897  31.073  1.00  0.00    -0.248 NA
ATOM     33  C   UNL A   1      37.912  31.372  29.225  1.00  0.00     0.031 C 
ATOM     34  C   UNL A   1      37.307  34.269  33.284  1.00  0.00     0.029 A 
ATOM     35  N   UNL A   1      38.944  32.746  33.346  1.00  0.00    -0.354 N 
ATOM     36  C   UNL A   1      39.525  29.985  30.061  1.00  0.00     0.074 A 
ATOM     37  C   UNL A   1      38.628  30.288  28.967  1.00  0.00     0.031 C 
ATOM     38  C   UNL A   1      37.919  34.383  34.475  1.00  0.00     0.029 A 
ATOM     39  C   UNL A   1      38.969  33.372  34.570  1.00  0.00     0.049 A 
ATOM     40  H   UNL A   1      39.576  32.036  33.091  1.00  0.00     0.167 HD
ATOM     41  C   UNL A   1      40.445  28.991  30.045  1.00  0.00     0.037 A 
ATOM     42  C   UNL A   1      39.738  33.139  35.651  1.00  0.00     0.037 A 
ATOM     43  C   UNL A   1      41.363  28.723  31.118  1.00  0.00     0.049 A 
ATOM     44  C   UNL A   1      40.762  32.037  35.602  1.00  0.00     0.074 A 
ATOM     45  C   UNL A   1      42.367  27.775  31.178  1.00  0.00     0.029 A 
ATOM     46  N   UNL A   1      41.393  29.417  32.319  1.00  0.00    -0.354 N 
ATOM     47  N   UNL A   1      41.030  31.202  34.628  1.00  0.00    -0.248 NA
ATOM     48  C   UNL A   1      41.591  31.845  36.801  1.00  0.00     0.031 C 
ATOM     49  C   UNL A   1      42.987  27.875  32.427  1.00  0.00     0.029 A 
ATOM     50  C   UNL A   1      42.395  28.913  33.128  1.00  0.00     0.049 A 
ATOM     51  H   UNL A   1      40.790  30.159  32.560  1.00  0.00     0.167 HD
ATOM     52  C   UNL A   1      42.079  30.412  35.081  1.00  0.00     0.074 A 
ATOM     53  C   UNL A   1      42.399  30.867  36.416  1.00  0.00     0.031 C 
ATOM     54  C   UNL A   1      42.721  29.404  34.443  1.00  0.00     0.037 A 
BRANCH  41  55
ATOM     55  C   UNL A   1      40.501  28.121  28.825  1.00  0.00     0.064 A 
ATOM     56  C   UNL A   1      39.776  26.923  28.742  1.00  0.00     0.173 A 
ATOM     57  C   UNL A   1      41.270  28.502  27.715  1.00  0.00     0.173 A 
ATOM     58  F   UNL A   1      39.037  26.508  29.783  1.00  0.00    -0.203 F 
ATOM     59  C   UNL A   1      39.838  26.126  27.603  1.00  0.00     0.198 A 
ATOM     60  C   UNL A   1      41.307  27.717  26.566  1.00  0.00     0.198 A 
ATOM     61  F   UNL A   1      41.979  29.639  27.742  1.00  0.00    -0.203 F 
ATOM     62  F   UNL A   1      39.174  24.962  27.565  1.00  0.00    -0.200 F 
ATOM     63  C   UNL A   1      40.597  26.526  26.514  1.00  0.00     0.200 A 
ATOM     64  F   UNL A   1      42.033  28.110  25.510  1.00  0.00    -0.200 F 
ATOM     65  F   UNL A   1      40.653  25.759  25.417  1.00  0.00    -0.200 F 
ENDBRANCH  41  55
BRANCH  42  66
ATOM     66  C   UNL A   1      39.581  33.977  36.868  1.00  0.00     0.064 A 
ATOM     67  C   UNL A   1      40.229  35.216  36.971  1.00  0.00     0.173 A 
ATOM     68  C   UNL A   1      38.789  33.562  37.948  1.00  0.00     0.173 A 
ATOM     69  F   UNL A   1      41.015  35.644  35.972  1.00  0.00    -0.203 F 
ATOM     70  C   UNL A   1      40.105  36.000  38.115  1.00  0.00     0.198 A 
ATOM     71  C   UNL A   1      38.645  34.359  39.081  1.00  0.00     0.198 A 
ATOM     72  F   UNL A   1      38.145  32.387  37.896  1.00  0.00    -0.203 F 
ATOM     73  F   UNL A   1      40.768  37.161  38.204  1.00  0.00    -0.200 F 
ATOM     74  C   UNL A   1      39.309  35.573  39.167  1.00  0.00     0.200 A 
ATOM     75  F   UNL A   1      37.866  33.949  40.092  1.00  0.00    -0.200 F 
ATOM     76  F   UNL A   1      39.187  36.330  40.267  1.00  0.00    -0.200 F 
ENDBRANCH  42  66
BRANCH  54  77
ATOM     77  C   UNL A   1      43.877  28.762  35.147  1.00  0.00     0.064 A 
ATOM     78  C   UNL A   1      45.197  29.174  34.921  1.00  0.00     0.173 A 
ATOM     79  C   UNL A   1      43.648  27.778  36.120  1.00  0.00     0.173 A 
ATOM     80  F   UNL A   1      45.465  30.102  33.990  1.00  0.00    -0.203 F 
ATOM     81  C   UNL A   1      46.250  28.618  35.642  1.00  0.00     0.198 A 
ATOM     82  C   UNL A   1      44.700  27.241  36.854  1.00  0.00     0.198 A 
ATOM     83  F   UNL A   1      42.401  27.356  36.374  1.00  0.00    -0.203 F 
ATOM     84  F   UNL A   1      47.508  29.008  35.397  1.00  0.00    -0.200 F 
ATOM     85  C   UNL A   1      46.000  27.660  36.615  1.00  0.00     0.200 A 
ATOM     86  F   UNL A   1      44.455  26.325  37.801  1.00  0.00    -0.200 F 
ATOM     87  F   UNL A   1      47.014  27.138  37.319  1.00  0.00    -0.200 F 
ENDBRANCH  54  77
ENDBRANCH  28  29
ENDBRANCH  20  23
ENDBRANCH  18  19
ENDBRANCH  17  18
ENDBRANCH   1  17
TORSDOF 15
ENDMDL
MODEL 2
REMARK VINA RESULT:     -10.7      0.503      2.084
REMARK SMILES CCC[C@](C)(CC(F)(F)F)C(=O)NCCCCNC(=O)c1ccc(-c2c3nc(c(-c4c(F)c(F)c(F)c(F)c4F)c4ccc([nH]4)c(-c4c(F)c(F)c(F)c(F)c4F)c4nc(c(-c5c(F)c(F)c(F)c(F)c5F)c5ccc2[nH]5)C=C4)C=C3)cc1
REMARK SMILES IDX 15 1 14 2 13 3 11 4 12 5 4 7 5 8 3 9 2 10 1 11 6 12 7 13
REMARK SMILES IDX 8 14 9 15 10 16 16 17 17 18 18 19 19 20 20 22 21 23 22 24
REMARK SMILES IDX 83 25 23 26 82 27 24 28 25 29 26 30 76 31 27 32 81 33 75 34
REMARK SMILES IDX 77 35 28 36 80 37 74 38 73 39 29 41 61 42 41 43 60 44 42 45
REMARK SMILES IDX 45 46 59 47 78 48 43 49 44 50 58 52 79 53 46 54 30 55 31 56
REMARK SMILES IDX 39 57 32 58 33 59 37 60 40 61 34 62 35 63 38 64 36 65 62 66
REMARK SMILES IDX 63 67 71 68 64 69 65 70 69 71 72 72 66 73 67 74 70 75 68 76
REMARK SMILES IDX 47 77 48 78 56 79 49 80 50 81 54 82 57 83 51 84 52 85 55 86
REMARK SMILES IDX 53 87
REMARK H PARENT 13 6 18 21 77 40 45 51
REMARK Flexibility Score: inf
ROOT
ATOM      1  C   UNL A   1      31.822  30.711  26.023  1.00  0.00     0.023 C 
ENDROOT
BRANCH   1   2
ATOM      2  C   UNL A   1      33.013  29.770  26.205  1.00  0.00     0.116 C 
BRANCH   2   3
ATOM      3  N   UNL A   1      33.708  29.521  24.956  1.00  0.00    -0.356 N 
ATOM      4  C   UNL A   1      33.643  28.516  24.043  1.00  0.00     0.226 C 
ATOM      5  O   UNL A   1      34.352  28.649  23.042  1.00  0.00    -0.274 OA
ATOM      6  H   UNL A   1      34.356  30.223  24.722  1.00  0.00     0.163 HD
BRANCH   4   7
ATOM      7  C   UNL A   1      32.732  27.281  24.217  1.00  0.00     0.055 C 
ATOM      8  C   UNL A   1      33.175  26.493  25.479  1.00  0.00     0.022 C 
BRANCH   7   9
ATOM      9  C   UNL A   1      32.807  26.317  22.991  1.00  0.00     0.017 C 
BRANCH   9  10
ATOM     10  C   UNL A   1      32.528  24.820  23.215  1.00  0.00    -0.002 C 
ATOM     11  C   UNL A   1      31.071  24.402  23.118  1.00  0.00     0.004 C 
ENDBRANCH   9  10
ENDBRANCH   7   9
BRANCH   7  12
ATOM     12  C   UNL A   1      31.252  27.710  24.447  1.00  0.00     0.132 C 
BRANCH  12  13
ATOM     13  C   UNL A   1      30.556  28.380  23.273  1.00  0.00     0.390 C 
ATOM     14  F   UNL A   1      29.962  27.494  22.453  1.00  0.00    -0.171 F 
ATOM     15  F   UNL A   1      29.585  29.201  23.739  1.00  0.00    -0.171 F 
ATOM     16  F   UNL A   1      31.398  29.138  22.545  1.00  0.00    -0.171 F 
ENDBRANCH  12  13
ENDBRANCH   7  12
ENDBRANCH   4   7
ENDBRANCH   2   3
ENDBRANCH   1   2
BRANCH   1  17
ATOM     17  C   UNL A   1      31.650  31.746  27.135  1.00  0.00     0.023 C 
BRANCH  17  18
ATOM     18  C   UNL A   1      32.831  32.689  27.334  1.00  0.00     0.116 C 
BRANCH  18  19
ATOM     19  N   UNL A   1      32.436  34.059  27.625  1.00  0.00    -0.352 N 
ATOM     20  C   UNL A   1      32.985  34.927  28.539  1.00  0.00     0.251 C 
ATOM     21  H   UNL A   1      31.677  34.409  27.103  1.00  0.00     0.163 HD
ATOM     22  O   UNL A   1      32.480  36.026  28.746  1.00  0.00    -0.269 OA
BRANCH  20  23
ATOM     23  C   UNL A   1      34.178  34.503  29.299  1.00  0.00     0.039 A 
ATOM     24  C   UNL A   1      34.009  33.900  30.548  1.00  0.00     0.014 A 
ATOM     25  C   UNL A   1      35.452  34.655  28.748  1.00  0.00     0.014 A 
ATOM     26  C   UNL A   1      35.119  33.378  31.216  1.00  0.00     0.010 A 
ATOM     27  C   UNL A   1      36.545  34.080  29.384  1.00  0.00     0.010 A 
ATOM     28  C   UNL A   1      36.388  33.431  30.621  1.00  0.00    -0.014 A 
BRANCH  28  29
ATOM     29  C   UNL A   1      37.586  32.839  31.263  1.00  0.00     0.031 A 
ATOM     30  C   UNL A   1      38.294  31.700  30.589  1.00  0.00     0.074 A 
ATOM     31  C   UNL A   1      37.965  33.243  32.490  1.00  0.00     0.049 A 
ATOM     32  N   UNL A   1      39.221  30.903  31.055  1.00  0.00    -0.248 NA
ATOM     33  C   UNL A   1      37.874  31.393  29.212  1.00  0.00     0.031 C 
ATOM     34  C   UNL A   1      37.342  34.322  33.258  1.00  0.00     0.029 A 
ATOM     35  N   UNL A   1      38.951  32.770  33.320  1.00  0.00    -0.354 N 
ATOM     36  C   UNL A   1      39.464  29.981  30.047  1.00  0.00     0.074 A 
ATOM     37  C   UNL A   1      38.569  30.295  28.955  1.00  0.00     0.031 C 
ATOM     38  C   UNL A   1      37.962  34.431  34.445  1.00  0.00     0.029 A 
ATOM     39  C   UNL A   1      38.994  33.401  34.541  1.00  0.00     0.049 A 
ATOM     40  H   UNL A   1      39.569  32.046  33.066  1.00  0.00     0.167 HD
ATOM     41  C   UNL A   1      40.366  28.970  30.031  1.00  0.00     0.037 A 
ATOM     42  C   UNL A   1      39.763  33.159  35.619  1.00  0.00     0.037 A 
ATOM     43  C   UNL A   1      41.284  28.691  31.102  1.00  0.00     0.049 A 
ATOM     44  C   UNL A   1      40.767  32.038  35.571  1.00  0.00     0.074 A 
ATOM     45  C   UNL A   1      42.270  27.724  31.162  1.00  0.00     0.029 A 
ATOM     46  N   UNL A   1      41.332  29.390  32.298  1.00  0.00    -0.354 N 
ATOM     47  N   UNL A   1      41.014  31.193  34.601  1.00  0.00    -0.248 NA
ATOM     48  C   UNL A   1      41.597  31.837  36.767  1.00  0.00     0.031 C 
ATOM     49  C   UNL A   1      42.899  27.819  32.407  1.00  0.00     0.029 A 
ATOM     50  C   UNL A   1      42.329  28.871  33.106  1.00  0.00     0.049 A 
ATOM     51  H   UNL A   1      40.745  30.144  32.538  1.00  0.00     0.167 HD
ATOM     52  C   UNL A   1      42.050  30.387  35.052  1.00  0.00     0.074 A 
ATOM     53  C   UNL A   1      42.385  30.842  36.384  1.00  0.00     0.031 C 
ATOM     54  C   UNL A   1      42.670  29.363  34.416  1.00  0.00     0.037 A 
BRANCH  41  55
ATOM     55  C   UNL A   1      40.400  28.092  28.816  1.00  0.00     0.064 A 
ATOM     56  C   UNL A   1      41.154  28.433  27.684  1.00  0.00     0.173 A 
ATOM     57  C   UNL A   1      39.692  26.881  28.795  1.00  0.00     0.173 A 
ATOM     58  F   UNL A   1      41.837  29.588  27.650  1.00  0.00    -0.203 F 
ATOM     59  C   UNL A   1      41.177  27.607  26.564  1.00  0.00     0.198 A 
ATOM     60  C   UNL A   1      39.740  26.044  27.684  1.00  0.00     0.198 A 
ATOM     61  F   UNL A   1      38.960  26.507  29.853  1.00  0.00    -0.203 F 
ATOM     62  F   UNL A   1      41.865  27.977  25.474  1.00  0.00    -0.200 F 
ATOM     63  C   UNL A   1      40.476  26.411  26.567  1.00  0.00     0.200 A 
ATOM     64  F   UNL A   1      39.071  24.882  27.692  1.00  0.00    -0.200 F 
ATOM     65  F   UNL A   1      40.502  25.616  25.489  1.00  0.00    -0.200 F 
ENDBRANCH  41  55
BRANCH  42  66
ATOM     66  C   UNL A   1      39.629  34.007  36.832  1.00  0.00     0.064 A 
ATOM     67  C   UNL A   1      38.830  33.595  37.907  1.00  0.00     0.173 A 
ATOM     68  C   UNL A   1      40.288  35.240  36.942  1.00  0.00     0.173 A 
ATOM     69  F   UNL A   1      38.163  32.433  37.837  1.00  0.00    -0.203 F 
ATOM     70  C   UNL A   1      38.681  34.391  39.040  1.00  0.00     0.198 A 
ATOM     71  C   UNL A   1      40.159  36.024  38.086  1.00  0.00     0.198 A 
ATOM     72  F   UNL A   1      41.067  35.677  35.943  1.00  0.00    -0.203 F 
ATOM     73  F   UNL A   1      37.879  33.992  40.036  1.00  0.00    -0.200 F 
ATOM     74  C   UNL A   1      39.350  35.602  39.131  1.00  0.00     0.200 A 
ATOM     75  F   UNL A   1      40.815  37.189  38.177  1.00  0.00    -0.200 F 
ATOM     76  F   UNL A   1      39.209  36.367  40.223  1.00  0.00    -0.200 F 
ENDBRANCH  42  66
BRANCH  54  77
ATOM     77  C   UNL A   1      43.818  28.703  35.118  1.00  0.00     0.064 A 
ATOM     78  C   UNL A   1      43.633  27.581  35.938  1.00  0.00     0.173 A 
ATOM     79  C   UNL A   1      45.129  29.153  34.896  1.00  0.00     0.173 A 
ATOM     80  F   UNL A   1      42.397  27.125  36.188  1.00  0.00    -0.203 F 
ATOM     81  C   UNL A   1      44.721  26.936  36.518  1.00  0.00     0.198 A 
ATOM     82  C   UNL A   1      46.215  28.492  35.460  1.00  0.00     0.198 A 
ATOM     83  F   UNL A   1      45.355  30.218  34.115  1.00  0.00    -0.203 F 
ATOM     84  F   UNL A   1      44.523  25.879  37.318  1.00  0.00    -0.200 F 
ATOM     85  C   UNL A   1      46.011  27.385  36.271  1.00  0.00     0.200 A 
ATOM     86  F   UNL A   1      47.461  28.919  35.211  1.00  0.00    -0.200 F 
ATOM     87  F   UNL A   1      47.058  26.752  36.817  1.00  0.00    -0.200 F 
ENDBRANCH  54  77
ENDBRANCH  28  29
ENDBRANCH  20  23
ENDBRANCH  18  19
ENDBRANCH  17  18
ENDBRANCH   1  17
TORSDOF 15
ENDMDL
MODEL 3
REMARK VINA RESULT:     -10.6      0.763      7.523
REMARK SMILES CCC[C@](C)(CC(F)(F)F)C(=O)NCCCCNC(=O)c1ccc(-c2c3nc(c(-c4c(F)c(F)c(F)c(F)c4F)c4ccc([nH]4)c(-c4c(F)c(F)c(F)c(F)c4F)c4nc(c(-c5c(F)c(F)c(F)c(F)c5F)c5ccc2[nH]5)C=C4)C=C3)cc1
REMARK SMILES IDX 15 1 14 2 13 3 11 4 12 5 4 7 5 8 3 9 2 10 1 11 6 12 7 13
REMARK SMILES IDX 8 14 9 15 10 16 16 17 17 18 18 19 19 20 20 22 21 23 22 24
REMARK SMILES IDX 83 25 23 26 82 27 24 28 25 29 26 30 76 31 27 32 81 33 75 34
REMARK SMILES IDX 77 35 28 36 80 37 74 38 73 39 29 41 61 42 41 43 60 44 42 45
REMARK SMILES IDX 45 46 59 47 78 48 43 49 44 50 58 52 79 53 46 54 30 55 31 56
REMARK SMILES IDX 39 57 32 58 33 59 37 60 40 61 34 62 35 63 38 64 36 65 62 66
REMARK SMILES IDX 63 67 71 68 64 69 65 70 69 71 72 72 66 73 67 74 70 75 68 76
REMARK SMILES IDX 47 77 48 78 56 79 49 80 50 81 54 82 57 83 51 84 52 85 55 86
REMARK SMILES IDX 53 87
REMARK H PARENT 13 6 18 21 77 40 45 51
REMARK Flexibility Score: inf
ROOT
ATOM      1  C   UNL A   1      31.564  31.069  26.033  1.00  0.00     0.023 C 
ENDROOT
BRANCH   1   2
ATOM      2  C   UNL A   1      32.657  30.081  26.440  1.00  0.00     0.116 C 
BRANCH   2   3
ATOM      3  N   UNL A   1      33.463  29.663  25.308  1.00  0.00    -0.356 N 
ATOM      4  C   UNL A   1      33.395  28.599  24.464  1.00  0.00     0.226 C 
ATOM      5  O   UNL A   1      34.228  28.578  23.554  1.00  0.00    -0.274 OA
ATOM      6  H   UNL A   1      34.210  30.273  25.112  1.00  0.00     0.163 HD
BRANCH   4   7
ATOM      7  C   UNL A   1      32.337  27.484  24.603  1.00  0.00     0.055 C 
ATOM      8  C   UNL A   1      32.542  26.751  25.955  1.00  0.00     0.022 C 
BRANCH   7   9
ATOM      9  C   UNL A   1      32.442  26.427  23.457  1.00  0.00     0.017 C 
BRANCH   9  10
ATOM     10  C   UNL A   1      32.070  24.966  23.769  1.00  0.00    -0.002 C 
ATOM     11  C   UNL A   1      30.669  24.544  23.360  1.00  0.00     0.004 C 
ENDBRANCH   9  10
ENDBRANCH   7   9
BRANCH   7  12
ATOM     12  C   UNL A   1      30.898  28.081  24.624  1.00  0.00     0.132 C 
BRANCH  12  13
ATOM     13  C   UNL A   1      30.409  28.703  23.326  1.00  0.00     0.390 C 
ATOM     14  F   UNL A   1      29.808  27.809  22.521  1.00  0.00    -0.171 F 
ATOM     15  F   UNL A   1      29.493  29.661  23.608  1.00  0.00    -0.171 F 
ATOM     16  F   UNL A   1      31.403  29.299  22.639  1.00  0.00    -0.171 F 
ENDBRANCH  12  13
ENDBRANCH   7  12
ENDBRANCH   4   7
ENDBRANCH   2   3
ENDBRANCH   1   2
BRANCH   1  17
ATOM     17  C   UNL A   1      31.403  32.266  26.970  1.00  0.00     0.023 C 
BRANCH  17  18
ATOM     18  C   UNL A   1      32.679  33.054  27.242  1.00  0.00     0.116 C 
BRANCH  18  19
ATOM     19  N   UNL A   1      32.434  34.419  27.685  1.00  0.00    -0.352 N 
ATOM     20  C   UNL A   1      33.027  35.094  28.726  1.00  0.00     0.251 C 
ATOM     21  H   UNL A   1      31.757  34.921  27.176  1.00  0.00     0.163 HD
ATOM     22  O   UNL A   1      32.646  36.216  29.046  1.00  0.00    -0.269 OA
BRANCH  20  23
ATOM     23  C   UNL A   1      34.110  34.435  29.481  1.00  0.00     0.039 A 
ATOM     24  C   UNL A   1      33.789  33.676  30.609  1.00  0.00     0.014 A 
ATOM     25  C   UNL A   1      35.432  34.526  29.036  1.00  0.00     0.014 A 
ATOM     26  C   UNL A   1      34.787  32.943  31.254  1.00  0.00     0.010 A 
ATOM     27  C   UNL A   1      36.411  33.747  29.640  1.00  0.00     0.010 A 
ATOM     28  C   UNL A   1      36.097  32.944  30.750  1.00  0.00    -0.014 A 
BRANCH  28  29
ATOM     29  C   UNL A   1      37.179  32.136  31.363  1.00  0.00     0.031 A 
ATOM     30  C   UNL A   1      37.675  32.492  32.735  1.00  0.00     0.074 A 
ATOM     31  C   UNL A   1      37.786  31.168  30.651  1.00  0.00     0.049 A 
ATOM     32  N   UNL A   1      38.734  32.066  33.373  1.00  0.00    -0.248 NA
ATOM     33  C   UNL A   1      36.890  33.494  33.473  1.00  0.00     0.031 C 
ATOM     34  C   UNL A   1      37.412  30.746  29.301  1.00  0.00     0.029 A 
ATOM     35  N   UNL A   1      38.869  30.381  30.958  1.00  0.00    -0.354 N 
ATOM     36  C   UNL A   1      38.763  32.774  34.566  1.00  0.00     0.074 A 
ATOM     37  C   UNL A   1      37.635  33.679  34.552  1.00  0.00     0.031 C 
ATOM     38  C   UNL A   1      38.249  29.777  28.895  1.00  0.00     0.029 A 
ATOM     39  C   UNL A   1      39.245  29.540  29.937  1.00  0.00     0.049 A 
ATOM     40  H   UNL A   1      39.333  30.416  31.826  1.00  0.00     0.167 HD
ATOM     41  C   UNL A   1      39.646  32.666  35.587  1.00  0.00     0.037 A 
ATOM     42  C   UNL A   1      40.288  28.693  29.848  1.00  0.00     0.037 A 
ATOM     43  C   UNL A   1      40.739  31.732  35.614  1.00  0.00     0.049 A 
ATOM     44  C   UNL A   1      41.248  28.583  31.002  1.00  0.00     0.074 A 
ATOM     45  C   UNL A   1      41.658  31.508  36.623  1.00  0.00     0.029 A 
ATOM     46  N   UNL A   1      41.051  30.858  34.583  1.00  0.00    -0.354 N 
ATOM     47  N   UNL A   1      41.248  29.231  32.141  1.00  0.00    -0.248 NA
ATOM     48  C   UNL A   1      42.352  27.623  30.859  1.00  0.00     0.031 C 
ATOM     49  C   UNL A   1      42.545  30.517  36.192  1.00  0.00     0.029 A 
ATOM     50  C   UNL A   1      42.154  30.097  34.931  1.00  0.00     0.049 A 
ATOM     51  H   UNL A   1      40.562  30.789  33.731  1.00  0.00     0.167 HD
ATOM     52  C   UNL A   1      42.324  28.734  32.863  1.00  0.00     0.074 A 
ATOM     53  C   UNL A   1      42.956  27.730  32.035  1.00  0.00     0.031 C 
ATOM     54  C   UNL A   1      42.747  29.077  34.104  1.00  0.00     0.037 A 
BRANCH  41  55
ATOM     55  C   UNL A   1      39.465  33.583  36.759  1.00  0.00     0.064 A 
ATOM     56  C   UNL A   1      38.702  33.208  37.875  1.00  0.00     0.173 A 
ATOM     57  C   UNL A   1      40.084  34.842  36.778  1.00  0.00     0.173 A 
ATOM     58  F   UNL A   1      38.078  32.020  37.898  1.00  0.00    -0.203 F 
ATOM     59  C   UNL A   1      38.544  34.071  38.956  1.00  0.00     0.198 A 
ATOM     60  C   UNL A   1      39.946  35.690  37.873  1.00  0.00     0.198 A 
ATOM     61  F   UNL A   1      40.826  35.246  35.738  1.00  0.00    -0.203 F 
ATOM     62  F   UNL A   1      37.770  33.711  39.991  1.00  0.00    -0.200 F 
ATOM     63  C   UNL A   1      39.171  35.307  38.957  1.00  0.00     0.200 A 
ATOM     64  F   UNL A   1      40.562  36.881  37.879  1.00  0.00    -0.200 F 
ATOM     65  F   UNL A   1      39.020  36.134  40.001  1.00  0.00    -0.200 F 
ENDBRANCH  41  55
BRANCH  42  66
ATOM     66  C   UNL A   1      40.471  27.868  28.626  1.00  0.00     0.064 A 
ATOM     67  C   UNL A   1      41.239  28.340  27.552  1.00  0.00     0.173 A 
ATOM     68  C   UNL A   1      39.886  26.599  28.503  1.00  0.00     0.173 A 
ATOM     69  F   UNL A   1      41.799  29.557  27.616  1.00  0.00    -0.203 F 
ATOM     70  C   UNL A   1      41.400  27.583  26.395  1.00  0.00     0.198 A 
ATOM     71  C   UNL A   1      40.069  25.832  27.355  1.00  0.00     0.198 A 
ATOM     72  F   UNL A   1      39.146  26.101  29.504  1.00  0.00    -0.203 F 
ATOM     73  F   UNL A   1      42.104  28.076  25.367  1.00  0.00    -0.200 F 
ATOM     74  C   UNL A   1      40.819  26.327  26.299  1.00  0.00     0.200 A 
ATOM     75  F   UNL A   1      39.516  24.614  27.269  1.00  0.00    -0.200 F 
ATOM     76  F   UNL A   1      40.977  25.597  25.185  1.00  0.00    -0.200 F 
ENDBRANCH  42  66
BRANCH  54  77
ATOM     77  C   UNL A   1      43.908  28.321  34.676  1.00  0.00     0.064 A 
ATOM     78  C   UNL A   1      45.212  28.831  34.631  1.00  0.00     0.173 A 
ATOM     79  C   UNL A   1      43.693  27.110  35.351  1.00  0.00     0.173 A 
ATOM     80  F   UNL A   1      45.465  29.979  33.985  1.00  0.00    -0.203 F 
ATOM     81  C   UNL A   1      46.264  28.150  35.236  1.00  0.00     0.198 A 
ATOM     82  C   UNL A   1      44.743  26.444  35.974  1.00  0.00     0.198 A 
ATOM     83  F   UNL A   1      42.461  26.586  35.425  1.00  0.00    -0.203 F 
ATOM     84  F   UNL A   1      47.509  28.642  35.163  1.00  0.00    -0.200 F 
ATOM     85  C   UNL A   1      46.028  26.963  35.916  1.00  0.00     0.200 A 
ATOM     86  F   UNL A   1      44.511  25.304  36.640  1.00  0.00    -0.200 F 
ATOM     87  F   UNL A   1      47.040  26.319  36.512  1.00  0.00    -0.200 F 
ENDBRANCH  54  77
ENDBRANCH  28  29
ENDBRANCH  20  23
ENDBRANCH  18  19
ENDBRANCH  17  18
ENDBRANCH   1  17
TORSDOF 15
ENDMDL
