MODEL 1
REMARK VINA RESULT:     -11.6      0.000      0.000
REMARK SMILES O=C(NCCCCNC(=O)[C@H]1CC=CC[C@@H]1c1nc2cc(Cl)ccc2o1)c1ccc(-c2c3nc(c(-c4c(F)c(F)c(F)c(F)c4F)c4ccc([nH]4)c(-c4c(F)c(F)c(F)c(F)c4F)c4nc(c(-c5c(F)c(F)c(F)c(F)c5F)c5ccc2[nH]5)C=C4)C=C3)cc1
REMARK SMILES IDX 5 1 4 2 3 3 1 4 2 5 27 7 28 8 89 9 29 10 88 11 30 12 31 13
REMARK SMILES IDX 32 14 82 15 33 16 87 17 81 18 83 19 34 20 86 21 80 22 79 23
REMARK SMILES IDX 35 25 67 26 47 27 66 28 48 29 51 30 65 31 84 32 49 33 50 34
REMARK SMILES IDX 64 36 85 37 52 38 36 39 37 40 45 41 38 42 39 43 43 44 46 45
REMARK SMILES IDX 40 46 41 47 44 48 42 49 68 50 69 51 77 52 70 53 71 54 75 55
REMARK SMILES IDX 78 56 72 57 73 58 76 59 74 60 53 61 54 62 62 63 55 64 56 65
REMARK SMILES IDX 60 66 63 67 57 68 58 69 61 70 59 71 6 72 7 73 8 74 9 75
REMARK SMILES IDX 10 77 11 78 12 79 16 80 13 81 15 82 14 83 17 84 18 85 26 86
REMARK SMILES IDX 19 87 25 88 20 89 24 90 21 91 23 92 22 93
REMARK H PARENT 3 6 83 24 51 35 8 76
REMARK Flexibility Score: inf
ROOT
ATOM      1  C   UNL A   1      43.377  23.982  24.889  1.00  0.00     0.023 C 
ENDROOT
BRANCH   1   2
ATOM      2  C   UNL A   1      42.925  22.970  25.941  1.00  0.00     0.116 C 
BRANCH   2   3
ATOM      3  N   UNL A   1      41.545  22.492  25.777  1.00  0.00    -0.352 N 
ATOM      4  O   UNL A   1      39.481  22.004  26.638  1.00  0.00    -0.269 OA
ATOM      5  C   UNL A   1      40.457  22.722  26.621  1.00  0.00     0.251 C 
ATOM      6  H   UNL A   1      41.367  21.945  24.979  1.00  0.00     0.163 HD
BRANCH   5   7
ATOM      7  C   UNL A   1      40.525  23.924  27.470  1.00  0.00     0.039 A 
ATOM      8  C   UNL A   1      41.615  24.246  28.279  1.00  0.00     0.014 A 
ATOM      9  C   UNL A   1      39.478  24.811  27.288  1.00  0.00     0.014 A 
ATOM     10  C   UNL A   1      41.671  25.530  28.826  1.00  0.00     0.010 A 
ATOM     11  C   UNL A   1      39.696  26.125  27.568  1.00  0.00     0.010 A 
ATOM     12  C   UNL A   1      40.710  26.480  28.441  1.00  0.00    -0.014 A 
BRANCH  12  13
ATOM     13  C   UNL A   1      40.736  27.866  28.896  1.00  0.00     0.031 A 
ATOM     14  C   UNL A   1      41.812  28.713  28.319  1.00  0.00     0.074 A 
ATOM     15  C   UNL A   1      39.763  28.395  29.677  1.00  0.00     0.049 A 
ATOM     16  N   UNL A   1      42.836  29.196  28.940  1.00  0.00    -0.248 NA
ATOM     17  C   UNL A   1      41.827  28.954  26.868  1.00  0.00     0.031 C 
ATOM     18  C   UNL A   1      38.487  27.813  30.126  1.00  0.00     0.029 A 
ATOM     19  N   UNL A   1      39.691  29.651  30.186  1.00  0.00    -0.354 N 
ATOM     20  C   UNL A   1      43.543  29.946  28.008  1.00  0.00     0.074 A 
ATOM     21  C   UNL A   1      42.963  29.644  26.723  1.00  0.00     0.031 C 
ATOM     22  C   UNL A   1      37.679  28.781  30.608  1.00  0.00     0.029 A 
ATOM     23  C   UNL A   1      38.452  29.999  30.706  1.00  0.00     0.049 A 
ATOM     24  H   UNL A   1      40.459  30.267  30.187  1.00  0.00     0.167 HD
ATOM     25  C   UNL A   1      44.420  30.910  28.405  1.00  0.00     0.037 A 
ATOM     26  C   UNL A   1      38.091  31.210  31.193  1.00  0.00     0.037 A 
ATOM     27  C   UNL A   1      44.769  30.756  29.795  1.00  0.00     0.049 A 
ATOM     28  C   UNL A   1      39.350  31.912  31.553  1.00  0.00     0.074 A 
ATOM     29  C   UNL A   1      45.380  29.752  30.524  1.00  0.00     0.029 A 
ATOM     30  N   UNL A   1      44.123  31.540  30.721  1.00  0.00    -0.354 N 
ATOM     31  N   UNL A   1      40.137  31.525  32.521  1.00  0.00    -0.248 NA
ATOM     32  C   UNL A   1      39.975  32.727  30.522  1.00  0.00     0.031 C 
ATOM     33  C   UNL A   1      44.640  29.686  31.744  1.00  0.00     0.029 A 
ATOM     34  C   UNL A   1      43.686  30.705  31.720  1.00  0.00     0.049 A 
ATOM     35  H   UNL A   1      43.997  32.515  30.676  1.00  0.00     0.167 HD
ATOM     36  C   UNL A   1      41.419  31.679  32.015  1.00  0.00     0.074 A 
ATOM     37  C   UNL A   1      41.257  32.482  30.803  1.00  0.00     0.031 C 
ATOM     38  C   UNL A   1      42.456  30.905  32.452  1.00  0.00     0.037 A 
BRANCH  25  39
ATOM     39  C   UNL A   1      44.703  32.177  27.643  1.00  0.00     0.064 A 
ATOM     40  C   UNL A   1      45.909  32.300  26.924  1.00  0.00     0.173 A 
ATOM     41  C   UNL A   1      43.979  33.375  27.830  1.00  0.00     0.173 A 
ATOM     42  F   UNL A   1      46.688  31.229  26.707  1.00  0.00    -0.203 F 
ATOM     43  C   UNL A   1      46.387  33.540  26.492  1.00  0.00     0.198 A 
ATOM     44  C   UNL A   1      44.433  34.601  27.350  1.00  0.00     0.198 A 
ATOM     45  F   UNL A   1      42.871  33.423  28.578  1.00  0.00    -0.203 F 
ATOM     46  F   UNL A   1      47.595  33.626  25.920  1.00  0.00    -0.200 F 
ATOM     47  C   UNL A   1      45.650  34.691  26.709  1.00  0.00     0.200 A 
ATOM     48  F   UNL A   1      43.714  35.708  27.591  1.00  0.00    -0.200 F 
ATOM     49  F   UNL A   1      46.133  35.887  26.349  1.00  0.00    -0.200 F 
ENDBRANCH  25  39
BRANCH  26  50
ATOM     50  C   UNL A   1      36.802  31.911  30.980  1.00  0.00     0.064 A 
ATOM     51  C   UNL A   1      35.912  32.111  32.048  1.00  0.00     0.173 A 
ATOM     52  C   UNL A   1      36.550  32.651  29.807  1.00  0.00     0.173 A 
ATOM     53  F   UNL A   1      36.102  31.472  33.210  1.00  0.00    -0.203 F 
ATOM     54  C   UNL A   1      34.860  33.030  31.962  1.00  0.00     0.198 A 
ATOM     55  C   UNL A   1      35.498  33.564  29.722  1.00  0.00     0.198 A 
ATOM     56  F   UNL A   1      37.377  32.576  28.754  1.00  0.00    -0.203 F 
ATOM     57  F   UNL A   1      34.076  33.246  33.027  1.00  0.00    -0.200 F 
ATOM     58  C   UNL A   1      34.664  33.766  30.806  1.00  0.00     0.200 A 
ATOM     59  F   UNL A   1      35.340  34.296  28.610  1.00  0.00    -0.200 F 
ATOM     60  F   UNL A   1      33.702  34.698  30.750  1.00  0.00    -0.200 F 
ENDBRANCH  26  50
BRANCH  38  61
ATOM     61  C   UNL A   1      42.232  30.018  33.648  1.00  0.00     0.064 A 
ATOM     62  C   UNL A   1      41.792  28.684  33.571  1.00  0.00     0.173 A 
ATOM     63  C   UNL A   1      42.647  30.480  34.904  1.00  0.00     0.173 A 
ATOM     64  F   UNL A   1      41.467  28.130  32.398  1.00  0.00    -0.203 F 
ATOM     65  C   UNL A   1      41.743  27.867  34.702  1.00  0.00     0.198 A 
ATOM     66  C   UNL A   1      42.631  29.653  36.025  1.00  0.00     0.198 A 
ATOM     67  F   UNL A   1      43.129  31.727  35.033  1.00  0.00    -0.203 F 
ATOM     68  F   UNL A   1      41.318  26.598  34.598  1.00  0.00    -0.200 F 
ATOM     69  C   UNL A   1      42.172  28.351  35.926  1.00  0.00     0.200 A 
ATOM     70  F   UNL A   1      43.093  30.112  37.197  1.00  0.00    -0.200 F 
ATOM     71  F   UNL A   1      42.170  27.553  37.003  1.00  0.00    -0.200 F 
ENDBRANCH  38  61
ENDBRANCH  12  13
ENDBRANCH   5   7
ENDBRANCH   2   3
ENDBRANCH   1   2
BRANCH   1  72
ATOM     72  C   UNL A   1      42.711  25.364  24.968  1.00  0.00     0.023 C 
BRANCH  72  73
ATOM     73  C   UNL A   1      43.650  26.509  25.355  1.00  0.00     0.116 C 
BRANCH  73  74
ATOM     74  N   UNL A   1      45.017  26.297  24.915  1.00  0.00    -0.356 N 
ATOM     75  C   UNL A   1      46.117  25.694  25.430  1.00  0.00     0.224 C 
ATOM     76  H   UNL A   1      45.187  26.687  24.028  1.00  0.00     0.163 HD
ATOM     77  O   UNL A   1      47.096  25.686  24.670  1.00  0.00    -0.275 OA
BRANCH  75  78
ATOM     78  C   UNL A   1      46.266  25.116  26.852  1.00  0.00     0.095 C 
ATOM     79  C   UNL A   1      47.688  24.850  27.360  1.00  0.00     0.041 C 
ATOM     80  C   UNL A   1      45.535  26.087  27.844  1.00  0.00     0.092 C 
ATOM     81  C   UNL A   1      48.433  26.123  27.640  1.00  0.00    -0.030 C 
ATOM     82  C   UNL A   1      46.302  27.435  27.887  1.00  0.00     0.041 C 
ATOM     83  C   UNL A   1      47.806  27.290  27.850  1.00  0.00    -0.030 C 
BRANCH  80  84
ATOM     84  C   UNL A   1      45.407  25.517  29.238  1.00  0.00     0.199 A 
ATOM     85  N   UNL A   1      44.995  24.317  29.613  1.00  0.00    -0.213 NA
ATOM     86  O   UNL A   1      45.616  26.383  30.281  1.00  0.00    -0.440 OA
ATOM     87  C   UNL A   1      44.759  24.458  30.962  1.00  0.00     0.111 A 
ATOM     88  C   UNL A   1      45.099  25.739  31.358  1.00  0.00     0.154 A 
ATOM     89  C   UNL A   1      44.218  23.581  31.909  1.00  0.00     0.053 A 
ATOM     90  C   UNL A   1      44.890  26.274  32.622  1.00  0.00     0.051 A 
ATOM     91  C   UNL A   1      43.990  24.084  33.200  1.00  0.00     0.043 A 
ATOM     92  C   UNL A   1      44.299  25.406  33.546  1.00  0.00     0.024 A 
ATOM     93  Cl  UNL A   1      43.287  23.055  34.390  1.00  0.00    -0.084 Cl
ENDBRANCH  80  84
ENDBRANCH  75  78
ENDBRANCH  73  74
ENDBRANCH  72  73
ENDBRANCH   1  72
TORSDOF 12
ENDMDL
MODEL 2
REMARK VINA RESULT:     -11.5      3.798      6.682
REMARK SMILES O=C(NCCCCNC(=O)[C@H]1CC=CC[C@@H]1c1nc2cc(Cl)ccc2o1)c1ccc(-c2c3nc(c(-c4c(F)c(F)c(F)c(F)c4F)c4ccc([nH]4)c(-c4c(F)c(F)c(F)c(F)c4F)c4nc(c(-c5c(F)c(F)c(F)c(F)c5F)c5ccc2[nH]5)C=C4)C=C3)cc1
REMARK SMILES IDX 5 1 4 2 3 3 1 4 2 5 27 7 28 8 89 9 29 10 88 11 30 12 31 13
REMARK SMILES IDX 32 14 82 15 33 16 87 17 81 18 83 19 34 20 86 21 80 22 79 23
REMARK SMILES IDX 35 25 67 26 47 27 66 28 48 29 51 30 65 31 84 32 49 33 50 34
REMARK SMILES IDX 64 36 85 37 52 38 36 39 37 40 45 41 38 42 39 43 43 44 46 45
REMARK SMILES IDX 40 46 41 47 44 48 42 49 68 50 69 51 77 52 70 53 71 54 75 55
REMARK SMILES IDX 78 56 72 57 73 58 76 59 74 60 53 61 54 62 62 63 55 64 56 65
REMARK SMILES IDX 60 66 63 67 57 68 58 69 61 70 59 71 6 72 7 73 8 74 9 75
REMARK SMILES IDX 10 77 11 78 12 79 16 80 13 81 15 82 14 83 17 84 18 85 26 86
REMARK SMILES IDX 19 87 25 88 20 89 24 90 21 91 23 92 22 93
REMARK H PARENT 3 6 83 24 51 35 8 76
REMARK Flexibility Score: inf
ROOT
ATOM      1  C   UNL A   1      37.384  22.340  24.955  1.00  0.00     0.023 C 
ENDROOT
BRANCH   1   2
ATOM      2  C   UNL A   1      38.307  22.781  26.091  1.00  0.00     0.116 C 
BRANCH   2   3
ATOM      3  N   UNL A   1      39.655  22.199  26.046  1.00  0.00    -0.352 N 
ATOM      4  O   UNL A   1      41.927  22.424  25.888  1.00  0.00    -0.269 OA
ATOM      5  C   UNL A   1      40.868  22.838  26.307  1.00  0.00     0.251 C 
ATOM      6  H   UNL A   1      39.709  21.247  25.804  1.00  0.00     0.163 HD
BRANCH   5   7
ATOM      7  C   UNL A   1      40.813  24.030  27.172  1.00  0.00     0.039 A 
ATOM      8  C   UNL A   1      41.794  24.360  28.108  1.00  0.00     0.014 A 
ATOM      9  C   UNL A   1      39.779  24.901  26.877  1.00  0.00     0.014 A 
ATOM     10  C   UNL A   1      41.761  25.636  28.672  1.00  0.00     0.010 A 
ATOM     11  C   UNL A   1      39.937  26.215  27.196  1.00  0.00     0.010 A 
ATOM     12  C   UNL A   1      40.834  26.575  28.187  1.00  0.00    -0.014 A 
BRANCH  12  13
ATOM     13  C   UNL A   1      40.780  27.955  28.658  1.00  0.00     0.031 A 
ATOM     14  C   UNL A   1      41.841  28.855  28.137  1.00  0.00     0.074 A 
ATOM     15  C   UNL A   1      39.752  28.431  29.402  1.00  0.00     0.049 A 
ATOM     16  N   UNL A   1      42.816  29.374  28.806  1.00  0.00    -0.248 NA
ATOM     17  C   UNL A   1      41.907  29.115  26.691  1.00  0.00     0.031 C 
ATOM     18  C   UNL A   1      38.486  27.789  29.790  1.00  0.00     0.029 A 
ATOM     19  N   UNL A   1      39.604  29.676  29.922  1.00  0.00    -0.354 N 
ATOM     20  C   UNL A   1      43.528  30.166  27.913  1.00  0.00     0.074 A 
ATOM     21  C   UNL A   1      43.016  29.855  26.602  1.00  0.00     0.031 C 
ATOM     22  C   UNL A   1      37.616  28.714  30.248  1.00  0.00     0.029 A 
ATOM     23  C   UNL A   1      38.330  29.963  30.393  1.00  0.00     0.049 A 
ATOM     24  H   UNL A   1      40.344  30.325  29.963  1.00  0.00     0.167 HD
ATOM     25  C   UNL A   1      44.344  31.162  28.358  1.00  0.00     0.037 A 
ATOM     26  C   UNL A   1      37.896  31.151  30.877  1.00  0.00     0.037 A 
ATOM     27  C   UNL A   1      44.641  31.005  29.760  1.00  0.00     0.049 A 
ATOM     28  C   UNL A   1      39.106  31.903  31.298  1.00  0.00     0.074 A 
ATOM     29  C   UNL A   1      45.263  30.020  30.504  1.00  0.00     0.029 A 
ATOM     30  N   UNL A   1      43.923  31.749  30.666  1.00  0.00    -0.354 N 
ATOM     31  N   UNL A   1      39.868  31.537  32.294  1.00  0.00    -0.248 NA
ATOM     32  C   UNL A   1      39.738  32.757  30.304  1.00  0.00     0.031 C 
ATOM     33  C   UNL A   1      44.477  29.906  31.690  1.00  0.00     0.029 A 
ATOM     34  C   UNL A   1      43.481  30.882  31.636  1.00  0.00     0.049 A 
ATOM     35  H   UNL A   1      43.756  32.718  30.627  1.00  0.00     0.167 HD
ATOM     36  C   UNL A   1      41.163  31.754  31.845  1.00  0.00     0.074 A 
ATOM     37  C   UNL A   1      41.017  32.564  30.636  1.00  0.00     0.031 C 
ATOM     38  C   UNL A   1      42.213  31.019  32.317  1.00  0.00     0.037 A 
BRANCH  25  39
ATOM     39  C   UNL A   1      44.603  32.450  27.623  1.00  0.00     0.064 A 
ATOM     40  C   UNL A   1      45.786  32.593  26.870  1.00  0.00     0.173 A 
ATOM     41  C   UNL A   1      43.887  33.641  27.866  1.00  0.00     0.173 A 
ATOM     42  F   UNL A   1      46.556  31.529  26.597  1.00  0.00    -0.203 F 
ATOM     43  C   UNL A   1      46.250  33.845  26.456  1.00  0.00     0.198 A 
ATOM     44  C   UNL A   1      44.325  34.881  27.406  1.00  0.00     0.198 A 
ATOM     45  F   UNL A   1      42.802  33.669  28.651  1.00  0.00    -0.203 F 
ATOM     46  F   UNL A   1      47.439  33.947  25.848  1.00  0.00    -0.200 F 
ATOM     47  C   UNL A   1      45.521  34.989  26.729  1.00  0.00     0.200 A 
ATOM     48  F   UNL A   1      43.615  35.980  27.700  1.00  0.00    -0.200 F 
ATOM     49  F   UNL A   1      45.993  36.195  26.387  1.00  0.00    -0.200 F 
ENDBRANCH  25  39
BRANCH  26  50
ATOM     50  C   UNL A   1      36.588  31.798  30.617  1.00  0.00     0.064 A 
ATOM     51  C   UNL A   1      35.782  32.234  31.680  1.00  0.00     0.173 A 
ATOM     52  C   UNL A   1      36.238  32.265  29.333  1.00  0.00     0.173 A 
ATOM     53  F   UNL A   1      36.068  31.864  32.937  1.00  0.00    -0.203 F 
ATOM     54  C   UNL A   1      34.718  33.120  31.478  1.00  0.00     0.198 A 
ATOM     55  C   UNL A   1      35.174  33.145  29.132  1.00  0.00     0.198 A 
ATOM     56  F   UNL A   1      36.981  31.955  28.261  1.00  0.00    -0.203 F 
ATOM     57  F   UNL A   1      34.016  33.570  32.528  1.00  0.00    -0.200 F 
ATOM     58  C   UNL A   1      34.425  33.586  30.207  1.00  0.00     0.200 A 
ATOM     59  F   UNL A   1      34.923  33.617  27.903  1.00  0.00    -0.200 F 
ATOM     60  F   UNL A   1      33.452  34.491  30.024  1.00  0.00    -0.200 F 
ENDBRANCH  26  50
BRANCH  38  61
ATOM     61  C   UNL A   1      41.979  30.108  33.493  1.00  0.00     0.064 A 
ATOM     62  C   UNL A   1      41.608  28.756  33.383  1.00  0.00     0.173 A 
ATOM     63  C   UNL A   1      42.313  30.575  34.772  1.00  0.00     0.173 A 
ATOM     64  F   UNL A   1      41.364  28.201  32.191  1.00  0.00    -0.203 F 
ATOM     65  C   UNL A   1      41.547  27.924  34.501  1.00  0.00     0.198 A 
ATOM     66  C   UNL A   1      42.285  29.735  35.882  1.00  0.00     0.198 A 
ATOM     67  F   UNL A   1      42.727  31.842  34.935  1.00  0.00    -0.203 F 
ATOM     68  F   UNL A   1      41.190  26.637  34.366  1.00  0.00    -0.200 F 
ATOM     69  C   UNL A   1      41.895  28.413  35.749  1.00  0.00     0.200 A 
ATOM     70  F   UNL A   1      42.670  30.201  37.078  1.00  0.00    -0.200 F 
ATOM     71  F   UNL A   1      41.883  27.603  36.817  1.00  0.00    -0.200 F 
ENDBRANCH  38  61
ENDBRANCH  12  13
ENDBRANCH   5   7
ENDBRANCH   2   3
ENDBRANCH   1   2
BRANCH   1  72
ATOM     72  C   UNL A   1      36.195  21.461  25.370  1.00  0.00     0.023 C 
BRANCH  72  73
ATOM     73  C   UNL A   1      34.826  22.135  25.255  1.00  0.00     0.116 C 
BRANCH  73  74
ATOM     74  N   UNL A   1      34.436  22.400  23.882  1.00  0.00    -0.356 N 
ATOM     75  C   UNL A   1      34.128  23.507  23.159  1.00  0.00     0.224 C 
ATOM     76  H   UNL A   1      34.380  21.578  23.345  1.00  0.00     0.163 HD
ATOM     77  O   UNL A   1      33.906  23.285  21.961  1.00  0.00    -0.275 OA
BRANCH  75  78
ATOM     78  C   UNL A   1      33.961  24.940  23.702  1.00  0.00     0.095 C 
ATOM     79  C   UNL A   1      33.620  26.042  22.692  1.00  0.00     0.041 C 
ATOM     80  C   UNL A   1      32.861  24.905  24.821  1.00  0.00     0.092 C 
ATOM     81  C   UNL A   1      32.216  25.915  22.174  1.00  0.00    -0.030 C 
ATOM     82  C   UNL A   1      31.492  24.570  24.172  1.00  0.00     0.041 C 
ATOM     83  C   UNL A   1      31.269  25.229  22.830  1.00  0.00    -0.030 C 
BRANCH  80  84
ATOM     84  C   UNL A   1      32.766  26.200  25.594  1.00  0.00     0.199 A 
ATOM     85  N   UNL A   1      31.749  27.042  25.687  1.00  0.00    -0.213 NA
ATOM     86  O   UNL A   1      33.919  26.656  26.180  1.00  0.00    -0.440 OA
ATOM     87  C   UNL A   1      32.313  28.181  26.215  1.00  0.00     0.111 A 
ATOM     88  C   UNL A   1      33.653  27.954  26.474  1.00  0.00     0.154 A 
ATOM     89  C   UNL A   1      31.785  29.454  26.461  1.00  0.00     0.053 A 
ATOM     90  C   UNL A   1      34.564  28.910  26.905  1.00  0.00     0.051 A 
ATOM     91  C   UNL A   1      32.674  30.449  26.897  1.00  0.00     0.043 A 
ATOM     92  C   UNL A   1      34.037  30.191  27.096  1.00  0.00     0.024 A 
ATOM     93  Cl  UNL A   1      32.080  32.043  27.173  1.00  0.00    -0.084 Cl
ENDBRANCH  80  84
ENDBRANCH  75  78
ENDBRANCH  73  74
ENDBRANCH  72  73
ENDBRANCH   1  72
TORSDOF 12
ENDMDL
MODEL 3
REMARK VINA RESULT:     -11.4      5.007     10.771
REMARK SMILES O=C(NCCCCNC(=O)[C@H]1CC=CC[C@@H]1c1nc2cc(Cl)ccc2o1)c1ccc(-c2c3nc(c(-c4c(F)c(F)c(F)c(F)c4F)c4ccc([nH]4)c(-c4c(F)c(F)c(F)c(F)c4F)c4nc(c(-c5c(F)c(F)c(F)c(F)c5F)c5ccc2[nH]5)C=C4)C=C3)cc1
REMARK SMILES IDX 5 1 4 2 3 3 1 4 2 5 27 7 28 8 89 9 29 10 88 11 30 12 31 13
REMARK SMILES IDX 32 14 82 15 33 16 87 17 81 18 83 19 34 20 86 21 80 22 79 23
REMARK SMILES IDX 35 25 67 26 47 27 66 28 48 29 51 30 65 31 84 32 49 33 50 34
REMARK SMILES IDX 64 36 85 37 52 38 36 39 37 40 45 41 38 42 39 43 43 44 46 45
REMARK SMILES IDX 40 46 41 47 44 48 42 49 68 50 69 51 77 52 70 53 71 54 75 55
REMARK SMILES IDX 78 56 72 57 73 58 76 59 74 60 53 61 54 62 62 63 55 64 56 65
REMARK SMILES IDX 60 66 63 67 57 68 58 69 61 70 59 71 6 72 7 73 8 74 9 75
REMARK SMILES IDX 10 77 11 78 12 79 16 80 13 81 15 82 14 83 17 84 18 85 26 86
REMARK SMILES IDX 19 87 25 88 20 89 24 90 21 91 23 92 22 93
REMARK H PARENT 3 6 83 24 51 35 8 76
REMARK Flexibility Score: inf
ROOT
ATOM      1  C   UNL A   1      33.342  30.869  27.338  1.00  0.00     0.023 C 
ENDROOT
BRANCH   1   2
ATOM      2  C   UNL A   1      34.519  31.788  27.663  1.00  0.00     0.116 C 
BRANCH   2   3
ATOM      3  N   UNL A   1      34.503  32.345  29.023  1.00  0.00    -0.352 N 
ATOM      4  O   UNL A   1      34.959  32.177  31.259  1.00  0.00    -0.269 OA
ATOM      5  C   UNL A   1      35.283  31.955  30.113  1.00  0.00     0.251 C 
ATOM      6  H   UNL A   1      33.867  33.079  29.183  1.00  0.00     0.163 HD
BRANCH   5   7
ATOM      7  C   UNL A   1      36.564  31.297  29.804  1.00  0.00     0.039 A 
ATOM      8  C   UNL A   1      37.782  31.971  29.700  1.00  0.00     0.014 A 
ATOM      9  C   UNL A   1      36.503  29.915  29.779  1.00  0.00     0.014 A 
ATOM     10  C   UNL A   1      38.952  31.211  29.666  1.00  0.00     0.010 A 
ATOM     11  C   UNL A   1      37.641  29.218  30.050  1.00  0.00     0.010 A 
ATOM     12  C   UNL A   1      38.873  29.823  29.869  1.00  0.00    -0.014 A 
BRANCH  12  13
ATOM     13  C   UNL A   1      40.048  28.960  29.931  1.00  0.00     0.031 A 
ATOM     14  C   UNL A   1      40.597  28.718  31.291  1.00  0.00     0.074 A 
ATOM     15  C   UNL A   1      40.527  28.302  28.848  1.00  0.00     0.049 A 
ATOM     16  N   UNL A   1      41.720  29.147  31.763  1.00  0.00    -0.248 NA
ATOM     17  C   UNL A   1      39.759  28.026  32.283  1.00  0.00     0.031 C 
ATOM     18  C   UNL A   1      39.977  28.189  27.487  1.00  0.00     0.029 A 
ATOM     19  N   UNL A   1      41.621  27.502  28.774  1.00  0.00    -0.354 N 
ATOM     20  C   UNL A   1      41.821  28.644  33.054  1.00  0.00     0.074 A 
ATOM     21  C   UNL A   1      40.530  28.088  33.373  1.00  0.00     0.031 C 
ATOM     22  C   UNL A   1      40.586  27.186  26.820  1.00  0.00     0.029 A 
ATOM     23  C   UNL A   1      41.706  26.737  27.617  1.00  0.00     0.049 A 
ATOM     24  H   UNL A   1      42.302  27.467  29.484  1.00  0.00     0.167 HD
ATOM     25  C   UNL A   1      43.029  28.551  33.676  1.00  0.00     0.037 A 
ATOM     26  C   UNL A   1      42.644  25.803  27.334  1.00  0.00     0.037 A 
ATOM     27  C   UNL A   1      44.021  29.358  33.011  1.00  0.00     0.049 A 
ATOM     28  C   UNL A   1      43.815  26.105  28.197  1.00  0.00     0.074 A 
ATOM     29  C   UNL A   1      44.140  30.711  32.753  1.00  0.00     0.029 A 
ATOM     30  N   UNL A   1      44.884  28.741  32.137  1.00  0.00    -0.354 N 
ATOM     31  N   UNL A   1      44.546  27.179  28.065  1.00  0.00    -0.248 NA
ATOM     32  C   UNL A   1      43.857  25.472  29.507  1.00  0.00     0.031 C 
ATOM     33  C   UNL A   1      44.644  30.785  31.420  1.00  0.00     0.029 A 
ATOM     34  C   UNL A   1      44.882  29.482  30.980  1.00  0.00     0.049 A 
ATOM     35  H   UNL A   1      45.405  27.924  32.307  1.00  0.00     0.167 HD
ATOM     36  C   UNL A   1      44.797  27.596  29.365  1.00  0.00     0.074 A 
ATOM     37  C   UNL A   1      44.400  26.470  30.210  1.00  0.00     0.031 C 
ATOM     38  C   UNL A   1      45.024  28.910  29.660  1.00  0.00     0.037 A 
BRANCH  25  39
ATOM     39  C   UNL A   1      43.400  27.485  34.673  1.00  0.00     0.064 A 
ATOM     40  C   UNL A   1      43.693  27.850  36.003  1.00  0.00     0.173 A 
ATOM     41  C   UNL A   1      43.762  26.171  34.307  1.00  0.00     0.173 A 
ATOM     42  F   UNL A   1      43.411  29.082  36.451  1.00  0.00    -0.203 F 
ATOM     43  C   UNL A   1      44.364  26.987  36.873  1.00  0.00     0.198 A 
ATOM     44  C   UNL A   1      44.383  25.295  35.195  1.00  0.00     0.198 A 
ATOM     45  F   UNL A   1      43.635  25.724  33.052  1.00  0.00    -0.203 F 
ATOM     46  F   UNL A   1      44.730  27.418  38.088  1.00  0.00    -0.200 F 
ATOM     47  C   UNL A   1      44.712  25.711  36.467  1.00  0.00     0.200 A 
ATOM     48  F   UNL A   1      44.731  24.070  34.775  1.00  0.00    -0.200 F 
ATOM     49  F   UNL A   1      45.407  24.904  37.279  1.00  0.00    -0.200 F 
ENDBRANCH  25  39
BRANCH  26  50
ATOM     50  C   UNL A   1      42.426  24.483  26.693  1.00  0.00     0.064 A 
ATOM     51  C   UNL A   1      43.284  24.032  25.678  1.00  0.00     0.173 A 
ATOM     52  C   UNL A   1      41.562  23.522  27.258  1.00  0.00     0.173 A 
ATOM     53  F   UNL A   1      44.160  24.875  25.113  1.00  0.00    -0.203 F 
ATOM     54  C   UNL A   1      43.309  22.690  25.283  1.00  0.00     0.198 A 
ATOM     55  C   UNL A   1      41.586  22.186  26.860  1.00  0.00     0.198 A 
ATOM     56  F   UNL A   1      40.749  23.841  28.275  1.00  0.00    -0.203 F 
ATOM     57  F   UNL A   1      44.192  22.282  24.361  1.00  0.00    -0.200 F 
ATOM     58  C   UNL A   1      42.471  21.765  25.885  1.00  0.00     0.200 A 
ATOM     59  F   UNL A   1      40.795  21.294  27.475  1.00  0.00    -0.200 F 
ATOM     60  F   UNL A   1      42.546  20.468  25.558  1.00  0.00    -0.200 F 
ENDBRANCH  26  50
BRANCH  38  61
ATOM     61  C   UNL A   1      45.208  29.878  28.522  1.00  0.00     0.064 A 
ATOM     62  C   UNL A   1      44.158  30.584  27.908  1.00  0.00     0.173 A 
ATOM     63  C   UNL A   1      46.513  30.237  28.160  1.00  0.00     0.173 A 
ATOM     64  F   UNL A   1      42.885  30.375  28.262  1.00  0.00    -0.203 F 
ATOM     65  C   UNL A   1      44.404  31.575  26.958  1.00  0.00     0.198 A 
ATOM     66  C   UNL A   1      46.759  31.250  27.237  1.00  0.00     0.198 A 
ATOM     67  F   UNL A   1      47.561  29.638  28.750  1.00  0.00    -0.203 F 
ATOM     68  F   UNL A   1      43.381  32.232  26.388  1.00  0.00    -0.200 F 
ATOM     69  C   UNL A   1      45.706  31.914  26.630  1.00  0.00     0.200 A 
ATOM     70  F   UNL A   1      48.022  31.606  26.961  1.00  0.00    -0.200 F 
ATOM     71  F   UNL A   1      45.946  32.898  25.753  1.00  0.00    -0.200 F 
ENDBRANCH  38  61
ENDBRANCH  12  13
ENDBRANCH   5   7
ENDBRANCH   2   3
ENDBRANCH   1   2
BRANCH   1  72
ATOM     72  C   UNL A   1      33.645  29.725  26.358  1.00  0.00     0.023 C 
BRANCH  72  73
ATOM     73  C   UNL A   1      32.699  29.638  25.159  1.00  0.00     0.116 C 
BRANCH  73  74
ATOM     74  N   UNL A   1      33.390  29.400  23.904  1.00  0.00    -0.356 N 
ATOM     75  C   UNL A   1      33.762  28.304  23.197  1.00  0.00     0.224 C 
ATOM     76  H   UNL A   1      33.654  30.237  23.460  1.00  0.00     0.163 HD
ATOM     77  O   UNL A   1      34.294  28.559  22.107  1.00  0.00    -0.275 OA
BRANCH  75  78
ATOM     78  C   UNL A   1      33.654  26.836  23.655  1.00  0.00     0.095 C 
ATOM     79  C   UNL A   1      32.614  26.508  24.733  1.00  0.00     0.041 C 
ATOM     80  C   UNL A   1      33.380  25.955  22.386  1.00  0.00     0.092 C 
ATOM     81  C   UNL A   1      31.210  26.602  24.208  1.00  0.00    -0.030 C 
ATOM     82  C   UNL A   1      31.971  26.296  21.830  1.00  0.00     0.041 C 
ATOM     83  C   UNL A   1      30.929  26.533  22.898  1.00  0.00    -0.030 C 
BRANCH  80  84
ATOM     84  C   UNL A   1      33.483  24.473  22.664  1.00  0.00     0.199 A 
ATOM     85  N   UNL A   1      32.536  23.549  22.619  1.00  0.00    -0.213 NA
ATOM     86  O   UNL A   1      34.678  24.020  23.161  1.00  0.00    -0.440 OA
ATOM     87  C   UNL A   1      33.093  22.477  23.279  1.00  0.00     0.111 A 
ATOM     88  C   UNL A   1      34.390  22.786  23.649  1.00  0.00     0.154 A 
ATOM     89  C   UNL A   1      32.564  21.235  23.649  1.00  0.00     0.053 A 
ATOM     90  C   UNL A   1      35.217  21.989  24.428  1.00  0.00     0.051 A 
ATOM     91  C   UNL A   1      33.370  20.399  24.439  1.00  0.00     0.043 A 
ATOM     92  C   UNL A   1      34.660  20.774  24.838  1.00  0.00     0.024 A 
ATOM     93  Cl  UNL A   1      32.747  18.877  24.956  1.00  0.00    -0.084 Cl
ENDBRANCH  80  84
ENDBRANCH  75  78
ENDBRANCH  73  74
ENDBRANCH  72  73
ENDBRANCH   1  72
TORSDOF 12
ENDMDL
