MODEL 1
REMARK VINA RESULT:     -13.2      0.000      0.000
REMARK SMILES Cc1cc(Br)cc2c1O[C@H](C(F)(F)F)C(C(=O)NCCCCNC(=O)c1ccc(-c3c4nc(c(-c5c(F)c(F)c(F)c(F)c5F)c5ccc([nH]5)c(-c5c(F)c(F)c(F)c(F)c5F)c5nc(c(-c6c(F)c(F)c(F)c(F)c6F)c6ccc3[nH]6)C=C5)C=C4)cc1)=C2
REMARK SMILES IDX 21 1 20 2 19 3 18 4 16 5 17 6 15 8 1 9 2 10 3 11 8 12 4 13
REMARK SMILES IDX 7 14 9 15 5 16 6 17 89 18 10 19 11 20 12 21 13 22 14 23
REMARK SMILES IDX 22 24 23 25 24 26 25 28 26 29 27 30 88 31 28 32 87 33 29 34
REMARK SMILES IDX 30 35 31 36 81 37 32 38 86 39 80 40 82 41 33 42 85 43 79 44
REMARK SMILES IDX 78 45 34 47 66 48 46 49 65 50 47 51 50 52 64 53 83 54 48 55
REMARK SMILES IDX 49 56 63 58 84 59 51 60 35 61 36 62 44 63 37 64 38 65 42 66
REMARK SMILES IDX 45 67 39 68 40 69 43 70 41 71 67 72 68 73 76 74 69 75 70 76
REMARK SMILES IDX 74 77 77 78 71 79 72 80 75 81 73 82 52 83 53 84 61 85 54 86
REMARK SMILES IDX 55 87 59 88 62 89 56 90 57 91 60 92 58 93
REMARK H PARENT 18 7 23 27 82 46 50 57
REMARK Flexibility Score: inf
ROOT
ATOM      1  C   UNL A   1      31.541  31.958  26.838  1.00  0.00     0.023 C 
ENDROOT
BRANCH   1   2
ATOM      2  C   UNL A   1      31.778  30.448  26.786  1.00  0.00     0.023 C 
BRANCH   2   3
ATOM      3  C   UNL A   1      33.249  30.055  26.694  1.00  0.00     0.116 C 
BRANCH   3   4
ATOM      4  N   UNL A   1      33.630  29.699  25.339  1.00  0.00    -0.352 N 
ATOM      5  C   UNL A   1      33.569  28.599  24.553  1.00  0.00     0.251 C 
ATOM      6  O   UNL A   1      34.030  28.742  23.416  1.00  0.00    -0.270 OA
ATOM      7  H   UNL A   1      34.040  30.460  24.867  1.00  0.00     0.163 HD
BRANCH   5   8
ATOM      8  C   UNL A   1      33.006  27.277  24.961  1.00  0.00     0.067 C 
ATOM      9  C   UNL A   1      30.281  23.328  26.876  1.00  0.00     0.048 C 
ATOM     10  C   UNL A   1      31.646  23.513  26.275  1.00  0.00    -0.007 A 
ATOM     11  C   UNL A   1      32.457  22.389  26.063  1.00  0.00     0.023 A 
ATOM     12  C   UNL A   1      32.118  24.770  25.869  1.00  0.00     0.130 A 
ATOM     13  C   UNL A   1      33.717  22.531  25.482  1.00  0.00     0.019 A 
ATOM     14  C   UNL A   1      33.385  24.914  25.291  1.00  0.00     0.019 A 
ATOM     15  O   UNL A   1      31.313  25.846  26.109  1.00  0.00    -0.475 OA
ATOM     16  Br  UNL A   1      34.801  21.005  25.220  1.00  0.00    -0.051 Br
ATOM     17  C   UNL A   1      34.188  23.786  25.100  1.00  0.00     0.027 A 
ATOM     18  C   UNL A   1      33.865  26.243  24.931  1.00  0.00     0.025 C 
ATOM     19  C   UNL A   1      31.572  27.052  25.345  1.00  0.00     0.314 C 
BRANCH  19  20
ATOM     20  C   UNL A   1      30.615  27.099  24.139  1.00  0.00     0.429 C 
ATOM     21  F   UNL A   1      31.242  26.648  23.023  1.00  0.00    -0.167 F 
ATOM     22  F   UNL A   1      29.527  26.311  24.307  1.00  0.00    -0.167 F 
ATOM     23  F   UNL A   1      30.164  28.344  23.878  1.00  0.00    -0.167 F 
ENDBRANCH  19  20
ENDBRANCH   5   8
ENDBRANCH   3   4
ENDBRANCH   2   3
ENDBRANCH   1   2
BRANCH   1  24
ATOM     24  C   UNL A   1      32.743  32.791  27.279  1.00  0.00     0.116 C 
BRANCH  24  25
ATOM     25  N   UNL A   1      32.406  34.164  27.626  1.00  0.00    -0.352 N 
ATOM     26  C   UNL A   1      32.983  34.965  28.580  1.00  0.00     0.251 C 
ATOM     27  H   UNL A   1      31.671  34.569  27.112  1.00  0.00     0.163 HD
ATOM     28  O   UNL A   1      32.529  36.078  28.826  1.00  0.00    -0.269 OA
BRANCH  26  29
ATOM     29  C   UNL A   1      34.142  34.453  29.333  1.00  0.00     0.039 A 
ATOM     30  C   UNL A   1      33.923  33.803  30.549  1.00  0.00     0.014 A 
ATOM     31  C   UNL A   1      35.430  34.578  28.809  1.00  0.00     0.014 A 
ATOM     32  C   UNL A   1      35.000  33.221  31.217  1.00  0.00     0.010 A 
ATOM     33  C   UNL A   1      36.491  33.946  29.444  1.00  0.00     0.010 A 
ATOM     34  C   UNL A   1      36.284  33.266  30.654  1.00  0.00    -0.014 A 
BRANCH  34  35
ATOM     35  C   UNL A   1      37.447  32.646  31.330  1.00  0.00     0.031 A 
ATOM     36  C   UNL A   1      38.183  31.530  30.648  1.00  0.00     0.074 A 
ATOM     37  C   UNL A   1      37.793  33.034  32.572  1.00  0.00     0.049 A 
ATOM     38  N   UNL A   1      39.127  30.754  31.112  1.00  0.00    -0.248 NA
ATOM     39  C   UNL A   1      37.781  31.231  29.264  1.00  0.00     0.031 C 
ATOM     40  C   UNL A   1      37.142  34.096  33.339  1.00  0.00     0.029 A 
ATOM     41  N   UNL A   1      38.771  32.568  33.411  1.00  0.00    -0.354 N 
ATOM     42  C   UNL A   1      39.418  29.865  30.086  1.00  0.00     0.074 A 
ATOM     43  C   UNL A   1      38.520  30.166  28.993  1.00  0.00     0.031 C 
ATOM     44  C   UNL A   1      37.751  34.213  34.530  1.00  0.00     0.029 A 
ATOM     45  C   UNL A   1      38.805  33.208  34.626  1.00  0.00     0.049 A 
ATOM     46  H   UNL A   1      39.391  31.843  33.167  1.00  0.00     0.167 HD
ATOM     47  C   UNL A   1      40.366  28.900  30.052  1.00  0.00     0.037 A 
ATOM     48  C   UNL A   1      39.592  32.994  35.697  1.00  0.00     0.037 A 
ATOM     49  C   UNL A   1      41.274  28.623  31.133  1.00  0.00     0.049 A 
ATOM     50  C   UNL A   1      40.625  31.900  35.641  1.00  0.00     0.074 A 
ATOM     51  C   UNL A   1      42.288  27.684  31.190  1.00  0.00     0.029 A 
ATOM     52  N   UNL A   1      41.280  29.294  32.347  1.00  0.00    -0.354 N 
ATOM     53  N   UNL A   1      40.902  31.072  34.664  1.00  0.00    -0.248 NA
ATOM     54  C   UNL A   1      41.454  31.713  36.840  1.00  0.00     0.031 C 
ATOM     55  C   UNL A   1      42.887  27.765  32.451  1.00  0.00     0.029 A 
ATOM     56  C   UNL A   1      42.275  28.783  33.165  1.00  0.00     0.049 A 
ATOM     57  H   UNL A   1      40.668  30.025  32.592  1.00  0.00     0.167 HD
ATOM     58  C   UNL A   1      41.943  30.277  35.120  1.00  0.00     0.074 A 
ATOM     59  C   UNL A   1      42.265  30.736  36.456  1.00  0.00     0.031 C 
ATOM     60  C   UNL A   1      42.576  29.255  34.492  1.00  0.00     0.037 A 
BRANCH  47  61
ATOM     61  C   UNL A   1      40.473  28.080  28.802  1.00  0.00     0.064 A 
ATOM     62  C   UNL A   1      41.272  28.492  27.724  1.00  0.00     0.173 A 
ATOM     63  C   UNL A   1      39.794  26.858  28.688  1.00  0.00     0.173 A 
ATOM     64  F   UNL A   1      41.926  29.662  27.776  1.00  0.00    -0.203 F 
ATOM     65  C   UNL A   1      41.372  27.719  26.571  1.00  0.00     0.198 A 
ATOM     66  C   UNL A   1      39.919  26.074  27.543  1.00  0.00     0.198 A 
ATOM     67  F   UNL A   1      39.017  26.420  29.689  1.00  0.00    -0.203 F 
ATOM     68  F   UNL A   1      42.106  28.154  25.537  1.00  0.00    -0.200 F 
ATOM     69  C   UNL A   1      40.702  26.508  26.484  1.00  0.00     0.200 A 
ATOM     70  F   UNL A   1      39.278  24.900  27.465  1.00  0.00    -0.200 F 
ATOM     71  F   UNL A   1      40.806  25.761  25.376  1.00  0.00    -0.200 F 
ENDBRANCH  47  61
BRANCH  48  72
ATOM     72  C   UNL A   1      39.451  33.849  36.902  1.00  0.00     0.064 A 
ATOM     73  C   UNL A   1      40.080  35.100  36.968  1.00  0.00     0.173 A 
ATOM     74  C   UNL A   1      38.684  33.445  38.004  1.00  0.00     0.173 A 
ATOM     75  F   UNL A   1      40.842  35.519  35.948  1.00  0.00    -0.203 F 
ATOM     76  C   UNL A   1      39.956  35.910  38.095  1.00  0.00     0.198 A 
ATOM     77  C   UNL A   1      38.541  34.266  39.121  1.00  0.00     0.198 A 
ATOM     78  F   UNL A   1      38.060  32.258  37.990  1.00  0.00    -0.203 F 
ATOM     79  F   UNL A   1      40.597  37.086  38.145  1.00  0.00    -0.200 F 
ATOM     80  C   UNL A   1      39.182  35.496  39.167  1.00  0.00     0.200 A 
ATOM     81  F   UNL A   1      37.782  33.868  40.151  1.00  0.00    -0.200 F 
ATOM     82  F   UNL A   1      39.057  36.278  40.248  1.00  0.00    -0.200 F 
ENDBRANCH  48  72
BRANCH  60  83
ATOM     83  C   UNL A   1      43.686  28.575  35.237  1.00  0.00     0.064 A 
ATOM     84  C   UNL A   1      43.445  27.460  36.051  1.00  0.00     0.173 A 
ATOM     85  C   UNL A   1      45.011  29.016  35.096  1.00  0.00     0.173 A 
ATOM     86  F   UNL A   1      42.194  27.011  36.228  1.00  0.00    -0.203 F 
ATOM     87  C   UNL A   1      44.489  26.825  36.719  1.00  0.00     0.198 A 
ATOM     88  C   UNL A   1      46.055  28.361  35.743  1.00  0.00     0.198 A 
ATOM     89  F   UNL A   1      45.293  30.074  34.321  1.00  0.00    -0.203 F 
ATOM     90  F   UNL A   1      44.231  25.788  37.528  1.00  0.00    -0.200 F 
ATOM     91  C   UNL A   1      45.792  27.271  36.558  1.00  0.00     0.200 A 
ATOM     92  F   UNL A   1      47.315  28.785  35.575  1.00  0.00    -0.200 F 
ATOM     93  F   UNL A   1      46.796  26.653  37.195  1.00  0.00    -0.200 F 
ENDBRANCH  60  83
ENDBRANCH  34  35
ENDBRANCH  26  29
ENDBRANCH  24  25
ENDBRANCH   1  24
TORSDOF 12
ENDMDL
MODEL 2
REMARK VINA RESULT:     -13.2      0.067      1.638
REMARK SMILES Cc1cc(Br)cc2c1O[C@H](C(F)(F)F)C(C(=O)NCCCCNC(=O)c1ccc(-c3c4nc(c(-c5c(F)c(F)c(F)c(F)c5F)c5ccc([nH]5)c(-c5c(F)c(F)c(F)c(F)c5F)c5nc(c(-c6c(F)c(F)c(F)c(F)c6F)c6ccc3[nH]6)C=C5)C=C4)cc1)=C2
REMARK SMILES IDX 21 1 20 2 19 3 18 4 16 5 17 6 15 8 1 9 2 10 3 11 8 12 4 13
REMARK SMILES IDX 7 14 9 15 5 16 6 17 89 18 10 19 11 20 12 21 13 22 14 23
REMARK SMILES IDX 22 24 23 25 24 26 25 28 26 29 27 30 88 31 28 32 87 33 29 34
REMARK SMILES IDX 30 35 31 36 81 37 32 38 86 39 80 40 82 41 33 42 85 43 79 44
REMARK SMILES IDX 78 45 34 47 66 48 46 49 65 50 47 51 50 52 64 53 83 54 48 55
REMARK SMILES IDX 49 56 63 58 84 59 51 60 35 61 36 62 44 63 37 64 38 65 42 66
REMARK SMILES IDX 45 67 39 68 40 69 43 70 41 71 67 72 68 73 76 74 69 75 70 76
REMARK SMILES IDX 74 77 77 78 71 79 72 80 75 81 73 82 52 83 53 84 61 85 54 86
REMARK SMILES IDX 55 87 59 88 62 89 56 90 57 91 60 92 58 93
REMARK H PARENT 18 7 23 27 82 46 50 57
REMARK Flexibility Score: inf
ROOT
ATOM      1  C   UNL A   1      31.572  31.966  26.817  1.00  0.00     0.023 C 
ENDROOT
BRANCH   1   2
ATOM      2  C   UNL A   1      31.778  30.451  26.876  1.00  0.00     0.023 C 
BRANCH   2   3
ATOM      3  C   UNL A   1      33.239  30.021  26.788  1.00  0.00     0.116 C 
BRANCH   3   4
ATOM      4  N   UNL A   1      33.623  29.685  25.430  1.00  0.00    -0.352 N 
ATOM      5  C   UNL A   1      33.564  28.596  24.627  1.00  0.00     0.251 C 
ATOM      6  O   UNL A   1      34.027  28.755  23.493  1.00  0.00    -0.270 OA
ATOM      7  H   UNL A   1      34.034  30.452  24.969  1.00  0.00     0.163 HD
BRANCH   5   8
ATOM      8  C   UNL A   1      33.000  27.269  25.015  1.00  0.00     0.067 C 
ATOM      9  C   UNL A   1      30.278  23.292  26.876  1.00  0.00     0.048 C 
ATOM     10  C   UNL A   1      31.639  23.484  26.269  1.00  0.00    -0.007 A 
ATOM     11  C   UNL A   1      32.445  22.362  26.031  1.00  0.00     0.023 A 
ATOM     12  C   UNL A   1      32.111  24.747  25.882  1.00  0.00     0.130 A 
ATOM     13  C   UNL A   1      33.702  22.512  25.444  1.00  0.00     0.019 A 
ATOM     14  C   UNL A   1      33.375  24.898  25.299  1.00  0.00     0.019 A 
ATOM     15  O   UNL A   1      31.311  25.821  26.148  1.00  0.00    -0.475 OA
ATOM     16  Br  UNL A   1      34.780  20.987  25.146  1.00  0.00    -0.051 Br
ATOM     17  C   UNL A   1      34.173  23.772  25.081  1.00  0.00     0.027 A 
ATOM     18  C   UNL A   1      33.856  26.233  24.960  1.00  0.00     0.025 C 
ATOM     19  C   UNL A   1      31.568  27.040  25.405  1.00  0.00     0.314 C 
BRANCH  19  20
ATOM     20  C   UNL A   1      30.603  27.111  24.207  1.00  0.00     0.429 C 
ATOM     21  F   UNL A   1      30.336  28.405  23.894  1.00  0.00    -0.167 F 
ATOM     22  F   UNL A   1      31.120  26.550  23.088  1.00  0.00    -0.167 F 
ATOM     23  F   UNL A   1      29.424  26.499  24.447  1.00  0.00    -0.167 F 
ENDBRANCH  19  20
ENDBRANCH   5   8
ENDBRANCH   3   4
ENDBRANCH   2   3
ENDBRANCH   1   2
BRANCH   1  24
ATOM     24  C   UNL A   1      32.769  32.803  27.263  1.00  0.00     0.116 C 
BRANCH  24  25
ATOM     25  N   UNL A   1      32.422  34.170  27.626  1.00  0.00    -0.352 N 
ATOM     26  C   UNL A   1      32.990  34.962  28.593  1.00  0.00     0.251 C 
ATOM     27  H   UNL A   1      31.686  34.577  27.114  1.00  0.00     0.163 HD
ATOM     28  O   UNL A   1      32.528  36.069  28.850  1.00  0.00    -0.269 OA
BRANCH  26  29
ATOM     29  C   UNL A   1      34.149  34.447  29.343  1.00  0.00     0.039 A 
ATOM     30  C   UNL A   1      33.929  33.776  30.547  1.00  0.00     0.014 A 
ATOM     31  C   UNL A   1      35.440  34.593  28.829  1.00  0.00     0.014 A 
ATOM     32  C   UNL A   1      35.007  33.192  31.213  1.00  0.00     0.010 A 
ATOM     33  C   UNL A   1      36.502  33.960  29.461  1.00  0.00     0.010 A 
ATOM     34  C   UNL A   1      36.294  33.258  30.658  1.00  0.00    -0.014 A 
BRANCH  34  35
ATOM     35  C   UNL A   1      37.458  32.637  31.331  1.00  0.00     0.031 A 
ATOM     36  C   UNL A   1      38.189  31.518  30.648  1.00  0.00     0.074 A 
ATOM     37  C   UNL A   1      37.809  33.027  32.571  1.00  0.00     0.049 A 
ATOM     38  N   UNL A   1      39.134  30.741  31.109  1.00  0.00    -0.248 NA
ATOM     39  C   UNL A   1      37.782  31.217  29.266  1.00  0.00     0.031 C 
ATOM     40  C   UNL A   1      37.163  34.091  33.338  1.00  0.00     0.029 A 
ATOM     41  N   UNL A   1      38.790  32.560  33.407  1.00  0.00    -0.354 N 
ATOM     42  C   UNL A   1      39.420  29.850  30.084  1.00  0.00     0.074 A 
ATOM     43  C   UNL A   1      38.518  30.151  28.994  1.00  0.00     0.031 C 
ATOM     44  C   UNL A   1      37.777  34.209  34.527  1.00  0.00     0.029 A 
ATOM     45  C   UNL A   1      38.830  33.202  34.621  1.00  0.00     0.049 A 
ATOM     46  H   UNL A   1      39.408  31.834  33.161  1.00  0.00     0.167 HD
ATOM     47  C   UNL A   1      40.365  28.883  30.048  1.00  0.00     0.037 A 
ATOM     48  C   UNL A   1      39.620  32.989  35.689  1.00  0.00     0.037 A 
ATOM     49  C   UNL A   1      41.277  28.607  31.127  1.00  0.00     0.049 A 
ATOM     50  C   UNL A   1      40.651  31.893  35.631  1.00  0.00     0.074 A 
ATOM     51  C   UNL A   1      42.289  27.665  31.181  1.00  0.00     0.029 A 
ATOM     52  N   UNL A   1      41.289  29.279  32.340  1.00  0.00    -0.354 N 
ATOM     53  N   UNL A   1      40.923  31.063  34.654  1.00  0.00    -0.248 NA
ATOM     54  C   UNL A   1      41.484  31.706  36.827  1.00  0.00     0.031 C 
ATOM     55  C   UNL A   1      42.894  27.747  32.440  1.00  0.00     0.029 A 
ATOM     56  C   UNL A   1      42.286  28.768  33.154  1.00  0.00     0.049 A 
ATOM     57  H   UNL A   1      40.679  30.012  32.585  1.00  0.00     0.167 HD
ATOM     58  C   UNL A   1      41.964  30.266  35.108  1.00  0.00     0.074 A 
ATOM     59  C   UNL A   1      42.292  30.727  36.441  1.00  0.00     0.031 C 
ATOM     60  C   UNL A   1      42.593  29.242  34.479  1.00  0.00     0.037 A 
BRANCH  47  61
ATOM     61  C   UNL A   1      40.466  28.061  28.799  1.00  0.00     0.064 A 
ATOM     62  C   UNL A   1      41.261  28.470  27.717  1.00  0.00     0.173 A 
ATOM     63  C   UNL A   1      39.786  26.840  28.690  1.00  0.00     0.173 A 
ATOM     64  F   UNL A   1      41.916  29.640  27.765  1.00  0.00    -0.203 F 
ATOM     65  C   UNL A   1      41.355  27.694  26.565  1.00  0.00     0.198 A 
ATOM     66  C   UNL A   1      39.905  26.053  27.547  1.00  0.00     0.198 A 
ATOM     67  F   UNL A   1      39.013  26.404  29.696  1.00  0.00    -0.203 F 
ATOM     68  F   UNL A   1      42.086  28.127  25.527  1.00  0.00    -0.200 F 
ATOM     69  C   UNL A   1      40.684  26.485  26.484  1.00  0.00     0.200 A 
ATOM     70  F   UNL A   1      39.263  24.879  27.474  1.00  0.00    -0.200 F 
ATOM     71  F   UNL A   1      40.782  25.735  25.376  1.00  0.00    -0.200 F 
ENDBRANCH  47  61
BRANCH  48  72
ATOM     72  C   UNL A   1      39.485  33.846  36.893  1.00  0.00     0.064 A 
ATOM     73  C   UNL A   1      38.700  33.433  37.979  1.00  0.00     0.173 A 
ATOM     74  C   UNL A   1      40.137  35.082  36.992  1.00  0.00     0.173 A 
ATOM     75  F   UNL A   1      38.039  32.268  37.921  1.00  0.00    -0.203 F 
ATOM     76  C   UNL A   1      38.563  34.230  39.113  1.00  0.00     0.198 A 
ATOM     77  C   UNL A   1      40.020  35.868  38.137  1.00  0.00     0.198 A 
ATOM     78  F   UNL A   1      40.902  35.522  35.982  1.00  0.00    -0.203 F 
ATOM     79  F   UNL A   1      37.778  33.827  40.121  1.00  0.00    -0.200 F 
ATOM     80  C   UNL A   1      39.228  35.444  39.195  1.00  0.00     0.200 A 
ATOM     81  F   UNL A   1      40.674  37.035  38.218  1.00  0.00    -0.200 F 
ATOM     82  F   UNL A   1      39.103  36.207  40.289  1.00  0.00    -0.200 F 
ENDBRANCH  48  72
BRANCH  60  83
ATOM     83  C   UNL A   1      43.705  28.561  35.221  1.00  0.00     0.064 A 
ATOM     84  C   UNL A   1      45.030  29.004  35.119  1.00  0.00     0.173 A 
ATOM     85  C   UNL A   1      43.433  27.484  36.078  1.00  0.00     0.173 A 
ATOM     86  F   UNL A   1      45.341  30.022  34.302  1.00  0.00    -0.203 F 
ATOM     87  C   UNL A   1      46.050  28.378  35.831  1.00  0.00     0.198 A 
ATOM     88  C   UNL A   1      44.450  26.877  36.809  1.00  0.00     0.198 A 
ATOM     89  F   UNL A   1      42.179  27.028  36.215  1.00  0.00    -0.203 F 
ATOM     90  F   UNL A   1      47.317  28.789  35.685  1.00  0.00    -0.200 F 
ATOM     91  C   UNL A   1      45.758  27.321  36.680  1.00  0.00     0.200 A 
ATOM     92  F   UNL A   1      44.165  25.866  37.639  1.00  0.00    -0.200 F 
ATOM     93  F   UNL A   1      46.739  26.724  37.370  1.00  0.00    -0.200 F 
ENDBRANCH  60  83
ENDBRANCH  34  35
ENDBRANCH  26  29
ENDBRANCH  24  25
ENDBRANCH   1  24
TORSDOF 12
ENDMDL
MODEL 3
REMARK VINA RESULT:     -13.1      5.872     10.722
REMARK SMILES Cc1cc(Br)cc2c1O[C@H](C(F)(F)F)C(C(=O)NCCCCNC(=O)c1ccc(-c3c4nc(c(-c5c(F)c(F)c(F)c(F)c5F)c5ccc([nH]5)c(-c5c(F)c(F)c(F)c(F)c5F)c5nc(c(-c6c(F)c(F)c(F)c(F)c6F)c6ccc3[nH]6)C=C5)C=C4)cc1)=C2
REMARK SMILES IDX 21 1 20 2 19 3 18 4 16 5 17 6 15 8 1 9 2 10 3 11 8 12 4 13
REMARK SMILES IDX 7 14 9 15 5 16 6 17 89 18 10 19 11 20 12 21 13 22 14 23
REMARK SMILES IDX 22 24 23 25 24 26 25 28 26 29 27 30 88 31 28 32 87 33 29 34
REMARK SMILES IDX 30 35 31 36 81 37 32 38 86 39 80 40 82 41 33 42 85 43 79 44
REMARK SMILES IDX 78 45 34 47 66 48 46 49 65 50 47 51 50 52 64 53 83 54 48 55
REMARK SMILES IDX 49 56 63 58 84 59 51 60 35 61 36 62 44 63 37 64 38 65 42 66
REMARK SMILES IDX 45 67 39 68 40 69 43 70 41 71 67 72 68 73 76 74 69 75 70 76
REMARK SMILES IDX 74 77 77 78 71 79 72 80 75 81 73 82 52 83 53 84 61 85 54 86
REMARK SMILES IDX 55 87 59 88 62 89 56 90 57 91 60 92 58 93
REMARK H PARENT 18 7 23 27 82 46 50 57
REMARK Flexibility Score: inf
ROOT
ATOM      1  C   UNL A   1      39.360  21.314  25.753  1.00  0.00     0.023 C 
ENDROOT
BRANCH   1   2
ATOM      2  C   UNL A   1      39.349  22.677  26.446  1.00  0.00     0.023 C 
BRANCH   2   3
ATOM      3  C   UNL A   1      38.155  23.551  26.074  1.00  0.00     0.116 C 
BRANCH   3   4
ATOM      4  N   UNL A   1      37.708  23.305  24.716  1.00  0.00    -0.352 N 
ATOM      5  C   UNL A   1      36.528  23.296  24.051  1.00  0.00     0.251 C 
ATOM      6  O   UNL A   1      36.608  23.022  22.849  1.00  0.00    -0.270 OA
ATOM      7  H   UNL A   1      38.461  23.089  24.120  1.00  0.00     0.163 HD
BRANCH   5   8
ATOM      8  C   UNL A   1      35.194  23.582  24.657  1.00  0.00     0.067 C 
ATOM      9  C   UNL A   1      30.324  23.551  26.379  1.00  0.00     0.048 C 
ATOM     10  C   UNL A   1      31.391  24.587  26.165  1.00  0.00    -0.007 A 
ATOM     11  C   UNL A   1      31.148  25.910  26.560  1.00  0.00     0.023 A 
ATOM     12  C   UNL A   1      32.646  24.264  25.630  1.00  0.00     0.130 A 
ATOM     13  C   UNL A   1      32.132  26.884  26.396  1.00  0.00     0.019 A 
ATOM     14  C   UNL A   1      33.633  25.243  25.459  1.00  0.00     0.019 A 
ATOM     15  O   UNL A   1      32.843  22.972  25.236  1.00  0.00    -0.475 OA
ATOM     16  Br  UNL A   1      31.778  28.666  26.920  1.00  0.00    -0.051 Br
ATOM     17  C   UNL A   1      33.370  26.560  25.844  1.00  0.00     0.027 A 
ATOM     18  C   UNL A   1      34.907  24.882  24.848  1.00  0.00     0.025 C 
ATOM     19  C   UNL A   1      34.215  22.526  25.083  1.00  0.00     0.314 C 
BRANCH  19  20
ATOM     20  C   UNL A   1      34.650  21.791  26.365  1.00  0.00     0.429 C 
ATOM     21  F   UNL A   1      34.869  22.680  27.367  1.00  0.00    -0.167 F 
ATOM     22  F   UNL A   1      33.706  20.932  26.818  1.00  0.00    -0.167 F 
ATOM     23  F   UNL A   1      35.785  21.078  26.199  1.00  0.00    -0.167 F 
ENDBRANCH  19  20
ENDBRANCH   5   8
ENDBRANCH   3   4
ENDBRANCH   2   3
ENDBRANCH   1   2
BRANCH   1  24
ATOM     24  C   UNL A   1      39.690  20.127  26.656  1.00  0.00     0.116 C 
BRANCH  24  25
ATOM     25  N   UNL A   1      40.716  19.248  26.113  1.00  0.00    -0.352 N 
ATOM     26  C   UNL A   1      42.047  19.517  25.914  1.00  0.00     0.251 C 
ATOM     27  H   UNL A   1      40.417  18.347  25.854  1.00  0.00     0.163 HD
ATOM     28  O   UNL A   1      42.778  18.704  25.356  1.00  0.00    -0.269 OA
BRANCH  26  29
ATOM     29  C   UNL A   1      42.583  20.819  26.352  1.00  0.00     0.039 A 
ATOM     30  C   UNL A   1      42.978  21.745  25.386  1.00  0.00     0.014 A 
ATOM     31  C   UNL A   1      42.646  21.130  27.712  1.00  0.00     0.014 A 
ATOM     32  C   UNL A   1      43.386  23.019  25.784  1.00  0.00     0.010 A 
ATOM     33  C   UNL A   1      42.994  22.416  28.103  1.00  0.00     0.010 A 
ATOM     34  C   UNL A   1      43.369  23.369  27.142  1.00  0.00    -0.014 A 
BRANCH  34  35
ATOM     35  C   UNL A   1      43.782  24.716  27.599  1.00  0.00     0.031 A 
ATOM     36  C   UNL A   1      42.729  25.723  27.957  1.00  0.00     0.074 A 
ATOM     37  C   UNL A   1      45.086  25.051  27.624  1.00  0.00     0.049 A 
ATOM     38  N   UNL A   1      42.858  26.994  28.238  1.00  0.00    -0.248 NA
ATOM     39  C   UNL A   1      41.339  25.241  27.974  1.00  0.00     0.031 C 
ATOM     40  C   UNL A   1      46.195  24.160  27.283  1.00  0.00     0.029 A 
ATOM     41  N   UNL A   1      45.695  26.238  27.938  1.00  0.00    -0.354 N 
ATOM     42  C   UNL A   1      41.569  27.464  28.446  1.00  0.00     0.074 A 
ATOM     43  C   UNL A   1      40.668  26.356  28.214  1.00  0.00     0.031 C 
ATOM     44  C   UNL A   1      47.352  24.828  27.424  1.00  0.00     0.029 A 
ATOM     45  C   UNL A   1      47.063  26.202  27.824  1.00  0.00     0.049 A 
ATOM     46  H   UNL A   1      45.199  27.041  28.219  1.00  0.00     0.167 HD
ATOM     47  C   UNL A   1      41.176  28.703  28.820  1.00  0.00     0.037 A 
ATOM     48  C   UNL A   1      47.975  27.175  28.010  1.00  0.00     0.037 A 
ATOM     49  C   UNL A   1      42.079  29.794  29.074  1.00  0.00     0.049 A 
ATOM     50  C   UNL A   1      47.509  28.550  28.405  1.00  0.00     0.074 A 
ATOM     51  C   UNL A   1      41.783  31.082  29.483  1.00  0.00     0.029 A 
ATOM     52  N   UNL A   1      43.458  29.719  28.951  1.00  0.00    -0.354 N 
ATOM     53  N   UNL A   1      46.289  28.984  28.612  1.00  0.00    -0.248 NA
ATOM     54  C   UNL A   1      48.549  29.571  28.592  1.00  0.00     0.031 C 
ATOM     55  C   UNL A   1      42.982  31.796  29.576  1.00  0.00     0.029 A 
ATOM     56  C   UNL A   1      44.028  30.941  29.267  1.00  0.00     0.049 A 
ATOM     57  H   UNL A   1      43.958  28.916  28.680  1.00  0.00     0.167 HD
ATOM     58  C   UNL A   1      46.413  30.319  28.967  1.00  0.00     0.074 A 
ATOM     59  C   UNL A   1      47.830  30.621  28.970  1.00  0.00     0.031 C 
ATOM     60  C   UNL A   1      45.442  31.218  29.261  1.00  0.00     0.037 A 
BRANCH  47  61
ATOM     61  C   UNL A   1      39.704  28.940  28.984  1.00  0.00     0.064 A 
ATOM     62  C   UNL A   1      39.079  28.813  30.234  1.00  0.00     0.173 A 
ATOM     63  C   UNL A   1      38.916  29.327  27.890  1.00  0.00     0.173 A 
ATOM     64  F   UNL A   1      39.785  28.428  31.307  1.00  0.00    -0.203 F 
ATOM     65  C   UNL A   1      37.713  29.045  30.377  1.00  0.00     0.198 A 
ATOM     66  C   UNL A   1      37.556  29.585  28.044  1.00  0.00     0.198 A 
ATOM     67  F   UNL A   1      39.466  29.462  26.674  1.00  0.00    -0.203 F 
ATOM     68  F   UNL A   1      37.129  28.874  31.572  1.00  0.00    -0.200 F 
ATOM     69  C   UNL A   1      36.956  29.437  29.285  1.00  0.00     0.200 A 
ATOM     70  F   UNL A   1      36.827  29.973  26.989  1.00  0.00    -0.200 F 
ATOM     71  F   UNL A   1      35.642  29.668  29.427  1.00  0.00    -0.200 F 
ENDBRANCH  47  61
BRANCH  48  72
ATOM     72  C   UNL A   1      49.420  26.876  27.848  1.00  0.00     0.064 A 
ATOM     73  C   UNL A   1      50.023  26.932  26.584  1.00  0.00     0.173 A 
ATOM     74  C   UNL A   1      50.227  26.539  28.942  1.00  0.00     0.173 A 
ATOM     75  F   UNL A   1      49.286  27.228  25.503  1.00  0.00    -0.203 F 
ATOM     76  C   UNL A   1      51.378  26.651  26.419  1.00  0.00     0.198 A 
ATOM     77  C   UNL A   1      51.588  26.282  28.781  1.00  0.00     0.198 A 
ATOM     78  F   UNL A   1      49.699  26.473  30.173  1.00  0.00    -0.203 F 
ATOM     79  F   UNL A   1      51.921  26.678  25.194  1.00  0.00    -0.200 F 
ATOM     80  C   UNL A   1      52.161  26.333  27.518  1.00  0.00     0.200 A 
ATOM     81  F   UNL A   1      52.344  25.986  29.847  1.00  0.00    -0.200 F 
ATOM     82  F   UNL A   1      53.465  26.070  27.361  1.00  0.00    -0.200 F 
ENDBRANCH  48  72
BRANCH  60  83
ATOM     83  C   UNL A   1      45.879  32.607  29.624  1.00  0.00     0.064 A 
ATOM     84  C   UNL A   1      45.978  33.618  28.660  1.00  0.00     0.173 A 
ATOM     85  C   UNL A   1      46.159  32.938  30.959  1.00  0.00     0.173 A 
ATOM     86  F   UNL A   1      45.734  33.346  27.368  1.00  0.00    -0.203 F 
ATOM     87  C   UNL A   1      46.363  34.908  29.014  1.00  0.00     0.198 A 
ATOM     88  C   UNL A   1      46.517  34.235  31.314  1.00  0.00     0.198 A 
ATOM     89  F   UNL A   1      46.072  32.006  31.920  1.00  0.00    -0.203 F 
ATOM     90  F   UNL A   1      46.493  35.850  28.069  1.00  0.00    -0.200 F 
ATOM     91  C   UNL A   1      46.625  35.217  30.341  1.00  0.00     0.200 A 
ATOM     92  F   UNL A   1      46.757  34.535  32.597  1.00  0.00    -0.200 F 
ATOM     93  F   UNL A   1      46.989  36.461  30.681  1.00  0.00    -0.200 F 
ENDBRANCH  60  83
ENDBRANCH  34  35
ENDBRANCH  26  29
ENDBRANCH  24  25
ENDBRANCH   1  24
TORSDOF 12
ENDMDL
