MODEL 1
REMARK VINA RESULT:     -11.9      0.000      0.000
REMARK SMILES C[C@H](O)[C@@H](C)C1(C(=O)NCCCCNC(=O)c2ccc(-c3c4nc(c(-c5c(F)c(F)c(F)c(F)c5F)c5ccc([nH]5)c(-c5c(F)c(F)c(F)c(F)c5F)c5nc(c(-c6c(F)c(F)c(F)c(F)c6F)c6ccc3[nH]6)C=C5)C=C4)cc2)CCCCC1
REMARK SMILES IDX 11 1 10 2 9 3 7 4 8 5 6 7 80 8 84 9 81 10 83 11 82 12 4 13
REMARK SMILES IDX 5 14 2 15 1 16 3 17 12 19 13 20 14 21 15 22 16 24 17 25
REMARK SMILES IDX 18 26 79 27 19 28 78 29 20 30 21 31 22 32 72 33 23 34 77 35
REMARK SMILES IDX 71 36 73 37 24 38 76 39 70 40 69 41 25 43 57 44 37 45 56 46
REMARK SMILES IDX 38 47 41 48 55 49 74 50 39 51 40 52 54 54 75 55 42 56 26 57
REMARK SMILES IDX 27 58 35 59 28 60 29 61 33 62 36 63 30 64 31 65 34 66 32 67
REMARK SMILES IDX 58 68 59 69 67 70 60 71 61 72 65 73 68 74 62 75 63 76 66 77
REMARK SMILES IDX 64 78 43 79 44 80 52 81 45 82 46 83 50 84 53 85 47 86 48 87
REMARK SMILES IDX 51 88 49 89
REMARK H PARENT 9 6 3 18 14 23 73 42 41 53
REMARK Flexibility Score: inf
ROOT
ATOM      1  C   UNL A   1      32.000  30.284  26.884  1.00  0.00     0.023 C 
ENDROOT
BRANCH   1   2
ATOM      2  C   UNL A   1      33.255  29.746  26.195  1.00  0.00     0.116 C 
BRANCH   2   3
ATOM      3  N   UNL A   1      33.082  29.662  24.769  1.00  0.00    -0.356 N 
ATOM      4  C   UNL A   1      32.793  28.663  23.908  1.00  0.00     0.226 C 
ATOM      5  O   UNL A   1      32.932  29.011  22.725  1.00  0.00    -0.274 OA
ATOM      6  H   UNL A   1      33.201  30.529  24.320  1.00  0.00     0.163 HD
BRANCH   4   7
ATOM      7  C   UNL A   1      32.376  27.182  24.276  1.00  0.00     0.054 C 
ATOM      8  C   UNL A   1      33.152  26.590  25.489  1.00  0.00     0.017 C 
ATOM      9  C   UNL A   1      32.487  26.312  23.004  1.00  0.00     0.017 C 
ATOM     10  C   UNL A   1      34.343  25.662  25.254  1.00  0.00     0.001 C 
ATOM     11  C   UNL A   1      33.769  25.523  22.780  1.00  0.00     0.001 C 
ATOM     12  C   UNL A   1      34.231  24.782  24.022  1.00  0.00     0.000 C 
BRANCH   7  13
ATOM     13  C   UNL A   1      30.810  27.327  24.732  1.00  0.00     0.030 C 
ATOM     14  C   UNL A   1      30.535  26.471  26.006  1.00  0.00     0.011 C 
BRANCH  13  15
ATOM     15  C   UNL A   1      29.688  27.027  23.679  1.00  0.00     0.115 C 
ATOM     16  C   UNL A   1      28.950  28.244  23.112  1.00  0.00     0.038 C 
BRANCH  15  17
ATOM     17  O   UNL A   1      28.663  26.225  24.287  1.00  0.00    -0.393 OA
ATOM     18  H   UNL A   1      28.979  25.312  24.381  1.00  0.00     0.210 HD
ENDBRANCH  15  17
ENDBRANCH  13  15
ENDBRANCH   7  13
ENDBRANCH   4   7
ENDBRANCH   2   3
ENDBRANCH   1   2
BRANCH   1  19
ATOM     19  C   UNL A   1      31.780  31.783  26.723  1.00  0.00     0.023 C 
BRANCH  19  20
ATOM     20  C   UNL A   1      32.857  32.662  27.347  1.00  0.00     0.116 C 
BRANCH  20  21
ATOM     21  N   UNL A   1      32.435  34.028  27.636  1.00  0.00    -0.352 N 
ATOM     22  C   UNL A   1      32.981  34.905  28.547  1.00  0.00     0.251 C 
ATOM     23  H   UNL A   1      31.668  34.362  27.117  1.00  0.00     0.163 HD
ATOM     24  O   UNL A   1      32.500  36.014  28.728  1.00  0.00    -0.269 OA
BRANCH  22  25
ATOM     25  C   UNL A   1      34.134  34.446  29.344  1.00  0.00     0.039 A 
ATOM     26  C   UNL A   1      33.899  33.747  30.528  1.00  0.00     0.014 A 
ATOM     27  C   UNL A   1      35.429  34.594  28.843  1.00  0.00     0.014 A 
ATOM     28  C   UNL A   1      34.962  33.105  31.164  1.00  0.00     0.010 A 
ATOM     29  C   UNL A   1      36.469  33.885  29.429  1.00  0.00     0.010 A 
ATOM     30  C   UNL A   1      36.244  33.125  30.588  1.00  0.00    -0.014 A 
BRANCH  30  31
ATOM     31  C   UNL A   1      37.367  32.348  31.170  1.00  0.00     0.031 A 
ATOM     32  C   UNL A   1      37.872  32.686  32.543  1.00  0.00     0.074 A 
ATOM     33  C   UNL A   1      37.989  31.412  30.426  1.00  0.00     0.049 A 
ATOM     34  N   UNL A   1      38.908  32.209  33.185  1.00  0.00    -0.248 NA
ATOM     35  C   UNL A   1      37.140  33.729  33.280  1.00  0.00     0.031 C 
ATOM     36  C   UNL A   1      37.634  31.041  29.054  1.00  0.00     0.029 A 
ATOM     37  N   UNL A   1      39.063  30.608  30.717  1.00  0.00    -0.354 N 
ATOM     38  C   UNL A   1      38.970  32.916  34.377  1.00  0.00     0.074 A 
ATOM     39  C   UNL A   1      37.896  33.884  34.356  1.00  0.00     0.031 C 
ATOM     40  C   UNL A   1      38.459  30.067  28.633  1.00  0.00     0.029 A 
ATOM     41  C   UNL A   1      39.420  29.768  29.690  1.00  0.00     0.049 A 
ATOM     42  H   UNL A   1      39.534  30.632  31.582  1.00  0.00     0.167 HD
ATOM     43  C   UNL A   1      39.831  32.754  35.408  1.00  0.00     0.037 A 
ATOM     44  C   UNL A   1      40.414  28.862  29.612  1.00  0.00     0.037 A 
ATOM     45  C   UNL A   1      40.854  31.746  35.455  1.00  0.00     0.049 A 
ATOM     46  C   UNL A   1      41.324  28.671  30.796  1.00  0.00     0.074 A 
ATOM     47  C   UNL A   1      41.713  31.437  36.494  1.00  0.00     0.029 A 
ATOM     48  N   UNL A   1      41.149  30.876  34.416  1.00  0.00    -0.354 N 
ATOM     49  N   UNL A   1      41.319  29.288  31.952  1.00  0.00    -0.248 NA
ATOM     50  C   UNL A   1      42.373  27.650  30.666  1.00  0.00     0.031 C 
ATOM     51  C   UNL A   1      42.549  30.396  36.074  1.00  0.00     0.029 A 
ATOM     52  C   UNL A   1      42.186  30.036  34.787  1.00  0.00     0.049 A 
ATOM     53  H   UNL A   1      40.690  30.857  33.546  1.00  0.00     0.167 HD
ATOM     54  C   UNL A   1      42.339  28.712  32.696  1.00  0.00     0.074 A 
ATOM     55  C   UNL A   1      42.935  27.686  31.866  1.00  0.00     0.031 C 
ATOM     56  C   UNL A   1      42.746  29.005  33.954  1.00  0.00     0.037 A 
BRANCH  43  57
ATOM     57  C   UNL A   1      39.692  33.675  36.582  1.00  0.00     0.064 A 
ATOM     58  C   UNL A   1      40.346  34.916  36.625  1.00  0.00     0.173 A 
ATOM     59  C   UNL A   1      38.859  33.332  37.658  1.00  0.00     0.173 A 
ATOM     60  F   UNL A   1      41.165  35.280  35.627  1.00  0.00    -0.203 F 
ATOM     61  C   UNL A   1      40.185  35.772  37.710  1.00  0.00     0.198 A 
ATOM     62  C   UNL A   1      38.680  34.203  38.729  1.00  0.00     0.198 A 
ATOM     63  F   UNL A   1      38.210  32.158  37.664  1.00  0.00    -0.203 F 
ATOM     64  F   UNL A   1      40.851  36.934  37.748  1.00  0.00    -0.200 F 
ATOM     65  C   UNL A   1      39.347  35.419  38.756  1.00  0.00     0.200 A 
ATOM     66  F   UNL A   1      37.861  33.866  39.735  1.00  0.00    -0.200 F 
ATOM     67  F   UNL A   1      39.186  36.249  39.797  1.00  0.00    -0.200 F 
ENDBRANCH  43  57
BRANCH  44  68
ATOM     68  C   UNL A   1      40.586  28.039  28.388  1.00  0.00     0.064 A 
ATOM     69  C   UNL A   1      39.981  26.778  28.283  1.00  0.00     0.173 A 
ATOM     70  C   UNL A   1      41.380  28.473  27.317  1.00  0.00     0.173 A 
ATOM     71  F   UNL A   1      39.231  26.311  29.291  1.00  0.00    -0.203 F 
ATOM     72  C   UNL A   1      40.186  25.970  27.166  1.00  0.00     0.198 A 
ATOM     73  C   UNL A   1      41.563  27.675  26.188  1.00  0.00     0.198 A 
ATOM     74  F   UNL A   1      41.977  29.673  27.366  1.00  0.00    -0.203 F 
ATOM     75  F   UNL A   1      39.640  24.748  27.116  1.00  0.00    -0.200 F 
ATOM     76  C   UNL A   1      40.976  26.421  26.119  1.00  0.00     0.200 A 
ATOM     77  F   UNL A   1      42.318  28.118  25.174  1.00  0.00    -0.200 F 
ATOM     78  F   UNL A   1      41.179  25.642  25.047  1.00  0.00    -0.200 F 
ENDBRANCH  44  68
BRANCH  56  79
ATOM     79  C   UNL A   1      43.858  28.179  34.527  1.00  0.00     0.064 A 
ATOM     80  C   UNL A   1      45.195  28.595  34.453  1.00  0.00     0.173 A 
ATOM     81  C   UNL A   1      43.575  26.980  35.199  1.00  0.00     0.173 A 
ATOM     82  F   UNL A   1      45.514  29.727  33.807  1.00  0.00    -0.203 F 
ATOM     83  C   UNL A   1      46.212  27.830  35.016  1.00  0.00     0.198 A 
ATOM     84  C   UNL A   1      44.592  26.231  35.782  1.00  0.00     0.198 A 
ATOM     85  F   UNL A   1      42.310  26.545  35.299  1.00  0.00    -0.203 F 
ATOM     86  F   UNL A   1      47.487  28.226  34.900  1.00  0.00    -0.200 F 
ATOM     87  C   UNL A   1      45.909  26.653  35.686  1.00  0.00     0.200 A 
ATOM     88  F   UNL A   1      44.297  25.101  36.439  1.00  0.00    -0.200 F 
ATOM     89  F   UNL A   1      46.889  25.923  36.235  1.00  0.00    -0.200 F 
ENDBRANCH  56  79
ENDBRANCH  30  31
ENDBRANCH  22  25
ENDBRANCH  20  21
ENDBRANCH  19  20
ENDBRANCH   1  19
TORSDOF 14
ENDMDL
MODEL 2
REMARK VINA RESULT:     -11.8      0.804      7.565
REMARK SMILES C[C@H](O)[C@@H](C)C1(C(=O)NCCCCNC(=O)c2ccc(-c3c4nc(c(-c5c(F)c(F)c(F)c(F)c5F)c5ccc([nH]5)c(-c5c(F)c(F)c(F)c(F)c5F)c5nc(c(-c6c(F)c(F)c(F)c(F)c6F)c6ccc3[nH]6)C=C5)C=C4)cc2)CCCCC1
REMARK SMILES IDX 11 1 10 2 9 3 7 4 8 5 6 7 80 8 84 9 81 10 83 11 82 12 4 13
REMARK SMILES IDX 5 14 2 15 1 16 3 17 12 19 13 20 14 21 15 22 16 24 17 25
REMARK SMILES IDX 18 26 79 27 19 28 78 29 20 30 21 31 22 32 72 33 23 34 77 35
REMARK SMILES IDX 71 36 73 37 24 38 76 39 70 40 69 41 25 43 57 44 37 45 56 46
REMARK SMILES IDX 38 47 41 48 55 49 74 50 39 51 40 52 54 54 75 55 42 56 26 57
REMARK SMILES IDX 27 58 35 59 28 60 29 61 33 62 36 63 30 64 31 65 34 66 32 67
REMARK SMILES IDX 58 68 59 69 67 70 60 71 61 72 65 73 68 74 62 75 63 76 66 77
REMARK SMILES IDX 64 78 43 79 44 80 52 81 45 82 46 83 50 84 53 85 47 86 48 87
REMARK SMILES IDX 51 88 49 89
REMARK H PARENT 9 6 3 18 14 23 73 42 41 53
REMARK Flexibility Score: inf
ROOT
ATOM      1  C   UNL A   1      32.201  29.980  26.961  1.00  0.00     0.023 C 
ENDROOT
BRANCH   1   2
ATOM      2  C   UNL A   1      33.579  29.366  26.713  1.00  0.00     0.116 C 
BRANCH   2   3
ATOM      3  N   UNL A   1      33.887  29.303  25.309  1.00  0.00    -0.356 N 
ATOM      4  C   UNL A   1      33.626  28.419  24.322  1.00  0.00     0.226 C 
ATOM      5  O   UNL A   1      34.258  28.678  23.286  1.00  0.00    -0.274 OA
ATOM      6  H   UNL A   1      34.404  30.080  24.998  1.00  0.00     0.163 HD
BRANCH   4   7
ATOM      7  C   UNL A   1      32.689  27.148  24.407  1.00  0.00     0.054 C 
ATOM      8  C   UNL A   1      32.752  26.407  25.775  1.00  0.00     0.017 C 
ATOM      9  C   UNL A   1      33.002  26.228  23.206  1.00  0.00     0.017 C 
ATOM     10  C   UNL A   1      33.618  25.157  25.927  1.00  0.00     0.001 C 
ATOM     11  C   UNL A   1      33.984  25.084  23.411  1.00  0.00     0.001 C 
ATOM     12  C   UNL A   1      33.716  24.296  24.680  1.00  0.00     0.000 C 
BRANCH   7  13
ATOM     13  C   UNL A   1      31.181  27.773  24.269  1.00  0.00     0.030 C 
ATOM     14  C   UNL A   1      30.136  26.631  24.093  1.00  0.00     0.011 C 
BRANCH  13  15
ATOM     15  C   UNL A   1      30.916  28.864  23.176  1.00  0.00     0.115 C 
ATOM     16  C   UNL A   1      29.779  29.850  23.467  1.00  0.00     0.038 C 
BRANCH  15  17
ATOM     17  O   UNL A   1      30.545  28.227  21.944  1.00  0.00    -0.393 OA
ATOM     18  H   UNL A   1      29.578  28.197  21.873  1.00  0.00     0.210 HD
ENDBRANCH  15  17
ENDBRANCH  13  15
ENDBRANCH   7  13
ENDBRANCH   4   7
ENDBRANCH   2   3
ENDBRANCH   1   2
BRANCH   1  19
ATOM     19  C   UNL A   1      32.103  31.468  26.648  1.00  0.00     0.023 C 
BRANCH  19  20
ATOM     20  C   UNL A   1      32.969  32.368  27.522  1.00  0.00     0.116 C 
BRANCH  20  21
ATOM     21  N   UNL A   1      32.478  33.734  27.660  1.00  0.00    -0.352 N 
ATOM     22  C   UNL A   1      32.978  34.733  28.467  1.00  0.00     0.251 C 
ATOM     23  H   UNL A   1      31.696  33.970  27.111  1.00  0.00     0.163 HD
ATOM     24  O   UNL A   1      32.442  35.830  28.527  1.00  0.00    -0.269 OA
BRANCH  22  25
ATOM     25  C   UNL A   1      34.152  34.423  29.305  1.00  0.00     0.039 A 
ATOM     26  C   UNL A   1      33.950  33.850  30.561  1.00  0.00     0.014 A 
ATOM     27  C   UNL A   1      35.439  34.576  28.784  1.00  0.00     0.014 A 
ATOM     28  C   UNL A   1      35.044  33.337  31.259  1.00  0.00     0.010 A 
ATOM     29  C   UNL A   1      36.511  33.989  29.441  1.00  0.00     0.010 A 
ATOM     30  C   UNL A   1      36.323  33.354  30.679  1.00  0.00    -0.014 A 
BRANCH  30  31
ATOM     31  C   UNL A   1      37.482  32.703  31.339  1.00  0.00     0.031 A 
ATOM     32  C   UNL A   1      38.175  31.555  30.660  1.00  0.00     0.074 A 
ATOM     33  C   UNL A   1      37.844  33.078  32.581  1.00  0.00     0.049 A 
ATOM     34  N   UNL A   1      39.128  30.781  31.112  1.00  0.00    -0.248 NA
ATOM     35  C   UNL A   1      37.708  31.205  29.310  1.00  0.00     0.031 C 
ATOM     36  C   UNL A   1      37.204  34.134  33.371  1.00  0.00     0.029 A 
ATOM     37  N   UNL A   1      38.833  32.604  33.406  1.00  0.00    -0.354 N 
ATOM     38  C   UNL A   1      39.346  29.836  30.119  1.00  0.00     0.074 A 
ATOM     39  C   UNL A   1      38.400  30.105  29.059  1.00  0.00     0.031 C 
ATOM     40  C   UNL A   1      37.833  34.242  34.554  1.00  0.00     0.029 A 
ATOM     41  C   UNL A   1      38.896  33.244  34.620  1.00  0.00     0.049 A 
ATOM     42  H   UNL A   1      39.441  31.872  33.151  1.00  0.00     0.167 HD
ATOM     43  C   UNL A   1      40.271  28.849  30.085  1.00  0.00     0.037 A 
ATOM     44  C   UNL A   1      39.718  33.044  35.668  1.00  0.00     0.037 A 
ATOM     45  C   UNL A   1      41.253  28.627  31.110  1.00  0.00     0.049 A 
ATOM     46  C   UNL A   1      40.769  31.970  35.579  1.00  0.00     0.074 A 
ATOM     47  C   UNL A   1      42.295  27.717  31.123  1.00  0.00     0.029 A 
ATOM     48  N   UNL A   1      41.321  29.334  32.301  1.00  0.00    -0.354 N 
ATOM     49  N   UNL A   1      41.021  31.138  34.599  1.00  0.00    -0.248 NA
ATOM     50  C   UNL A   1      41.656  31.814  36.740  1.00  0.00     0.031 C 
ATOM     51  C   UNL A   1      42.977  27.852  32.337  1.00  0.00     0.029 A 
ATOM     52  C   UNL A   1      42.381  28.870  33.063  1.00  0.00     0.049 A 
ATOM     53  H   UNL A   1      40.707  30.056  32.566  1.00  0.00     0.167 HD
ATOM     54  C   UNL A   1      42.110  30.383  35.009  1.00  0.00     0.074 A 
ATOM     55  C   UNL A   1      42.481  30.863  36.324  1.00  0.00     0.031 C 
ATOM     56  C   UNL A   1      42.747  29.381  34.357  1.00  0.00     0.037 A 
BRANCH  43  57
ATOM     57  C   UNL A   1      40.278  27.943  28.891  1.00  0.00     0.064 A 
ATOM     58  C   UNL A   1      41.008  28.257  27.735  1.00  0.00     0.173 A 
ATOM     59  C   UNL A   1      39.583  26.724  28.921  1.00  0.00     0.173 A 
ATOM     60  F   UNL A   1      41.676  29.417  27.654  1.00  0.00    -0.203 F 
ATOM     61  C   UNL A   1      41.027  27.392  26.645  1.00  0.00     0.198 A 
ATOM     62  C   UNL A   1      39.627  25.850  27.838  1.00  0.00     0.198 A 
ATOM     63  F   UNL A   1      38.872  26.377  30.003  1.00  0.00    -0.203 F 
ATOM     64  F   UNL A   1      41.699  27.731  25.536  1.00  0.00    -0.200 F 
ATOM     65  C   UNL A   1      40.344  26.187  26.700  1.00  0.00     0.200 A 
ATOM     66  F   UNL A   1      38.974  24.681  27.896  1.00  0.00    -0.200 F 
ATOM     67  F   UNL A   1      40.371  25.352  25.652  1.00  0.00    -0.200 F 
ENDBRANCH  43  57
BRANCH  44  68
ATOM     68  C   UNL A   1      39.611  33.895  36.881  1.00  0.00     0.064 A 
ATOM     69  C   UNL A   1      38.843  33.482  37.980  1.00  0.00     0.173 A 
ATOM     70  C   UNL A   1      40.241  35.145  36.959  1.00  0.00     0.173 A 
ATOM     71  F   UNL A   1      38.204  32.304  37.942  1.00  0.00    -0.203 F 
ATOM     72  C   UNL A   1      38.685  34.298  39.097  1.00  0.00     0.198 A 
ATOM     73  C   UNL A   1      40.105  35.950  38.089  1.00  0.00     0.198 A 
ATOM     74  F   UNL A   1      40.991  35.584  35.938  1.00  0.00    -0.203 F 
ATOM     75  F   UNL A   1      37.902  33.902  40.109  1.00  0.00    -0.200 F 
ATOM     76  C   UNL A   1      39.318  35.531  39.152  1.00  0.00     0.200 A 
ATOM     77  F   UNL A   1      40.726  37.136  38.143  1.00  0.00    -0.200 F 
ATOM     78  F   UNL A   1      39.162  36.320  40.224  1.00  0.00    -0.200 F 
ENDBRANCH  44  68
BRANCH  56  79
ATOM     79  C   UNL A   1      43.936  28.768  35.033  1.00  0.00     0.064 A 
ATOM     80  C   UNL A   1      43.809  27.654  35.875  1.00  0.00     0.173 A 
ATOM     81  C   UNL A   1      45.223  29.273  34.795  1.00  0.00     0.173 A 
ATOM     82  F   UNL A   1      42.596  27.147  36.143  1.00  0.00    -0.203 F 
ATOM     83  C   UNL A   1      44.927  27.079  36.471  1.00  0.00     0.198 A 
ATOM     84  C   UNL A   1      46.342  28.681  35.373  1.00  0.00     0.198 A 
ATOM     85  F   UNL A   1      45.395  30.334  33.993  1.00  0.00    -0.203 F 
ATOM     86  F   UNL A   1      44.780  26.040  37.304  1.00  0.00    -0.200 F 
ATOM     87  C   UNL A   1      46.192  27.588  36.214  1.00  0.00     0.200 A 
ATOM     88  F   UNL A   1      47.563  29.165  35.115  1.00  0.00    -0.200 F 
ATOM     89  F   UNL A   1      47.269  27.028  36.783  1.00  0.00    -0.200 F 
ENDBRANCH  56  79
ENDBRANCH  30  31
ENDBRANCH  22  25
ENDBRANCH  20  21
ENDBRANCH  19  20
ENDBRANCH   1  19
TORSDOF 14
ENDMDL
MODEL 3
REMARK VINA RESULT:     -11.7      0.608      1.769
REMARK SMILES C[C@H](O)[C@@H](C)C1(C(=O)NCCCCNC(=O)c2ccc(-c3c4nc(c(-c5c(F)c(F)c(F)c(F)c5F)c5ccc([nH]5)c(-c5c(F)c(F)c(F)c(F)c5F)c5nc(c(-c6c(F)c(F)c(F)c(F)c6F)c6ccc3[nH]6)C=C5)C=C4)cc2)CCCCC1
REMARK SMILES IDX 11 1 10 2 9 3 7 4 8 5 6 7 80 8 84 9 81 10 83 11 82 12 4 13
REMARK SMILES IDX 5 14 2 15 1 16 3 17 12 19 13 20 14 21 15 22 16 24 17 25
REMARK SMILES IDX 18 26 79 27 19 28 78 29 20 30 21 31 22 32 72 33 23 34 77 35
REMARK SMILES IDX 71 36 73 37 24 38 76 39 70 40 69 41 25 43 57 44 37 45 56 46
REMARK SMILES IDX 38 47 41 48 55 49 74 50 39 51 40 52 54 54 75 55 42 56 26 57
REMARK SMILES IDX 27 58 35 59 28 60 29 61 33 62 36 63 30 64 31 65 34 66 32 67
REMARK SMILES IDX 58 68 59 69 67 70 60 71 61 72 65 73 68 74 62 75 63 76 66 77
REMARK SMILES IDX 64 78 43 79 44 80 52 81 45 82 46 83 50 84 53 85 47 86 48 87
REMARK SMILES IDX 51 88 49 89
REMARK H PARENT 9 6 3 18 14 23 73 42 41 53
REMARK Flexibility Score: inf
ROOT
ATOM      1  C   UNL A   1      31.832  30.825  26.076  1.00  0.00     0.023 C 
ENDROOT
BRANCH   1   2
ATOM      2  C   UNL A   1      33.088  29.955  26.022  1.00  0.00     0.116 C 
BRANCH   2   3
ATOM      3  N   UNL A   1      33.496  29.697  24.667  1.00  0.00    -0.356 N 
ATOM      4  C   UNL A   1      33.367  28.651  23.822  1.00  0.00     0.226 C 
ATOM      5  O   UNL A   1      34.049  28.793  22.796  1.00  0.00    -0.274 OA
ATOM      6  H   UNL A   1      33.979  30.454  24.264  1.00  0.00     0.163 HD
BRANCH   4   7
ATOM      7  C   UNL A   1      32.515  27.339  24.057  1.00  0.00     0.054 C 
ATOM      8  C   UNL A   1      32.685  26.723  25.477  1.00  0.00     0.017 C 
ATOM      9  C   UNL A   1      32.833  26.339  22.923  1.00  0.00     0.017 C 
ATOM     10  C   UNL A   1      33.633  25.543  25.689  1.00  0.00     0.001 C 
ATOM     11  C   UNL A   1      33.893  25.277  23.174  1.00  0.00     0.001 C 
ATOM     12  C   UNL A   1      33.730  24.586  24.515  1.00  0.00     0.000 C 
BRANCH   7  13
ATOM     13  C   UNL A   1      30.967  27.860  23.942  1.00  0.00     0.030 C 
ATOM     14  C   UNL A   1      30.016  26.666  23.627  1.00  0.00     0.011 C 
BRANCH  13  15
ATOM     15  C   UNL A   1      30.639  29.031  22.954  1.00  0.00     0.115 C 
ATOM     16  C   UNL A   1      29.455  29.927  23.336  1.00  0.00     0.038 C 
BRANCH  15  17
ATOM     17  O   UNL A   1      30.292  28.491  21.669  1.00  0.00    -0.393 OA
ATOM     18  H   UNL A   1      30.974  27.860  21.389  1.00  0.00     0.210 HD
ENDBRANCH  15  17
ENDBRANCH  13  15
ENDBRANCH   7  13
ENDBRANCH   4   7
ENDBRANCH   2   3
ENDBRANCH   1   2
BRANCH   1  19
ATOM     19  C   UNL A   1      31.767  31.774  27.268  1.00  0.00     0.023 C 
BRANCH  19  20
ATOM     20  C   UNL A   1      32.899  32.792  27.340  1.00  0.00     0.116 C 
BRANCH  20  21
ATOM     21  N   UNL A   1      32.472  34.154  27.639  1.00  0.00    -0.352 N 
ATOM     22  C   UNL A   1      33.015  35.027  28.557  1.00  0.00     0.251 C 
ATOM     23  H   UNL A   1      31.704  34.489  27.122  1.00  0.00     0.163 HD
ATOM     24  O   UNL A   1      32.530  36.133  28.746  1.00  0.00    -0.269 OA
BRANCH  22  25
ATOM     25  C   UNL A   1      34.169  34.566  29.351  1.00  0.00     0.039 A 
ATOM     26  C   UNL A   1      33.938  33.970  30.591  1.00  0.00     0.014 A 
ATOM     27  C   UNL A   1      35.452  34.605  28.801  1.00  0.00     0.014 A 
ATOM     28  C   UNL A   1      34.988  33.320  31.241  1.00  0.00     0.010 A 
ATOM     29  C   UNL A   1      36.473  33.886  29.408  1.00  0.00     0.010 A 
ATOM     30  C   UNL A   1      36.248  33.227  30.628  1.00  0.00    -0.014 A 
BRANCH  30  31
ATOM     31  C   UNL A   1      37.348  32.436  31.232  1.00  0.00     0.031 A 
ATOM     32  C   UNL A   1      37.841  32.777  32.610  1.00  0.00     0.074 A 
ATOM     33  C   UNL A   1      37.963  31.481  30.507  1.00  0.00     0.049 A 
ATOM     34  N   UNL A   1      38.859  32.287  33.270  1.00  0.00    -0.248 NA
ATOM     35  C   UNL A   1      37.118  33.841  33.326  1.00  0.00     0.031 C 
ATOM     36  C   UNL A   1      37.620  31.103  29.133  1.00  0.00     0.029 A 
ATOM     37  N   UNL A   1      39.018  30.660  30.820  1.00  0.00    -0.354 N 
ATOM     38  C   UNL A   1      38.917  33.005  34.456  1.00  0.00     0.074 A 
ATOM     39  C   UNL A   1      37.861  33.992  34.411  1.00  0.00     0.031 C 
ATOM     40  C   UNL A   1      38.433  30.110  28.733  1.00  0.00     0.029 A 
ATOM     41  C   UNL A   1      39.373  29.804  29.806  1.00  0.00     0.049 A 
ATOM     42  H   UNL A   1      39.477  30.684  31.691  1.00  0.00     0.167 HD
ATOM     43  C   UNL A   1      39.761  32.837  35.501  1.00  0.00     0.037 A 
ATOM     44  C   UNL A   1      40.351  28.879  29.751  1.00  0.00     0.037 A 
ATOM     45  C   UNL A   1      40.764  31.811  35.571  1.00  0.00     0.049 A 
ATOM     46  C   UNL A   1      41.241  28.683  30.948  1.00  0.00     0.074 A 
ATOM     47  C   UNL A   1      41.602  31.496  36.626  1.00  0.00     0.029 A 
ATOM     48  N   UNL A   1      41.057  30.925  34.545  1.00  0.00    -0.354 N 
ATOM     49  N   UNL A   1      41.232  29.311  32.099  1.00  0.00    -0.248 NA
ATOM     50  C   UNL A   1      42.273  27.642  30.843  1.00  0.00     0.031 C 
ATOM     51  C   UNL A   1      42.424  30.436  36.227  1.00  0.00     0.029 A 
ATOM     52  C   UNL A   1      42.073  30.070  34.939  1.00  0.00     0.049 A 
ATOM     53  H   UNL A   1      40.610  30.907  33.669  1.00  0.00     0.167 HD
ATOM     54  C   UNL A   1      42.230  28.723  32.863  1.00  0.00     0.074 A 
ATOM     55  C   UNL A   1      42.819  27.679  32.051  1.00  0.00     0.031 C 
ATOM     56  C   UNL A   1      42.626  29.021  34.123  1.00  0.00     0.037 A 
BRANCH  43  57
ATOM     57  C   UNL A   1      39.623  33.772  36.664  1.00  0.00     0.064 A 
ATOM     58  C   UNL A   1      40.250  35.026  36.678  1.00  0.00     0.173 A 
ATOM     59  C   UNL A   1      38.815  33.427  37.759  1.00  0.00     0.173 A 
ATOM     60  F   UNL A   1      41.044  35.393  35.661  1.00  0.00    -0.203 F 
ATOM     61  C   UNL A   1      40.090  35.894  37.754  1.00  0.00     0.198 A 
ATOM     62  C   UNL A   1      38.636  34.310  38.821  1.00  0.00     0.198 A 
ATOM     63  F   UNL A   1      38.192  32.240  37.793  1.00  0.00    -0.203 F 
ATOM     64  F   UNL A   1      40.731  37.071  37.763  1.00  0.00    -0.200 F 
ATOM     65  C   UNL A   1      39.277  35.539  38.820  1.00  0.00     0.200 A 
ATOM     66  F   UNL A   1      37.843  33.970  39.846  1.00  0.00    -0.200 F 
ATOM     67  F   UNL A   1      39.117  36.381  39.850  1.00  0.00    -0.200 F 
ENDBRANCH  43  57
BRANCH  44  68
ATOM     68  C   UNL A   1      40.526  28.041  28.537  1.00  0.00     0.064 A 
ATOM     69  C   UNL A   1      41.297  28.497  27.457  1.00  0.00     0.173 A 
ATOM     70  C   UNL A   1      39.905  26.790  28.412  1.00  0.00     0.173 A 
ATOM     71  F   UNL A   1      41.892  29.696  27.521  1.00  0.00    -0.203 F 
ATOM     72  C   UNL A   1      41.417  27.747  26.289  1.00  0.00     0.198 A 
ATOM     73  C   UNL A   1      40.048  26.028  27.254  1.00  0.00     0.198 A 
ATOM     74  F   UNL A   1      39.161  26.307  29.418  1.00  0.00    -0.203 F 
ATOM     75  F   UNL A   1      42.116  28.231  25.254  1.00  0.00    -0.200 F 
ATOM     76  C   UNL A   1      40.794  26.512  26.190  1.00  0.00     0.200 A 
ATOM     77  F   UNL A   1      39.453  24.831  27.165  1.00  0.00    -0.200 F 
ATOM     78  F   UNL A   1      40.904  25.793  25.064  1.00  0.00    -0.200 F 
ENDBRANCH  44  68
BRANCH  56  79
ATOM     79  C   UNL A   1      43.713  28.180  34.719  1.00  0.00     0.064 A 
ATOM     80  C   UNL A   1      43.430  26.983  35.392  1.00  0.00     0.173 A 
ATOM     81  C   UNL A   1      45.058  28.553  34.572  1.00  0.00     0.173 A 
ATOM     82  F   UNL A   1      42.158  26.593  35.570  1.00  0.00    -0.203 F 
ATOM     83  C   UNL A   1      44.454  26.198  35.913  1.00  0.00     0.198 A 
ATOM     84  C   UNL A   1      46.080  27.754  35.073  1.00  0.00     0.198 A 
ATOM     85  F   UNL A   1      45.378  29.687  33.931  1.00  0.00    -0.203 F 
ATOM     86  F   UNL A   1      44.161  25.078  36.587  1.00  0.00    -0.200 F 
ATOM     87  C   UNL A   1      45.778  26.581  35.747  1.00  0.00     0.200 A 
ATOM     88  F   UNL A   1      47.358  28.118  34.902  1.00  0.00    -0.200 F 
ATOM     89  F   UNL A   1      46.763  25.819  36.243  1.00  0.00    -0.200 F 
ENDBRANCH  56  79
ENDBRANCH  30  31
ENDBRANCH  22  25
ENDBRANCH  20  21
ENDBRANCH  19  20
ENDBRANCH   1  19
TORSDOF 14
ENDMDL
