MODEL 1
REMARK VINA RESULT:     -12.9      0.000      0.000
REMARK SMILES CCOC(=O)c1nc(Nc2cccc(C(=O)NCCCCNC(=O)c3ccc(-c4c5nc(c(-c6c(F)c(F)c(F)c(F)c6F)c6ccc([nH]6)c(-c6c(F)c(F)c(F)c(F)c6F)c6nc(c(-c7c(F)c(F)c(F)c(F)c7F)c7ccc4[nH]7)C=C6)C=C5)cc3)c2)c2ccccc2n1
REMARK SMILES IDX 18 1 17 2 15 3 16 4 14 6 10 7 11 8 88 9 12 10 13 11 9 12
REMARK SMILES IDX 8 14 6 15 7 16 95 17 94 18 89 19 93 20 90 21 92 22 91 23
REMARK SMILES IDX 4 24 5 25 3 26 2 27 1 28 19 29 20 30 21 31 22 32 23 33 24 35
REMARK SMILES IDX 25 36 26 37 87 38 27 39 86 40 28 41 29 42 30 43 80 44 31 45
REMARK SMILES IDX 85 46 79 47 81 48 32 49 84 50 78 51 77 52 33 54 65 55 45 56
REMARK SMILES IDX 64 57 46 58 49 59 63 60 82 61 47 62 48 63 62 65 83 66 50 67
REMARK SMILES IDX 34 68 35 69 43 70 36 71 37 72 41 73 44 74 38 75 39 76 42 77
REMARK SMILES IDX 40 78 66 79 67 80 75 81 68 82 69 83 73 84 76 85 70 86 71 87
REMARK SMILES IDX 74 88 72 89 51 90 52 91 60 92 53 93 54 94 58 95 61 96 55 97
REMARK SMILES IDX 56 98 59 99 57 100
REMARK H PARENT 17 5 9 13 22 34 81 53 49 64
REMARK Flexibility Score: inf
ROOT
ATOM      1  C   UNL A   1      33.148  29.445  26.827  1.00  0.00     0.116 C 
ENDROOT
BRANCH   1   2
ATOM      2  N   UNL A   1      33.664  29.216  25.486  1.00  0.00    -0.352 N 
ATOM      3  C   UNL A   1      33.456  28.169  24.609  1.00  0.00     0.251 C 
ATOM      4  O   UNL A   1      34.035  28.182  23.524  1.00  0.00    -0.269 OA
ATOM      5  H   UNL A   1      34.257  29.924  25.146  1.00  0.00     0.163 HD
BRANCH   3   6
ATOM      6  C   UNL A   1      32.613  26.999  24.975  1.00  0.00     0.041 A 
ATOM      7  C   UNL A   1      32.420  24.750  25.907  1.00  0.00     0.040 A 
ATOM      8  C   UNL A   1      31.143  24.654  25.347  1.00  0.00     0.026 A 
ATOM      9  C   UNL A   1      33.095  25.970  25.784  1.00  0.00     0.040 A 
ATOM     10  C   UNL A   1      30.575  25.740  24.669  1.00  0.00     0.003 A 
ATOM     11  C   UNL A   1      31.318  26.905  24.463  1.00  0.00     0.014 A 
BRANCH   7  12
ATOM     12  N   UNL A   1      33.026  23.631  26.516  1.00  0.00    -0.340 N 
ATOM     13  H   UNL A   1      32.977  23.600  27.499  1.00  0.00     0.168 HD
BRANCH  12  14
ATOM     14  C   UNL A   1      33.691  22.555  25.897  1.00  0.00     0.142 A 
ATOM     15  C   UNL A   1      33.585  20.419  25.071  1.00  0.00     0.241 A 
ATOM     16  N   UNL A   1      32.956  21.472  25.608  1.00  0.00    -0.204 NA
ATOM     17  N   UNL A   1      34.892  20.357  24.771  1.00  0.00    -0.222 NA
ATOM     18  C   UNL A   1      35.613  21.449  25.037  1.00  0.00     0.077 A 
ATOM     19  C   UNL A   1      35.074  22.602  25.637  1.00  0.00     0.043 A 
ATOM     20  C   UNL A   1      36.962  21.437  24.705  1.00  0.00     0.029 A 
ATOM     21  C   UNL A   1      35.935  23.687  25.944  1.00  0.00     0.014 A 
ATOM     22  C   UNL A   1      37.800  22.521  24.974  1.00  0.00     0.002 A 
ATOM     23  C   UNL A   1      37.289  23.644  25.610  1.00  0.00     0.001 A 
BRANCH  15  24
ATOM     24  C   UNL A   1      32.726  19.224  24.815  1.00  0.00     0.376 C 
ATOM     25  O   UNL A   1      32.192  18.556  25.684  1.00  0.00    -0.242 OA
BRANCH  24  26
ATOM     26  O   UNL A   1      32.714  18.950  23.479  1.00  0.00    -0.460 OA
BRANCH  26  27
ATOM     27  C   UNL A   1      32.688  17.554  23.147  1.00  0.00     0.230 C 
ATOM     28  C   UNL A   1      34.088  16.960  23.136  1.00  0.00     0.049 C 
ENDBRANCH  26  27
ENDBRANCH  24  26
ENDBRANCH  15  24
ENDBRANCH  12  14
ENDBRANCH   7  12
ENDBRANCH   3   6
ENDBRANCH   1   2
BRANCH   1  29
ATOM     29  C   UNL A   1      31.806  30.161  26.881  1.00  0.00     0.023 C 
BRANCH  29  30
ATOM     30  C   UNL A   1      31.828  31.658  26.602  1.00  0.00     0.023 C 
BRANCH  30  31
ATOM     31  C   UNL A   1      32.903  32.457  27.330  1.00  0.00     0.116 C 
BRANCH  31  32
ATOM     32  N   UNL A   1      32.522  33.831  27.624  1.00  0.00    -0.352 N 
ATOM     33  C   UNL A   1      33.059  34.718  28.529  1.00  0.00     0.251 C 
ATOM     34  H   UNL A   1      31.767  34.178  27.096  1.00  0.00     0.163 HD
ATOM     35  O   UNL A   1      32.543  35.819  28.697  1.00  0.00    -0.269 OA
BRANCH  33  36
ATOM     36  C   UNL A   1      34.234  34.328  29.339  1.00  0.00     0.039 A 
ATOM     37  C   UNL A   1      34.026  33.688  30.563  1.00  0.00     0.014 A 
ATOM     38  C   UNL A   1      35.533  34.555  28.879  1.00  0.00     0.014 A 
ATOM     39  C   UNL A   1      35.116  33.186  31.277  1.00  0.00     0.010 A 
ATOM     40  C   UNL A   1      36.610  33.979  29.546  1.00  0.00     0.010 A 
ATOM     41  C   UNL A   1      36.413  33.279  30.747  1.00  0.00    -0.014 A 
BRANCH  41  42
ATOM     42  C   UNL A   1      37.573  32.635  31.419  1.00  0.00     0.031 A 
ATOM     43  C   UNL A   1      38.268  31.467  30.777  1.00  0.00     0.074 A 
ATOM     44  C   UNL A   1      37.948  33.052  32.646  1.00  0.00     0.049 A 
ATOM     45  N   UNL A   1      39.233  30.718  31.246  1.00  0.00    -0.248 NA
ATOM     46  C   UNL A   1      37.794  31.066  29.442  1.00  0.00     0.031 C 
ATOM     47  C   UNL A   1      37.317  34.137  33.402  1.00  0.00     0.029 A 
ATOM     48  N   UNL A   1      38.940  32.602  33.482  1.00  0.00    -0.354 N 
ATOM     49  C   UNL A   1      39.467  29.751  30.277  1.00  0.00     0.074 A 
ATOM     50  C   UNL A   1      38.512  29.975  29.215  1.00  0.00     0.031 C 
ATOM     51  C   UNL A   1      37.949  34.279  34.579  1.00  0.00     0.029 A 
ATOM     52  C   UNL A   1      39.000  33.272  34.681  1.00  0.00     0.049 A 
ATOM     53  H   UNL A   1      39.551  31.868  33.245  1.00  0.00     0.167 HD
ATOM     54  C   UNL A   1      40.407  28.778  30.265  1.00  0.00     0.037 A 
ATOM     55  C   UNL A   1      39.805  33.089  35.746  1.00  0.00     0.037 A 
ATOM     56  C   UNL A   1      41.383  28.580  31.305  1.00  0.00     0.049 A 
ATOM     57  C   UNL A   1      40.850  32.006  35.696  1.00  0.00     0.074 A 
ATOM     58  C   UNL A   1      42.425  27.671  31.346  1.00  0.00     0.029 A 
ATOM     59  N   UNL A   1      41.435  29.304  32.486  1.00  0.00    -0.354 N 
ATOM     60  N   UNL A   1      41.113  31.152  34.738  1.00  0.00    -0.248 NA
ATOM     61  C   UNL A   1      41.715  31.865  36.878  1.00  0.00     0.031 C 
ATOM     62  C   UNL A   1      43.081  27.814  32.573  1.00  0.00     0.029 A 
ATOM     63  C   UNL A   1      42.480  28.846  33.273  1.00  0.00     0.049 A 
ATOM     64  H   UNL A   1      40.822  30.035  32.729  1.00  0.00     0.167 HD
ATOM     65  C   UNL A   1      42.191  30.398  35.183  1.00  0.00     0.074 A 
ATOM     66  C   UNL A   1      42.543  30.906  36.493  1.00  0.00     0.031 C 
ATOM     67  C   UNL A   1      42.830  29.375  34.566  1.00  0.00     0.037 A 
BRANCH  54  68
ATOM     68  C   UNL A   1      40.445  27.852  29.085  1.00  0.00     0.064 A 
ATOM     69  C   UNL A   1      39.692  26.669  29.055  1.00  0.00     0.173 A 
ATOM     70  C   UNL A   1      41.188  28.187  27.943  1.00  0.00     0.173 A 
ATOM     71  F   UNL A   1      38.974  26.297  30.126  1.00  0.00    -0.203 F 
ATOM     72  C   UNL A   1      39.696  25.846  27.932  1.00  0.00     0.198 A 
ATOM     73  C   UNL A   1      41.166  27.377  26.810  1.00  0.00     0.198 A 
ATOM     74  F   UNL A   1      41.921  29.311  27.917  1.00  0.00    -0.203 F 
ATOM     75  F   UNL A   1      38.998  24.702  27.940  1.00  0.00    -0.200 F 
ATOM     76  C   UNL A   1      40.424  26.205  26.807  1.00  0.00     0.200 A 
ATOM     77  F   UNL A   1      41.859  27.733  25.720  1.00  0.00    -0.200 F 
ATOM     78  F   UNL A   1      40.412  25.421  25.721  1.00  0.00    -0.200 F 
ENDBRANCH  54  68
BRANCH  55  79
ATOM     79  C   UNL A   1      39.670  33.955  36.948  1.00  0.00     0.064 A 
ATOM     80  C   UNL A   1      38.895  33.550  38.044  1.00  0.00     0.173 A 
ATOM     81  C   UNL A   1      40.279  35.216  37.011  1.00  0.00     0.173 A 
ATOM     82  F   UNL A   1      38.275  32.360  38.023  1.00  0.00    -0.203 F 
ATOM     83  C   UNL A   1      38.708  34.387  39.143  1.00  0.00     0.198 A 
ATOM     84  C   UNL A   1      40.116  36.040  38.123  1.00  0.00     0.198 A 
ATOM     85  F   UNL A   1      41.034  35.650  35.990  1.00  0.00    -0.203 F 
ATOM     86  F   UNL A   1      37.913  33.999  40.149  1.00  0.00    -0.200 F 
ATOM     87  C   UNL A   1      39.321  35.630  39.183  1.00  0.00     0.200 A 
ATOM     88  F   UNL A   1      40.722  37.234  38.164  1.00  0.00    -0.200 F 
ATOM     89  F   UNL A   1      39.137  36.437  40.237  1.00  0.00    -0.200 F 
ENDBRANCH  55  79
BRANCH  67  90
ATOM     90  C   UNL A   1      44.003  28.765  35.275  1.00  0.00     0.064 A 
ATOM     91  C   UNL A   1      43.863  27.644  36.106  1.00  0.00     0.173 A 
ATOM     92  C   UNL A   1      45.293  29.286  35.086  1.00  0.00     0.173 A 
ATOM     93  F   UNL A   1      42.649  27.118  36.330  1.00  0.00    -0.203 F 
ATOM     94  C   UNL A   1      44.966  27.083  36.741  1.00  0.00     0.198 A 
ATOM     95  C   UNL A   1      46.399  28.703  35.698  1.00  0.00     0.198 A 
ATOM     96  F   UNL A   1      45.483  30.353  34.295  1.00  0.00    -0.203 F 
ATOM     97  F   UNL A   1      44.803  26.041  37.568  1.00  0.00    -0.200 F 
ATOM     98  C   UNL A   1      46.233  27.607  36.531  1.00  0.00     0.200 A 
ATOM     99  F   UNL A   1      47.623  29.202  35.482  1.00  0.00    -0.200 F 
ATOM    100  F   UNL A   1      47.296  27.059  37.138  1.00  0.00    -0.200 F 
ENDBRANCH  67  90
ENDBRANCH  41  42
ENDBRANCH  33  36
ENDBRANCH  31  32
ENDBRANCH  30  31
ENDBRANCH  29  30
ENDBRANCH   1  29
TORSDOF 16
ENDMDL
MODEL 2
REMARK VINA RESULT:     -12.7      0.741      7.099
REMARK SMILES CCOC(=O)c1nc(Nc2cccc(C(=O)NCCCCNC(=O)c3ccc(-c4c5nc(c(-c6c(F)c(F)c(F)c(F)c6F)c6ccc([nH]6)c(-c6c(F)c(F)c(F)c(F)c6F)c6nc(c(-c7c(F)c(F)c(F)c(F)c7F)c7ccc4[nH]7)C=C6)C=C5)cc3)c2)c2ccccc2n1
REMARK SMILES IDX 18 1 17 2 15 3 16 4 14 6 10 7 11 8 88 9 12 10 13 11 9 12
REMARK SMILES IDX 8 14 6 15 7 16 95 17 94 18 89 19 93 20 90 21 92 22 91 23
REMARK SMILES IDX 4 24 5 25 3 26 2 27 1 28 19 29 20 30 21 31 22 32 23 33 24 35
REMARK SMILES IDX 25 36 26 37 87 38 27 39 86 40 28 41 29 42 30 43 80 44 31 45
REMARK SMILES IDX 85 46 79 47 81 48 32 49 84 50 78 51 77 52 33 54 65 55 45 56
REMARK SMILES IDX 64 57 46 58 49 59 63 60 82 61 47 62 48 63 62 65 83 66 50 67
REMARK SMILES IDX 34 68 35 69 43 70 36 71 37 72 41 73 44 74 38 75 39 76 42 77
REMARK SMILES IDX 40 78 66 79 67 80 75 81 68 82 69 83 73 84 76 85 70 86 71 87
REMARK SMILES IDX 74 88 72 89 51 90 52 91 60 92 53 93 54 94 58 95 61 96 55 97
REMARK SMILES IDX 56 98 59 99 57 100
REMARK H PARENT 17 5 9 13 22 34 81 53 49 64
REMARK Flexibility Score: inf
ROOT
ATOM      1  C   UNL A   1      33.026  29.607  26.620  1.00  0.00     0.116 C 
ENDROOT
BRANCH   1   2
ATOM      2  N   UNL A   1      33.658  29.297  25.347  1.00  0.00    -0.352 N 
ATOM      3  C   UNL A   1      33.534  28.192  24.527  1.00  0.00     0.251 C 
ATOM      4  O   UNL A   1      34.205  28.140  23.498  1.00  0.00    -0.269 OA
ATOM      5  H   UNL A   1      34.274  29.989  25.014  1.00  0.00     0.163 HD
BRANCH   3   6
ATOM      6  C   UNL A   1      32.669  27.038  24.896  1.00  0.00     0.041 A 
ATOM      7  C   UNL A   1      32.428  24.814  25.873  1.00  0.00     0.040 A 
ATOM      8  C   UNL A   1      31.166  24.717  25.280  1.00  0.00     0.026 A 
ATOM      9  C   UNL A   1      33.118  26.025  25.742  1.00  0.00     0.040 A 
ATOM     10  C   UNL A   1      30.628  25.792  24.561  1.00  0.00     0.003 A 
ATOM     11  C   UNL A   1      31.388  26.945  24.350  1.00  0.00     0.014 A 
BRANCH   7  12
ATOM     12  N   UNL A   1      33.005  23.704  26.525  1.00  0.00    -0.340 N 
ATOM     13  H   UNL A   1      32.921  23.691  27.506  1.00  0.00     0.168 HD
BRANCH  12  14
ATOM     14  C   UNL A   1      33.686  22.613  25.950  1.00  0.00     0.142 A 
ATOM     15  C   UNL A   1      33.589  20.476  25.126  1.00  0.00     0.241 A 
ATOM     16  N   UNL A   1      32.949  21.543  25.620  1.00  0.00    -0.204 NA
ATOM     17  N   UNL A   1      34.910  20.388  24.906  1.00  0.00    -0.222 NA
ATOM     18  C   UNL A   1      35.635  21.467  25.213  1.00  0.00     0.077 A 
ATOM     19  C   UNL A   1      35.083  22.632  25.776  1.00  0.00     0.043 A 
ATOM     20  C   UNL A   1      37.001  21.427  24.964  1.00  0.00     0.029 A 
ATOM     21  C   UNL A   1      35.945  23.702  26.132  1.00  0.00     0.014 A 
ATOM     22  C   UNL A   1      37.842  22.496  25.281  1.00  0.00     0.002 A 
ATOM     23  C   UNL A   1      37.315  23.632  25.882  1.00  0.00     0.001 A 
BRANCH  15  24
ATOM     24  C   UNL A   1      32.725  19.297  24.820  1.00  0.00     0.376 C 
ATOM     25  O   UNL A   1      32.155  18.621  25.660  1.00  0.00    -0.242 OA
BRANCH  24  26
ATOM     26  O   UNL A   1      32.752  19.046  23.480  1.00  0.00    -0.460 OA
BRANCH  26  27
ATOM     27  C   UNL A   1      32.655  17.661  23.120  1.00  0.00     0.230 C 
ATOM     28  C   UNL A   1      34.019  16.989  23.124  1.00  0.00     0.049 C 
ENDBRANCH  26  27
ENDBRANCH  24  26
ENDBRANCH  15  24
ENDBRANCH  12  14
ENDBRANCH   7  12
ENDBRANCH   3   6
ENDBRANCH   1   2
BRANCH   1  29
ATOM     29  C   UNL A   1      31.658  30.264  26.510  1.00  0.00     0.023 C 
BRANCH  29  30
ATOM     30  C   UNL A   1      31.637  31.787  26.515  1.00  0.00     0.023 C 
BRANCH  30  31
ATOM     31  C   UNL A   1      32.802  32.468  27.224  1.00  0.00     0.116 C 
BRANCH  31  32
ATOM     32  N   UNL A   1      32.538  33.847  27.607  1.00  0.00    -0.352 N 
ATOM     33  C   UNL A   1      33.148  34.628  28.562  1.00  0.00     0.251 C 
ATOM     34  H   UNL A   1      31.813  34.289  27.107  1.00  0.00     0.163 HD
ATOM     35  O   UNL A   1      32.726  35.755  28.802  1.00  0.00    -0.269 OA
BRANCH  33  36
ATOM     36  C   UNL A   1      34.288  34.092  29.338  1.00  0.00     0.039 A 
ATOM     37  C   UNL A   1      34.028  33.234  30.410  1.00  0.00     0.014 A 
ATOM     38  C   UNL A   1      35.605  34.398  28.989  1.00  0.00     0.014 A 
ATOM     39  C   UNL A   1      35.089  32.605  31.066  1.00  0.00     0.010 A 
ATOM     40  C   UNL A   1      36.655  33.705  29.585  1.00  0.00     0.010 A 
ATOM     41  C   UNL A   1      36.408  32.793  30.623  1.00  0.00    -0.014 A 
BRANCH  41  42
ATOM     42  C   UNL A   1      37.541  32.033  31.216  1.00  0.00     0.031 A 
ATOM     43  C   UNL A   1      38.036  32.366  32.596  1.00  0.00     0.074 A 
ATOM     44  C   UNL A   1      38.175  31.099  30.478  1.00  0.00     0.049 A 
ATOM     45  N   UNL A   1      39.063  31.881  33.246  1.00  0.00    -0.248 NA
ATOM     46  C   UNL A   1      37.296  33.403  33.333  1.00  0.00     0.031 C 
ATOM     47  C   UNL A   1      37.830  30.725  29.105  1.00  0.00     0.029 A 
ATOM     48  N   UNL A   1      39.256  30.305  30.773  1.00  0.00    -0.354 N 
ATOM     49  C   UNL A   1      39.105  32.566  34.453  1.00  0.00     0.074 A 
ATOM     50  C   UNL A   1      38.030  33.534  34.429  1.00  0.00     0.031 C 
ATOM     51  C   UNL A   1      38.668  29.764  28.685  1.00  0.00     0.029 A 
ATOM     52  C   UNL A   1      39.636  29.481  29.740  1.00  0.00     0.049 A 
ATOM     53  H   UNL A   1      39.716  30.324  31.643  1.00  0.00     0.167 HD
ATOM     54  C   UNL A   1      39.949  32.388  35.496  1.00  0.00     0.037 A 
ATOM     55  C   UNL A   1      40.655  28.605  29.650  1.00  0.00     0.037 A 
ATOM     56  C   UNL A   1      40.993  31.398  35.535  1.00  0.00     0.049 A 
ATOM     57  C   UNL A   1      41.569  28.421  30.833  1.00  0.00     0.074 A 
ATOM     58  C   UNL A   1      41.849  31.089  36.577  1.00  0.00     0.029 A 
ATOM     59  N   UNL A   1      41.322  30.557  34.482  1.00  0.00    -0.354 N 
ATOM     60  N   UNL A   1      41.545  29.017  31.999  1.00  0.00    -0.248 NA
ATOM     61  C   UNL A   1      42.652  27.435  30.687  1.00  0.00     0.031 C 
ATOM     62  C   UNL A   1      42.726  30.092  36.140  1.00  0.00     0.029 A 
ATOM     63  C   UNL A   1      42.383  29.743  34.845  1.00  0.00     0.049 A 
ATOM     64  H   UNL A   1      40.869  30.539  33.609  1.00  0.00     0.167 HD
ATOM     65  C   UNL A   1      42.581  28.458  32.736  1.00  0.00     0.074 A 
ATOM     66  C   UNL A   1      43.206  27.463  31.890  1.00  0.00     0.031 C 
ATOM     67  C   UNL A   1      42.982  28.744  33.998  1.00  0.00     0.037 A 
BRANCH  54  68
ATOM     68  C   UNL A   1      39.778  33.272  36.696  1.00  0.00     0.064 A 
ATOM     69  C   UNL A   1      40.468  34.486  36.819  1.00  0.00     0.173 A 
ATOM     70  C   UNL A   1      38.860  32.933  37.702  1.00  0.00     0.173 A 
ATOM     71  F   UNL A   1      41.365  34.851  35.891  1.00  0.00    -0.203 F 
ATOM     72  C   UNL A   1      40.260  35.322  37.914  1.00  0.00     0.198 A 
ATOM     73  C   UNL A   1      38.632  33.784  38.781  1.00  0.00     0.198 A 
ATOM     74  F   UNL A   1      38.169  31.785  37.630  1.00  0.00    -0.203 F 
ATOM     75  F   UNL A   1      40.957  36.459  38.028  1.00  0.00    -0.200 F 
ATOM     76  C   UNL A   1      39.335  34.975  38.888  1.00  0.00     0.200 A 
ATOM     77  F   UNL A   1      37.728  33.455  39.713  1.00  0.00    -0.200 F 
ATOM     78  F   UNL A   1      39.122  35.788  39.931  1.00  0.00    -0.200 F 
ENDBRANCH  54  68
BRANCH  55  79
ATOM     79  C   UNL A   1      40.865  27.821  28.404  1.00  0.00     0.064 A 
ATOM     80  C   UNL A   1      40.344  26.525  28.271  1.00  0.00     0.173 A 
ATOM     81  C   UNL A   1      41.619  28.332  27.338  1.00  0.00     0.173 A 
ATOM     82  F   UNL A   1      39.635  25.984  29.273  1.00  0.00    -0.203 F 
ATOM     83  C   UNL A   1      40.598  25.759  27.135  1.00  0.00     0.198 A 
ATOM     84  C   UNL A   1      41.846  27.577  26.189  1.00  0.00     0.198 A 
ATOM     85  F   UNL A   1      42.136  29.567  27.411  1.00  0.00    -0.203 F 
ATOM     86  F   UNL A   1      40.140  24.502  27.062  1.00  0.00    -0.200 F 
ATOM     87  C   UNL A   1      41.345  26.287  26.093  1.00  0.00     0.200 A 
ATOM     88  F   UNL A   1      42.556  28.095  25.178  1.00  0.00    -0.200 F 
ATOM     89  F   UNL A   1      41.593  25.548  25.003  1.00  0.00    -0.200 F 
ENDBRANCH  55  79
BRANCH  67  90
ATOM     90  C   UNL A   1      44.120  27.943  34.560  1.00  0.00     0.064 A 
ATOM     91  C   UNL A   1      43.917  26.690  35.156  1.00  0.00     0.173 A 
ATOM     92  C   UNL A   1      45.436  28.419  34.462  1.00  0.00     0.173 A 
ATOM     93  F   UNL A   1      42.676  26.197  35.287  1.00  0.00    -0.203 F 
ATOM     94  C   UNL A   1      44.988  25.955  35.656  1.00  0.00     0.198 A 
ATOM     95  C   UNL A   1      46.508  27.667  34.934  1.00  0.00     0.198 A 
ATOM     96  F   UNL A   1      45.685  29.609  33.894  1.00  0.00    -0.203 F 
ATOM     97  F   UNL A   1      44.766  24.781  36.264  1.00  0.00    -0.200 F 
ATOM     98  C   UNL A   1      46.282  26.439  35.538  1.00  0.00     0.200 A 
ATOM     99  F   UNL A   1      47.758  28.131  34.806  1.00  0.00    -0.200 F 
ATOM    100  F   UNL A   1      47.312  25.726  36.012  1.00  0.00    -0.200 F 
ENDBRANCH  67  90
ENDBRANCH  41  42
ENDBRANCH  33  36
ENDBRANCH  31  32
ENDBRANCH  30  31
ENDBRANCH  29  30
ENDBRANCH   1  29
TORSDOF 16
ENDMDL
MODEL 3
REMARK VINA RESULT:     -12.6      0.908      7.223
REMARK SMILES CCOC(=O)c1nc(Nc2cccc(C(=O)NCCCCNC(=O)c3ccc(-c4c5nc(c(-c6c(F)c(F)c(F)c(F)c6F)c6ccc([nH]6)c(-c6c(F)c(F)c(F)c(F)c6F)c6nc(c(-c7c(F)c(F)c(F)c(F)c7F)c7ccc4[nH]7)C=C6)C=C5)cc3)c2)c2ccccc2n1
REMARK SMILES IDX 18 1 17 2 15 3 16 4 14 6 10 7 11 8 88 9 12 10 13 11 9 12
REMARK SMILES IDX 8 14 6 15 7 16 95 17 94 18 89 19 93 20 90 21 92 22 91 23
REMARK SMILES IDX 4 24 5 25 3 26 2 27 1 28 19 29 20 30 21 31 22 32 23 33 24 35
REMARK SMILES IDX 25 36 26 37 87 38 27 39 86 40 28 41 29 42 30 43 80 44 31 45
REMARK SMILES IDX 85 46 79 47 81 48 32 49 84 50 78 51 77 52 33 54 65 55 45 56
REMARK SMILES IDX 64 57 46 58 49 59 63 60 82 61 47 62 48 63 62 65 83 66 50 67
REMARK SMILES IDX 34 68 35 69 43 70 36 71 37 72 41 73 44 74 38 75 39 76 42 77
REMARK SMILES IDX 40 78 66 79 67 80 75 81 68 82 69 83 73 84 76 85 70 86 71 87
REMARK SMILES IDX 74 88 72 89 51 90 52 91 60 92 53 93 54 94 58 95 61 96 55 97
REMARK SMILES IDX 56 98 59 99 57 100
REMARK H PARENT 17 5 9 13 22 34 81 53 49 64
REMARK Flexibility Score: inf
ROOT
ATOM      1  C   UNL A   1      32.562  29.890  25.633  1.00  0.00     0.116 C 
ENDROOT
BRANCH   1   2
ATOM      2  N   UNL A   1      31.814  29.701  24.399  1.00  0.00    -0.352 N 
ATOM      3  C   UNL A   1      31.330  28.549  23.809  1.00  0.00     0.251 C 
ATOM      4  O   UNL A   1      30.745  28.639  22.730  1.00  0.00    -0.269 OA
ATOM      5  H   UNL A   1      31.620  30.529  23.904  1.00  0.00     0.163 HD
BRANCH   3   6
ATOM      6  C   UNL A   1      31.563  27.207  24.407  1.00  0.00     0.041 A 
ATOM      7  C   UNL A   1      32.434  24.934  24.209  1.00  0.00     0.040 A 
ATOM      8  C   UNL A   1      31.701  24.581  25.345  1.00  0.00     0.026 A 
ATOM      9  C   UNL A   1      32.420  26.279  23.817  1.00  0.00     0.040 A 
ATOM     10  C   UNL A   1      30.962  25.541  26.048  1.00  0.00     0.003 A 
ATOM     11  C   UNL A   1      30.874  26.849  25.567  1.00  0.00     0.014 A 
BRANCH   7  12
ATOM     12  N   UNL A   1      33.110  23.955  23.453  1.00  0.00    -0.340 N 
ATOM     13  H   UNL A   1      33.179  24.131  22.486  1.00  0.00     0.168 HD
BRANCH  12  14
ATOM     14  C   UNL A   1      33.697  22.756  23.904  1.00  0.00     0.142 A 
ATOM     15  C   UNL A   1      33.493  20.499  24.247  1.00  0.00     0.241 A 
ATOM     16  N   UNL A   1      32.972  21.637  23.772  1.00  0.00    -0.204 NA
ATOM     17  N   UNL A   1      34.696  20.372  24.828  1.00  0.00    -0.222 NA
ATOM     18  C   UNL A   1      35.424  21.486  24.933  1.00  0.00     0.077 A 
ATOM     19  C   UNL A   1      34.969  22.747  24.507  1.00  0.00     0.043 A 
ATOM     20  C   UNL A   1      36.691  21.387  25.494  1.00  0.00     0.029 A 
ATOM     21  C   UNL A   1      35.788  23.886  24.724  1.00  0.00     0.014 A 
ATOM     22  C   UNL A   1      37.511  22.504  25.672  1.00  0.00     0.002 A 
ATOM     23  C   UNL A   1      37.052  23.760  25.300  1.00  0.00     0.001 A 
BRANCH  15  24
ATOM     24  C   UNL A   1      32.621  19.293  24.116  1.00  0.00     0.376 C 
ATOM     25  O   UNL A   1      32.162  18.883  23.063  1.00  0.00    -0.242 OA
BRANCH  24  26
ATOM     26  O   UNL A   1      32.350  18.789  25.353  1.00  0.00    -0.460 OA
BRANCH  26  27
ATOM     27  C   UNL A   1      32.548  17.375  25.490  1.00  0.00     0.230 C 
ATOM     28  C   UNL A   1      33.878  16.941  24.896  1.00  0.00     0.049 C 
ENDBRANCH  26  27
ENDBRANCH  24  26
ENDBRANCH  15  24
ENDBRANCH  12  14
ENDBRANCH   7  12
ENDBRANCH   3   6
ENDBRANCH   1   2
BRANCH   1  29
ATOM     29  C   UNL A   1      31.755  30.469  26.786  1.00  0.00     0.023 C 
BRANCH  29  30
ATOM     30  C   UNL A   1      31.542  31.977  26.770  1.00  0.00     0.023 C 
BRANCH  30  31
ATOM     31  C   UNL A   1      32.745  32.825  27.165  1.00  0.00     0.116 C 
BRANCH  31  32
ATOM     32  N   UNL A   1      32.404  34.173  27.598  1.00  0.00    -0.352 N 
ATOM     33  C   UNL A   1      32.962  34.946  28.591  1.00  0.00     0.251 C 
ATOM     34  H   UNL A   1      31.661  34.594  27.108  1.00  0.00     0.163 HD
ATOM     35  O   UNL A   1      32.478  36.038  28.870  1.00  0.00    -0.269 OA
BRANCH  33  36
ATOM     36  C   UNL A   1      34.121  34.440  29.358  1.00  0.00     0.039 A 
ATOM     37  C   UNL A   1      33.892  33.780  30.568  1.00  0.00     0.014 A 
ATOM     38  C   UNL A   1      35.423  34.578  28.872  1.00  0.00     0.014 A 
ATOM     39  C   UNL A   1      34.956  33.171  31.238  1.00  0.00     0.010 A 
ATOM     40  C   UNL A   1      36.467  33.899  29.493  1.00  0.00     0.010 A 
ATOM     41  C   UNL A   1      36.243  33.179  30.677  1.00  0.00    -0.014 A 
BRANCH  41  42
ATOM     42  C   UNL A   1      37.364  32.426  31.300  1.00  0.00     0.031 A 
ATOM     43  C   UNL A   1      37.878  32.819  32.657  1.00  0.00     0.074 A 
ATOM     44  C   UNL A   1      37.972  31.442  30.607  1.00  0.00     0.049 A 
ATOM     45  N   UNL A   1      38.901  32.346  33.324  1.00  0.00    -0.248 NA
ATOM     46  C   UNL A   1      37.167  33.908  33.345  1.00  0.00     0.031 C 
ATOM     47  C   UNL A   1      37.608  31.006  29.257  1.00  0.00     0.029 A 
ATOM     48  N   UNL A   1      39.038  30.641  30.934  1.00  0.00    -0.354 N 
ATOM     49  C   UNL A   1      38.967  33.091  34.494  1.00  0.00     0.074 A 
ATOM     50  C   UNL A   1      37.913  34.079  34.428  1.00  0.00     0.031 C 
ATOM     51  C   UNL A   1      38.422  30.006  28.881  1.00  0.00     0.029 A 
ATOM     52  C   UNL A   1      39.392  29.757  29.943  1.00  0.00     0.049 A 
ATOM     53  H   UNL A   1      39.506  30.694  31.799  1.00  0.00     0.167 HD
ATOM     54  C   UNL A   1      39.816  32.948  35.538  1.00  0.00     0.037 A 
ATOM     55  C   UNL A   1      40.392  28.856  29.891  1.00  0.00     0.037 A 
ATOM     56  C   UNL A   1      40.838  31.939  35.621  1.00  0.00     0.049 A 
ATOM     57  C   UNL A   1      41.312  28.712  31.074  1.00  0.00     0.074 A 
ATOM     58  C   UNL A   1      41.696  31.665  36.671  1.00  0.00     0.029 A 
ATOM     59  N   UNL A   1      41.141  31.038  34.611  1.00  0.00    -0.354 N 
ATOM     60  N   UNL A   1      41.310  29.368  32.209  1.00  0.00    -0.248 NA
ATOM     61  C   UNL A   1      42.371  27.697  30.971  1.00  0.00     0.031 C 
ATOM     62  C   UNL A   1      42.549  30.628  36.280  1.00  0.00     0.029 A 
ATOM     63  C   UNL A   1      42.188  30.221  35.007  1.00  0.00     0.049 A 
ATOM     64  H   UNL A   1      40.680  30.985  33.743  1.00  0.00     0.167 HD
ATOM     65  C   UNL A   1      42.340  28.825  32.965  1.00  0.00     0.074 A 
ATOM     66  C   UNL A   1      42.936  27.774  32.167  1.00  0.00     0.031 C 
ATOM     67  C   UNL A   1      42.757  29.167  34.209  1.00  0.00     0.037 A 
BRANCH  54  68
ATOM     68  C   UNL A   1      39.673  33.896  36.693  1.00  0.00     0.064 A 
ATOM     69  C   UNL A   1      38.870  33.589  37.801  1.00  0.00     0.173 A 
ATOM     70  C   UNL A   1      40.404  35.094  36.723  1.00  0.00     0.173 A 
ATOM     71  F   UNL A   1      38.143  32.461  37.816  1.00  0.00    -0.203 F 
ATOM     72  C   UNL A   1      38.789  34.454  38.889  1.00  0.00     0.198 A 
ATOM     73  C   UNL A   1      40.343  35.943  37.825  1.00  0.00     0.198 A 
ATOM     74  F   UNL A   1      41.192  35.432  35.691  1.00  0.00    -0.203 F 
ATOM     75  F   UNL A   1      37.987  34.156  39.920  1.00  0.00    -0.200 F 
ATOM     76  C   UNL A   1      39.533  35.624  38.905  1.00  0.00     0.200 A 
ATOM     77  F   UNL A   1      41.074  37.066  37.845  1.00  0.00    -0.200 F 
ATOM     78  F   UNL A   1      39.468  36.447  39.961  1.00  0.00    -0.200 F 
ENDBRANCH  54  68
BRANCH  55  79
ATOM     79  C   UNL A   1      40.574  28.004  28.685  1.00  0.00     0.064 A 
ATOM     80  C   UNL A   1      41.365  28.436  27.610  1.00  0.00     0.173 A 
ATOM     81  C   UNL A   1      39.934  26.762  28.564  1.00  0.00     0.173 A 
ATOM     82  F   UNL A   1      41.981  29.627  27.669  1.00  0.00    -0.203 F 
ATOM     83  C   UNL A   1      41.482  27.674  26.448  1.00  0.00     0.198 A 
ATOM     84  C   UNL A   1      40.077  25.987  27.415  1.00  0.00     0.198 A 
ATOM     85  F   UNL A   1      39.170  26.300  29.564  1.00  0.00    -0.203 F 
ATOM     86  F   UNL A   1      42.194  28.140  25.414  1.00  0.00    -0.200 F 
ATOM     87  C   UNL A   1      40.841  26.449  26.354  1.00  0.00     0.200 A 
ATOM     88  F   UNL A   1      39.468  24.796  27.332  1.00  0.00    -0.200 F 
ATOM     89  F   UNL A   1      40.949  25.719  25.234  1.00  0.00    -0.200 F 
ENDBRANCH  55  79
BRANCH  67  90
ATOM     90  C   UNL A   1      43.882  28.371  34.803  1.00  0.00     0.064 A 
ATOM     91  C   UNL A   1      45.219  28.776  34.679  1.00  0.00     0.173 A 
ATOM     92  C   UNL A   1      43.613  27.209  35.542  1.00  0.00     0.173 A 
ATOM     93  F   UNL A   1      45.529  29.871  33.969  1.00  0.00    -0.203 F 
ATOM     94  C   UNL A   1      46.247  28.033  35.251  1.00  0.00     0.198 A 
ATOM     95  C   UNL A   1      44.641  26.486  36.141  1.00  0.00     0.198 A 
ATOM     96  F   UNL A   1      42.350  26.783  35.698  1.00  0.00    -0.203 F 
ATOM     97  F   UNL A   1      47.521  28.411  35.080  1.00  0.00    -0.200 F 
ATOM     98  C   UNL A   1      45.957  26.894  35.988  1.00  0.00     0.200 A 
ATOM     99  F   UNL A   1      44.357  25.394  36.864  1.00  0.00    -0.200 F 
ATOM    100  F   UNL A   1      46.948  26.184  36.546  1.00  0.00    -0.200 F 
ENDBRANCH  67  90
ENDBRANCH  41  42
ENDBRANCH  33  36
ENDBRANCH  31  32
ENDBRANCH  30  31
ENDBRANCH  29  30
ENDBRANCH   1  29
TORSDOF 16
ENDMDL
