MODEL 1
REMARK VINA RESULT:     -11.3      0.000      0.000
REMARK SMILES C[C@@H](Cc1ccco1)C(=O)NCCCCNC(=O)c1ccc(-c2c3nc(c(-c4c(F)c(F)c(F)c(F)c4F)c4ccc([nH]4)c(-c4c(F)c(F)c(F)c(F)c4F)c4nc(c(-c5c(F)c(F)c(F)c(F)c5F)c5ccc2[nH]5)C=C4)C=C3)cc1
REMARK SMILES IDX 13 1 12 2 11 3 9 4 10 5 2 7 1 8 3 9 4 10 5 11 8 12 6 13 7 14
REMARK SMILES IDX 14 15 15 16 16 17 17 18 18 20 19 21 20 22 81 23 21 24 80 25
REMARK SMILES IDX 22 26 23 27 24 28 74 29 25 30 79 31 73 32 75 33 26 34 78 35
REMARK SMILES IDX 72 36 71 37 27 39 59 40 39 41 58 42 40 43 43 44 57 45 76 46
REMARK SMILES IDX 41 47 42 48 56 50 77 51 44 52 28 53 29 54 37 55 30 56 31 57
REMARK SMILES IDX 35 58 38 59 32 60 33 61 36 62 34 63 60 64 61 65 69 66 62 67
REMARK SMILES IDX 63 68 67 69 70 70 64 71 65 72 68 73 66 74 45 75 46 76 54 77
REMARK SMILES IDX 47 78 48 79 52 80 55 81 49 82 50 83 53 84 51 85
REMARK H PARENT 11 6 16 19 75 38 43 49
REMARK Flexibility Score: inf
ROOT
ATOM      1  C   UNL A   1      32.091  27.604  26.818  1.00  0.00     0.023 C 
ENDROOT
BRANCH   1   2
ATOM      2  C   UNL A   1      30.886  26.754  26.442  1.00  0.00     0.116 C 
BRANCH   2   3
ATOM      3  N   UNL A   1      30.994  26.112  25.154  1.00  0.00    -0.356 N 
ATOM      4  C   UNL A   1      30.951  26.662  23.909  1.00  0.00     0.223 C 
ATOM      5  O   UNL A   1      31.257  25.927  22.964  1.00  0.00    -0.275 OA
ATOM      6  H   UNL A   1      31.116  25.135  25.179  1.00  0.00     0.163 HD
BRANCH   4   7
ATOM      7  C   UNL A   1      30.519  28.106  23.642  1.00  0.00     0.083 C 
ATOM      8  C   UNL A   1      31.596  28.948  22.960  1.00  0.00     0.018 C 
BRANCH   7   9
ATOM      9  C   UNL A   1      29.077  28.283  23.136  1.00  0.00     0.088 C 
BRANCH   9  10
ATOM     10  C   UNL A   1      28.645  29.640  22.698  1.00  0.00     0.104 A 
ATOM     11  C   UNL A   1      28.289  30.804  23.353  1.00  0.00     0.045 A 
ATOM     12  O   UNL A   1      28.543  29.826  21.349  1.00  0.00    -0.469 OA
ATOM     13  C   UNL A   1      28.001  31.761  22.347  1.00  0.00     0.042 A 
ATOM     14  C   UNL A   1      28.140  31.106  21.147  1.00  0.00     0.195 A 
ENDBRANCH   9  10
ENDBRANCH   7   9
ENDBRANCH   4   7
ENDBRANCH   2   3
ENDBRANCH   1   2
BRANCH   1  15
ATOM     15  C   UNL A   1      31.794  29.075  27.079  1.00  0.00     0.023 C 
BRANCH  15  16
ATOM     16  C   UNL A   1      32.693  30.075  26.360  1.00  0.00     0.116 C 
BRANCH  16  17
ATOM     17  N   UNL A   1      32.555  31.455  26.808  1.00  0.00    -0.352 N 
ATOM     18  C   UNL A   1      33.460  32.217  27.514  1.00  0.00     0.251 C 
ATOM     19  H   UNL A   1      31.708  31.900  26.577  1.00  0.00     0.163 HD
ATOM     20  O   UNL A   1      33.187  33.363  27.858  1.00  0.00    -0.269 OA
BRANCH  18  21
ATOM     21  C   UNL A   1      34.750  31.611  27.906  1.00  0.00     0.039 A 
ATOM     22  C   UNL A   1      35.874  32.432  28.025  1.00  0.00     0.014 A 
ATOM     23  C   UNL A   1      34.819  30.260  28.254  1.00  0.00     0.014 A 
ATOM     24  C   UNL A   1      37.039  31.922  28.599  1.00  0.00     0.010 A 
ATOM     25  C   UNL A   1      35.952  29.777  28.900  1.00  0.00     0.010 A 
ATOM     26  C   UNL A   1      37.066  30.607  29.096  1.00  0.00    -0.014 A 
BRANCH  26  27
ATOM     27  C   UNL A   1      38.233  30.090  29.857  1.00  0.00     0.031 A 
ATOM     28  C   UNL A   1      38.475  30.542  31.268  1.00  0.00     0.074 A 
ATOM     29  C   UNL A   1      39.126  29.289  29.243  1.00  0.00     0.049 A 
ATOM     30  N   UNL A   1      39.484  30.281  32.059  1.00  0.00    -0.248 NA
ATOM     31  C   UNL A   1      37.465  31.435  31.857  1.00  0.00     0.031 C 
ATOM     32  C   UNL A   1      39.042  28.832  27.854  1.00  0.00     0.029 A 
ATOM     33  N   UNL A   1      40.292  28.730  29.704  1.00  0.00    -0.354 N 
ATOM     34  C   UNL A   1      39.243  30.996  33.225  1.00  0.00     0.074 A 
ATOM     35  C   UNL A   1      38.019  31.738  33.021  1.00  0.00     0.031 C 
ATOM     36  C   UNL A   1      40.093  28.041  27.586  1.00  0.00     0.029 A 
ATOM     37  C   UNL A   1      40.943  27.962  28.769  1.00  0.00     0.049 A 
ATOM     38  H   UNL A   1      40.629  28.864  30.619  1.00  0.00     0.167 HD
ATOM     39  C   UNL A   1      39.968  31.014  34.369  1.00  0.00     0.037 A 
ATOM     40  C   UNL A   1      42.099  27.276  28.856  1.00  0.00     0.037 A 
ATOM     41  C   UNL A   1      41.161  30.242  34.586  1.00  0.00     0.049 A 
ATOM     42  C   UNL A   1      42.868  27.289  30.149  1.00  0.00     0.074 A 
ATOM     43  C   UNL A   1      41.919  30.129  35.739  1.00  0.00     0.029 A 
ATOM     44  N   UNL A   1      41.770  29.445  33.628  1.00  0.00    -0.354 N 
ATOM     45  N   UNL A   1      42.590  27.908  31.270  1.00  0.00    -0.248 NA
ATOM     46  C   UNL A   1      44.109  26.503  30.189  1.00  0.00     0.031 C 
ATOM     47  C   UNL A   1      43.005  29.289  35.469  1.00  0.00     0.029 A 
ATOM     48  C   UNL A   1      42.902  28.850  34.158  1.00  0.00     0.049 A 
ATOM     49  H   UNL A   1      41.445  29.321  32.707  1.00  0.00     0.167 HD
ATOM     50  C   UNL A   1      43.602  27.566  32.156  1.00  0.00     0.074 A 
ATOM     51  C   UNL A   1      44.496  26.676  31.446  1.00  0.00     0.031 C 
ATOM     52  C   UNL A   1      43.774  27.956  33.441  1.00  0.00     0.037 A 
BRANCH  39  53
ATOM     53  C   UNL A   1      39.477  31.894  35.481  1.00  0.00     0.064 A 
ATOM     54  C   UNL A   1      38.557  31.429  36.433  1.00  0.00     0.173 A 
ATOM     55  C   UNL A   1      39.953  33.207  35.611  1.00  0.00     0.173 A 
ATOM     56  F   UNL A   1      38.063  30.186  36.342  1.00  0.00    -0.203 F 
ATOM     57  C   UNL A   1      38.108  32.257  37.457  1.00  0.00     0.198 A 
ATOM     58  C   UNL A   1      39.523  34.022  36.654  1.00  0.00     0.198 A 
ATOM     59  F   UNL A   1      40.838  33.697  34.730  1.00  0.00    -0.203 F 
ATOM     60  F   UNL A   1      37.191  31.808  38.326  1.00  0.00    -0.200 F 
ATOM     61  C   UNL A   1      38.596  33.550  37.571  1.00  0.00     0.200 A 
ATOM     62  F   UNL A   1      40.002  35.270  36.770  1.00  0.00    -0.200 F 
ATOM     63  F   UNL A   1      38.165  34.345  38.561  1.00  0.00    -0.200 F 
ENDBRANCH  39  53
BRANCH  40  64
ATOM     64  C   UNL A   1      42.582  26.482  27.696  1.00  0.00     0.064 A 
ATOM     65  C   UNL A   1      42.124  25.174  27.487  1.00  0.00     0.173 A 
ATOM     66  C   UNL A   1      43.506  27.006  26.782  1.00  0.00     0.173 A 
ATOM     67  F   UNL A   1      41.256  24.623  28.348  1.00  0.00    -0.203 F 
ATOM     68  C   UNL A   1      42.587  24.413  26.415  1.00  0.00     0.198 A 
ATOM     69  C   UNL A   1      43.949  26.252  25.698  1.00  0.00     0.198 A 
ATOM     70  F   UNL A   1      43.970  28.255  26.937  1.00  0.00    -0.203 F 
ATOM     71  F   UNL A   1      42.163  23.150  26.262  1.00  0.00    -0.200 F 
ATOM     72  C   UNL A   1      43.495  24.953  25.520  1.00  0.00     0.200 A 
ATOM     73  F   UNL A   1      44.820  26.781  24.827  1.00  0.00    -0.200 F 
ATOM     74  F   UNL A   1      43.938  24.222  24.489  1.00  0.00    -0.200 F 
ENDBRANCH  40  64
BRANCH  52  75
ATOM     75  C   UNL A   1      44.954  27.394  34.177  1.00  0.00     0.064 A 
ATOM     76  C   UNL A   1      46.181  28.073  34.220  1.00  0.00     0.173 A 
ATOM     77  C   UNL A   1      44.842  26.186  34.881  1.00  0.00     0.173 A 
ATOM     78  F   UNL A   1      46.341  29.223  33.550  1.00  0.00    -0.203 F 
ATOM     79  C   UNL A   1      47.260  27.550  34.929  1.00  0.00     0.198 A 
ATOM     80  C   UNL A   1      45.914  25.680  35.608  1.00  0.00     0.198 A 
ATOM     81  F   UNL A   1      43.686  25.504  34.872  1.00  0.00    -0.203 F 
ATOM     82  F   UNL A   1      48.435  28.194  34.927  1.00  0.00    -0.200 F 
ATOM     83  C   UNL A   1      47.124  26.359  35.628  1.00  0.00     0.200 A 
ATOM     84  F   UNL A   1      45.778  24.535  36.291  1.00  0.00    -0.200 F 
ATOM     85  F   UNL A   1      48.161  25.862  36.315  1.00  0.00    -0.200 F 
ENDBRANCH  52  75
ENDBRANCH  26  27
ENDBRANCH  18  21
ENDBRANCH  16  17
ENDBRANCH  15  16
ENDBRANCH   1  15
TORSDOF 13
ENDMDL
MODEL 2
REMARK VINA RESULT:     -11.2      0.550      7.673
REMARK SMILES C[C@@H](Cc1ccco1)C(=O)NCCCCNC(=O)c1ccc(-c2c3nc(c(-c4c(F)c(F)c(F)c(F)c4F)c4ccc([nH]4)c(-c4c(F)c(F)c(F)c(F)c4F)c4nc(c(-c5c(F)c(F)c(F)c(F)c5F)c5ccc2[nH]5)C=C4)C=C3)cc1
REMARK SMILES IDX 13 1 12 2 11 3 9 4 10 5 2 7 1 8 3 9 4 10 5 11 8 12 6 13 7 14
REMARK SMILES IDX 14 15 15 16 16 17 17 18 18 20 19 21 20 22 81 23 21 24 80 25
REMARK SMILES IDX 22 26 23 27 24 28 74 29 25 30 79 31 73 32 75 33 26 34 78 35
REMARK SMILES IDX 72 36 71 37 27 39 59 40 39 41 58 42 40 43 43 44 57 45 76 46
REMARK SMILES IDX 41 47 42 48 56 50 77 51 44 52 28 53 29 54 37 55 30 56 31 57
REMARK SMILES IDX 35 58 38 59 32 60 33 61 36 62 34 63 60 64 61 65 69 66 62 67
REMARK SMILES IDX 63 68 67 69 70 70 64 71 65 72 68 73 66 74 45 75 46 76 54 77
REMARK SMILES IDX 47 78 48 79 52 80 55 81 49 82 50 83 53 84 51 85
REMARK H PARENT 11 6 16 19 75 38 43 49
REMARK Flexibility Score: inf
ROOT
ATOM      1  C   UNL A   1      31.870  26.943  26.500  1.00  0.00     0.023 C 
ENDROOT
BRANCH   1   2
ATOM      2  C   UNL A   1      30.652  26.318  25.837  1.00  0.00     0.116 C 
BRANCH   2   3
ATOM      3  N   UNL A   1      30.844  25.976  24.448  1.00  0.00    -0.356 N 
ATOM      4  C   UNL A   1      30.875  26.787  23.355  1.00  0.00     0.223 C 
ATOM      5  O   UNL A   1      31.244  26.277  22.292  1.00  0.00    -0.275 OA
ATOM      6  H   UNL A   1      30.971  25.016  24.265  1.00  0.00     0.163 HD
BRANCH   4   7
ATOM      7  C   UNL A   1      30.449  28.258  23.386  1.00  0.00     0.083 C 
ATOM      8  C   UNL A   1      31.464  29.199  22.741  1.00  0.00     0.018 C 
BRANCH   7   9
ATOM      9  C   UNL A   1      28.965  28.524  23.083  1.00  0.00     0.088 C 
BRANCH   9  10
ATOM     10  C   UNL A   1      28.581  29.870  22.575  1.00  0.00     0.104 A 
ATOM     11  C   UNL A   1      28.258  31.077  23.168  1.00  0.00     0.045 A 
ATOM     12  O   UNL A   1      28.494  29.993  21.217  1.00  0.00    -0.469 OA
ATOM     13  C   UNL A   1      28.008  31.991  22.113  1.00  0.00     0.042 A 
ATOM     14  C   UNL A   1      28.133  31.273  20.948  1.00  0.00     0.195 A 
ENDBRANCH   9  10
ENDBRANCH   7   9
ENDBRANCH   4   7
ENDBRANCH   2   3
ENDBRANCH   1   2
BRANCH   1  15
ATOM     15  C   UNL A   1      31.701  28.392  26.939  1.00  0.00     0.023 C 
BRANCH  15  16
ATOM     16  C   UNL A   1      32.625  29.404  26.269  1.00  0.00     0.116 C 
BRANCH  16  17
ATOM     17  N   UNL A   1      32.342  30.797  26.590  1.00  0.00    -0.352 N 
ATOM     18  C   UNL A   1      33.159  31.712  27.220  1.00  0.00     0.251 C 
ATOM     19  H   UNL A   1      31.453  31.128  26.323  1.00  0.00     0.163 HD
ATOM     20  O   UNL A   1      32.765  32.850  27.459  1.00  0.00    -0.269 OA
BRANCH  18  21
ATOM     21  C   UNL A   1      34.502  31.282  27.659  1.00  0.00     0.039 A 
ATOM     22  C   UNL A   1      35.506  32.243  27.804  1.00  0.00     0.014 A 
ATOM     23  C   UNL A   1      34.735  29.954  28.026  1.00  0.00     0.014 A 
ATOM     24  C   UNL A   1      36.708  31.894  28.421  1.00  0.00     0.010 A 
ATOM     25  C   UNL A   1      35.899  29.628  28.713  1.00  0.00     0.010 A 
ATOM     26  C   UNL A   1      36.889  30.598  28.934  1.00  0.00    -0.014 A 
BRANCH  26  27
ATOM     27  C   UNL A   1      38.087  30.243  29.738  1.00  0.00     0.031 A 
ATOM     28  C   UNL A   1      39.105  29.284  29.193  1.00  0.00     0.074 A 
ATOM     29  C   UNL A   1      38.207  30.710  30.997  1.00  0.00     0.049 A 
ATOM     30  N   UNL A   1      40.162  28.778  29.776  1.00  0.00    -0.248 NA
ATOM     31  C   UNL A   1      38.888  28.801  27.820  1.00  0.00     0.031 C 
ATOM     32  C   UNL A   1      37.253  31.596  31.668  1.00  0.00     0.029 A 
ATOM     33  N   UNL A   1      39.176  30.492  31.944  1.00  0.00    -0.354 N 
ATOM     34  C   UNL A   1      40.717  27.901  28.854  1.00  0.00     0.074 A 
ATOM     35  C   UNL A   1      39.857  27.908  27.691  1.00  0.00     0.031 C 
ATOM     36  C   UNL A   1      37.698  31.867  32.905  1.00  0.00     0.029 A 
ATOM     37  C   UNL A   1      38.948  31.149  33.129  1.00  0.00     0.049 A 
ATOM     38  H   UNL A   1      39.963  29.920  31.789  1.00  0.00     0.167 HD
ATOM     39  C   UNL A   1      41.854  27.173  28.961  1.00  0.00     0.037 A 
ATOM     40  C   UNL A   1      39.666  31.167  34.268  1.00  0.00     0.037 A 
ATOM     41  C   UNL A   1      42.732  27.200  30.099  1.00  0.00     0.049 A 
ATOM     42  C   UNL A   1      40.941  30.372  34.348  1.00  0.00     0.074 A 
ATOM     43  C   UNL A   1      43.949  26.563  30.267  1.00  0.00     0.029 A 
ATOM     44  N   UNL A   1      42.488  27.909  31.266  1.00  0.00    -0.354 N 
ATOM     45  N   UNL A   1      41.496  29.607  33.441  1.00  0.00    -0.248 NA
ATOM     46  C   UNL A   1      41.691  30.450  35.610  1.00  0.00     0.031 C 
ATOM     47  C   UNL A   1      44.426  26.859  31.548  1.00  0.00     0.029 A 
ATOM     48  C   UNL A   1      43.523  27.712  32.165  1.00  0.00     0.049 A 
ATOM     49  H   UNL A   1      41.694  28.469  31.432  1.00  0.00     0.167 HD
ATOM     50  C   UNL A   1      42.672  29.135  34.008  1.00  0.00     0.074 A 
ATOM     51  C   UNL A   1      42.755  29.707  35.335  1.00  0.00     0.031 C 
ATOM     52  C   UNL A   1      43.597  28.300  33.477  1.00  0.00     0.037 A 
BRANCH  39  53
ATOM     53  C   UNL A   1      42.218  26.291  27.803  1.00  0.00     0.064 A 
ATOM     54  C   UNL A   1      43.119  26.714  26.813  1.00  0.00     0.173 A 
ATOM     55  C   UNL A   1      41.681  25.000  27.696  1.00  0.00     0.173 A 
ATOM     56  F   UNL A   1      43.649  27.944  26.865  1.00  0.00    -0.203 F 
ATOM     57  C   UNL A   1      43.445  25.886  25.743  1.00  0.00     0.198 A 
ATOM     58  C   UNL A   1      42.031  24.165  26.639  1.00  0.00     0.198 A 
ATOM     59  F   UNL A   1      40.819  24.547  28.619  1.00  0.00    -0.203 F 
ATOM     60  F   UNL A   1      44.269  26.329  24.783  1.00  0.00    -0.200 F 
ATOM     61  C   UNL A   1      42.906  24.611  25.660  1.00  0.00     0.200 A 
ATOM     62  F   UNL A   1      41.518  22.929  26.564  1.00  0.00    -0.200 F 
ATOM     63  F   UNL A   1      43.225  23.814  24.630  1.00  0.00    -0.200 F 
ENDBRANCH  39  53
BRANCH  40  64
ATOM     64  C   UNL A   1      39.218  31.997  35.416  1.00  0.00     0.064 A 
ATOM     65  C   UNL A   1      38.404  31.450  36.418  1.00  0.00     0.173 A 
ATOM     66  C   UNL A   1      39.588  33.343  35.537  1.00  0.00     0.173 A 
ATOM     67  F   UNL A   1      38.008  30.171  36.333  1.00  0.00    -0.203 F 
ATOM     68  C   UNL A   1      37.960  32.224  37.487  1.00  0.00     0.198 A 
ATOM     69  C   UNL A   1      39.163  34.110  36.620  1.00  0.00     0.198 A 
ATOM     70  F   UNL A   1      40.370  33.911  34.607  1.00  0.00    -0.203 F 
ATOM     71  F   UNL A   1      37.148  31.687  38.409  1.00  0.00    -0.200 F 
ATOM     72  C   UNL A   1      38.343  33.552  37.590  1.00  0.00     0.200 A 
ATOM     73  F   UNL A   1      39.544  35.391  36.723  1.00  0.00    -0.200 F 
ATOM     74  F   UNL A   1      37.918  34.296  38.620  1.00  0.00    -0.200 F 
ENDBRANCH  40  64
BRANCH  52  75
ATOM     75  C   UNL A   1      44.799  27.984  34.315  1.00  0.00     0.064 A 
ATOM     76  C   UNL A   1      45.933  28.810  34.311  1.00  0.00     0.173 A 
ATOM     77  C   UNL A   1      44.799  26.867  35.164  1.00  0.00     0.173 A 
ATOM     78  F   UNL A   1      45.985  29.881  33.505  1.00  0.00    -0.203 F 
ATOM     79  C   UNL A   1      47.031  28.517  35.115  1.00  0.00     0.198 A 
ATOM     80  C   UNL A   1      45.889  26.591  35.983  1.00  0.00     0.198 A 
ATOM     81  F   UNL A   1      43.735  26.050  35.205  1.00  0.00    -0.203 F 
ATOM     82  F   UNL A   1      48.120  29.297  35.068  1.00  0.00    -0.200 F 
ATOM     83  C   UNL A   1      47.006  27.413  35.954  1.00  0.00     0.200 A 
ATOM     84  F   UNL A   1      45.858  25.531  36.801  1.00  0.00    -0.200 F 
ATOM     85  F   UNL A   1      48.062  27.137  36.732  1.00  0.00    -0.200 F 
ENDBRANCH  52  75
ENDBRANCH  26  27
ENDBRANCH  18  21
ENDBRANCH  16  17
ENDBRANCH  15  16
ENDBRANCH   1  15
TORSDOF 13
ENDMDL
MODEL 3
REMARK VINA RESULT:     -11.2      1.777      2.959
REMARK SMILES C[C@@H](Cc1ccco1)C(=O)NCCCCNC(=O)c1ccc(-c2c3nc(c(-c4c(F)c(F)c(F)c(F)c4F)c4ccc([nH]4)c(-c4c(F)c(F)c(F)c(F)c4F)c4nc(c(-c5c(F)c(F)c(F)c(F)c5F)c5ccc2[nH]5)C=C4)C=C3)cc1
REMARK SMILES IDX 13 1 12 2 11 3 9 4 10 5 2 7 1 8 3 9 4 10 5 11 8 12 6 13 7 14
REMARK SMILES IDX 14 15 15 16 16 17 17 18 18 20 19 21 20 22 81 23 21 24 80 25
REMARK SMILES IDX 22 26 23 27 24 28 74 29 25 30 79 31 73 32 75 33 26 34 78 35
REMARK SMILES IDX 72 36 71 37 27 39 59 40 39 41 58 42 40 43 43 44 57 45 76 46
REMARK SMILES IDX 41 47 42 48 56 50 77 51 44 52 28 53 29 54 37 55 30 56 31 57
REMARK SMILES IDX 35 58 38 59 32 60 33 61 36 62 34 63 60 64 61 65 69 66 62 67
REMARK SMILES IDX 63 68 67 69 70 70 64 71 65 72 68 73 66 74 45 75 46 76 54 77
REMARK SMILES IDX 47 78 48 79 52 80 55 81 49 82 50 83 53 84 51 85
REMARK H PARENT 11 6 16 19 75 38 43 49
REMARK Flexibility Score: inf
ROOT
ATOM      1  C   UNL A   1      32.168  30.331  26.696  1.00  0.00     0.023 C 
ENDROOT
BRANCH   1   2
ATOM      2  C   UNL A   1      31.404  29.581  25.615  1.00  0.00     0.116 C 
BRANCH   2   3
ATOM      3  N   UNL A   1      32.040  29.598  24.321  1.00  0.00    -0.356 N 
ATOM      4  C   UNL A   1      31.687  28.949  23.177  1.00  0.00     0.223 C 
ATOM      5  O   UNL A   1      32.283  29.273  22.145  1.00  0.00    -0.275 OA
ATOM      6  H   UNL A   1      32.846  30.160  24.254  1.00  0.00     0.163 HD
BRANCH   4   7
ATOM      7  C   UNL A   1      30.631  27.840  23.130  1.00  0.00     0.083 C 
ATOM      8  C   UNL A   1      31.093  26.533  23.770  1.00  0.00     0.018 C 
BRANCH   7   9
ATOM      9  C   UNL A   1      29.189  28.285  23.425  1.00  0.00     0.088 C 
BRANCH   9  10
ATOM     10  C   UNL A   1      28.734  29.599  22.889  1.00  0.00     0.104 A 
ATOM     11  C   UNL A   1      28.295  30.780  23.457  1.00  0.00     0.045 A 
ATOM     12  O   UNL A   1      28.708  29.710  21.528  1.00  0.00    -0.469 OA
ATOM     13  C   UNL A   1      28.032  31.670  22.385  1.00  0.00     0.042 A 
ATOM     14  C   UNL A   1      28.269  30.960  21.233  1.00  0.00     0.195 A 
ENDBRANCH   9  10
ENDBRANCH   7   9
ENDBRANCH   4   7
ENDBRANCH   2   3
ENDBRANCH   1   2
BRANCH   1  15
ATOM     15  C   UNL A   1      31.783  31.794  26.871  1.00  0.00     0.023 C 
BRANCH  15  16
ATOM     16  C   UNL A   1      32.908  32.734  27.294  1.00  0.00     0.116 C 
BRANCH  16  17
ATOM     17  N   UNL A   1      32.482  34.088  27.625  1.00  0.00    -0.352 N 
ATOM     18  C   UNL A   1      33.024  34.949  28.555  1.00  0.00     0.251 C 
ATOM     19  H   UNL A   1      31.709  34.431  27.121  1.00  0.00     0.163 HD
ATOM     20  O   UNL A   1      32.530  36.055  28.753  1.00  0.00    -0.269 OA
BRANCH  18  21
ATOM     21  C   UNL A   1      34.179  34.497  29.357  1.00  0.00     0.039 A 
ATOM     22  C   UNL A   1      33.948  33.889  30.593  1.00  0.00     0.014 A 
ATOM     23  C   UNL A   1      35.474  34.579  28.839  1.00  0.00     0.014 A 
ATOM     24  C   UNL A   1      35.004  33.264  31.259  1.00  0.00     0.010 A 
ATOM     25  C   UNL A   1      36.507  33.887  29.463  1.00  0.00     0.010 A 
ATOM     26  C   UNL A   1      36.278  33.207  30.670  1.00  0.00    -0.014 A 
BRANCH  26  27
ATOM     27  C   UNL A   1      37.377  32.412  31.275  1.00  0.00     0.031 A 
ATOM     28  C   UNL A   1      37.874  32.737  32.653  1.00  0.00     0.074 A 
ATOM     29  C   UNL A   1      37.991  31.460  30.544  1.00  0.00     0.049 A 
ATOM     30  N   UNL A   1      38.882  32.225  33.312  1.00  0.00    -0.248 NA
ATOM     31  C   UNL A   1      37.166  33.806  33.375  1.00  0.00     0.031 C 
ATOM     32  C   UNL A   1      37.647  31.093  29.168  1.00  0.00     0.029 A 
ATOM     33  N   UNL A   1      39.046  30.637  30.851  1.00  0.00    -0.354 N 
ATOM     34  C   UNL A   1      38.944  32.925  34.510  1.00  0.00     0.074 A 
ATOM     35  C   UNL A   1      37.902  33.928  34.468  1.00  0.00     0.031 C 
ATOM     36  C   UNL A   1      38.456  30.101  28.761  1.00  0.00     0.029 A 
ATOM     37  C   UNL A   1      39.396  29.785  29.831  1.00  0.00     0.049 A 
ATOM     38  H   UNL A   1      39.507  30.653  31.721  1.00  0.00     0.167 HD
ATOM     39  C   UNL A   1      39.780  32.732  35.558  1.00  0.00     0.037 A 
ATOM     40  C   UNL A   1      40.370  28.857  29.767  1.00  0.00     0.037 A 
ATOM     41  C   UNL A   1      40.785  31.707  35.617  1.00  0.00     0.049 A 
ATOM     42  C   UNL A   1      41.264  28.643  30.958  1.00  0.00     0.074 A 
ATOM     43  C   UNL A   1      41.625  31.379  36.667  1.00  0.00     0.029 A 
ATOM     44  N   UNL A   1      41.085  30.837  34.579  1.00  0.00    -0.354 N 
ATOM     45  N   UNL A   1      41.263  29.260  32.113  1.00  0.00    -0.248 NA
ATOM     46  C   UNL A   1      42.293  27.600  30.834  1.00  0.00     0.031 C 
ATOM     47  C   UNL A   1      42.456  30.332  36.254  1.00  0.00     0.029 A 
ATOM     48  C   UNL A   1      42.108  29.983  34.958  1.00  0.00     0.049 A 
ATOM     49  H   UNL A   1      40.638  30.828  33.701  1.00  0.00     0.167 HD
ATOM     50  C   UNL A   1      42.266  28.664  32.865  1.00  0.00     0.074 A 
ATOM     51  C   UNL A   1      42.850  27.630  32.037  1.00  0.00     0.031 C 
ATOM     52  C   UNL A   1      42.668  28.950  34.126  1.00  0.00     0.037 A 
BRANCH  39  53
ATOM     53  C   UNL A   1      39.630  33.650  36.735  1.00  0.00     0.064 A 
ATOM     54  C   UNL A   1      40.310  34.876  36.801  1.00  0.00     0.173 A 
ATOM     55  C   UNL A   1      38.778  33.312  37.797  1.00  0.00     0.173 A 
ATOM     56  F   UNL A   1      41.145  35.238  35.817  1.00  0.00    -0.203 F 
ATOM     57  C   UNL A   1      40.164  35.716  37.902  1.00  0.00     0.198 A 
ATOM     58  C   UNL A   1      38.614  34.168  38.882  1.00  0.00     0.198 A 
ATOM     59  F   UNL A   1      38.103  32.153  37.780  1.00  0.00    -0.203 F 
ATOM     60  F   UNL A   1      40.861  36.859  37.965  1.00  0.00    -0.200 F 
ATOM     61  C   UNL A   1      39.312  35.364  38.938  1.00  0.00     0.200 A 
ATOM     62  F   UNL A   1      37.783  33.832  39.880  1.00  0.00    -0.200 F 
ATOM     63  F   UNL A   1      39.171  36.177  39.995  1.00  0.00    -0.200 F 
ENDBRANCH  39  53
BRANCH  40  64
ATOM     64  C   UNL A   1      40.526  28.027  28.544  1.00  0.00     0.064 A 
ATOM     65  C   UNL A   1      39.900  26.776  28.446  1.00  0.00     0.173 A 
ATOM     66  C   UNL A   1      41.300  28.458  27.458  1.00  0.00     0.173 A 
ATOM     67  F   UNL A   1      39.167  26.313  29.469  1.00  0.00    -0.203 F 
ATOM     68  C   UNL A   1      40.057  25.980  27.314  1.00  0.00     0.198 A 
ATOM     69  C   UNL A   1      41.436  27.671  26.317  1.00  0.00     0.198 A 
ATOM     70  F   UNL A   1      41.915  29.649  27.502  1.00  0.00    -0.203 F 
ATOM     71  F   UNL A   1      39.481  24.770  27.264  1.00  0.00    -0.200 F 
ATOM     72  C   UNL A   1      40.821  26.429  26.249  1.00  0.00     0.200 A 
ATOM     73  F   UNL A   1      42.167  28.112  25.284  1.00  0.00    -0.200 F 
ATOM     74  F   UNL A   1      40.971  25.664  25.159  1.00  0.00    -0.200 F 
ENDBRANCH  40  64
BRANCH  52  75
ATOM     75  C   UNL A   1      43.767  28.110  34.704  1.00  0.00     0.064 A 
ATOM     76  C   UNL A   1      43.496  26.904  35.367  1.00  0.00     0.173 A 
ATOM     77  C   UNL A   1      45.108  28.494  34.554  1.00  0.00     0.173 A 
ATOM     78  F   UNL A   1      42.230  26.503  35.549  1.00  0.00    -0.203 F 
ATOM     79  C   UNL A   1      44.530  26.123  35.877  1.00  0.00     0.198 A 
ATOM     80  C   UNL A   1      46.139  27.698  35.042  1.00  0.00     0.198 A 
ATOM     81  F   UNL A   1      45.417  29.638  33.923  1.00  0.00    -0.203 F 
ATOM     82  F   UNL A   1      44.249  24.993  36.541  1.00  0.00    -0.200 F 
ATOM     83  C   UNL A   1      45.850  26.516  35.708  1.00  0.00     0.200 A 
ATOM     84  F   UNL A   1      47.414  28.075  34.869  1.00  0.00    -0.200 F 
ATOM     85  F   UNL A   1      46.843  25.758  36.193  1.00  0.00    -0.200 F 
ENDBRANCH  52  75
ENDBRANCH  26  27
ENDBRANCH  18  21
ENDBRANCH  16  17
ENDBRANCH  15  16
ENDBRANCH   1  15
TORSDOF 13
ENDMDL
