MODEL 1
REMARK VINA RESULT:     -13.5      0.000      0.000
REMARK SMILES Cc1ccc(C[C@@H](Cc2cc(F)cc(Br)c2)C(=O)NCCCCNC(=O)c2ccc(-c3c4nc(c(-c5c(F)c(F)c(F)c(F)c5F)c5ccc([nH]5)c(-c5c(F)c(F)c(F)c(F)c5F)c5nc(c(-c6c(F)c(F)c(F)c(F)c6F)c6ccc3[nH]6)C=C5)C=C4)cc2)cc1
REMARK SMILES IDX 21 1 20 2 19 3 17 4 18 5 7 7 6 8 5 9 1 10 2 11 3 12 91 13
REMARK SMILES IDX 4 14 90 15 8 16 9 17 10 18 16 19 11 20 14 21 12 22 13 23
REMARK SMILES IDX 15 24 22 25 23 26 24 27 25 28 26 30 27 31 28 32 89 33 29 34
REMARK SMILES IDX 88 35 30 36 31 37 32 38 82 39 33 40 87 41 81 42 83 43 34 44
REMARK SMILES IDX 86 45 80 46 79 47 35 49 67 50 47 51 66 52 48 53 51 54 65 55
REMARK SMILES IDX 84 56 49 57 50 58 64 60 85 61 52 62 36 63 37 64 45 65 38 66
REMARK SMILES IDX 39 67 43 68 46 69 40 70 41 71 44 72 42 73 68 74 69 75 77 76
REMARK SMILES IDX 70 77 71 78 75 79 78 80 72 81 73 82 76 83 74 84 53 85 54 86
REMARK SMILES IDX 62 87 55 88 56 89 60 90 63 91 57 92 58 93 61 94 59 95
REMARK H PARENT 19 6 24 29 83 48 51 59
REMARK Flexibility Score: inf
ROOT
ATOM      1  C   UNL A   1      36.912  22.017  24.551  1.00  0.00     0.023 C 
ENDROOT
BRANCH   1   2
ATOM      2  C   UNL A   1      35.818  20.949  24.662  1.00  0.00     0.116 C 
BRANCH   2   3
ATOM      3  N   UNL A   1      35.200  20.944  25.977  1.00  0.00    -0.356 N 
ATOM      4  C   UNL A   1      34.249  21.745  26.525  1.00  0.00     0.223 C 
ATOM      5  O   UNL A   1      33.895  21.491  27.680  1.00  0.00    -0.275 OA
ATOM      6  H   UNL A   1      35.529  20.237  26.577  1.00  0.00     0.163 HD
BRANCH   4   7
ATOM      7  C   UNL A   1      33.625  22.908  25.770  1.00  0.00     0.087 C 
BRANCH   7   8
ATOM      8  C   UNL A   1      32.097  22.831  26.015  1.00  0.00     0.049 C 
BRANCH   8   9
ATOM      9  C   UNL A   1      31.188  23.855  25.378  1.00  0.00    -0.047 A 
ATOM     10  C   UNL A   1      29.010  27.088  23.503  1.00  0.00     0.044 C 
ATOM     11  C   UNL A   1      29.751  25.965  24.166  1.00  0.00    -0.051 A 
ATOM     12  C   UNL A   1      30.255  24.916  23.395  1.00  0.00     0.004 A 
ATOM     13  C   UNL A   1      29.949  25.943  25.550  1.00  0.00     0.004 A 
ATOM     14  C   UNL A   1      30.980  23.884  23.993  1.00  0.00     0.004 A 
ATOM     15  C   UNL A   1      30.655  24.896  26.150  1.00  0.00     0.004 A 
ENDBRANCH   8   9
ENDBRANCH   7   8
BRANCH   7  16
ATOM     16  C   UNL A   1      34.264  24.296  26.004  1.00  0.00     0.049 C 
BRANCH  16  17
ATOM     17  C   UNL A   1      33.966  25.544  25.194  1.00  0.00    -0.043 A 
ATOM     18  C   UNL A   1      33.976  25.396  23.795  1.00  0.00     0.043 A 
ATOM     19  C   UNL A   1      33.673  26.814  25.705  1.00  0.00     0.019 A 
ATOM     20  C   UNL A   1      33.625  26.450  22.960  1.00  0.00     0.124 A 
ATOM     21  C   UNL A   1      33.253  27.846  24.854  1.00  0.00     0.021 A 
ATOM     22  F   UNL A   1      33.668  26.264  21.637  1.00  0.00    -0.207 F 
ATOM     23  C   UNL A   1      33.223  27.669  23.476  1.00  0.00     0.055 A 
ATOM     24  Br  UNL A   1      32.670  29.489  25.589  1.00  0.00    -0.051 Br
ENDBRANCH  16  17
ENDBRANCH   7  16
ENDBRANCH   4   7
ENDBRANCH   2   3
ENDBRANCH   1   2
BRANCH   1  25
ATOM     25  C   UNL A   1      38.175  21.722  25.365  1.00  0.00     0.023 C 
BRANCH  25  26
ATOM     26  C   UNL A   1      38.653  22.905  26.195  1.00  0.00     0.116 C 
BRANCH  26  27
ATOM     27  N   UNL A   1      40.096  23.035  26.289  1.00  0.00    -0.352 N 
ATOM     28  C   UNL A   1      40.873  24.158  26.525  1.00  0.00     0.251 C 
ATOM     29  H   UNL A   1      40.599  22.198  26.164  1.00  0.00     0.163 HD
ATOM     30  O   UNL A   1      42.085  24.081  26.446  1.00  0.00    -0.269 OA
BRANCH  28  31
ATOM     31  C   UNL A   1      40.240  25.419  27.002  1.00  0.00     0.039 A 
ATOM     32  C   UNL A   1      40.575  26.607  26.338  1.00  0.00     0.014 A 
ATOM     33  C   UNL A   1      39.465  25.471  28.158  1.00  0.00     0.014 A 
ATOM     34  C   UNL A   1      40.332  27.835  26.953  1.00  0.00     0.010 A 
ATOM     35  C   UNL A   1      39.308  26.674  28.816  1.00  0.00     0.010 A 
ATOM     36  C   UNL A   1      39.790  27.848  28.238  1.00  0.00    -0.014 A 
BRANCH  36  37
ATOM     37  C   UNL A   1      39.772  29.035  29.079  1.00  0.00     0.031 A 
ATOM     38  C   UNL A   1      38.710  30.048  28.931  1.00  0.00     0.074 A 
ATOM     39  C   UNL A   1      40.712  29.191  30.036  1.00  0.00     0.049 A 
ATOM     40  N   UNL A   1      38.889  31.304  29.168  1.00  0.00    -0.248 NA
ATOM     41  C   UNL A   1      37.358  29.724  28.491  1.00  0.00     0.031 C 
ATOM     42  C   UNL A   1      40.735  30.208  31.082  1.00  0.00     0.029 A 
ATOM     43  N   UNL A   1      41.960  28.554  30.135  1.00  0.00    -0.354 N 
ATOM     44  C   UNL A   1      37.651  31.894  29.188  1.00  0.00     0.074 A 
ATOM     45  C   UNL A   1      36.736  30.894  28.683  1.00  0.00     0.031 C 
ATOM     46  C   UNL A   1      41.998  30.359  31.505  1.00  0.00     0.029 A 
ATOM     47  C   UNL A   1      42.838  29.528  30.663  1.00  0.00     0.049 A 
ATOM     48  H   UNL A   1      42.177  27.626  29.890  1.00  0.00     0.167 HD
ATOM     49  C   UNL A   1      37.488  33.114  29.770  1.00  0.00     0.037 A 
ATOM     50  C   UNL A   1      43.930  29.967  29.975  1.00  0.00     0.037 A 
ATOM     51  C   UNL A   1      38.730  33.620  30.336  1.00  0.00     0.049 A 
ATOM     52  C   UNL A   1      43.924  31.457  29.747  1.00  0.00     0.074 A 
ATOM     53  C   UNL A   1      39.245  33.585  31.623  1.00  0.00     0.029 A 
ATOM     54  N   UNL A   1      39.791  33.955  29.499  1.00  0.00    -0.354 N 
ATOM     55  N   UNL A   1      42.838  32.180  29.773  1.00  0.00    -0.248 NA
ATOM     56  C   UNL A   1      45.118  32.251  29.475  1.00  0.00     0.031 C 
ATOM     57  C   UNL A   1      40.631  33.860  31.554  1.00  0.00     0.029 A 
ATOM     58  C   UNL A   1      40.956  34.088  30.230  1.00  0.00     0.049 A 
ATOM     59  H   UNL A   1      39.720  34.078  28.524  1.00  0.00     0.167 HD
ATOM     60  C   UNL A   1      43.159  33.494  29.570  1.00  0.00     0.074 A 
ATOM     61  C   UNL A   1      44.598  33.488  29.376  1.00  0.00     0.031 C 
ATOM     62  C   UNL A   1      42.209  34.474  29.601  1.00  0.00     0.037 A 
BRANCH  49  63
ATOM     63  C   UNL A   1      36.120  33.656  30.076  1.00  0.00     0.064 A 
ATOM     64  C   UNL A   1      35.296  34.202  29.071  1.00  0.00     0.173 A 
ATOM     65  C   UNL A   1      35.596  33.700  31.381  1.00  0.00     0.173 A 
ATOM     66  F   UNL A   1      35.650  34.172  27.781  1.00  0.00    -0.203 F 
ATOM     67  C   UNL A   1      34.085  34.831  29.365  1.00  0.00     0.198 A 
ATOM     68  C   UNL A   1      34.406  34.371  31.680  1.00  0.00     0.198 A 
ATOM     69  F   UNL A   1      36.238  33.100  32.395  1.00  0.00    -0.203 F 
ATOM     70  F   UNL A   1      33.349  35.352  28.372  1.00  0.00    -0.200 F 
ATOM     71  C   UNL A   1      33.656  34.944  30.672  1.00  0.00     0.200 A 
ATOM     72  F   UNL A   1      34.002  34.473  32.954  1.00  0.00    -0.200 F 
ATOM     73  F   UNL A   1      32.521  35.598  30.958  1.00  0.00    -0.200 F 
ENDBRANCH  49  63
BRANCH  50  74
ATOM     74  C   UNL A   1      44.494  28.939  29.065  1.00  0.00     0.064 A 
ATOM     75  C   UNL A   1      45.271  27.910  29.637  1.00  0.00     0.173 A 
ATOM     76  C   UNL A   1      43.970  28.719  27.786  1.00  0.00     0.173 A 
ATOM     77  F   UNL A   1      45.793  28.069  30.864  1.00  0.00    -0.203 F 
ATOM     78  C   UNL A   1      45.405  26.671  29.015  1.00  0.00     0.198 A 
ATOM     79  C   UNL A   1      44.124  27.481  27.158  1.00  0.00     0.198 A 
ATOM     80  F   UNL A   1      43.211  29.651  27.195  1.00  0.00    -0.203 F 
ATOM     81  F   UNL A   1      46.043  25.674  29.644  1.00  0.00    -0.200 F 
ATOM     82  C   UNL A   1      44.806  26.449  27.788  1.00  0.00     0.200 A 
ATOM     83  F   UNL A   1      43.534  27.256  25.974  1.00  0.00    -0.200 F 
ATOM     84  F   UNL A   1      44.855  25.230  27.232  1.00  0.00    -0.200 F 
ENDBRANCH  50  74
BRANCH  62  85
ATOM     85  C   UNL A   1      42.381  35.910  29.174  1.00  0.00     0.064 A 
ATOM     86  C   UNL A   1      43.157  36.845  29.874  1.00  0.00     0.173 A 
ATOM     87  C   UNL A   1      41.888  36.345  27.917  1.00  0.00     0.173 A 
ATOM     88  F   UNL A   1      43.763  36.524  31.026  1.00  0.00    -0.203 F 
ATOM     89  C   UNL A   1      43.387  38.132  29.378  1.00  0.00     0.198 A 
ATOM     90  C   UNL A   1      42.167  37.608  27.401  1.00  0.00     0.198 A 
ATOM     91  F   UNL A   1      41.143  35.548  27.137  1.00  0.00    -0.203 F 
ATOM     92  F   UNL A   1      44.109  39.000  30.101  1.00  0.00    -0.200 F 
ATOM     93  C   UNL A   1      42.907  38.507  28.137  1.00  0.00     0.200 A 
ATOM     94  F   UNL A   1      41.733  37.936  26.175  1.00  0.00    -0.200 F 
ATOM     95  F   UNL A   1      43.176  39.723  27.644  1.00  0.00    -0.200 F 
ENDBRANCH  62  85
ENDBRANCH  36  37
ENDBRANCH  28  31
ENDBRANCH  26  27
ENDBRANCH  25  26
ENDBRANCH   1  25
TORSDOF 15
ENDMDL
MODEL 2
REMARK VINA RESULT:     -13.4      4.060      9.990
REMARK SMILES Cc1ccc(C[C@@H](Cc2cc(F)cc(Br)c2)C(=O)NCCCCNC(=O)c2ccc(-c3c4nc(c(-c5c(F)c(F)c(F)c(F)c5F)c5ccc([nH]5)c(-c5c(F)c(F)c(F)c(F)c5F)c5nc(c(-c6c(F)c(F)c(F)c(F)c6F)c6ccc3[nH]6)C=C5)C=C4)cc2)cc1
REMARK SMILES IDX 21 1 20 2 19 3 17 4 18 5 7 7 6 8 5 9 1 10 2 11 3 12 91 13
REMARK SMILES IDX 4 14 90 15 8 16 9 17 10 18 16 19 11 20 14 21 12 22 13 23
REMARK SMILES IDX 15 24 22 25 23 26 24 27 25 28 26 30 27 31 28 32 89 33 29 34
REMARK SMILES IDX 88 35 30 36 31 37 32 38 82 39 33 40 87 41 81 42 83 43 34 44
REMARK SMILES IDX 86 45 80 46 79 47 35 49 67 50 47 51 66 52 48 53 51 54 65 55
REMARK SMILES IDX 84 56 49 57 50 58 64 60 85 61 52 62 36 63 37 64 45 65 38 66
REMARK SMILES IDX 39 67 43 68 46 69 40 70 41 71 44 72 42 73 68 74 69 75 77 76
REMARK SMILES IDX 70 77 71 78 75 79 78 80 72 81 73 82 76 83 74 84 53 85 54 86
REMARK SMILES IDX 62 87 55 88 56 89 60 90 63 91 57 92 58 93 61 94 59 95
REMARK H PARENT 19 6 24 29 83 48 51 59
REMARK Flexibility Score: inf
ROOT
ATOM      1  C   UNL A   1      31.808  30.551  26.222  1.00  0.00     0.023 C 
ENDROOT
BRANCH   1   2
ATOM      2  C   UNL A   1      31.467  29.735  24.969  1.00  0.00     0.116 C 
BRANCH   2   3
ATOM      3  N   UNL A   1      32.580  29.692  24.035  1.00  0.00    -0.356 N 
ATOM      4  C   UNL A   1      33.295  28.648  23.537  1.00  0.00     0.223 C 
ATOM      5  O   UNL A   1      34.191  28.913  22.730  1.00  0.00    -0.275 OA
ATOM      6  H   UNL A   1      32.868  30.574  23.707  1.00  0.00     0.163 HD
BRANCH   4   7
ATOM      7  C   UNL A   1      33.020  27.206  23.933  1.00  0.00     0.087 C 
BRANCH   7   8
ATOM      8  C   UNL A   1      33.332  26.334  22.690  1.00  0.00     0.049 C 
BRANCH   8   9
ATOM      9  C   UNL A   1      33.003  24.861  22.712  1.00  0.00    -0.047 A 
ATOM     10  C   UNL A   1      32.183  20.652  23.285  1.00  0.00     0.044 C 
ATOM     11  C   UNL A   1      32.477  22.108  23.070  1.00  0.00    -0.051 A 
ATOM     12  C   UNL A   1      31.447  23.045  23.172  1.00  0.00     0.004 A 
ATOM     13  C   UNL A   1      33.767  22.550  22.766  1.00  0.00     0.004 A 
ATOM     14  C   UNL A   1      31.712  24.406  23.013  1.00  0.00     0.004 A 
ATOM     15  C   UNL A   1      34.027  23.913  22.584  1.00  0.00     0.004 A 
ENDBRANCH   8   9
ENDBRANCH   7   8
BRANCH   7  16
ATOM     16  C   UNL A   1      33.661  26.728  25.255  1.00  0.00     0.049 C 
BRANCH  16  17
ATOM     17  C   UNL A   1      33.528  25.332  25.837  1.00  0.00    -0.043 A 
ATOM     18  C   UNL A   1      32.269  24.997  26.369  1.00  0.00     0.043 A 
ATOM     19  C   UNL A   1      34.527  24.354  25.883  1.00  0.00     0.019 A 
ATOM     20  C   UNL A   1      32.009  23.717  26.842  1.00  0.00     0.124 A 
ATOM     21  C   UNL A   1      34.228  23.048  26.297  1.00  0.00     0.021 A 
ATOM     22  F   UNL A   1      30.802  23.454  27.354  1.00  0.00    -0.207 F 
ATOM     23  C   UNL A   1      32.967  22.720  26.776  1.00  0.00     0.055 A 
ATOM     24  Br  UNL A   1      35.545  21.696  26.158  1.00  0.00    -0.051 Br
ENDBRANCH  16  17
ENDBRANCH   7  16
ENDBRANCH   4   7
ENDBRANCH   2   3
ENDBRANCH   1   2
BRANCH   1  25
ATOM     25  C   UNL A   1      32.561  29.770  27.304  1.00  0.00     0.023 C 
BRANCH  25  26
ATOM     26  C   UNL A   1      34.066  30.002  27.282  1.00  0.00     0.116 C 
BRANCH  26  27
ATOM     27  N   UNL A   1      34.545  30.952  28.272  1.00  0.00    -0.352 N 
ATOM     28  C   UNL A   1      35.657  30.891  29.095  1.00  0.00     0.251 C 
ATOM     29  H   UNL A   1      33.995  31.761  28.373  1.00  0.00     0.163 HD
ATOM     30  O   UNL A   1      35.823  31.740  29.950  1.00  0.00    -0.269 OA
BRANCH  28  31
ATOM     31  C   UNL A   1      36.713  29.868  28.850  1.00  0.00     0.039 A 
ATOM     32  C   UNL A   1      37.058  29.021  29.913  1.00  0.00     0.014 A 
ATOM     33  C   UNL A   1      37.458  29.836  27.674  1.00  0.00     0.014 A 
ATOM     34  C   UNL A   1      38.265  28.324  29.878  1.00  0.00     0.010 A 
ATOM     35  C   UNL A   1      38.697  29.227  27.672  1.00  0.00     0.010 A 
ATOM     36  C   UNL A   1      39.122  28.517  28.795  1.00  0.00    -0.014 A 
BRANCH  36  37
ATOM     37  C   UNL A   1      40.510  28.083  28.795  1.00  0.00     0.031 A 
ATOM     38  C   UNL A   1      40.887  26.759  28.267  1.00  0.00     0.074 A 
ATOM     39  C   UNL A   1      41.472  28.918  29.244  1.00  0.00     0.049 A 
ATOM     40  N   UNL A   1      41.888  26.076  28.710  1.00  0.00    -0.248 NA
ATOM     41  C   UNL A   1      40.154  26.092  27.197  1.00  0.00     0.031 C 
ATOM     42  C   UNL A   1      42.915  28.728  29.140  1.00  0.00     0.029 A 
ATOM     43  N   UNL A   1      41.324  30.046  30.069  1.00  0.00    -0.354 N 
ATOM     44  C   UNL A   1      42.099  25.046  27.829  1.00  0.00     0.074 A 
ATOM     45  C   UNL A   1      40.951  25.046  26.950  1.00  0.00     0.031 C 
ATOM     46  C   UNL A   1      43.514  29.464  30.087  1.00  0.00     0.029 A 
ATOM     47  C   UNL A   1      42.468  30.057  30.899  1.00  0.00     0.049 A 
ATOM     48  H   UNL A   1      40.581  30.692  30.069  1.00  0.00     0.167 HD
ATOM     49  C   UNL A   1      43.291  24.388  27.824  1.00  0.00     0.037 A 
ATOM     50  C   UNL A   1      42.379  29.954  32.255  1.00  0.00     0.037 A 
ATOM     51  C   UNL A   1      44.221  24.933  28.803  1.00  0.00     0.049 A 
ATOM     52  C   UNL A   1      43.148  28.782  32.809  1.00  0.00     0.074 A 
ATOM     53  C   UNL A   1      45.251  25.853  28.692  1.00  0.00     0.029 A 
ATOM     54  N   UNL A   1      43.948  24.813  30.163  1.00  0.00    -0.354 N 
ATOM     55  N   UNL A   1      43.470  27.737  32.096  1.00  0.00    -0.248 NA
ATOM     56  C   UNL A   1      43.616  28.683  34.188  1.00  0.00     0.031 C 
ATOM     57  C   UNL A   1      45.572  26.320  29.988  1.00  0.00     0.029 A 
ATOM     58  C   UNL A   1      44.755  25.665  30.892  1.00  0.00     0.049 A 
ATOM     59  H   UNL A   1      43.274  24.207  30.550  1.00  0.00     0.167 HD
ATOM     60  C   UNL A   1      44.194  26.866  32.864  1.00  0.00     0.074 A 
ATOM     61  C   UNL A   1      44.249  27.496  34.170  1.00  0.00     0.031 C 
ATOM     62  C   UNL A   1      44.701  25.710  32.344  1.00  0.00     0.037 A 
BRANCH  49  63
ATOM     63  C   UNL A   1      43.671  23.469  26.697  1.00  0.00     0.064 A 
ATOM     64  C   UNL A   1      43.267  22.119  26.673  1.00  0.00     0.173 A 
ATOM     65  C   UNL A   1      44.490  23.877  25.629  1.00  0.00     0.173 A 
ATOM     66  F   UNL A   1      42.441  21.616  27.598  1.00  0.00    -0.203 F 
ATOM     67  C   UNL A   1      43.726  21.224  25.705  1.00  0.00     0.198 A 
ATOM     68  C   UNL A   1      44.987  22.971  24.687  1.00  0.00     0.198 A 
ATOM     69  F   UNL A   1      44.832  25.166  25.485  1.00  0.00    -0.203 F 
ATOM     70  F   UNL A   1      43.326  19.944  25.738  1.00  0.00    -0.200 F 
ATOM     71  C   UNL A   1      44.612  21.642  24.731  1.00  0.00     0.200 A 
ATOM     72  F   UNL A   1      45.846  23.391  23.748  1.00  0.00    -0.200 F 
ATOM     73  F   UNL A   1      45.096  20.769  23.838  1.00  0.00    -0.200 F 
ENDBRANCH  49  63
BRANCH  50  74
ATOM     74  C   UNL A   1      41.117  30.515  32.799  1.00  0.00     0.064 A 
ATOM     75  C   UNL A   1      40.952  31.915  32.764  1.00  0.00     0.173 A 
ATOM     76  C   UNL A   1      39.967  29.731  32.952  1.00  0.00     0.173 A 
ATOM     77  F   UNL A   1      42.022  32.711  32.614  1.00  0.00    -0.203 F 
ATOM     78  C   UNL A   1      39.686  32.495  32.750  1.00  0.00     0.198 A 
ATOM     79  C   UNL A   1      38.700  30.320  32.956  1.00  0.00     0.198 A 
ATOM     80  F   UNL A   1      40.057  28.395  32.976  1.00  0.00    -0.203 F 
ATOM     81  F   UNL A   1      39.561  33.821  32.588  1.00  0.00    -0.200 F 
ATOM     82  C   UNL A   1      38.560  31.694  32.816  1.00  0.00     0.200 A 
ATOM     83  F   UNL A   1      37.606  29.546  33.007  1.00  0.00    -0.200 F 
ATOM     84  F   UNL A   1      37.342  32.243  32.708  1.00  0.00    -0.200 F 
ENDBRANCH  50  74
BRANCH  62  85
ATOM     85  C   UNL A   1      45.311  24.566  33.117  1.00  0.00     0.064 A 
ATOM     86  C   UNL A   1      46.582  24.612  33.705  1.00  0.00     0.173 A 
ATOM     87  C   UNL A   1      44.532  23.423  33.433  1.00  0.00     0.173 A 
ATOM     88  F   UNL A   1      47.376  25.683  33.566  1.00  0.00    -0.203 F 
ATOM     89  C   UNL A   1      47.059  23.575  34.514  1.00  0.00     0.198 A 
ATOM     90  C   UNL A   1      44.988  22.420  34.285  1.00  0.00     0.198 A 
ATOM     91  F   UNL A   1      43.292  23.258  32.950  1.00  0.00    -0.203 F 
ATOM     92  F   UNL A   1      48.295  23.652  35.027  1.00  0.00    -0.200 F 
ATOM     93  C   UNL A   1      46.257  22.490  34.816  1.00  0.00     0.200 A 
ATOM     94  F   UNL A   1      44.179  21.400  34.604  1.00  0.00    -0.200 F 
ATOM     95  F   UNL A   1      46.700  21.526  35.634  1.00  0.00    -0.200 F 
ENDBRANCH  62  85
ENDBRANCH  36  37
ENDBRANCH  28  31
ENDBRANCH  26  27
ENDBRANCH  25  26
ENDBRANCH   1  25
TORSDOF 15
ENDMDL
MODEL 3
REMARK VINA RESULT:     -13.1      4.089     10.111
REMARK SMILES Cc1ccc(C[C@@H](Cc2cc(F)cc(Br)c2)C(=O)NCCCCNC(=O)c2ccc(-c3c4nc(c(-c5c(F)c(F)c(F)c(F)c5F)c5ccc([nH]5)c(-c5c(F)c(F)c(F)c(F)c5F)c5nc(c(-c6c(F)c(F)c(F)c(F)c6F)c6ccc3[nH]6)C=C5)C=C4)cc2)cc1
REMARK SMILES IDX 21 1 20 2 19 3 17 4 18 5 7 7 6 8 5 9 1 10 2 11 3 12 91 13
REMARK SMILES IDX 4 14 90 15 8 16 9 17 10 18 16 19 11 20 14 21 12 22 13 23
REMARK SMILES IDX 15 24 22 25 23 26 24 27 25 28 26 30 27 31 28 32 89 33 29 34
REMARK SMILES IDX 88 35 30 36 31 37 32 38 82 39 33 40 87 41 81 42 83 43 34 44
REMARK SMILES IDX 86 45 80 46 79 47 35 49 67 50 47 51 66 52 48 53 51 54 65 55
REMARK SMILES IDX 84 56 49 57 50 58 64 60 85 61 52 62 36 63 37 64 45 65 38 66
REMARK SMILES IDX 39 67 43 68 46 69 40 70 41 71 44 72 42 73 68 74 69 75 77 76
REMARK SMILES IDX 70 77 71 78 75 79 78 80 72 81 73 82 76 83 74 84 53 85 54 86
REMARK SMILES IDX 62 87 55 88 56 89 60 90 63 91 57 92 58 93 61 94 59 95
REMARK H PARENT 19 6 24 29 83 48 51 59
REMARK Flexibility Score: inf
ROOT
ATOM      1  C   UNL A   1      32.919  29.686  25.215  1.00  0.00     0.023 C 
ENDROOT
BRANCH   1   2
ATOM      2  C   UNL A   1      32.466  28.286  24.783  1.00  0.00     0.116 C 
BRANCH   2   3
ATOM      3  N   UNL A   1      31.440  27.755  25.664  1.00  0.00    -0.356 N 
ATOM      4  C   UNL A   1      31.125  26.479  26.010  1.00  0.00     0.223 C 
ATOM      5  O   UNL A   1      30.198  26.324  26.810  1.00  0.00    -0.275 OA
ATOM      6  H   UNL A   1      30.872  28.441  26.085  1.00  0.00     0.163 HD
BRANCH   4   7
ATOM      7  C   UNL A   1      31.870  25.275  25.455  1.00  0.00     0.087 C 
BRANCH   7   8
ATOM      8  C   UNL A   1      33.262  25.258  26.136  1.00  0.00     0.049 C 
BRANCH   8   9
ATOM      9  C   UNL A   1      34.209  24.112  25.870  1.00  0.00    -0.047 A 
ATOM     10  C   UNL A   1      36.497  20.555  24.963  1.00  0.00     0.044 C 
ATOM     11  C   UNL A   1      35.714  21.791  25.293  1.00  0.00    -0.051 A 
ATOM     12  C   UNL A   1      35.543  22.783  24.326  1.00  0.00     0.004 A 
ATOM     13  C   UNL A   1      35.148  21.975  26.558  1.00  0.00     0.004 A 
ATOM     14  C   UNL A   1      34.783  23.921  24.606  1.00  0.00     0.004 A 
ATOM     15  C   UNL A   1      34.408  23.127  26.846  1.00  0.00     0.004 A 
ENDBRANCH   8   9
ENDBRANCH   7   8
BRANCH   7  16
ATOM     16  C   UNL A   1      31.107  23.931  25.476  1.00  0.00     0.049 C 
BRANCH  16  17
ATOM     17  C   UNL A   1      31.538  22.668  24.753  1.00  0.00    -0.043 A 
ATOM     18  C   UNL A   1      31.729  22.782  23.363  1.00  0.00     0.043 A 
ATOM     19  C   UNL A   1      31.773  21.418  25.335  1.00  0.00     0.019 A 
ATOM     20  C   UNL A   1      32.212  21.714  22.617  1.00  0.00     0.124 A 
ATOM     21  C   UNL A   1      32.328  20.373  24.582  1.00  0.00     0.021 A 
ATOM     22  F   UNL A   1      32.358  21.866  21.297  1.00  0.00    -0.207 F 
ATOM     23  C   UNL A   1      32.554  20.516  23.219  1.00  0.00     0.055 A 
ATOM     24  Br  UNL A   1      32.823  18.760  25.438  1.00  0.00    -0.051 Br
ENDBRANCH  16  17
ENDBRANCH   7  16
ENDBRANCH   4   7
ENDBRANCH   2   3
ENDBRANCH   1   2
BRANCH   1  25
ATOM     25  C   UNL A   1      32.847  29.939  26.725  1.00  0.00     0.023 C 
BRANCH  25  26
ATOM     26  C   UNL A   1      34.151  29.637  27.453  1.00  0.00     0.116 C 
BRANCH  26  27
ATOM     27  N   UNL A   1      34.672  30.740  28.240  1.00  0.00    -0.352 N 
ATOM     28  C   UNL A   1      35.848  30.835  28.967  1.00  0.00     0.251 C 
ATOM     29  H   UNL A   1      34.103  31.543  28.261  1.00  0.00     0.163 HD
ATOM     30  O   UNL A   1      36.050  31.810  29.664  1.00  0.00    -0.269 OA
BRANCH  28  31
ATOM     31  C   UNL A   1      36.917  29.811  28.795  1.00  0.00     0.039 A 
ATOM     32  C   UNL A   1      37.194  28.970  29.882  1.00  0.00     0.014 A 
ATOM     33  C   UNL A   1      37.735  29.772  27.669  1.00  0.00     0.014 A 
ATOM     34  C   UNL A   1      38.400  28.273  29.927  1.00  0.00     0.010 A 
ATOM     35  C   UNL A   1      38.971  29.164  27.749  1.00  0.00     0.010 A 
ATOM     36  C   UNL A   1      39.324  28.460  28.900  1.00  0.00    -0.014 A 
BRANCH  36  37
ATOM     37  C   UNL A   1      40.709  28.027  28.990  1.00  0.00     0.031 A 
ATOM     38  C   UNL A   1      41.128  26.719  28.451  1.00  0.00     0.074 A 
ATOM     39  C   UNL A   1      41.633  28.848  29.534  1.00  0.00     0.049 A 
ATOM     40  N   UNL A   1      42.095  26.023  28.947  1.00  0.00    -0.248 NA
ATOM     41  C   UNL A   1      40.477  26.085  27.310  1.00  0.00     0.031 C 
ATOM     42  C   UNL A   1      43.080  28.661  29.532  1.00  0.00     0.029 A 
ATOM     43  N   UNL A   1      41.421  29.950  30.379  1.00  0.00    -0.354 N 
ATOM     44  C   UNL A   1      42.373  25.020  28.053  1.00  0.00     0.074 A 
ATOM     45  C   UNL A   1      41.293  25.046  27.092  1.00  0.00     0.031 C 
ATOM     46  C   UNL A   1      43.606  29.368  30.543  1.00  0.00     0.029 A 
ATOM     47  C   UNL A   1      42.500  29.937  31.292  1.00  0.00     0.049 A 
ATOM     48  H   UNL A   1      40.679  30.596  30.343  1.00  0.00     0.167 HD
ATOM     49  C   UNL A   1      43.564  24.363  28.118  1.00  0.00     0.037 A 
ATOM     50  C   UNL A   1      42.311  29.792  32.634  1.00  0.00     0.037 A 
ATOM     51  C   UNL A   1      44.416  24.878  29.179  1.00  0.00     0.049 A 
ATOM     52  C   UNL A   1      43.041  28.604  33.208  1.00  0.00     0.074 A 
ATOM     53  C   UNL A   1      45.450  25.801  29.172  1.00  0.00     0.029 A 
ATOM     54  N   UNL A   1      44.044  24.717  30.511  1.00  0.00    -0.354 N 
ATOM     55  N   UNL A   1      43.416  27.581  32.490  1.00  0.00    -0.248 NA
ATOM     56  C   UNL A   1      43.404  28.463  34.614  1.00  0.00     0.031 C 
ATOM     57  C   UNL A   1      45.673  26.229  30.502  1.00  0.00     0.029 A 
ATOM     58  C   UNL A   1      44.793  25.547  31.323  1.00  0.00     0.049 A 
ATOM     59  H   UNL A   1      43.345  24.100  30.828  1.00  0.00     0.167 HD
ATOM     60  C   UNL A   1      44.084  26.687  33.283  1.00  0.00     0.074 A 
ATOM     61  C   UNL A   1      44.040  27.277  34.608  1.00  0.00     0.031 C 
ATOM     62  C   UNL A   1      44.631  25.547  32.768  1.00  0.00     0.037 A 
BRANCH  49  63
ATOM     63  C   UNL A   1      44.028  23.478  26.995  1.00  0.00     0.064 A 
ATOM     64  C   UNL A   1      44.951  23.926  26.029  1.00  0.00     0.173 A 
ATOM     65  C   UNL A   1      43.536  22.173  26.805  1.00  0.00     0.173 A 
ATOM     66  F   UNL A   1      45.538  25.125  26.123  1.00  0.00    -0.203 F 
ATOM     67  C   UNL A   1      45.282  23.163  24.908  1.00  0.00     0.198 A 
ATOM     68  C   UNL A   1      43.832  21.429  25.659  1.00  0.00     0.198 A 
ATOM     69  F   UNL A   1      42.748  21.600  27.728  1.00  0.00    -0.203 F 
ATOM     70  F   UNL A   1      46.152  23.646  24.009  1.00  0.00    -0.200 F 
ATOM     71  C   UNL A   1      44.698  21.928  24.707  1.00  0.00     0.200 A 
ATOM     72  F   UNL A   1      43.257  20.232  25.477  1.00  0.00    -0.200 F 
ATOM     73  F   UNL A   1      44.974  21.222  23.601  1.00  0.00    -0.200 F 
ENDBRANCH  49  63
BRANCH  50  74
ATOM     74  C   UNL A   1      41.012  30.336  33.100  1.00  0.00     0.064 A 
ATOM     75  C   UNL A   1      40.832  31.734  33.058  1.00  0.00     0.173 A 
ATOM     76  C   UNL A   1      39.864  29.539  33.178  1.00  0.00     0.173 A 
ATOM     77  F   UNL A   1      41.900  32.544  32.978  1.00  0.00    -0.203 F 
ATOM     78  C   UNL A   1      39.563  32.300  32.966  1.00  0.00     0.198 A 
ATOM     79  C   UNL A   1      38.592  30.112  33.104  1.00  0.00     0.198 A 
ATOM     80  F   UNL A   1      39.968  28.203  33.204  1.00  0.00    -0.203 F 
ATOM     81  F   UNL A   1      39.433  33.624  32.800  1.00  0.00    -0.200 F 
ATOM     82  C   UNL A   1      38.444  31.485  32.960  1.00  0.00     0.200 A 
ATOM     83  F   UNL A   1      37.507  29.325  33.084  1.00  0.00    -0.200 F 
ATOM     84  F   UNL A   1      37.229  32.021  32.776  1.00  0.00    -0.200 F 
ENDBRANCH  50  74
BRANCH  62  85
ATOM     85  C   UNL A   1      45.184  24.381  33.549  1.00  0.00     0.064 A 
ATOM     86  C   UNL A   1      44.468  23.202  33.802  1.00  0.00     0.173 A 
ATOM     87  C   UNL A   1      46.551  24.358  33.927  1.00  0.00     0.173 A 
ATOM     88  F   UNL A   1      43.196  23.060  33.402  1.00  0.00    -0.203 F 
ATOM     89  C   UNL A   1      45.059  22.099  34.425  1.00  0.00     0.198 A 
ATOM     90  C   UNL A   1      47.151  23.238  34.495  1.00  0.00     0.198 A 
ATOM     91  F   UNL A   1      47.355  25.414  33.730  1.00  0.00    -0.203 F 
ATOM     92  F   UNL A   1      44.324  21.007  34.674  1.00  0.00    -0.200 F 
ATOM     93  C   UNL A   1      46.402  22.111  34.756  1.00  0.00     0.200 A 
ATOM     94  F   UNL A   1      48.464  23.251  34.765  1.00  0.00    -0.200 F 
ATOM     95  F   UNL A   1      46.976  21.032  35.303  1.00  0.00    -0.200 F 
ENDBRANCH  62  85
ENDBRANCH  36  37
ENDBRANCH  28  31
ENDBRANCH  26  27
ENDBRANCH  25  26
ENDBRANCH   1  25
TORSDOF 15
ENDMDL
