MODEL 1
REMARK VINA RESULT:     -13.5      0.000      0.000
REMARK SMILES Cc1ccc2nc3c(c(C(=O)NCCCCNC(=O)c4ccc(-c5c6nc(c(-c7c(F)c(F)c(F)c(F)c7F)c7ccc([nH]7)c(-c7c(F)c(F)c(F)c(F)c7F)c7nc(c(-c8c(F)c(F)c(F)c(F)c8F)c8ccc5[nH]8)C=C7)C=C6)cc4)c2c1)C[C@H](C)CC3
REMARK SMILES IDX 15 1 14 2 13 3 12 4 10 5 11 6 9 8 1 9 2 10 3 11 84 12 4 13
REMARK SMILES IDX 83 14 5 15 6 16 8 17 7 18 85 19 89 20 86 21 88 22 87 23
REMARK SMILES IDX 16 24 17 25 18 26 19 28 20 29 21 30 82 31 22 32 81 33 23 34
REMARK SMILES IDX 24 35 25 36 75 37 26 38 80 39 74 40 76 41 27 42 79 43 73 44
REMARK SMILES IDX 72 45 28 47 60 48 40 49 59 50 41 51 44 52 58 53 77 54 42 55
REMARK SMILES IDX 43 56 57 58 78 59 45 60 29 61 30 62 38 63 31 64 32 65 36 66
REMARK SMILES IDX 39 67 33 68 34 69 37 70 35 71 61 72 62 73 70 74 63 75 64 76
REMARK SMILES IDX 68 77 71 78 65 79 66 80 69 81 67 82 46 83 47 84 55 85 48 86
REMARK SMILES IDX 49 87 53 88 56 89 50 90 51 91 54 92 52 93
REMARK H PARENT 12 7 17 27 76 46 44 57
REMARK Flexibility Score: inf
ROOT
ATOM      1  C   UNL A   1      31.356  31.679  26.622  1.00  0.00     0.023 C 
ENDROOT
BRANCH   1   2
ATOM      2  C   UNL A   1      31.860  30.244  26.693  1.00  0.00     0.023 C 
BRANCH   2   3
ATOM      3  C   UNL A   1      33.270  29.977  26.128  1.00  0.00     0.116 C 
BRANCH   3   4
ATOM      4  N   UNL A   1      33.191  29.852  24.683  1.00  0.00    -0.352 N 
ATOM      5  C   UNL A   1      32.838  28.811  23.850  1.00  0.00     0.252 C 
ATOM      6  O   UNL A   1      33.498  28.753  22.811  1.00  0.00    -0.269 OA
ATOM      7  H   UNL A   1      33.440  30.674  24.202  1.00  0.00     0.163 HD
BRANCH   5   8
ATOM      8  C   UNL A   1      31.666  27.873  24.038  1.00  0.00     0.054 A 
ATOM      9  C   UNL A   1      28.051  31.126  22.666  1.00  0.00     0.044 C 
ATOM     10  C   UNL A   1      28.472  29.753  23.100  1.00  0.00    -0.050 A 
ATOM     11  C   UNL A   1      27.586  28.690  23.083  1.00  0.00     0.005 A 
ATOM     12  C   UNL A   1      29.784  29.514  23.535  1.00  0.00     0.014 A 
ATOM     13  C   UNL A   1      28.024  27.436  23.501  1.00  0.00     0.029 A 
ATOM     14  C   UNL A   1      30.301  28.225  23.792  1.00  0.00     0.013 A 
ATOM     15  C   UNL A   1      29.345  27.195  23.856  1.00  0.00     0.071 A 
ATOM     16  N   UNL A   1      29.627  25.968  24.282  1.00  0.00    -0.253 NA
ATOM     17  C   UNL A   1      31.956  26.565  24.532  1.00  0.00    -0.013 A 
ATOM     18  C   UNL A   1      30.887  25.672  24.658  1.00  0.00     0.045 A 
ATOM     19  C   UNL A   1      33.358  26.073  24.856  1.00  0.00     0.041 C 
ATOM     20  C   UNL A   1      31.028  24.324  25.312  1.00  0.00     0.057 C 
ATOM     21  C   UNL A   1      33.439  24.773  25.684  1.00  0.00    -0.009 C 
ATOM     22  C   UNL A   1      32.426  23.748  25.187  1.00  0.00     0.010 C 
ATOM     23  C   UNL A   1      34.851  24.193  25.657  1.00  0.00     0.008 C 
ENDBRANCH   5   8
ENDBRANCH   3   4
ENDBRANCH   2   3
ENDBRANCH   1   2
BRANCH   1  24
ATOM     24  C   UNL A   1      32.451  32.723  26.501  1.00  0.00     0.116 C 
BRANCH  24  25
ATOM     25  N   UNL A   1      32.356  33.828  27.453  1.00  0.00    -0.352 N 
ATOM     26  C   UNL A   1      33.272  34.188  28.420  1.00  0.00     0.251 C 
ATOM     27  H   UNL A   1      31.543  34.380  27.397  1.00  0.00     0.163 HD
ATOM     28  O   UNL A   1      33.060  35.123  29.183  1.00  0.00    -0.269 OA
BRANCH  26  29
ATOM     29  C   UNL A   1      34.483  33.357  28.562  1.00  0.00     0.039 A 
ATOM     30  C   UNL A   1      34.351  31.989  28.797  1.00  0.00     0.014 A 
ATOM     31  C   UNL A   1      35.725  33.987  28.673  1.00  0.00     0.014 A 
ATOM     32  C   UNL A   1      35.402  31.310  29.394  1.00  0.00     0.010 A 
ATOM     33  C   UNL A   1      36.813  33.266  29.170  1.00  0.00     0.010 A 
ATOM     34  C   UNL A   1      36.633  31.950  29.621  1.00  0.00    -0.014 A 
BRANCH  34  35
ATOM     35  C   UNL A   1      37.677  31.241  30.407  1.00  0.00     0.031 A 
ATOM     36  C   UNL A   1      38.642  30.300  29.731  1.00  0.00     0.074 A 
ATOM     37  C   UNL A   1      37.826  31.535  31.712  1.00  0.00     0.049 A 
ATOM     38  N   UNL A   1      39.640  29.629  30.251  1.00  0.00    -0.248 NA
ATOM     39  C   UNL A   1      38.470  30.078  28.286  1.00  0.00     0.031 C 
ATOM     40  C   UNL A   1      36.976  32.455  32.467  1.00  0.00     0.029 A 
ATOM     41  N   UNL A   1      38.775  31.137  32.618  1.00  0.00    -0.354 N 
ATOM     42  C   UNL A   1      40.184  28.883  29.212  1.00  0.00     0.074 A 
ATOM     43  C   UNL A   1      39.402  29.169  28.031  1.00  0.00     0.031 C 
ATOM     44  C   UNL A   1      37.489  32.619  33.695  1.00  0.00     0.029 A 
ATOM     45  C   UNL A   1      38.659  31.760  33.836  1.00  0.00     0.049 A 
ATOM     46  H   UNL A   1      39.471  30.471  32.415  1.00  0.00     0.167 HD
ATOM     47  C   UNL A   1      41.248  28.046  29.241  1.00  0.00     0.037 A 
ATOM     48  C   UNL A   1      39.408  31.646  34.949  1.00  0.00     0.037 A 
ATOM     49  C   UNL A   1      42.065  27.809  30.400  1.00  0.00     0.049 A 
ATOM     50  C   UNL A   1      40.561  30.686  34.961  1.00  0.00     0.074 A 
ATOM     51  C   UNL A   1      43.193  27.014  30.513  1.00  0.00     0.029 A 
ATOM     52  N   UNL A   1      41.850  28.379  31.645  1.00  0.00    -0.354 N 
ATOM     53  N   UNL A   1      41.044  29.967  33.978  1.00  0.00    -0.248 NA
ATOM     54  C   UNL A   1      41.249  30.498  36.244  1.00  0.00     0.031 C 
ATOM     55  C   UNL A   1      43.641  27.078  31.836  1.00  0.00     0.029 A 
ATOM     56  C   UNL A   1      42.809  27.933  32.540  1.00  0.00     0.049 A 
ATOM     57  H   UNL A   1      41.123  29.007  31.861  1.00  0.00     0.167 HD
ATOM     58  C   UNL A   1      42.084  29.231  34.525  1.00  0.00     0.074 A 
ATOM     59  C   UNL A   1      42.182  29.612  35.919  1.00  0.00     0.031 C 
ATOM     60  C   UNL A   1      42.876  28.309  33.927  1.00  0.00     0.037 A 
BRANCH  47  61
ATOM     61  C   UNL A   1      41.596  27.308  27.982  1.00  0.00     0.064 A 
ATOM     62  C   UNL A   1      42.481  27.843  27.036  1.00  0.00     0.173 A 
ATOM     63  C   UNL A   1      41.093  26.017  27.757  1.00  0.00     0.173 A 
ATOM     64  F   UNL A   1      42.980  29.077  27.202  1.00  0.00    -0.203 F 
ATOM     65  C   UNL A   1      42.844  27.115  25.905  1.00  0.00     0.198 A 
ATOM     66  C   UNL A   1      41.472  25.286  26.636  1.00  0.00     0.198 A 
ATOM     67  F   UNL A   1      40.246  25.460  28.636  1.00  0.00    -0.203 F 
ATOM     68  F   UNL A   1      43.673  27.655  25.001  1.00  0.00    -0.200 F 
ATOM     69  C   UNL A   1      42.346  25.836  25.709  1.00  0.00     0.200 A 
ATOM     70  F   UNL A   1      40.998  24.046  26.453  1.00  0.00    -0.200 F 
ATOM     71  F   UNL A   1      42.706  25.133  24.626  1.00  0.00    -0.200 F 
ENDBRANCH  47  61
BRANCH  48  72
ATOM     72  C   UNL A   1      39.072  32.462  36.140  1.00  0.00     0.064 A 
ATOM     73  C   UNL A   1      38.237  31.953  37.143  1.00  0.00     0.173 A 
ATOM     74  C   UNL A   1      39.615  33.742  36.323  1.00  0.00     0.173 A 
ATOM     75  F   UNL A   1      37.682  30.741  37.002  1.00  0.00    -0.203 F 
ATOM     76  C   UNL A   1      37.962  32.695  38.291  1.00  0.00     0.198 A 
ATOM     77  C   UNL A   1      39.358  34.472  37.481  1.00  0.00     0.198 A 
ATOM     78  F   UNL A   1      40.422  34.268  35.391  1.00  0.00    -0.203 F 
ATOM     79  F   UNL A   1      37.147  32.195  39.229  1.00  0.00    -0.200 F 
ATOM     80  C   UNL A   1      38.531  33.949  38.463  1.00  0.00     0.200 A 
ATOM     81  F   UNL A   1      39.922  35.676  37.650  1.00  0.00    -0.200 F 
ATOM     82  F   UNL A   1      38.280  34.653  39.574  1.00  0.00    -0.200 F 
ENDBRANCH  48  72
BRANCH  60  83
ATOM     83  C   UNL A   1      43.898  27.626  34.780  1.00  0.00     0.064 A 
ATOM     84  C   UNL A   1      43.626  26.384  35.371  1.00  0.00     0.173 A 
ATOM     85  C   UNL A   1      45.175  28.178  34.952  1.00  0.00     0.173 A 
ATOM     86  F   UNL A   1      42.412  25.828  35.243  1.00  0.00    -0.203 F 
ATOM     87  C   UNL A   1      44.598  25.719  36.111  1.00  0.00     0.198 A 
ATOM     88  C   UNL A   1      46.151  27.500  35.678  1.00  0.00     0.198 A 
ATOM     89  F   UNL A   1      45.480  29.361  34.401  1.00  0.00    -0.203 F 
ATOM     90  F   UNL A   1      44.313  24.543  36.687  1.00  0.00    -0.200 F 
ATOM     91  C   UNL A   1      45.861  26.273  36.257  1.00  0.00     0.200 A 
ATOM     92  F   UNL A   1      47.374  28.032  35.811  1.00  0.00    -0.200 F 
ATOM     93  F   UNL A   1      46.801  25.626  36.960  1.00  0.00    -0.200 F 
ENDBRANCH  60  83
ENDBRANCH  34  35
ENDBRANCH  26  29
ENDBRANCH  24  25
ENDBRANCH   1  24
TORSDOF 11
ENDMDL
MODEL 2
REMARK VINA RESULT:     -13.5      0.255      1.151
REMARK SMILES Cc1ccc2nc3c(c(C(=O)NCCCCNC(=O)c4ccc(-c5c6nc(c(-c7c(F)c(F)c(F)c(F)c7F)c7ccc([nH]7)c(-c7c(F)c(F)c(F)c(F)c7F)c7nc(c(-c8c(F)c(F)c(F)c(F)c8F)c8ccc5[nH]8)C=C7)C=C6)cc4)c2c1)C[C@H](C)CC3
REMARK SMILES IDX 15 1 14 2 13 3 12 4 10 5 11 6 9 8 1 9 2 10 3 11 84 12 4 13
REMARK SMILES IDX 83 14 5 15 6 16 8 17 7 18 85 19 89 20 86 21 88 22 87 23
REMARK SMILES IDX 16 24 17 25 18 26 19 28 20 29 21 30 82 31 22 32 81 33 23 34
REMARK SMILES IDX 24 35 25 36 75 37 26 38 80 39 74 40 76 41 27 42 79 43 73 44
REMARK SMILES IDX 72 45 28 47 60 48 40 49 59 50 41 51 44 52 58 53 77 54 42 55
REMARK SMILES IDX 43 56 57 58 78 59 45 60 29 61 30 62 38 63 31 64 32 65 36 66
REMARK SMILES IDX 39 67 33 68 34 69 37 70 35 71 61 72 62 73 70 74 63 75 64 76
REMARK SMILES IDX 68 77 71 78 65 79 66 80 69 81 67 82 46 83 47 84 55 85 48 86
REMARK SMILES IDX 49 87 53 88 56 89 50 90 51 91 54 92 52 93
REMARK H PARENT 12 7 17 27 76 46 44 57
REMARK Flexibility Score: inf
ROOT
ATOM      1  C   UNL A   1      31.370  31.812  26.815  1.00  0.00     0.023 C 
ENDROOT
BRANCH   1   2
ATOM      2  C   UNL A   1      31.790  30.349  26.812  1.00  0.00     0.023 C 
BRANCH   2   3
ATOM      3  C   UNL A   1      33.204  30.036  26.279  1.00  0.00     0.116 C 
BRANCH   3   4
ATOM      4  N   UNL A   1      33.169  29.998  24.827  1.00  0.00    -0.352 N 
ATOM      5  C   UNL A   1      32.846  29.009  23.923  1.00  0.00     0.252 C 
ATOM      6  O   UNL A   1      33.538  29.015  22.903  1.00  0.00    -0.269 OA
ATOM      7  H   UNL A   1      33.429  30.849  24.405  1.00  0.00     0.163 HD
BRANCH   5   8
ATOM      8  C   UNL A   1      31.672  28.059  24.017  1.00  0.00     0.054 A 
ATOM      9  C   UNL A   1      28.087  31.384  22.745  1.00  0.00     0.044 C 
ATOM     10  C   UNL A   1      28.500  29.987  23.105  1.00  0.00    -0.050 A 
ATOM     11  C   UNL A   1      27.619  28.925  22.995  1.00  0.00     0.005 A 
ATOM     12  C   UNL A   1      29.800  29.725  23.562  1.00  0.00     0.014 A 
ATOM     13  C   UNL A   1      28.050  27.649  23.347  1.00  0.00     0.029 A 
ATOM     14  C   UNL A   1      30.314  28.423  23.753  1.00  0.00     0.013 A 
ATOM     15  C   UNL A   1      29.360  27.389  23.725  1.00  0.00     0.071 A 
ATOM     16  N   UNL A   1      29.635  26.139  24.082  1.00  0.00    -0.253 NA
ATOM     17  C   UNL A   1      31.953  26.723  24.438  1.00  0.00    -0.013 A 
ATOM     18  C   UNL A   1      30.884  25.821  24.476  1.00  0.00     0.045 A 
ATOM     19  C   UNL A   1      33.346  26.214  24.772  1.00  0.00     0.041 C 
ATOM     20  C   UNL A   1      31.011  24.436  25.049  1.00  0.00     0.057 C 
ATOM     21  C   UNL A   1      33.408  24.866  25.519  1.00  0.00    -0.009 C 
ATOM     22  C   UNL A   1      32.414  23.872  24.930  1.00  0.00     0.010 C 
ATOM     23  C   UNL A   1      34.823  24.291  25.498  1.00  0.00     0.008 C 
ENDBRANCH   5   8
ENDBRANCH   3   4
ENDBRANCH   2   3
ENDBRANCH   1   2
BRANCH   1  24
ATOM     24  C   UNL A   1      32.518  32.795  26.682  1.00  0.00     0.116 C 
BRANCH  24  25
ATOM     25  N   UNL A   1      32.488  33.909  27.628  1.00  0.00    -0.352 N 
ATOM     26  C   UNL A   1      33.439  34.239  28.571  1.00  0.00     0.251 C 
ATOM     27  H   UNL A   1      31.695  34.492  27.587  1.00  0.00     0.163 HD
ATOM     28  O   UNL A   1      33.281  35.187  29.332  1.00  0.00    -0.269 OA
BRANCH  26  29
ATOM     29  C   UNL A   1      34.620  33.362  28.691  1.00  0.00     0.039 A 
ATOM     30  C   UNL A   1      34.446  32.021  29.029  1.00  0.00     0.014 A 
ATOM     31  C   UNL A   1      35.892  33.939  28.678  1.00  0.00     0.014 A 
ATOM     32  C   UNL A   1      35.505  31.334  29.602  1.00  0.00     0.010 A 
ATOM     33  C   UNL A   1      36.980  33.202  29.151  1.00  0.00     0.010 A 
ATOM     34  C   UNL A   1      36.775  31.928  29.703  1.00  0.00    -0.014 A 
BRANCH  34  35
ATOM     35  C   UNL A   1      37.838  31.224  30.467  1.00  0.00     0.031 A 
ATOM     36  C   UNL A   1      38.777  30.268  29.775  1.00  0.00     0.074 A 
ATOM     37  C   UNL A   1      38.029  31.536  31.762  1.00  0.00     0.049 A 
ATOM     38  N   UNL A   1      39.787  29.598  30.274  1.00  0.00    -0.248 NA
ATOM     39  C   UNL A   1      38.560  30.026  28.339  1.00  0.00     0.031 C 
ATOM     40  C   UNL A   1      37.207  32.471  32.530  1.00  0.00     0.029 A 
ATOM     41  N   UNL A   1      39.003  31.145  32.645  1.00  0.00    -0.354 N 
ATOM     42  C   UNL A   1      40.294  28.834  29.230  1.00  0.00     0.074 A 
ATOM     43  C   UNL A   1      39.478  29.109  28.069  1.00  0.00     0.031 C 
ATOM     44  C   UNL A   1      37.759  32.648  33.739  1.00  0.00     0.029 A 
ATOM     45  C   UNL A   1      38.928  31.784  33.857  1.00  0.00     0.049 A 
ATOM     46  H   UNL A   1      39.688  30.471  32.430  1.00  0.00     0.167 HD
ATOM     47  C   UNL A   1      41.353  27.991  29.237  1.00  0.00     0.037 A 
ATOM     48  C   UNL A   1      39.709  31.682  34.948  1.00  0.00     0.037 A 
ATOM     49  C   UNL A   1      42.205  27.766  30.375  1.00  0.00     0.049 A 
ATOM     50  C   UNL A   1      40.857  30.715  34.938  1.00  0.00     0.074 A 
ATOM     51  C   UNL A   1      43.330  26.965  30.464  1.00  0.00     0.029 A 
ATOM     52  N   UNL A   1      42.031  28.354  31.617  1.00  0.00    -0.354 N 
ATOM     53  N   UNL A   1      41.306  29.980  33.951  1.00  0.00    -0.248 NA
ATOM     54  C   UNL A   1      41.583  30.541  36.202  1.00  0.00     0.031 C 
ATOM     55  C   UNL A   1      43.820  27.045  31.771  1.00  0.00     0.029 A 
ATOM     56  C   UNL A   1      43.014  27.915  32.488  1.00  0.00     0.049 A 
ATOM     57  H   UNL A   1      41.314  28.989  31.847  1.00  0.00     0.167 HD
ATOM     58  C   UNL A   1      42.358  29.244  34.476  1.00  0.00     0.074 A 
ATOM     59  C   UNL A   1      42.500  29.645  35.861  1.00  0.00     0.031 C 
ATOM     60  C   UNL A   1      43.126  28.310  33.867  1.00  0.00     0.037 A 
BRANCH  47  61
ATOM     61  C   UNL A   1      41.658  27.234  27.979  1.00  0.00     0.064 A 
ATOM     62  C   UNL A   1      42.532  27.742  27.008  1.00  0.00     0.173 A 
ATOM     63  C   UNL A   1      41.126  25.950  27.779  1.00  0.00     0.173 A 
ATOM     64  F   UNL A   1      43.058  28.968  27.149  1.00  0.00    -0.203 F 
ATOM     65  C   UNL A   1      42.855  26.996  25.876  1.00  0.00     0.198 A 
ATOM     66  C   UNL A   1      41.465  25.200  26.658  1.00  0.00     0.198 A 
ATOM     67  F   UNL A   1      40.289  25.419  28.683  1.00  0.00    -0.203 F 
ATOM     68  F   UNL A   1      43.673  27.510  24.948  1.00  0.00    -0.200 F 
ATOM     69  C   UNL A   1      42.328  25.724  25.706  1.00  0.00     0.200 A 
ATOM     70  F   UNL A   1      40.963  23.968  26.500  1.00  0.00    -0.200 F 
ATOM     71  F   UNL A   1      42.650  25.003  24.623  1.00  0.00    -0.200 F 
ENDBRANCH  47  61
BRANCH  48  72
ATOM     72  C   UNL A   1      39.415  32.516  36.137  1.00  0.00     0.064 A 
ATOM     73  C   UNL A   1      40.046  33.753  36.317  1.00  0.00     0.173 A 
ATOM     74  C   UNL A   1      38.463  32.120  37.087  1.00  0.00     0.173 A 
ATOM     75  F   UNL A   1      40.975  34.165  35.442  1.00  0.00    -0.203 F 
ATOM     76  C   UNL A   1      39.733  34.567  37.404  1.00  0.00     0.198 A 
ATOM     77  C   UNL A   1      38.134  32.944  38.161  1.00  0.00     0.198 A 
ATOM     78  F   UNL A   1      37.831  30.945  36.954  1.00  0.00    -0.203 F 
ATOM     79  F   UNL A   1      40.362  35.738  37.565  1.00  0.00    -0.200 F 
ATOM     80  C   UNL A   1      38.770  34.166  38.319  1.00  0.00     0.200 A 
ATOM     81  F   UNL A   1      37.192  32.559  39.033  1.00  0.00    -0.200 F 
ATOM     82  F   UNL A   1      38.456  34.956  39.354  1.00  0.00    -0.200 F 
ENDBRANCH  48  72
BRANCH  60  83
ATOM     83  C   UNL A   1      44.170  27.632  34.699  1.00  0.00     0.064 A 
ATOM     84  C   UNL A   1      43.909  26.401  35.316  1.00  0.00     0.173 A 
ATOM     85  C   UNL A   1      45.454  28.178  34.824  1.00  0.00     0.173 A 
ATOM     86  F   UNL A   1      42.688  25.850  35.233  1.00  0.00    -0.203 F 
ATOM     87  C   UNL A   1      44.899  25.740  36.035  1.00  0.00     0.198 A 
ATOM     88  C   UNL A   1      46.449  27.505  35.529  1.00  0.00     0.198 A 
ATOM     89  F   UNL A   1      45.749  29.352  34.247  1.00  0.00    -0.203 F 
ATOM     90  F   UNL A   1      44.624  24.574  36.635  1.00  0.00    -0.200 F 
ATOM     91  C   UNL A   1      46.169  26.288  36.134  1.00  0.00     0.200 A 
ATOM     92  F   UNL A   1      47.678  28.031  35.616  1.00  0.00    -0.200 F 
ATOM     93  F   UNL A   1      47.127  25.645  36.816  1.00  0.00    -0.200 F 
ENDBRANCH  60  83
ENDBRANCH  34  35
ENDBRANCH  26  29
ENDBRANCH  24  25
ENDBRANCH   1  24
TORSDOF 11
ENDMDL
MODEL 3
REMARK VINA RESULT:     -13.5      0.349      7.481
REMARK SMILES Cc1ccc2nc3c(c(C(=O)NCCCCNC(=O)c4ccc(-c5c6nc(c(-c7c(F)c(F)c(F)c(F)c7F)c7ccc([nH]7)c(-c7c(F)c(F)c(F)c(F)c7F)c7nc(c(-c8c(F)c(F)c(F)c(F)c8F)c8ccc5[nH]8)C=C7)C=C6)cc4)c2c1)C[C@H](C)CC3
REMARK SMILES IDX 15 1 14 2 13 3 12 4 10 5 11 6 9 8 1 9 2 10 3 11 84 12 4 13
REMARK SMILES IDX 83 14 5 15 6 16 8 17 7 18 85 19 89 20 86 21 88 22 87 23
REMARK SMILES IDX 16 24 17 25 18 26 19 28 20 29 21 30 82 31 22 32 81 33 23 34
REMARK SMILES IDX 24 35 25 36 75 37 26 38 80 39 74 40 76 41 27 42 79 43 73 44
REMARK SMILES IDX 72 45 28 47 60 48 40 49 59 50 41 51 44 52 58 53 77 54 42 55
REMARK SMILES IDX 43 56 57 58 78 59 45 60 29 61 30 62 38 63 31 64 32 65 36 66
REMARK SMILES IDX 39 67 33 68 34 69 37 70 35 71 61 72 62 73 70 74 63 75 64 76
REMARK SMILES IDX 68 77 71 78 65 79 66 80 69 81 67 82 46 83 47 84 55 85 48 86
REMARK SMILES IDX 49 87 53 88 56 89 50 90 51 91 54 92 52 93
REMARK H PARENT 12 7 17 27 76 46 44 57
REMARK Flexibility Score: inf
ROOT
ATOM      1  C   UNL A   1      31.403  31.367  26.690  1.00  0.00     0.023 C 
ENDROOT
BRANCH   1   2
ATOM      2  C   UNL A   1      32.014  29.979  26.820  1.00  0.00     0.023 C 
BRANCH   2   3
ATOM      3  C   UNL A   1      33.408  29.775  26.193  1.00  0.00     0.116 C 
BRANCH   3   4
ATOM      4  N   UNL A   1      33.278  29.718  24.747  1.00  0.00    -0.352 N 
ATOM      5  C   UNL A   1      32.867  28.726  23.882  1.00  0.00     0.252 C 
ATOM      6  O   UNL A   1      33.491  28.696  22.820  1.00  0.00    -0.269 OA
ATOM      7  H   UNL A   1      33.535  30.553  24.296  1.00  0.00     0.163 HD
BRANCH   5   8
ATOM      8  C   UNL A   1      31.675  27.814  24.067  1.00  0.00     0.054 A 
ATOM      9  C   UNL A   1      28.139  31.126  22.633  1.00  0.00     0.044 C 
ATOM     10  C   UNL A   1      28.529  29.749  23.083  1.00  0.00    -0.050 A 
ATOM     11  C   UNL A   1      27.622  28.704  23.067  1.00  0.00     0.005 A 
ATOM     12  C   UNL A   1      29.831  29.488  23.532  1.00  0.00     0.014 A 
ATOM     13  C   UNL A   1      28.030  27.446  23.501  1.00  0.00     0.029 A 
ATOM     14  C   UNL A   1      30.319  28.191  23.805  1.00  0.00     0.013 A 
ATOM     15  C   UNL A   1      29.342  27.181  23.870  1.00  0.00     0.071 A 
ATOM     16  N   UNL A   1      29.596  25.953  24.310  1.00  0.00    -0.253 NA
ATOM     17  C   UNL A   1      31.933  26.504  24.576  1.00  0.00    -0.013 A 
ATOM     18  C   UNL A   1      30.846  25.634  24.701  1.00  0.00     0.045 A 
ATOM     19  C   UNL A   1      33.322  25.987  24.918  1.00  0.00     0.041 C 
ATOM     20  C   UNL A   1      30.953  24.291  25.368  1.00  0.00     0.057 C 
ATOM     21  C   UNL A   1      33.369  24.694  25.758  1.00  0.00    -0.009 C 
ATOM     22  C   UNL A   1      32.340  23.685  25.261  1.00  0.00     0.010 C 
ATOM     23  C   UNL A   1      34.770  24.084  25.749  1.00  0.00     0.008 C 
ENDBRANCH   5   8
ENDBRANCH   3   4
ENDBRANCH   2   3
ENDBRANCH   1   2
BRANCH   1  24
ATOM     24  C   UNL A   1      32.414  32.482  26.501  1.00  0.00     0.116 C 
BRANCH  24  25
ATOM     25  N   UNL A   1      32.321  33.570  27.473  1.00  0.00    -0.352 N 
ATOM     26  C   UNL A   1      33.262  33.944  28.411  1.00  0.00     0.251 C 
ATOM     27  H   UNL A   1      31.490  34.097  27.457  1.00  0.00     0.163 HD
ATOM     28  O   UNL A   1      33.051  34.860  29.197  1.00  0.00    -0.269 OA
BRANCH  26  29
ATOM     29  C   UNL A   1      34.502  33.148  28.495  1.00  0.00     0.039 A 
ATOM     30  C   UNL A   1      34.439  31.822  28.918  1.00  0.00     0.014 A 
ATOM     31  C   UNL A   1      35.731  33.798  28.357  1.00  0.00     0.014 A 
ATOM     32  C   UNL A   1      35.576  31.236  29.451  1.00  0.00     0.010 A 
ATOM     33  C   UNL A   1      36.893  33.158  28.791  1.00  0.00     0.010 A 
ATOM     34  C   UNL A   1      36.809  31.910  29.426  1.00  0.00    -0.014 A 
BRANCH  34  35
ATOM     35  C   UNL A   1      37.965  31.318  30.150  1.00  0.00     0.031 A 
ATOM     36  C   UNL A   1      38.171  31.586  31.619  1.00  0.00     0.074 A 
ATOM     37  C   UNL A   1      38.763  30.445  29.506  1.00  0.00     0.049 A 
ATOM     38  N   UNL A   1      39.099  31.121  32.420  1.00  0.00    -0.248 NA
ATOM     39  C   UNL A   1      37.219  32.492  32.282  1.00  0.00     0.031 C 
ATOM     40  C   UNL A   1      38.641  30.080  28.095  1.00  0.00     0.029 A 
ATOM     41  N   UNL A   1      39.796  29.668  29.964  1.00  0.00    -0.354 N 
ATOM     42  C   UNL A   1      38.864  31.705  33.659  1.00  0.00     0.074 A 
ATOM     43  C   UNL A   1      37.716  32.569  33.508  1.00  0.00     0.031 C 
ATOM     44  C   UNL A   1      39.503  29.091  27.822  1.00  0.00     0.029 A 
ATOM     45  C   UNL A   1      40.287  28.804  29.018  1.00  0.00     0.049 A 
ATOM     46  H   UNL A   1      40.150  29.725  30.881  1.00  0.00     0.167 HD
ATOM     47  C   UNL A   1      39.539  31.525  34.819  1.00  0.00     0.037 A 
ATOM     48  C   UNL A   1      41.268  27.885  29.100  1.00  0.00     0.037 A 
ATOM     49  C   UNL A   1      40.642  30.617  34.985  1.00  0.00     0.049 A 
ATOM     50  C   UNL A   1      42.020  27.731  30.389  1.00  0.00     0.074 A 
ATOM     51  C   UNL A   1      41.359  30.331  36.134  1.00  0.00     0.029 A 
ATOM     52  N   UNL A   1      41.179  29.837  33.973  1.00  0.00    -0.354 N 
ATOM     53  N   UNL A   1      41.804  28.311  31.544  1.00  0.00    -0.248 NA
ATOM     54  C   UNL A   1      43.172  26.820  30.377  1.00  0.00     0.031 C 
ATOM     55  C   UNL A   1      42.351  29.401  35.810  1.00  0.00     0.029 A 
ATOM     56  C   UNL A   1      42.235  29.087  34.465  1.00  0.00     0.049 A 
ATOM     57  H   UNL A   1      40.858  29.818  33.042  1.00  0.00     0.167 HD
ATOM     58  C   UNL A   1      42.798  27.848  32.392  1.00  0.00     0.074 A 
ATOM     59  C   UNL A   1      43.601  26.915  31.628  1.00  0.00     0.031 C 
ATOM     60  C   UNL A   1      43.033  28.180  33.684  1.00  0.00     0.037 A 
BRANCH  47  61
ATOM     61  C   UNL A   1      39.115  32.330  36.011  1.00  0.00     0.064 A 
ATOM     62  C   UNL A   1      38.283  31.793  37.003  1.00  0.00     0.173 A 
ATOM     63  C   UNL A   1      39.610  33.631  36.199  1.00  0.00     0.173 A 
ATOM     64  F   UNL A   1      37.778  30.559  36.864  1.00  0.00    -0.203 F 
ATOM     65  C   UNL A   1      37.954  32.534  38.137  1.00  0.00     0.198 A 
ATOM     66  C   UNL A   1      39.294  34.360  37.341  1.00  0.00     0.198 A 
ATOM     67  F   UNL A   1      40.414  34.186  35.279  1.00  0.00    -0.203 F 
ATOM     68  F   UNL A   1      37.137  32.011  39.062  1.00  0.00    -0.200 F 
ATOM     69  C   UNL A   1      38.464  33.812  38.308  1.00  0.00     0.200 A 
ATOM     70  F   UNL A   1      39.796  35.590  37.509  1.00  0.00    -0.200 F 
ATOM     71  F   UNL A   1      38.155  34.517  39.405  1.00  0.00    -0.200 F 
ENDBRANCH  47  61
BRANCH  48  72
ATOM     72  C   UNL A   1      41.591  27.056  27.916  1.00  0.00     0.064 A 
ATOM     73  C   UNL A   1      42.540  27.484  26.979  1.00  0.00     0.173 A 
ATOM     74  C   UNL A   1      40.997  25.800  27.722  1.00  0.00     0.173 A 
ATOM     75  F   UNL A   1      43.120  28.685  27.115  1.00  0.00    -0.203 F 
ATOM     76  C   UNL A   1      42.888  26.683  25.893  1.00  0.00     0.198 A 
ATOM     77  C   UNL A   1      41.362  24.991  26.648  1.00  0.00     0.198 A 
ATOM     78  F   UNL A   1      40.085  25.347  28.594  1.00  0.00    -0.203 F 
ATOM     79  F   UNL A   1      43.786  27.122  25.001  1.00  0.00    -0.200 F 
ATOM     80  C   UNL A   1      42.306  25.434  25.735  1.00  0.00     0.200 A 
ATOM     81  F   UNL A   1      40.809  23.778  26.508  1.00  0.00    -0.200 F 
ATOM     82  F   UNL A   1      42.653  24.657  24.700  1.00  0.00    -0.200 F 
ENDBRANCH  48  72
BRANCH  60  83
ATOM     83  C   UNL A   1      44.220  27.556  34.348  1.00  0.00     0.064 A 
ATOM     84  C   UNL A   1      45.457  28.215  34.375  1.00  0.00     0.173 A 
ATOM     85  C   UNL A   1      44.107  26.330  35.016  1.00  0.00     0.173 A 
ATOM     86  F   UNL A   1      45.612  29.384  33.735  1.00  0.00    -0.203 F 
ATOM     87  C   UNL A   1      46.543  27.664  35.047  1.00  0.00     0.198 A 
ATOM     88  C   UNL A   1      45.191  25.790  35.704  1.00  0.00     0.198 A 
ATOM     89  F   UNL A   1      42.941  25.667  35.020  1.00  0.00    -0.203 F 
ATOM     90  F   UNL A   1      47.723  28.299  35.044  1.00  0.00    -0.200 F 
ATOM     91  C   UNL A   1      46.407  26.458  35.717  1.00  0.00     0.200 A 
ATOM     92  F   UNL A   1      45.056  24.629  36.358  1.00  0.00    -0.200 F 
ATOM     93  F   UNL A   1      47.451  25.934  36.375  1.00  0.00    -0.200 F 
ENDBRANCH  60  83
ENDBRANCH  34  35
ENDBRANCH  26  29
ENDBRANCH  24  25
ENDBRANCH   1  24
TORSDOF 11
ENDMDL
