MODEL 1
REMARK VINA RESULT:     -13.1      0.000      0.000
REMARK SMILES CC[C@@H](C)[C@@H](NC(=O)Cn1ncc2ccccc2c1=O)C(=O)NCCCCNC(=O)c1ccc(-c2c3nc(c(-c4c(F)c(F)c(F)c(F)c4F)c4ccc([nH]4)c(-c4c(F)c(F)c(F)c(F)c4F)c4nc(c(-c5c(F)c(F)c(F)c(F)c5F)c5ccc2[nH]5)C=C4)C=C3)cc1
REMARK SMILES IDX 25 1 24 2 23 3 21 4 22 5 5 7 3 8 4 9 2 10 1 11 6 12 7 13
REMARK SMILES IDX 8 15 9 16 10 17 11 18 19 19 12 20 18 21 20 22 13 23 17 24
REMARK SMILES IDX 14 25 16 26 15 27 26 28 27 29 28 30 29 31 30 33 31 34 32 35
REMARK SMILES IDX 93 36 33 37 92 38 34 39 35 40 36 41 86 42 37 43 91 44 85 45
REMARK SMILES IDX 87 46 38 47 90 48 84 49 83 50 39 52 71 53 51 54 70 55 52 56
REMARK SMILES IDX 55 57 69 58 88 59 53 60 54 61 68 63 89 64 56 65 40 66 41 67
REMARK SMILES IDX 49 68 42 69 43 70 47 71 50 72 44 73 45 74 48 75 46 76 72 77
REMARK SMILES IDX 73 78 81 79 74 80 75 81 79 82 82 83 76 84 77 85 80 86 78 87
REMARK SMILES IDX 57 88 58 89 66 90 59 91 60 92 64 93 67 94 61 95 62 96 65 97
REMARK SMILES IDX 63 98
REMARK H PARENT 23 6 6 14 28 32 87 51 55 62
REMARK Flexibility Score: inf
ROOT
ATOM      1  C   UNL A   1      33.346  29.186  24.840  1.00  0.00     0.023 C 
ENDROOT
BRANCH   1   2
ATOM      2  C   UNL A   1      33.814  29.009  23.197  1.00  0.00     0.116 C 
BRANCH   2   3
ATOM      3  N   UNL A   1      33.596  27.418  21.888  1.00  0.00    -0.354 N 
ATOM      4  C   UNL A   1      32.937  26.176  21.616  1.00  0.00     0.242 C 
ATOM      5  O   UNL A   1      33.142  25.801  20.445  1.00  0.00    -0.273 OA
ATOM      6  H   UNL A   1      34.204  27.588  21.133  1.00  0.00     0.163 HD
BRANCH   4   7
ATOM      7  C   UNL A   1      32.130  25.181  22.585  1.00  0.00     0.174 C 
BRANCH   7   8
ATOM      8  C   UNL A   1      30.741  25.808  23.000  1.00  0.00     0.018 C 
ATOM      9  C   UNL A   1      30.630  27.275  22.548  1.00  0.00     0.010 C 
BRANCH   8  10
ATOM     10  C   UNL A   1      30.275  25.644  24.461  1.00  0.00     0.002 C 
ATOM     11  C   UNL A   1      30.611  26.899  25.280  1.00  0.00     0.004 C 
ENDBRANCH   8  10
ENDBRANCH   7   8
BRANCH   7  12
ATOM     12  N   UNL A   1      32.039  23.726  22.329  1.00  0.00    -0.342 N 
ATOM     13  C   UNL A   1      32.034  22.636  23.144  1.00  0.00     0.242 C 
ATOM     14  H   UNL A   1      31.970  23.500  21.373  1.00  0.00     0.164 HD
ATOM     15  O   UNL A   1      31.774  21.543  22.629  1.00  0.00    -0.273 OA
BRANCH  13  16
ATOM     16  C   UNL A   1      32.138  22.769  24.641  1.00  0.00     0.248 C 
BRANCH  16  17
ATOM     17  N   UNL A   1      33.414  22.339  25.145  1.00  0.00    -0.220 N 
ATOM     18  N   UNL A   1      33.929  20.561  24.960  1.00  0.00    -0.177 NA
ATOM     19  C   UNL A   1      34.620  23.614  25.475  1.00  0.00     0.275 A 
ATOM     20  C   UNL A   1      35.427  20.201  24.930  1.00  0.00     0.142 A 
ATOM     21  C   UNL A   1      36.449  23.051  25.655  1.00  0.00     0.050 A 
ATOM     22  O   UNL A   1      34.270  24.782  25.614  1.00  0.00    -0.267 OA
ATOM     23  C   UNL A   1      36.847  21.423  25.306  1.00  0.00     0.007 A 
ATOM     24  C   UNL A   1      37.412  23.898  26.138  1.00  0.00     0.014 A 
ATOM     25  C   UNL A   1      38.143  20.997  25.431  1.00  0.00     0.010 A 
ATOM     26  C   UNL A   1      38.689  23.323  26.288  1.00  0.00     0.001 A 
ATOM     27  C   UNL A   1      39.038  21.962  25.934  1.00  0.00     0.001 A 
ENDBRANCH  16  17
ENDBRANCH  13  16
ENDBRANCH   7  12
ENDBRANCH   4   7
ENDBRANCH   2   3
ENDBRANCH   1   2
BRANCH   1  28
ATOM     28  C   UNL A   1      33.987  28.169  25.771  1.00  0.00     0.023 C 
BRANCH  28  29
ATOM     29  C   UNL A   1      33.819  28.481  27.237  1.00  0.00     0.116 C 
BRANCH  29  30
ATOM     30  N   UNL A   1      33.728  29.896  27.520  1.00  0.00    -0.352 N 
ATOM     31  C   UNL A   1      34.751  30.660  28.037  1.00  0.00     0.251 C 
ATOM     32  H   UNL A   1      32.873  30.347  27.329  1.00  0.00     0.163 HD
ATOM     33  O   UNL A   1      34.620  31.841  28.319  1.00  0.00    -0.269 OA
BRANCH  31  34
ATOM     34  C   UNL A   1      36.018  29.940  28.279  1.00  0.00     0.039 A 
ATOM     35  C   UNL A   1      36.260  29.440  29.563  1.00  0.00     0.014 A 
ATOM     36  C   UNL A   1      37.050  30.088  27.351  1.00  0.00     0.014 A 
ATOM     37  C   UNL A   1      37.574  29.221  29.962  1.00  0.00     0.010 A 
ATOM     38  C   UNL A   1      38.351  29.749  27.724  1.00  0.00     0.010 A 
ATOM     39  C   UNL A   1      38.630  29.339  29.039  1.00  0.00    -0.014 A 
BRANCH  39  40
ATOM     40  C   UNL A   1      40.010  28.952  29.432  1.00  0.00     0.031 A 
ATOM     41  C   UNL A   1      40.857  29.813  30.327  1.00  0.00     0.074 A 
ATOM     42  C   UNL A   1      40.509  27.804  28.936  1.00  0.00     0.049 A 
ATOM     43  N   UNL A   1      42.120  29.675  30.651  1.00  0.00    -0.248 NA
ATOM     44  C   UNL A   1      40.210  30.986  30.934  1.00  0.00     0.031 C 
ATOM     45  C   UNL A   1      39.776  26.869  28.079  1.00  0.00     0.029 A 
ATOM     46  N   UNL A   1      41.740  27.222  29.083  1.00  0.00    -0.354 N 
ATOM     47  C   UNL A   1      42.426  30.747  31.478  1.00  0.00     0.074 A 
ATOM     48  C   UNL A   1      41.222  31.548  31.582  1.00  0.00     0.031 C 
ATOM     49  C   UNL A   1      40.546  25.807  27.825  1.00  0.00     0.029 A 
ATOM     50  C   UNL A   1      41.861  26.032  28.409  1.00  0.00     0.049 A 
ATOM     51  H   UNL A   1      42.465  27.616  29.620  1.00  0.00     0.167 HD
ATOM     52  C   UNL A   1      43.600  31.029  32.097  1.00  0.00     0.037 A 
ATOM     53  C   UNL A   1      42.921  25.224  28.240  1.00  0.00     0.037 A 
ATOM     54  C   UNL A   1      44.795  30.226  31.976  1.00  0.00     0.049 A 
ATOM     55  C   UNL A   1      44.233  25.611  28.850  1.00  0.00     0.074 A 
ATOM     56  C   UNL A   1      46.038  30.431  32.553  1.00  0.00     0.029 A 
ATOM     57  N   UNL A   1      44.898  29.063  31.222  1.00  0.00    -0.354 N 
ATOM     58  N   UNL A   1      44.519  26.640  29.607  1.00  0.00    -0.248 NA
ATOM     59  C   UNL A   1      45.370  24.728  28.568  1.00  0.00     0.031 C 
ATOM     60  C   UNL A   1      46.902  29.426  32.106  1.00  0.00     0.029 A 
ATOM     61  C   UNL A   1      46.187  28.555  31.301  1.00  0.00     0.049 A 
ATOM     62  H   UNL A   1      44.162  28.659  30.708  1.00  0.00     0.167 HD
ATOM     63  C   UNL A   1      45.868  26.523  29.911  1.00  0.00     0.074 A 
ATOM     64  C   UNL A   1      46.333  25.308  29.270  1.00  0.00     0.031 C 
ATOM     65  C   UNL A   1      46.646  27.351  30.651  1.00  0.00     0.037 A 
BRANCH  52  66
ATOM     66  C   UNL A   1      43.661  32.269  32.950  1.00  0.00     0.064 A 
ATOM     67  C   UNL A   1      43.380  32.232  34.326  1.00  0.00     0.173 A 
ATOM     68  C   UNL A   1      44.036  33.504  32.397  1.00  0.00     0.173 A 
ATOM     69  F   UNL A   1      43.002  31.085  34.907  1.00  0.00    -0.203 F 
ATOM     70  C   UNL A   1      43.440  33.388  35.104  1.00  0.00     0.198 A 
ATOM     71  C   UNL A   1      44.129  34.650  33.184  1.00  0.00     0.198 A 
ATOM     72  F   UNL A   1      44.322  33.602  31.090  1.00  0.00    -0.203 F 
ATOM     73  F   UNL A   1      43.106  33.335  36.401  1.00  0.00    -0.200 F 
ATOM     74  C   UNL A   1      43.820  34.593  34.535  1.00  0.00     0.200 A 
ATOM     75  F   UNL A   1      44.509  35.812  32.635  1.00  0.00    -0.200 F 
ATOM     76  F   UNL A   1      43.877  35.702  35.286  1.00  0.00    -0.200 F 
ENDBRANCH  52  66
BRANCH  53  77
ATOM     77  C   UNL A   1      42.752  23.968  27.470  1.00  0.00     0.064 A 
ATOM     78  C   UNL A   1      43.066  23.928  26.107  1.00  0.00     0.173 A 
ATOM     79  C   UNL A   1      42.365  22.769  28.091  1.00  0.00     0.173 A 
ATOM     80  F   UNL A   1      43.426  25.053  25.471  1.00  0.00    -0.203 F 
ATOM     81  C   UNL A   1      43.009  22.734  25.392  1.00  0.00     0.198 A 
ATOM     82  C   UNL A   1      42.338  21.571  27.382  1.00  0.00     0.198 A 
ATOM     83  F   UNL A   1      42.067  22.756  29.399  1.00  0.00    -0.203 F 
ATOM     84  F   UNL A   1      43.300  22.725  24.085  1.00  0.00    -0.200 F 
ATOM     85  C   UNL A   1      42.658  21.555  26.034  1.00  0.00     0.200 A 
ATOM     86  F   UNL A   1      42.025  20.430  28.012  1.00  0.00    -0.200 F 
ATOM     87  F   UNL A   1      42.634  20.402  25.352  1.00  0.00    -0.200 F 
ENDBRANCH  53  77
BRANCH  65  88
ATOM     88  C   UNL A   1      48.085  26.958  30.825  1.00  0.00     0.064 A 
ATOM     89  C   UNL A   1      48.490  26.066  31.829  1.00  0.00     0.173 A 
ATOM     90  C   UNL A   1      49.070  27.459  29.958  1.00  0.00     0.173 A 
ATOM     91  F   UNL A   1      47.592  25.572  32.695  1.00  0.00    -0.203 F 
ATOM     92  C   UNL A   1      49.829  25.713  31.978  1.00  0.00     0.198 A 
ATOM     93  C   UNL A   1      50.402  27.076  30.088  1.00  0.00     0.198 A 
ATOM     94  F   UNL A   1      48.738  28.313  28.978  1.00  0.00    -0.203 F 
ATOM     95  F   UNL A   1      50.199  24.903  32.979  1.00  0.00    -0.200 F 
ATOM     96  C   UNL A   1      50.781  26.211  31.102  1.00  0.00     0.200 A 
ATOM     97  F   UNL A   1      51.318  27.547  29.230  1.00  0.00    -0.200 F 
ATOM     98  F   UNL A   1      52.068  25.863  31.241  1.00  0.00    -0.200 F 
ENDBRANCH  65  88
ENDBRANCH  39  40
ENDBRANCH  31  34
ENDBRANCH  29  30
ENDBRANCH  28  29
ENDBRANCH   1  28
TORSDOF 16
ENDMDL
MODEL 2
REMARK VINA RESULT:     -13.1      3.550      8.450
REMARK SMILES CC[C@@H](C)[C@@H](NC(=O)Cn1ncc2ccccc2c1=O)C(=O)NCCCCNC(=O)c1ccc(-c2c3nc(c(-c4c(F)c(F)c(F)c(F)c4F)c4ccc([nH]4)c(-c4c(F)c(F)c(F)c(F)c4F)c4nc(c(-c5c(F)c(F)c(F)c(F)c5F)c5ccc2[nH]5)C=C4)C=C3)cc1
REMARK SMILES IDX 25 1 24 2 23 3 21 4 22 5 5 7 3 8 4 9 2 10 1 11 6 12 7 13
REMARK SMILES IDX 8 15 9 16 10 17 11 18 19 19 12 20 18 21 20 22 13 23 17 24
REMARK SMILES IDX 14 25 16 26 15 27 26 28 27 29 28 30 29 31 30 33 31 34 32 35
REMARK SMILES IDX 93 36 33 37 92 38 34 39 35 40 36 41 86 42 37 43 91 44 85 45
REMARK SMILES IDX 87 46 38 47 90 48 84 49 83 50 39 52 71 53 51 54 70 55 52 56
REMARK SMILES IDX 55 57 69 58 88 59 53 60 54 61 68 63 89 64 56 65 40 66 41 67
REMARK SMILES IDX 49 68 42 69 43 70 47 71 50 72 44 73 45 74 48 75 46 76 72 77
REMARK SMILES IDX 73 78 81 79 74 80 75 81 79 82 82 83 76 84 77 85 80 86 78 87
REMARK SMILES IDX 57 88 58 89 66 90 59 91 60 92 64 93 67 94 61 95 62 96 65 97
REMARK SMILES IDX 63 98
REMARK H PARENT 23 6 6 14 28 32 87 51 55 62
REMARK Flexibility Score: inf
ROOT
ATOM      1  C   UNL A   1      31.691  30.571  26.104  1.00  0.00     0.023 C 
ENDROOT
BRANCH   1   2
ATOM      2  C   UNL A   1      31.853  29.317  27.267  1.00  0.00     0.116 C 
BRANCH   2   3
ATOM      3  N   UNL A   1      31.514  27.279  27.123  1.00  0.00    -0.354 N 
ATOM      4  C   UNL A   1      31.395  26.146  26.255  1.00  0.00     0.242 C 
ATOM      5  O   UNL A   1      31.381  25.079  26.901  1.00  0.00    -0.273 OA
ATOM      6  H   UNL A   1      31.375  26.949  28.040  1.00  0.00     0.163 HD
BRANCH   4   7
ATOM      7  C   UNL A   1      31.152  26.058  24.670  1.00  0.00     0.174 C 
BRANCH   7   8
ATOM      8  C   UNL A   1      30.207  27.226  24.184  1.00  0.00     0.018 C 
ATOM      9  C   UNL A   1      28.814  26.700  23.799  1.00  0.00     0.010 C 
BRANCH   8  10
ATOM     10  C   UNL A   1      30.744  28.200  23.114  1.00  0.00     0.002 C 
ATOM     11  C   UNL A   1      29.857  29.451  23.028  1.00  0.00     0.004 C 
ENDBRANCH   8  10
ENDBRANCH   7   8
BRANCH   7  12
ATOM     12  N   UNL A   1      32.248  25.782  23.714  1.00  0.00    -0.342 N 
ATOM     13  C   UNL A   1      32.526  24.730  22.896  1.00  0.00     0.242 C 
ATOM     14  H   UNL A   1      32.912  26.506  23.660  1.00  0.00     0.164 HD
ATOM     15  O   UNL A   1      33.444  24.873  22.081  1.00  0.00    -0.273 OA
BRANCH  13  16
ATOM     16  C   UNL A   1      31.634  23.517  22.837  1.00  0.00     0.248 C 
BRANCH  16  17
ATOM     17  N   UNL A   1      32.252  22.351  23.408  1.00  0.00    -0.220 N 
ATOM     18  N   UNL A   1      32.684  22.325  25.217  1.00  0.00    -0.177 NA
ATOM     19  C   UNL A   1      32.125  20.834  22.473  1.00  0.00     0.275 A 
ATOM     20  C   UNL A   1      32.777  20.978  25.959  1.00  0.00     0.142 A 
ATOM     21  C   UNL A   1      32.484  19.201  23.420  1.00  0.00     0.050 A 
ATOM     22  O   UNL A   1      31.857  20.861  21.276  1.00  0.00    -0.267 OA
ATOM     23  C   UNL A   1      32.712  19.265  25.116  1.00  0.00     0.007 A 
ATOM     24  C   UNL A   1      32.647  18.013  22.757  1.00  0.00     0.014 A 
ATOM     25  C   UNL A   1      32.972  18.115  25.811  1.00  0.00     0.010 A 
ATOM     26  C   UNL A   1      32.983  16.916  23.575  1.00  0.00     0.001 A 
ATOM     27  C   UNL A   1      33.114  16.960  25.016  1.00  0.00     0.001 A 
ENDBRANCH  16  17
ENDBRANCH  13  16
ENDBRANCH   7  12
ENDBRANCH   4   7
ENDBRANCH   2   3
ENDBRANCH   1   2
BRANCH   1  28
ATOM     28  C   UNL A   1      31.413  31.936  26.713  1.00  0.00     0.023 C 
BRANCH  28  29
ATOM     29  C   UNL A   1      32.648  32.771  26.945  1.00  0.00     0.116 C 
BRANCH  29  30
ATOM     30  N   UNL A   1      32.389  33.997  27.668  1.00  0.00    -0.352 N 
ATOM     31  C   UNL A   1      33.187  34.495  28.675  1.00  0.00     0.251 C 
ATOM     32  H   UNL A   1      31.587  34.512  27.424  1.00  0.00     0.163 HD
ATOM     33  O   UNL A   1      32.905  35.504  29.305  1.00  0.00    -0.269 OA
BRANCH  31  34
ATOM     34  C   UNL A   1      34.391  33.698  28.984  1.00  0.00     0.039 A 
ATOM     35  C   UNL A   1      34.248  32.572  29.802  1.00  0.00     0.014 A 
ATOM     36  C   UNL A   1      35.641  34.273  28.751  1.00  0.00     0.014 A 
ATOM     37  C   UNL A   1      35.354  32.110  30.505  1.00  0.00     0.010 A 
ATOM     38  C   UNL A   1      36.766  33.723  29.368  1.00  0.00     0.010 A 
ATOM     39  C   UNL A   1      36.630  32.655  30.271  1.00  0.00    -0.014 A 
BRANCH  39  40
ATOM     40  C   UNL A   1      37.828  32.050  30.909  1.00  0.00     0.031 A 
ATOM     41  C   UNL A   1      38.645  30.987  30.228  1.00  0.00     0.074 A 
ATOM     42  C   UNL A   1      38.159  32.460  32.148  1.00  0.00     0.049 A 
ATOM     43  N   UNL A   1      39.635  30.274  30.708  1.00  0.00    -0.248 NA
ATOM     44  C   UNL A   1      38.306  30.676  28.832  1.00  0.00     0.031 C 
ATOM     45  C   UNL A   1      37.462  33.504  32.902  1.00  0.00     0.029 A 
ATOM     46  N   UNL A   1      39.164  32.062  32.988  1.00  0.00    -0.354 N 
ATOM     47  C   UNL A   1      40.024  29.418  29.686  1.00  0.00     0.074 A 
ATOM     48  C   UNL A   1      39.140  29.679  28.567  1.00  0.00     0.031 C 
ATOM     49  C   UNL A   1      38.090  33.704  34.064  1.00  0.00     0.029 A 
ATOM     50  C   UNL A   1      39.169  32.733  34.186  1.00  0.00     0.049 A 
ATOM     51  H   UNL A   1      39.819  31.364  32.757  1.00  0.00     0.167 HD
ATOM     52  C   UNL A   1      41.030  28.507  29.683  1.00  0.00     0.037 A 
ATOM     53  C   UNL A   1      39.927  32.565  35.282  1.00  0.00     0.037 A 
ATOM     54  C   UNL A   1      41.896  28.251  30.810  1.00  0.00     0.049 A 
ATOM     55  C   UNL A   1      40.963  31.485  35.290  1.00  0.00     0.074 A 
ATOM     56  C   UNL A   1      42.937  27.343  30.914  1.00  0.00     0.029 A 
ATOM     57  N   UNL A   1      41.822  28.904  32.035  1.00  0.00    -0.354 N 
ATOM     58  N   UNL A   1      41.305  30.662  34.330  1.00  0.00    -0.248 NA
ATOM     59  C   UNL A   1      41.708  31.301  36.540  1.00  0.00     0.031 C 
ATOM     60  C   UNL A   1      43.453  27.408  32.212  1.00  0.00     0.029 A 
ATOM     61  C   UNL A   1      42.780  28.402  32.904  1.00  0.00     0.049 A 
ATOM     62  H   UNL A   1      41.182  29.620  32.253  1.00  0.00     0.167 HD
ATOM     63  C   UNL A   1      42.320  29.872  34.850  1.00  0.00     0.074 A 
ATOM     64  C   UNL A   1      42.548  30.333  36.206  1.00  0.00     0.031 C 
ATOM     65  C   UNL A   1      42.995  28.857  34.256  1.00  0.00     0.037 A 
BRANCH  52  66
ATOM     66  C   UNL A   1      41.240  27.702  28.428  1.00  0.00     0.064 A 
ATOM     67  C   UNL A   1      40.529  26.516  28.184  1.00  0.00     0.173 A 
ATOM     68  C   UNL A   1      42.138  28.135  27.438  1.00  0.00     0.173 A 
ATOM     69  F   UNL A   1      39.669  26.045  29.099  1.00  0.00    -0.203 F 
ATOM     70  C   UNL A   1      40.734  25.780  27.017  1.00  0.00     0.198 A 
ATOM     71  C   UNL A   1      42.314  27.416  26.258  1.00  0.00     0.198 A 
ATOM     72  F   UNL A   1      42.842  29.264  27.610  1.00  0.00    -0.203 F 
ATOM     73  F   UNL A   1      40.087  24.619  26.841  1.00  0.00    -0.200 F 
ATOM     74  C   UNL A   1      41.620  26.233  26.053  1.00  0.00     0.200 A 
ATOM     75  F   UNL A   1      43.162  27.863  25.321  1.00  0.00    -0.200 F 
ATOM     76  F   UNL A   1      41.814  25.524  24.933  1.00  0.00    -0.200 F 
ENDBRANCH  52  66
BRANCH  53  77
ATOM     77  C   UNL A   1      39.725  33.469  36.441  1.00  0.00     0.064 A 
ATOM     78  C   UNL A   1      40.326  34.732  36.464  1.00  0.00     0.173 A 
ATOM     79  C   UNL A   1      38.864  33.132  37.497  1.00  0.00     0.173 A 
ATOM     80  F   UNL A   1      41.167  35.090  35.482  1.00  0.00    -0.203 F 
ATOM     81  C   UNL A   1      40.067  35.632  37.495  1.00  0.00     0.198 A 
ATOM     82  C   UNL A   1      38.582  34.043  38.511  1.00  0.00     0.198 A 
ATOM     83  F   UNL A   1      38.255  31.936  37.513  1.00  0.00    -0.203 F 
ATOM     84  F   UNL A   1      40.666  36.830  37.501  1.00  0.00    -0.200 F 
ATOM     85  C   UNL A   1      39.185  35.291  38.510  1.00  0.00     0.200 A 
ATOM     86  F   UNL A   1      37.709  33.720  39.475  1.00  0.00    -0.200 F 
ATOM     87  F   UNL A   1      38.913  36.169  39.485  1.00  0.00    -0.200 F 
ENDBRANCH  53  77
BRANCH  65  88
ATOM     88  C   UNL A   1      44.064  28.184  35.068  1.00  0.00     0.064 A 
ATOM     89  C   UNL A   1      43.797  27.042  35.837  1.00  0.00     0.173 A 
ATOM     90  C   UNL A   1      45.381  28.672  35.055  1.00  0.00     0.173 A 
ATOM     91  F   UNL A   1      42.552  26.545  35.899  1.00  0.00    -0.203 F 
ATOM     92  C   UNL A   1      44.800  26.431  36.586  1.00  0.00     0.198 A 
ATOM     93  C   UNL A   1      46.388  28.037  35.776  1.00  0.00     0.198 A 
ATOM     94  F   UNL A   1      45.693  29.759  34.333  1.00  0.00    -0.203 F 
ATOM     95  F   UNL A   1      44.508  25.374  37.357  1.00  0.00    -0.200 F 
ATOM     96  C   UNL A   1      46.095  26.923  36.547  1.00  0.00     0.200 A 
ATOM     97  F   UNL A   1      47.643  28.506  35.724  1.00  0.00    -0.200 F 
ATOM     98  F   UNL A   1      47.061  26.328  37.261  1.00  0.00    -0.200 F 
ENDBRANCH  65  88
ENDBRANCH  39  40
ENDBRANCH  31  34
ENDBRANCH  29  30
ENDBRANCH  28  29
ENDBRANCH   1  28
TORSDOF 16
ENDMDL
MODEL 3
REMARK VINA RESULT:     -13.0      3.421      5.138
REMARK SMILES CC[C@@H](C)[C@@H](NC(=O)Cn1ncc2ccccc2c1=O)C(=O)NCCCCNC(=O)c1ccc(-c2c3nc(c(-c4c(F)c(F)c(F)c(F)c4F)c4ccc([nH]4)c(-c4c(F)c(F)c(F)c(F)c4F)c4nc(c(-c5c(F)c(F)c(F)c(F)c5F)c5ccc2[nH]5)C=C4)C=C3)cc1
REMARK SMILES IDX 25 1 24 2 23 3 21 4 22 5 5 7 3 8 4 9 2 10 1 11 6 12 7 13
REMARK SMILES IDX 8 15 9 16 10 17 11 18 19 19 12 20 18 21 20 22 13 23 17 24
REMARK SMILES IDX 14 25 16 26 15 27 26 28 27 29 28 30 29 31 30 33 31 34 32 35
REMARK SMILES IDX 93 36 33 37 92 38 34 39 35 40 36 41 86 42 37 43 91 44 85 45
REMARK SMILES IDX 87 46 38 47 90 48 84 49 83 50 39 52 71 53 51 54 70 55 52 56
REMARK SMILES IDX 55 57 69 58 88 59 53 60 54 61 68 63 89 64 56 65 40 66 41 67
REMARK SMILES IDX 49 68 42 69 43 70 47 71 50 72 44 73 45 74 48 75 46 76 72 77
REMARK SMILES IDX 73 78 81 79 74 80 75 81 79 82 82 83 76 84 77 85 80 86 78 87
REMARK SMILES IDX 57 88 58 89 66 90 59 91 60 92 64 93 67 94 61 95 62 96 65 97
REMARK SMILES IDX 63 98
REMARK H PARENT 23 6 6 14 28 32 87 51 55 62
REMARK Flexibility Score: inf
ROOT
ATOM      1  C   UNL A   1      32.747  30.300  27.393  1.00  0.00     0.023 C 
ENDROOT
BRANCH   1   2
ATOM      2  C   UNL A   1      33.800  29.418  26.360  1.00  0.00     0.116 C 
BRANCH   2   3
ATOM      3  N   UNL A   1      33.564  28.785  24.402  1.00  0.00    -0.354 N 
ATOM      4  C   UNL A   1      32.666  28.269  23.413  1.00  0.00     0.242 C 
ATOM      5  O   UNL A   1      33.176  28.303  22.276  1.00  0.00    -0.273 OA
ATOM      6  H   UNL A   1      34.442  28.877  23.967  1.00  0.00     0.163 HD
BRANCH   4   7
ATOM      7  C   UNL A   1      31.230  27.565  23.563  1.00  0.00     0.174 C 
BRANCH   7   8
ATOM      8  C   UNL A   1      30.075  28.555  23.135  1.00  0.00     0.018 C 
ATOM      9  C   UNL A   1      30.166  29.888  23.898  1.00  0.00     0.010 C 
BRANCH   8  10
ATOM     10  C   UNL A   1      28.627  28.023  23.123  1.00  0.00     0.002 C 
ATOM     11  C   UNL A   1      27.631  29.173  22.912  1.00  0.00     0.004 C 
ENDBRANCH   8  10
ENDBRANCH   7   8
BRANCH   7  12
ATOM     12  N   UNL A   1      30.977  26.177  23.119  1.00  0.00    -0.342 N 
ATOM     13  C   UNL A   1      30.963  24.980  23.768  1.00  0.00     0.242 C 
ATOM     14  H   UNL A   1      30.781  26.103  22.156  1.00  0.00     0.164 HD
ATOM     15  O   UNL A   1      30.548  24.000  23.140  1.00  0.00    -0.273 OA
BRANCH  13  16
ATOM     16  C   UNL A   1      31.246  24.879  25.244  1.00  0.00     0.248 C 
BRANCH  16  17
ATOM     17  N   UNL A   1      32.336  23.989  25.536  1.00  0.00    -0.220 N 
ATOM     18  N   UNL A   1      32.067  22.149  25.482  1.00  0.00    -0.177 NA
ATOM     19  C   UNL A   1      33.982  24.678  25.454  1.00  0.00     0.275 A 
ATOM     20  C   UNL A   1      33.259  21.212  25.203  1.00  0.00     0.142 A 
ATOM     21  C   UNL A   1      35.439  23.430  25.339  1.00  0.00     0.050 A 
ATOM     22  O   UNL A   1      34.152  25.892  25.508  1.00  0.00    -0.267 OA
ATOM     23  C   UNL A   1      35.085  21.768  25.130  1.00  0.00     0.007 A 
ATOM     24  C   UNL A   1      36.738  23.833  25.508  1.00  0.00     0.014 A 
ATOM     25  C   UNL A   1      36.107  20.860  25.050  1.00  0.00     0.010 A 
ATOM     26  C   UNL A   1      37.691  22.796  25.475  1.00  0.00     0.001 A 
ATOM     27  C   UNL A   1      37.395  21.398  25.237  1.00  0.00     0.001 A 
ENDBRANCH  16  17
ENDBRANCH  13  16
ENDBRANCH   7  12
ENDBRANCH   4   7
ENDBRANCH   2   3
ENDBRANCH   1   2
BRANCH   1  28
ATOM     28  C   UNL A   1      32.479  31.721  26.922  1.00  0.00     0.023 C 
BRANCH  28  29
ATOM     29  C   UNL A   1      33.376  32.758  27.547  1.00  0.00     0.116 C 
BRANCH  29  30
ATOM     30  N   UNL A   1      32.740  34.046  27.719  1.00  0.00    -0.352 N 
ATOM     31  C   UNL A   1      33.086  34.969  28.681  1.00  0.00     0.251 C 
ATOM     32  H   UNL A   1      32.008  34.280  27.103  1.00  0.00     0.163 HD
ATOM     33  O   UNL A   1      32.486  36.023  28.834  1.00  0.00    -0.269 OA
BRANCH  31  34
ATOM     34  C   UNL A   1      34.207  34.579  29.560  1.00  0.00     0.039 A 
ATOM     35  C   UNL A   1      35.505  34.634  29.039  1.00  0.00     0.014 A 
ATOM     36  C   UNL A   1      33.919  33.857  30.718  1.00  0.00     0.014 A 
ATOM     37  C   UNL A   1      36.491  33.839  29.611  1.00  0.00     0.010 A 
ATOM     38  C   UNL A   1      34.946  33.159  31.355  1.00  0.00     0.010 A 
ATOM     39  C   UNL A   1      36.234  33.121  30.793  1.00  0.00    -0.014 A 
BRANCH  39  40
ATOM     40  C   UNL A   1      37.336  32.401  31.483  1.00  0.00     0.031 A 
ATOM     41  C   UNL A   1      37.827  32.807  32.844  1.00  0.00     0.074 A 
ATOM     42  C   UNL A   1      37.919  31.372  30.839  1.00  0.00     0.049 A 
ATOM     43  N   UNL A   1      38.862  32.362  33.515  1.00  0.00    -0.248 NA
ATOM     44  C   UNL A   1      37.067  33.854  33.544  1.00  0.00     0.031 C 
ATOM     45  C   UNL A   1      37.514  30.865  29.526  1.00  0.00     0.029 A 
ATOM     46  N   UNL A   1      38.965  30.564  31.197  1.00  0.00    -0.354 N 
ATOM     47  C   UNL A   1      38.892  33.083  34.702  1.00  0.00     0.074 A 
ATOM     48  C   UNL A   1      37.788  34.020  34.646  1.00  0.00     0.031 C 
ATOM     49  C   UNL A   1      38.260  29.801  29.215  1.00  0.00     0.029 A 
ATOM     50  C   UNL A   1      39.265  29.614  30.253  1.00  0.00     0.049 A 
ATOM     51  H   UNL A   1      39.453  30.654  32.047  1.00  0.00     0.167 HD
ATOM     52  C   UNL A   1      39.756  32.964  35.741  1.00  0.00     0.037 A 
ATOM     53  C   UNL A   1      40.260  28.714  30.200  1.00  0.00     0.037 A 
ATOM     54  C   UNL A   1      40.858  32.031  35.778  1.00  0.00     0.049 A 
ATOM     55  C   UNL A   1      41.262  28.672  31.312  1.00  0.00     0.074 A 
ATOM     56  C   UNL A   1      41.798  31.841  36.778  1.00  0.00     0.029 A 
ATOM     57  N   UNL A   1      41.173  31.132  34.767  1.00  0.00    -0.354 N 
ATOM     58  N   UNL A   1      41.298  29.376  32.416  1.00  0.00    -0.248 NA
ATOM     59  C   UNL A   1      42.367  27.720  31.162  1.00  0.00     0.031 C 
ATOM     60  C   UNL A   1      42.707  30.869  36.349  1.00  0.00     0.029 A 
ATOM     61  C   UNL A   1      42.303  30.404  35.109  1.00  0.00     0.049 A 
ATOM     62  H   UNL A   1      40.666  31.027  33.929  1.00  0.00     0.167 HD
ATOM     63  C   UNL A   1      42.420  28.941  33.106  1.00  0.00     0.074 A 
ATOM     64  C   UNL A   1      43.022  27.897  32.301  1.00  0.00     0.031 C 
ATOM     65  C   UNL A   1      42.904  29.373  34.297  1.00  0.00     0.037 A 
BRANCH  52  66
ATOM     66  C   UNL A   1      39.559  33.879  36.922  1.00  0.00     0.064 A 
ATOM     67  C   UNL A   1      38.820  33.482  38.048  1.00  0.00     0.173 A 
ATOM     68  C   UNL A   1      40.143  35.156  36.946  1.00  0.00     0.173 A 
ATOM     69  F   UNL A   1      38.227  32.279  38.075  1.00  0.00    -0.203 F 
ATOM     70  C   UNL A   1      38.645  34.339  39.134  1.00  0.00     0.198 A 
ATOM     71  C   UNL A   1      39.996  35.997  38.048  1.00  0.00     0.198 A 
ATOM     72  F   UNL A   1      40.866  35.590  35.903  1.00  0.00    -0.203 F 
ATOM     73  F   UNL A   1      37.882  33.956  40.167  1.00  0.00    -0.200 F 
ATOM     74  C   UNL A   1      39.238  35.591  39.137  1.00  0.00     0.200 A 
ATOM     75  F   UNL A   1      40.582  37.202  38.054  1.00  0.00    -0.200 F 
ATOM     76  F   UNL A   1      39.069  36.412  40.182  1.00  0.00    -0.200 F 
ENDBRANCH  52  66
BRANCH  53  77
ATOM     77  C   UNL A   1      40.324  27.779  29.050  1.00  0.00     0.064 A 
ATOM     78  C   UNL A   1      39.584  26.591  29.065  1.00  0.00     0.173 A 
ATOM     79  C   UNL A   1      41.044  28.090  27.886  1.00  0.00     0.173 A 
ATOM     80  F   UNL A   1      38.893  26.248  30.162  1.00  0.00    -0.203 F 
ATOM     81  C   UNL A   1      39.553  25.751  27.955  1.00  0.00     0.198 A 
ATOM     82  C   UNL A   1      40.988  27.265  26.766  1.00  0.00     0.198 A 
ATOM     83  F   UNL A   1      41.759  29.223  27.820  1.00  0.00    -0.203 F 
ATOM     84  F   UNL A   1      38.849  24.613  27.999  1.00  0.00    -0.200 F 
ATOM     85  C   UNL A   1      40.244  26.096  26.801  1.00  0.00     0.200 A 
ATOM     86  F   UNL A   1      41.635  27.615  25.646  1.00  0.00    -0.200 F 
ATOM     87  F   UNL A   1      40.188  25.302  25.724  1.00  0.00    -0.200 F 
ENDBRANCH  53  77
BRANCH  65  88
ATOM     88  C   UNL A   1      44.144  28.699  34.812  1.00  0.00     0.064 A 
ATOM     89  C   UNL A   1      45.425  29.203  34.540  1.00  0.00     0.173 A 
ATOM     90  C   UNL A   1      44.049  27.549  35.613  1.00  0.00     0.173 A 
ATOM     91  F   UNL A   1      45.573  30.288  33.765  1.00  0.00    -0.203 F 
ATOM     92  C   UNL A   1      46.564  28.564  35.024  1.00  0.00     0.198 A 
ATOM     93  C   UNL A   1      45.188  26.935  36.124  1.00  0.00     0.198 A 
ATOM     94  F   UNL A   1      42.849  27.027  35.907  1.00  0.00    -0.203 F 
ATOM     95  F   UNL A   1      47.778  29.033  34.704  1.00  0.00    -0.200 F 
ATOM     96  C   UNL A   1      46.444  27.438  35.822  1.00  0.00     0.200 A 
ATOM     97  F   UNL A   1      45.069  25.855  36.909  1.00  0.00    -0.200 F 
ATOM     98  F   UNL A   1      47.542  26.831  36.295  1.00  0.00    -0.200 F 
ENDBRANCH  65  88
ENDBRANCH  39  40
ENDBRANCH  31  34
ENDBRANCH  29  30
ENDBRANCH  28  29
ENDBRANCH   1  28
TORSDOF 16
ENDMDL
