MODEL 1
REMARK VINA RESULT:     -10.9      0.000      0.000
REMARK SMILES CSC[C@H](C(=O)NCCCCNC(=O)c1ccc(-c2c3nc(c(-c4c(F)c(F)c(F)c(F)c4F)c4ccc([nH]4)c(-c4c(F)c(F)c(F)c(F)c4F)c4nc(c(-c5c(F)c(F)c(F)c(F)c5F)c5ccc2[nH]5)C=C4)C=C3)cc1)c1ccccc1
REMARK SMILES IDX 9 1 8 2 7 3 5 4 6 5 4 7 3 8 2 9 1 10 78 11 79 12 83 13 80 14
REMARK SMILES IDX 82 15 81 16 10 17 11 18 12 19 13 20 14 22 15 23 16 24 77 25
REMARK SMILES IDX 17 26 76 27 18 28 19 29 20 30 70 31 21 32 75 33 69 34 71 35
REMARK SMILES IDX 22 36 74 37 68 38 67 39 23 41 55 42 35 43 54 44 36 45 39 46
REMARK SMILES IDX 53 47 72 48 37 49 38 50 52 52 73 53 40 54 24 55 25 56 33 57
REMARK SMILES IDX 26 58 27 59 31 60 34 61 28 62 29 63 32 64 30 65 56 66 57 67
REMARK SMILES IDX 65 68 58 69 59 70 63 71 66 72 60 73 61 74 64 75 62 76 41 77
REMARK SMILES IDX 42 78 50 79 43 80 44 81 48 82 51 83 45 84 46 85 49 86 47 87
REMARK H PARENT 7 6 12 21 71 40 39 51
REMARK Flexibility Score: inf
ROOT
ATOM      1  C   UNL A   1      31.027  31.189  25.547  1.00  0.00     0.023 C 
ENDROOT
BRANCH   1   2
ATOM      2  C   UNL A   1      31.554  29.762  25.423  1.00  0.00     0.116 C 
BRANCH   2   3
ATOM      3  N   UNL A   1      32.679  29.661  24.512  1.00  0.00    -0.356 N 
ATOM      4  C   UNL A   1      32.804  28.952  23.350  1.00  0.00     0.228 C 
ATOM      5  O   UNL A   1      33.816  29.181  22.685  1.00  0.00    -0.274 OA
ATOM      6  H   UNL A   1      33.473  30.183  24.771  1.00  0.00     0.163 HD
BRANCH   4   7
ATOM      7  C   UNL A   1      31.699  27.974  22.930  1.00  0.00     0.118 C 
BRANCH   7   8
ATOM      8  C   UNL A   1      31.753  26.725  23.843  1.00  0.00     0.087 C 
BRANCH   8   9
ATOM      9  S   UNL A   1      33.369  25.885  24.026  1.00  0.00    -0.164 SA
ATOM     10  C   UNL A   1      33.729  26.285  25.761  1.00  0.00     0.085 C 
ENDBRANCH   8   9
ENDBRANCH   7   8
BRANCH   7  11
ATOM     11  C   UNL A   1      30.313  28.587  22.672  1.00  0.00    -0.035 A 
ATOM     12  C   UNL A   1      30.185  29.819  22.001  1.00  0.00     0.004 A 
ATOM     13  C   UNL A   1      29.143  28.042  23.230  1.00  0.00     0.004 A 
ATOM     14  C   UNL A   1      28.945  30.453  21.867  1.00  0.00     0.000 A 
ATOM     15  C   UNL A   1      27.901  28.672  23.090  1.00  0.00     0.000 A 
ATOM     16  C   UNL A   1      27.803  29.878  22.408  1.00  0.00     0.000 A 
ENDBRANCH   7  11
ENDBRANCH   4   7
ENDBRANCH   2   3
ENDBRANCH   1   2
BRANCH   1  17
ATOM     17  C   UNL A   1      31.325  31.884  26.878  1.00  0.00     0.023 C 
BRANCH  17  18
ATOM     18  C   UNL A   1      32.665  32.608  26.949  1.00  0.00     0.116 C 
BRANCH  18  19
ATOM     19  N   UNL A   1      32.526  33.991  27.380  1.00  0.00    -0.352 N 
ATOM     20  C   UNL A   1      33.143  34.652  28.414  1.00  0.00     0.251 C 
ATOM     21  H   UNL A   1      31.895  34.532  26.854  1.00  0.00     0.163 HD
ATOM     22  O   UNL A   1      32.748  35.767  28.751  1.00  0.00    -0.269 OA
BRANCH  20  23
ATOM     23  C   UNL A   1      34.268  34.025  29.140  1.00  0.00     0.039 A 
ATOM     24  C   UNL A   1      33.995  33.037  30.090  1.00  0.00     0.014 A 
ATOM     25  C   UNL A   1      35.588  34.419  28.901  1.00  0.00     0.014 A 
ATOM     26  C   UNL A   1      35.048  32.395  30.747  1.00  0.00     0.010 A 
ATOM     27  C   UNL A   1      36.638  33.729  29.502  1.00  0.00     0.010 A 
ATOM     28  C   UNL A   1      36.380  32.710  30.431  1.00  0.00    -0.014 A 
BRANCH  28  29
ATOM     29  C   UNL A   1      37.515  31.983  31.056  1.00  0.00     0.031 A 
ATOM     30  C   UNL A   1      37.982  32.348  32.437  1.00  0.00     0.074 A 
ATOM     31  C   UNL A   1      38.173  31.042  30.350  1.00  0.00     0.049 A 
ATOM     32  N   UNL A   1      39.004  31.889  33.116  1.00  0.00    -0.248 NA
ATOM     33  C   UNL A   1      37.216  33.390  33.139  1.00  0.00     0.031 C 
ATOM     34  C   UNL A   1      37.850  30.629  28.984  1.00  0.00     0.029 A 
ATOM     35  N   UNL A   1      39.262  30.273  30.681  1.00  0.00    -0.354 N 
ATOM     36  C   UNL A   1      39.012  32.596  34.311  1.00  0.00     0.074 A 
ATOM     37  C   UNL A   1      37.925  33.548  34.247  1.00  0.00     0.031 C 
ATOM     38  C   UNL A   1      38.709  29.672  28.598  1.00  0.00     0.029 A 
ATOM     39  C   UNL A   1      39.666  29.429  29.675  1.00  0.00     0.049 A 
ATOM     40  H   UNL A   1      39.711  30.322  31.555  1.00  0.00     0.167 HD
ATOM     41  C   UNL A   1      39.838  32.448  35.375  1.00  0.00     0.037 A 
ATOM     42  C   UNL A   1      40.697  28.565  29.621  1.00  0.00     0.037 A 
ATOM     43  C   UNL A   1      40.901  31.480  35.449  1.00  0.00     0.049 A 
ATOM     44  C   UNL A   1      41.598  28.418  30.817  1.00  0.00     0.074 A 
ATOM     45  C   UNL A   1      41.750  31.208  36.508  1.00  0.00     0.029 A 
ATOM     46  N   UNL A   1      41.263  30.624  34.419  1.00  0.00    -0.354 N 
ATOM     47  N   UNL A   1      41.553  29.042  31.968  1.00  0.00    -0.248 NA
ATOM     48  C   UNL A   1      42.690  27.440  30.707  1.00  0.00     0.031 C 
ATOM     49  C   UNL A   1      42.653  30.220  36.104  1.00  0.00     0.029 A 
ATOM     50  C   UNL A   1      42.336  29.838  34.811  1.00  0.00     0.049 A 
ATOM     51  H   UNL A   1      40.822  30.580  33.539  1.00  0.00     0.167 HD
ATOM     52  C   UNL A   1      42.587  28.515  32.730  1.00  0.00     0.074 A 
ATOM     53  C   UNL A   1      43.235  27.509  31.914  1.00  0.00     0.031 C 
ATOM     54  C   UNL A   1      42.964  28.834  33.992  1.00  0.00     0.037 A 
BRANCH  41  55
ATOM     55  C   UNL A   1      39.623  33.355  36.551  1.00  0.00     0.064 A 
ATOM     56  C   UNL A   1      40.237  34.615  36.631  1.00  0.00     0.173 A 
ATOM     57  C   UNL A   1      38.763  32.978  37.594  1.00  0.00     0.173 A 
ATOM     58  F   UNL A   1      41.076  35.019  35.666  1.00  0.00    -0.203 F 
ATOM     59  C   UNL A   1      40.021  35.449  37.725  1.00  0.00     0.198 A 
ATOM     60  C   UNL A   1      38.526  33.829  38.671  1.00  0.00     0.198 A 
ATOM     61  F   UNL A   1      38.145  31.788  37.565  1.00  0.00    -0.203 F 
ATOM     62  F   UNL A   1      40.657  36.627  37.802  1.00  0.00    -0.200 F 
ATOM     63  C   UNL A   1      39.161  35.059  38.739  1.00  0.00     0.200 A 
ATOM     64  F   UNL A   1      37.683  33.455  39.645  1.00  0.00    -0.200 F 
ATOM     65  F   UNL A   1      38.949  35.866  39.788  1.00  0.00    -0.200 F 
ENDBRANCH  41  55
BRANCH  42  66
ATOM     66  C   UNL A   1      40.918  27.750  28.397  1.00  0.00     0.064 A 
ATOM     67  C   UNL A   1      40.329  26.485  28.261  1.00  0.00     0.173 A 
ATOM     68  C   UNL A   1      41.719  28.215  27.345  1.00  0.00     0.173 A 
ATOM     69  F   UNL A   1      39.571  25.990  29.250  1.00  0.00    -0.203 F 
ATOM     70  C   UNL A   1      40.548  25.708  27.126  1.00  0.00     0.198 A 
ATOM     71  C   UNL A   1      41.915  27.448  26.198  1.00  0.00     0.198 A 
ATOM     72  F   UNL A   1      42.301  29.420  27.425  1.00  0.00    -0.203 F 
ATOM     73  F   UNL A   1      40.008  24.484  27.039  1.00  0.00    -0.200 F 
ATOM     74  C   UNL A   1      41.336  26.193  26.093  1.00  0.00     0.200 A 
ATOM     75  F   UNL A   1      42.665  27.925  25.196  1.00  0.00    -0.200 F 
ATOM     76  F   UNL A   1      41.542  25.447  24.998  1.00  0.00    -0.200 F 
ENDBRANCH  42  66
BRANCH  54  77
ATOM     77  C   UNL A   1      44.106  28.063  34.586  1.00  0.00     0.064 A 
ATOM     78  C   UNL A   1      45.428  28.525  34.507  1.00  0.00     0.173 A 
ATOM     79  C   UNL A   1      43.867  26.867  35.280  1.00  0.00     0.173 A 
ATOM     80  F   UNL A   1      45.709  29.654  33.842  1.00  0.00    -0.203 F 
ATOM     81  C   UNL A   1      46.472  27.805  35.083  1.00  0.00     0.198 A 
ATOM     82  C   UNL A   1      44.910  26.165  35.879  1.00  0.00     0.198 A 
ATOM     83  F   UNL A   1      42.621  26.385  35.389  1.00  0.00    -0.203 F 
ATOM     84  F   UNL A   1      47.733  28.242  34.957  1.00  0.00    -0.200 F 
ATOM     85  C   UNL A   1      46.212  26.631  35.774  1.00  0.00     0.200 A 
ATOM     86  F   UNL A   1      44.655  25.039  36.558  1.00  0.00    -0.200 F 
ATOM     87  F   UNL A   1      47.218  25.945  36.335  1.00  0.00    -0.200 F 
ENDBRANCH  54  77
ENDBRANCH  28  29
ENDBRANCH  20  23
ENDBRANCH  18  19
ENDBRANCH  17  18
ENDBRANCH   1  17
TORSDOF 14
ENDMDL
MODEL 2
REMARK VINA RESULT:     -10.8      4.302      9.094
REMARK SMILES CSC[C@H](C(=O)NCCCCNC(=O)c1ccc(-c2c3nc(c(-c4c(F)c(F)c(F)c(F)c4F)c4ccc([nH]4)c(-c4c(F)c(F)c(F)c(F)c4F)c4nc(c(-c5c(F)c(F)c(F)c(F)c5F)c5ccc2[nH]5)C=C4)C=C3)cc1)c1ccccc1
REMARK SMILES IDX 9 1 8 2 7 3 5 4 6 5 4 7 3 8 2 9 1 10 78 11 79 12 83 13 80 14
REMARK SMILES IDX 82 15 81 16 10 17 11 18 12 19 13 20 14 22 15 23 16 24 77 25
REMARK SMILES IDX 17 26 76 27 18 28 19 29 20 30 70 31 21 32 75 33 69 34 71 35
REMARK SMILES IDX 22 36 74 37 68 38 67 39 23 41 55 42 35 43 54 44 36 45 39 46
REMARK SMILES IDX 53 47 72 48 37 49 38 50 52 52 73 53 40 54 24 55 25 56 33 57
REMARK SMILES IDX 26 58 27 59 31 60 34 61 28 62 29 63 32 64 30 65 56 66 57 67
REMARK SMILES IDX 65 68 58 69 59 70 63 71 66 72 60 73 61 74 64 75 62 76 41 77
REMARK SMILES IDX 42 78 50 79 43 80 44 81 48 82 51 83 45 84 46 85 49 86 47 87
REMARK H PARENT 7 6 12 21 71 40 39 51
REMARK Flexibility Score: inf
ROOT
ATOM      1  C   UNL A   1      34.869  24.482  24.447  1.00  0.00     0.023 C 
ENDROOT
BRANCH   1   2
ATOM      2  C   UNL A   1      33.524  23.763  24.388  1.00  0.00     0.116 C 
BRANCH   2   3
ATOM      3  N   UNL A   1      32.908  23.629  25.695  1.00  0.00    -0.356 N 
ATOM      4  C   UNL A   1      32.017  24.448  26.332  1.00  0.00     0.228 C 
ATOM      5  O   UNL A   1      31.526  24.005  27.372  1.00  0.00    -0.274 OA
ATOM      6  H   UNL A   1      33.171  22.826  26.200  1.00  0.00     0.163 HD
BRANCH   4   7
ATOM      7  C   UNL A   1      31.659  25.808  25.719  1.00  0.00     0.118 C 
BRANCH   7   8
ATOM      8  C   UNL A   1      30.122  25.901  25.553  1.00  0.00     0.087 C 
BRANCH   8   9
ATOM      9  S   UNL A   1      29.476  26.260  23.879  1.00  0.00    -0.164 SA
ATOM     10  C   UNL A   1      30.100  27.952  23.665  1.00  0.00     0.085 C 
ENDBRANCH   8   9
ENDBRANCH   7   8
BRANCH   7  11
ATOM     11  C   UNL A   1      32.368  27.031  26.323  1.00  0.00    -0.035 A 
ATOM     12  C   UNL A   1      31.665  27.943  27.134  1.00  0.00     0.004 A 
ATOM     13  C   UNL A   1      33.682  27.381  25.965  1.00  0.00     0.004 A 
ATOM     14  C   UNL A   1      32.258  29.125  27.590  1.00  0.00     0.000 A 
ATOM     15  C   UNL A   1      34.279  28.559  26.427  1.00  0.00     0.000 A 
ATOM     16  C   UNL A   1      33.566  29.432  27.239  1.00  0.00     0.000 A 
ENDBRANCH   7  11
ENDBRANCH   4   7
ENDBRANCH   2   3
ENDBRANCH   1   2
BRANCH   1  17
ATOM     17  C   UNL A   1      36.094  23.571  24.567  1.00  0.00     0.023 C 
BRANCH  17  18
ATOM     18  C   UNL A   1      36.523  23.243  25.994  1.00  0.00     0.116 C 
BRANCH  18  19
ATOM     19  N   UNL A   1      37.705  22.396  26.036  1.00  0.00    -0.352 N 
ATOM     20  C   UNL A   1      39.011  22.727  26.301  1.00  0.00     0.251 C 
ATOM     21  H   UNL A   1      37.545  21.444  25.845  1.00  0.00     0.163 HD
ATOM     22  O   UNL A   1      39.905  21.908  26.092  1.00  0.00    -0.269 OA
BRANCH  20  23
ATOM     23  C   UNL A   1      39.354  24.069  26.816  1.00  0.00     0.039 A 
ATOM     24  C   UNL A   1      39.060  24.381  28.146  1.00  0.00     0.014 A 
ATOM     25  C   UNL A   1      39.949  25.026  25.989  1.00  0.00     0.014 A 
ATOM     26  C   UNL A   1      39.426  25.626  28.666  1.00  0.00     0.010 A 
ATOM     27  C   UNL A   1      40.379  26.238  26.527  1.00  0.00     0.010 A 
ATOM     28  C   UNL A   1      40.122  26.550  27.870  1.00  0.00    -0.014 A 
BRANCH  28  29
ATOM     29  C   UNL A   1      40.594  27.845  28.425  1.00  0.00     0.031 A 
ATOM     30  C   UNL A   1      42.042  28.034  28.782  1.00  0.00     0.074 A 
ATOM     31  C   UNL A   1      39.706  28.827  28.676  1.00  0.00     0.049 A 
ATOM     32  N   UNL A   1      42.629  29.057  29.353  1.00  0.00    -0.248 NA
ATOM     33  C   UNL A   1      42.948  26.913  28.484  1.00  0.00     0.031 C 
ATOM     34  C   UNL A   1      38.267  28.752  28.420  1.00  0.00     0.029 A 
ATOM     35  N   UNL A   1      39.882  30.077  29.216  1.00  0.00    -0.354 N 
ATOM     36  C   UNL A   1      43.962  28.695  29.497  1.00  0.00     0.074 A 
ATOM     37  C   UNL A   1      44.090  27.343  29.000  1.00  0.00     0.031 C 
ATOM     38  C   UNL A   1      37.694  29.908  28.787  1.00  0.00     0.029 A 
ATOM     39  C   UNL A   1      38.716  30.793  29.338  1.00  0.00     0.049 A 
ATOM     40  H   UNL A   1      40.760  30.426  29.492  1.00  0.00     0.167 HD
ATOM     41  C   UNL A   1      44.991  29.433  29.980  1.00  0.00     0.037 A 
ATOM     42  C   UNL A   1      38.493  32.020  29.846  1.00  0.00     0.037 A 
ATOM     43  C   UNL A   1      44.868  30.789  30.447  1.00  0.00     0.049 A 
ATOM     44  C   UNL A   1      39.653  32.820  30.374  1.00  0.00     0.074 A 
ATOM     45  C   UNL A   1      45.862  31.643  30.893  1.00  0.00     0.029 A 
ATOM     46  N   UNL A   1      43.673  31.491  30.530  1.00  0.00    -0.354 N 
ATOM     47  N   UNL A   1      40.921  32.494  30.441  1.00  0.00    -0.248 NA
ATOM     48  C   UNL A   1      39.351  34.162  30.891  1.00  0.00     0.031 C 
ATOM     49  C   UNL A   1      45.264  32.843  31.288  1.00  0.00     0.029 A 
ATOM     50  C   UNL A   1      43.904  32.759  31.040  1.00  0.00     0.049 A 
ATOM     51  H   UNL A   1      42.792  31.139  30.265  1.00  0.00     0.167 HD
ATOM     52  C   UNL A   1      41.572  33.597  30.977  1.00  0.00     0.074 A 
ATOM     53  C   UNL A   1      40.560  34.607  31.207  1.00  0.00     0.031 C 
ATOM     54  C   UNL A   1      42.889  33.758  31.253  1.00  0.00     0.037 A 
BRANCH  41  55
ATOM     55  C   UNL A   1      46.346  28.789  30.025  1.00  0.00     0.064 A 
ATOM     56  C   UNL A   1      47.237  28.870  28.943  1.00  0.00     0.173 A 
ATOM     57  C   UNL A   1      46.776  28.115  31.179  1.00  0.00     0.173 A 
ATOM     58  F   UNL A   1      46.870  29.494  27.814  1.00  0.00    -0.203 F 
ATOM     59  C   UNL A   1      48.494  28.274  29.004  1.00  0.00     0.198 A 
ATOM     60  C   UNL A   1      48.046  27.548  31.246  1.00  0.00     0.198 A 
ATOM     61  F   UNL A   1      45.968  28.014  32.245  1.00  0.00    -0.203 F 
ATOM     62  F   UNL A   1      49.307  28.322  27.939  1.00  0.00    -0.200 F 
ATOM     63  C   UNL A   1      48.900  27.621  30.157  1.00  0.00     0.200 A 
ATOM     64  F   UNL A   1      48.442  26.927  32.367  1.00  0.00    -0.200 F 
ATOM     65  F   UNL A   1      50.113  27.054  30.215  1.00  0.00    -0.200 F 
ENDBRANCH  41  55
BRANCH  42  66
ATOM     66  C   UNL A   1      37.117  32.579  29.856  1.00  0.00     0.064 A 
ATOM     67  C   UNL A   1      36.282  32.414  30.970  1.00  0.00     0.173 A 
ATOM     68  C   UNL A   1      36.607  33.285  28.757  1.00  0.00     0.173 A 
ATOM     69  F   UNL A   1      36.718  31.728  32.036  1.00  0.00    -0.203 F 
ATOM     70  C   UNL A   1      34.983  32.918  30.978  1.00  0.00     0.198 A 
ATOM     71  C   UNL A   1      35.318  33.813  28.777  1.00  0.00     0.198 A 
ATOM     72  F   UNL A   1      37.367  33.474  27.669  1.00  0.00    -0.203 F 
ATOM     73  F   UNL A   1      34.191  32.709  32.039  1.00  0.00    -0.200 F 
ATOM     74  C   UNL A   1      34.504  33.623  29.883  1.00  0.00     0.200 A 
ATOM     75  F   UNL A   1      34.863  34.506  27.724  1.00  0.00    -0.200 F 
ATOM     76  F   UNL A   1      33.257  34.112  29.893  1.00  0.00    -0.200 F 
ENDBRANCH  42  66
BRANCH  54  77
ATOM     77  C   UNL A   1      43.322  35.088  31.798  1.00  0.00     0.064 A 
ATOM     78  C   UNL A   1      43.372  35.338  33.177  1.00  0.00     0.173 A 
ATOM     79  C   UNL A   1      43.731  36.109  30.928  1.00  0.00     0.173 A 
ATOM     80  F   UNL A   1      42.976  34.399  34.049  1.00  0.00    -0.203 F 
ATOM     81  C   UNL A   1      43.796  36.572  33.664  1.00  0.00     0.198 A 
ATOM     82  C   UNL A   1      44.181  37.332  31.420  1.00  0.00     0.198 A 
ATOM     83  F   UNL A   1      43.707  35.918  29.601  1.00  0.00    -0.203 F 
ATOM     84  F   UNL A   1      43.794  36.806  34.984  1.00  0.00    -0.200 F 
ATOM     85  C   UNL A   1      44.207  37.564  32.786  1.00  0.00     0.200 A 
ATOM     86  F   UNL A   1      44.592  38.283  30.571  1.00  0.00    -0.200 F 
ATOM     87  F   UNL A   1      44.623  38.748  33.258  1.00  0.00    -0.200 F 
ENDBRANCH  54  77
ENDBRANCH  28  29
ENDBRANCH  20  23
ENDBRANCH  18  19
ENDBRANCH  17  18
ENDBRANCH   1  17
TORSDOF 14
ENDMDL
MODEL 3
REMARK VINA RESULT:     -10.8      6.101     10.196
REMARK SMILES CSC[C@H](C(=O)NCCCCNC(=O)c1ccc(-c2c3nc(c(-c4c(F)c(F)c(F)c(F)c4F)c4ccc([nH]4)c(-c4c(F)c(F)c(F)c(F)c4F)c4nc(c(-c5c(F)c(F)c(F)c(F)c5F)c5ccc2[nH]5)C=C4)C=C3)cc1)c1ccccc1
REMARK SMILES IDX 9 1 8 2 7 3 5 4 6 5 4 7 3 8 2 9 1 10 78 11 79 12 83 13 80 14
REMARK SMILES IDX 82 15 81 16 10 17 11 18 12 19 13 20 14 22 15 23 16 24 77 25
REMARK SMILES IDX 17 26 76 27 18 28 19 29 20 30 70 31 21 32 75 33 69 34 71 35
REMARK SMILES IDX 22 36 74 37 68 38 67 39 23 41 55 42 35 43 54 44 36 45 39 46
REMARK SMILES IDX 53 47 72 48 37 49 38 50 52 52 73 53 40 54 24 55 25 56 33 57
REMARK SMILES IDX 26 58 27 59 31 60 34 61 28 62 29 63 32 64 30 65 56 66 57 67
REMARK SMILES IDX 65 68 58 69 59 70 63 71 66 72 60 73 61 74 64 75 62 76 41 77
REMARK SMILES IDX 42 78 50 79 43 80 44 81 48 82 51 83 45 84 46 85 49 86 47 87
REMARK H PARENT 7 6 12 21 71 40 39 51
REMARK Flexibility Score: inf
ROOT
ATOM      1  C   UNL A   1      37.098  20.594  24.561  1.00  0.00     0.023 C 
ENDROOT
BRANCH   1   2
ATOM      2  C   UNL A   1      36.995  21.811  25.476  1.00  0.00     0.116 C 
BRANCH   2   3
ATOM      3  N   UNL A   1      35.964  21.664  26.485  1.00  0.00    -0.356 N 
ATOM      4  C   UNL A   1      34.603  21.652  26.352  1.00  0.00     0.228 C 
ATOM      5  O   UNL A   1      33.965  21.341  27.360  1.00  0.00    -0.274 OA
ATOM      6  H   UNL A   1      36.294  21.555  27.406  1.00  0.00     0.163 HD
BRANCH   4   7
ATOM      7  C   UNL A   1      33.966  21.978  24.994  1.00  0.00     0.118 C 
BRANCH   7   8
ATOM      8  C   UNL A   1      32.751  21.045  24.767  1.00  0.00     0.087 C 
BRANCH   8   9
ATOM      9  S   UNL A   1      33.094  19.330  24.230  1.00  0.00    -0.164 SA
ATOM     10  C   UNL A   1      32.537  18.429  25.705  1.00  0.00     0.085 C 
ENDBRANCH   8   9
ENDBRANCH   7   8
BRANCH   7  11
ATOM     11  C   UNL A   1      33.767  23.469  24.679  1.00  0.00    -0.035 A 
ATOM     12  C   UNL A   1      33.579  23.905  23.353  1.00  0.00     0.004 A 
ATOM     13  C   UNL A   1      33.929  24.464  25.659  1.00  0.00     0.004 A 
ATOM     14  C   UNL A   1      33.522  25.265  23.031  1.00  0.00     0.000 A 
ATOM     15  C   UNL A   1      33.863  25.825  25.340  1.00  0.00     0.000 A 
ATOM     16  C   UNL A   1      33.660  26.226  24.025  1.00  0.00     0.000 A 
ENDBRANCH   7  11
ENDBRANCH   4   7
ENDBRANCH   2   3
ENDBRANCH   1   2
BRANCH   1  17
ATOM     17  C   UNL A   1      38.107  19.529  24.998  1.00  0.00     0.023 C 
BRANCH  17  18
ATOM     18  C   UNL A   1      39.316  20.055  25.765  1.00  0.00     0.116 C 
BRANCH  18  19
ATOM     19  N   UNL A   1      40.352  19.046  25.924  1.00  0.00    -0.352 N 
ATOM     20  C   UNL A   1      41.703  19.201  26.120  1.00  0.00     0.251 C 
ATOM     21  H   UNL A   1      40.039  18.114  25.884  1.00  0.00     0.163 HD
ATOM     22  O   UNL A   1      42.450  18.228  26.031  1.00  0.00    -0.269 OA
BRANCH  20  23
ATOM     23  C   UNL A   1      42.269  20.533  26.417  1.00  0.00     0.039 A 
ATOM     24  C   UNL A   1      42.781  21.302  25.368  1.00  0.00     0.014 A 
ATOM     25  C   UNL A   1      42.314  21.021  27.726  1.00  0.00     0.014 A 
ATOM     26  C   UNL A   1      43.272  22.586  25.622  1.00  0.00     0.010 A 
ATOM     27  C   UNL A   1      42.735  22.327  27.968  1.00  0.00     0.010 A 
ATOM     28  C   UNL A   1      43.218  23.123  26.918  1.00  0.00    -0.014 A 
BRANCH  28  29
ATOM     29  C   UNL A   1      43.656  24.515  27.197  1.00  0.00     0.031 A 
ATOM     30  C   UNL A   1      42.671  25.534  27.698  1.00  0.00     0.074 A 
ATOM     31  C   UNL A   1      44.924  24.881  26.928  1.00  0.00     0.049 A 
ATOM     32  N   UNL A   1      42.841  26.814  27.919  1.00  0.00    -0.248 NA
ATOM     33  C   UNL A   1      41.304  25.058  27.960  1.00  0.00     0.031 C 
ATOM     34  C   UNL A   1      45.964  24.001  26.394  1.00  0.00     0.029 A 
ATOM     35  N   UNL A   1      45.552  26.096  27.055  1.00  0.00    -0.354 N 
ATOM     36  C   UNL A   1      41.604  27.295  28.326  1.00  0.00     0.074 A 
ATOM     37  C   UNL A   1      40.680  26.184  28.276  1.00  0.00     0.031 C 
ATOM     38  C   UNL A   1      47.102  24.698  26.253  1.00  0.00     0.029 A 
ATOM     39  C   UNL A   1      46.865  26.083  26.652  1.00  0.00     0.049 A 
ATOM     40  H   UNL A   1      45.103  26.901  27.400  1.00  0.00     0.167 HD
ATOM     41  C   UNL A   1      41.274  28.547  28.726  1.00  0.00     0.037 A 
ATOM     42  C   UNL A   1      47.773  27.075  26.600  1.00  0.00     0.037 A 
ATOM     43  C   UNL A   1      42.201  29.646  28.803  1.00  0.00     0.049 A 
ATOM     44  C   UNL A   1      47.382  28.456  27.053  1.00  0.00     0.074 A 
ATOM     45  C   UNL A   1      41.979  30.933  29.259  1.00  0.00     0.029 A 
ATOM     46  N   UNL A   1      43.531  29.586  28.412  1.00  0.00    -0.354 N 
ATOM     47  N   UNL A   1      46.228  28.883  27.502  1.00  0.00    -0.248 NA
ATOM     48  C   UNL A   1      48.424  29.491  26.997  1.00  0.00     0.031 C 
ATOM     49  C   UNL A   1      43.160  31.664  29.102  1.00  0.00     0.029 A 
ATOM     50  C   UNL A   1      44.135  30.820  28.596  1.00  0.00     0.049 A 
ATOM     51  H   UNL A   1      43.980  28.784  28.056  1.00  0.00     0.167 HD
ATOM     52  C   UNL A   1      46.409  30.224  27.811  1.00  0.00     0.074 A 
ATOM     53  C   UNL A   1      47.790  30.538  27.508  1.00  0.00     0.031 C 
ATOM     54  C   UNL A   1      45.513  31.115  28.301  1.00  0.00     0.037 A 
BRANCH  41  55
ATOM     55  C   UNL A   1      39.846  28.797  29.117  1.00  0.00     0.064 A 
ATOM     56  C   UNL A   1      39.407  28.641  30.441  1.00  0.00     0.173 A 
ATOM     57  C   UNL A   1      38.913  29.235  28.165  1.00  0.00     0.173 A 
ATOM     58  F   UNL A   1      40.257  28.215  31.388  1.00  0.00    -0.203 F 
ATOM     59  C   UNL A   1      38.081  28.885  30.790  1.00  0.00     0.198 A 
ATOM     60  C   UNL A   1      37.596  29.508  28.524  1.00  0.00     0.198 A 
ATOM     61  F   UNL A   1      39.282  29.408  26.886  1.00  0.00    -0.203 F 
ATOM     62  F   UNL A   1      37.674  28.681  32.050  1.00  0.00    -0.200 F 
ATOM     63  C   UNL A   1      37.179  29.325  29.833  1.00  0.00     0.200 A 
ATOM     64  F   UNL A   1      36.728  29.946  27.600  1.00  0.00    -0.200 F 
ATOM     65  F   UNL A   1      35.905  29.566  30.172  1.00  0.00    -0.200 F 
ENDBRANCH  41  55
BRANCH  42  66
ATOM     66  C   UNL A   1      49.152  26.793  26.123  1.00  0.00     0.064 A 
ATOM     67  C   UNL A   1      49.504  26.994  24.781  1.00  0.00     0.173 A 
ATOM     68  C   UNL A   1      50.143  26.318  26.994  1.00  0.00     0.173 A 
ATOM     69  F   UNL A   1      48.585  27.428  23.907  1.00  0.00    -0.203 F 
ATOM     70  C   UNL A   1      50.789  26.713  24.324  1.00  0.00     0.198 A 
ATOM     71  C   UNL A   1      51.436  26.063  26.541  1.00  0.00     0.198 A 
ATOM     72  F   UNL A   1      49.859  26.114  28.288  1.00  0.00    -0.203 F 
ATOM     73  F   UNL A   1      51.087  26.872  23.027  1.00  0.00    -0.200 F 
ATOM     74  C   UNL A   1      51.756  26.253  25.206  1.00  0.00     0.200 A 
ATOM     75  F   UNL A   1      52.371  25.633  27.398  1.00  0.00    -0.200 F 
ATOM     76  F   UNL A   1      52.994  25.987  24.766  1.00  0.00    -0.200 F 
ENDBRANCH  42  66
BRANCH  54  77
ATOM     77  C   UNL A   1      46.005  32.505  28.580  1.00  0.00     0.064 A 
ATOM     78  C   UNL A   1      46.577  32.851  29.813  1.00  0.00     0.173 A 
ATOM     79  C   UNL A   1      45.939  33.492  27.585  1.00  0.00     0.173 A 
ATOM     80  F   UNL A   1      46.648  31.948  30.801  1.00  0.00    -0.203 F 
ATOM     81  C   UNL A   1      47.047  34.141  30.046  1.00  0.00     0.198 A 
ATOM     82  C   UNL A   1      46.435  34.773  27.812  1.00  0.00     0.198 A 
ATOM     83  F   UNL A   1      45.406  33.211  26.387  1.00  0.00    -0.203 F 
ATOM     84  F   UNL A   1      47.549  34.462  31.246  1.00  0.00    -0.200 F 
ATOM     85  C   UNL A   1      46.982  35.098  29.043  1.00  0.00     0.200 A 
ATOM     86  F   UNL A   1      46.386  35.691  26.838  1.00  0.00    -0.200 F 
ATOM     87  F   UNL A   1      47.443  36.337  29.268  1.00  0.00    -0.200 F 
ENDBRANCH  54  77
ENDBRANCH  28  29
ENDBRANCH  20  23
ENDBRANCH  18  19
ENDBRANCH  17  18
ENDBRANCH   1  17
TORSDOF 14
ENDMDL
