MODEL 1
REMARK VINA RESULT:     -14.4      0.000      0.000
REMARK SMILES Cc1ccc(C(=O)N2C[C@@H](C(=O)NCCCCNC(=O)c3ccc(-c4c5nc(c(-c6c(F)c(F)c(F)c(F)c6F)c6ccc([nH]6)c(-c6c(F)c(F)c(F)c(F)c6F)c6nc(c(-c7c(F)c(F)c(F)c(F)c7F)c7ccc4[nH]7)C=C6)C=C5)cc3)C[C@H](C(=O)N3CCOCC3)C2)cc1F
REMARK SMILES IDX 15 1 14 2 13 3 11 4 12 5 10 7 8 8 9 9 94 10 85 11 84 12 6 13
REMARK SMILES IDX 7 14 5 15 1 16 2 17 3 18 96 19 4 20 95 21 97 22 86 23 87 24
REMARK SMILES IDX 88 25 89 26 93 27 90 28 92 29 91 30 16 31 17 32 18 33 19 34
REMARK SMILES IDX 20 36 21 37 22 38 83 39 23 40 82 41 24 42 25 43 26 44 76 45
REMARK SMILES IDX 27 46 81 47 75 48 77 49 28 50 80 51 74 52 73 53 29 55 61 56
REMARK SMILES IDX 41 57 60 58 42 59 45 60 59 61 78 62 43 63 44 64 58 66 79 67
REMARK SMILES IDX 46 68 30 69 31 70 39 71 32 72 33 73 37 74 40 75 34 76 35 77
REMARK SMILES IDX 38 78 36 79 62 80 63 81 71 82 64 83 65 84 69 85 72 86 66 87
REMARK SMILES IDX 67 88 70 89 68 90 47 91 48 92 56 93 49 94 50 95 54 96 57 97
REMARK SMILES IDX 51 98 52 99 55 100 53 101
REMARK H PARENT 13 6 18 35 77 54 45 65
REMARK Flexibility Score: inf
ROOT
ATOM      1  C   UNL A   1      32.532  26.655  26.511  1.00  0.00     0.023 C 
ENDROOT
BRANCH   1   2
ATOM      2  C   UNL A   1      31.195  26.213  25.918  1.00  0.00     0.116 C 
BRANCH   2   3
ATOM      3  N   UNL A   1      30.598  25.172  26.728  1.00  0.00    -0.356 N 
ATOM      4  C   UNL A   1      30.692  23.823  26.613  1.00  0.00     0.224 C 
ATOM      5  O   UNL A   1      29.908  23.129  27.264  1.00  0.00    -0.275 OA
ATOM      6  H   UNL A   1      30.041  25.490  27.475  1.00  0.00     0.163 HD
BRANCH   4   7
ATOM      7  C   UNL A   1      31.751  23.180  25.740  1.00  0.00     0.099 C 
ATOM      8  N   UNL A   1      32.457  22.985  23.353  1.00  0.00    -0.337 N 
ATOM      9  C   UNL A   1      31.645  23.708  24.318  1.00  0.00     0.133 C 
ATOM     10  C   UNL A   1      32.405  21.525  23.389  1.00  0.00     0.133 C 
ATOM     11  C   UNL A   1      32.636  20.943  24.796  1.00  0.00     0.099 C 
ATOM     12  C   UNL A   1      31.856  21.660  25.894  1.00  0.00     0.030 C 
BRANCH   8  13
ATOM     13  C   UNL A   1      33.037  23.751  22.346  1.00  0.00     0.254 C 
ATOM     14  O   UNL A   1      33.835  23.279  21.538  1.00  0.00    -0.269 OA
BRANCH  13  15
ATOM     15  C   UNL A   1      32.822  25.212  22.283  1.00  0.00     0.042 A 
ATOM     16  C   UNL A   1      31.864  29.286  23.261  1.00  0.00     0.047 C 
ATOM     17  C   UNL A   1      32.208  27.893  22.827  1.00  0.00    -0.015 A 
ATOM     18  C   UNL A   1      31.258  27.065  22.218  1.00  0.00     0.007 A 
ATOM     19  C   UNL A   1      33.477  27.375  23.105  1.00  0.00     0.126 A 
ATOM     20  C   UNL A   1      31.560  25.725  21.951  1.00  0.00     0.014 A 
ATOM     21  C   UNL A   1      33.790  26.047  22.847  1.00  0.00     0.053 A 
ATOM     22  F   UNL A   1      34.397  28.152  23.694  1.00  0.00    -0.207 F 
ENDBRANCH  13  15
ENDBRANCH   8  13
BRANCH  11  23
ATOM     23  C   UNL A   1      34.126  20.632  24.985  1.00  0.00     0.227 C 
ATOM     24  O   UNL A   1      34.512  19.491  24.701  1.00  0.00    -0.275 OA
ATOM     25  N   UNL A   1      35.036  21.635  25.190  1.00  0.00    -0.338 N 
ATOM     26  C   UNL A   1      35.023  22.685  26.209  1.00  0.00     0.148 C 
ATOM     27  C   UNL A   1      36.283  21.621  24.431  1.00  0.00     0.148 C 
ATOM     28  C   UNL A   1      35.274  24.050  25.552  1.00  0.00     0.181 C 
ATOM     29  C   UNL A   1      36.482  23.005  23.800  1.00  0.00     0.181 C 
ATOM     30  O   UNL A   1      36.509  24.031  24.810  1.00  0.00    -0.378 OA
ENDBRANCH  11  23
ENDBRANCH   4   7
ENDBRANCH   2   3
ENDBRANCH   1   2
BRANCH   1  31
ATOM     31  C   UNL A   1      32.589  28.128  26.922  1.00  0.00     0.023 C 
BRANCH  31  32
ATOM     32  C   UNL A   1      34.006  28.653  27.024  1.00  0.00     0.116 C 
BRANCH  32  33
ATOM     33  N   UNL A   1      34.029  30.107  27.176  1.00  0.00    -0.352 N 
ATOM     34  C   UNL A   1      34.894  30.847  27.951  1.00  0.00     0.251 C 
ATOM     35  H   UNL A   1      33.352  30.612  26.670  1.00  0.00     0.163 HD
ATOM     36  O   UNL A   1      34.647  31.992  28.285  1.00  0.00    -0.269 OA
BRANCH  34  37
ATOM     37  C   UNL A   1      36.160  30.207  28.314  1.00  0.00     0.039 A 
ATOM     38  C   UNL A   1      36.354  29.577  29.548  1.00  0.00     0.014 A 
ATOM     39  C   UNL A   1      37.153  30.237  27.340  1.00  0.00     0.014 A 
ATOM     40  C   UNL A   1      37.569  28.946  29.793  1.00  0.00     0.010 A 
ATOM     41  C   UNL A   1      38.258  29.466  27.505  1.00  0.00     0.010 A 
ATOM     42  C   UNL A   1      38.508  28.907  28.762  1.00  0.00    -0.014 A 
BRANCH  42  43
ATOM     43  C   UNL A   1      39.857  28.396  28.873  1.00  0.00     0.031 A 
ATOM     44  C   UNL A   1      40.147  26.999  28.553  1.00  0.00     0.074 A 
ATOM     45  C   UNL A   1      40.794  29.352  29.059  1.00  0.00     0.049 A 
ATOM     46  N   UNL A   1      41.179  26.363  28.974  1.00  0.00    -0.248 NA
ATOM     47  C   UNL A   1      39.259  26.179  27.737  1.00  0.00     0.031 C 
ATOM     48  C   UNL A   1      42.231  29.324  28.862  1.00  0.00     0.029 A 
ATOM     49  N   UNL A   1      40.552  30.633  29.585  1.00  0.00    -0.354 N 
ATOM     50  C   UNL A   1      41.287  25.219  28.212  1.00  0.00     0.074 A 
ATOM     51  C   UNL A   1      39.993  25.069  27.592  1.00  0.00     0.031 C 
ATOM     52  C   UNL A   1      42.773  30.359  29.536  1.00  0.00     0.029 A 
ATOM     53  C   UNL A   1      41.701  30.982  30.304  1.00  0.00     0.049 A 
ATOM     54  H   UNL A   1      39.739  31.176  29.470  1.00  0.00     0.167 HD
ATOM     55  C   UNL A   1      42.530  24.674  28.052  1.00  0.00     0.037 A 
ATOM     56  C   UNL A   1      41.613  31.029  31.668  1.00  0.00     0.037 A 
ATOM     57  C   UNL A   1      43.507  25.454  28.822  1.00  0.00     0.049 A 
ATOM     58  C   UNL A   1      42.464  29.956  32.292  1.00  0.00     0.074 A 
ATOM     59  C   UNL A   1      44.377  26.465  28.445  1.00  0.00     0.029 A 
ATOM     60  N   UNL A   1      43.401  25.521  30.209  1.00  0.00    -0.354 N 
ATOM     61  N   UNL A   1      42.712  28.804  31.730  1.00  0.00    -0.248 NA
ATOM     62  C   UNL A   1      43.157  30.137  33.560  1.00  0.00     0.031 C 
ATOM     63  C   UNL A   1      44.732  27.192  29.611  1.00  0.00     0.029 A 
ATOM     64  C   UNL A   1      44.092  26.615  30.698  1.00  0.00     0.049 A 
ATOM     65  H   UNL A   1      42.903  24.880  30.764  1.00  0.00     0.167 HD
ATOM     66  C   UNL A   1      43.620  28.123  32.493  1.00  0.00     0.074 A 
ATOM     67  C   UNL A   1      43.857  28.993  33.632  1.00  0.00     0.031 C 
ATOM     68  C   UNL A   1      44.131  26.911  32.123  1.00  0.00     0.037 A 
BRANCH  55  69
ATOM     69  C   UNL A   1      42.946  23.683  26.975  1.00  0.00     0.064 A 
ATOM     70  C   UNL A   1      42.667  22.302  27.132  1.00  0.00     0.173 A 
ATOM     71  C   UNL A   1      43.646  23.993  25.794  1.00  0.00     0.173 A 
ATOM     72  F   UNL A   1      41.931  21.848  28.156  1.00  0.00    -0.203 F 
ATOM     73  C   UNL A   1      43.124  21.326  26.242  1.00  0.00     0.198 A 
ATOM     74  C   UNL A   1      44.129  23.014  24.915  1.00  0.00     0.198 A 
ATOM     75  F   UNL A   1      43.849  25.254  25.405  1.00  0.00    -0.203 F 
ATOM     76  F   UNL A   1      42.833  20.037  26.464  1.00  0.00    -0.200 F 
ATOM     77  C   UNL A   1      43.875  21.679  25.142  1.00  0.00     0.200 A 
ATOM     78  F   UNL A   1      44.837  23.382  23.837  1.00  0.00    -0.200 F 
ATOM     79  F   UNL A   1      44.326  20.745  24.295  1.00  0.00    -0.200 F 
ENDBRANCH  55  69
BRANCH  56  80
ATOM     80  C   UNL A   1      40.244  31.444  32.124  1.00  0.00     0.064 A 
ATOM     81  C   UNL A   1      39.407  30.437  32.656  1.00  0.00     0.173 A 
ATOM     82  C   UNL A   1      39.950  32.770  32.476  1.00  0.00     0.173 A 
ATOM     83  F   UNL A   1      39.633  29.150  32.348  1.00  0.00    -0.203 F 
ATOM     84  C   UNL A   1      38.449  30.724  33.627  1.00  0.00     0.198 A 
ATOM     85  C   UNL A   1      38.961  33.056  33.425  1.00  0.00     0.198 A 
ATOM     86  F   UNL A   1      40.686  33.781  31.995  1.00  0.00    -0.203 F 
ATOM     87  F   UNL A   1      37.791  29.724  34.232  1.00  0.00    -0.200 F 
ATOM     88  C   UNL A   1      38.249  32.031  34.034  1.00  0.00     0.200 A 
ATOM     89  F   UNL A   1      38.759  34.322  33.820  1.00  0.00    -0.200 F 
ATOM     90  F   UNL A   1      37.398  32.298  35.034  1.00  0.00    -0.200 F 
ENDBRANCH  56  80
BRANCH  68  91
ATOM     91  C   UNL A   1      44.828  25.946  33.051  1.00  0.00     0.064 A 
ATOM     92  C   UNL A   1      46.203  25.669  32.994  1.00  0.00     0.173 A 
ATOM     93  C   UNL A   1      44.141  25.377  34.153  1.00  0.00     0.173 A 
ATOM     94  F   UNL A   1      47.003  26.261  32.098  1.00  0.00    -0.203 F 
ATOM     95  C   UNL A   1      46.825  24.815  33.906  1.00  0.00     0.198 A 
ATOM     96  C   UNL A   1      44.781  24.591  35.107  1.00  0.00     0.198 A 
ATOM     97  F   UNL A   1      42.834  25.594  34.363  1.00  0.00    -0.203 F 
ATOM     98  F   UNL A   1      48.127  24.533  33.763  1.00  0.00    -0.200 F 
ATOM     99  C   UNL A   1      46.118  24.287  34.969  1.00  0.00     0.200 A 
ATOM    100  F   UNL A   1      44.098  24.151  36.173  1.00  0.00    -0.200 F 
ATOM    101  F   UNL A   1      46.731  23.510  35.871  1.00  0.00    -0.200 F 
ENDBRANCH  68  91
ENDBRANCH  42  43
ENDBRANCH  34  37
ENDBRANCH  32  33
ENDBRANCH  31  32
ENDBRANCH   1  31
TORSDOF 14
ENDMDL
MODEL 2
REMARK VINA RESULT:     -14.3      1.545      3.083
REMARK SMILES Cc1ccc(C(=O)N2C[C@@H](C(=O)NCCCCNC(=O)c3ccc(-c4c5nc(c(-c6c(F)c(F)c(F)c(F)c6F)c6ccc([nH]6)c(-c6c(F)c(F)c(F)c(F)c6F)c6nc(c(-c7c(F)c(F)c(F)c(F)c7F)c7ccc4[nH]7)C=C6)C=C5)cc3)C[C@H](C(=O)N3CCOCC3)C2)cc1F
REMARK SMILES IDX 15 1 14 2 13 3 11 4 12 5 10 7 8 8 9 9 94 10 85 11 84 12 6 13
REMARK SMILES IDX 7 14 5 15 1 16 2 17 3 18 96 19 4 20 95 21 97 22 86 23 87 24
REMARK SMILES IDX 88 25 89 26 93 27 90 28 92 29 91 30 16 31 17 32 18 33 19 34
REMARK SMILES IDX 20 36 21 37 22 38 83 39 23 40 82 41 24 42 25 43 26 44 76 45
REMARK SMILES IDX 27 46 81 47 75 48 77 49 28 50 80 51 74 52 73 53 29 55 61 56
REMARK SMILES IDX 41 57 60 58 42 59 45 60 59 61 78 62 43 63 44 64 58 66 79 67
REMARK SMILES IDX 46 68 30 69 31 70 39 71 32 72 33 73 37 74 40 75 34 76 35 77
REMARK SMILES IDX 38 78 36 79 62 80 63 81 71 82 64 83 65 84 69 85 72 86 66 87
REMARK SMILES IDX 67 88 70 89 68 90 47 91 48 92 56 93 49 94 50 95 54 96 57 97
REMARK SMILES IDX 51 98 52 99 55 100 53 101
REMARK H PARENT 13 6 18 35 77 54 45 65
REMARK Flexibility Score: inf
ROOT
ATOM      1  C   UNL A   1      31.868  28.604  26.204  1.00  0.00     0.023 C 
ENDROOT
BRANCH   1   2
ATOM      2  C   UNL A   1      31.893  28.101  24.762  1.00  0.00     0.116 C 
BRANCH   2   3
ATOM      3  N   UNL A   1      30.591  27.603  24.373  1.00  0.00    -0.356 N 
ATOM      4  C   UNL A   1      30.170  26.326  24.190  1.00  0.00     0.224 C 
ATOM      5  O   UNL A   1      29.089  26.147  23.625  1.00  0.00    -0.275 OA
ATOM      6  H   UNL A   1      29.907  28.295  24.220  1.00  0.00     0.163 HD
BRANCH   4   7
ATOM      7  C   UNL A   1      30.983  25.151  24.692  1.00  0.00     0.099 C 
ATOM      8  N   UNL A   1      31.473  22.756  24.182  1.00  0.00    -0.337 N 
ATOM      9  C   UNL A   1      30.923  24.009  23.690  1.00  0.00     0.133 C 
ATOM     10  C   UNL A   1      31.067  22.321  25.516  1.00  0.00     0.133 C 
ATOM     11  C   UNL A   1      31.233  23.413  26.589  1.00  0.00     0.099 C 
ATOM     12  C   UNL A   1      30.721  24.783  26.156  1.00  0.00     0.030 C 
BRANCH   8  13
ATOM     13  C   UNL A   1      32.161  21.982  23.252  1.00  0.00     0.254 C 
ATOM     14  O   UNL A   1      32.662  22.463  22.237  1.00  0.00    -0.269 OA
BRANCH  13  15
ATOM     15  C   UNL A   1      32.205  20.509  23.374  1.00  0.00     0.042 A 
ATOM     16  C   UNL A   1      33.528  16.425  23.588  1.00  0.00     0.047 C 
ATOM     17  C   UNL A   1      32.975  17.817  23.512  1.00  0.00    -0.015 A 
ATOM     18  C   UNL A   1      32.531  18.359  22.300  1.00  0.00     0.007 A 
ATOM     19  C   UNL A   1      32.973  18.624  24.655  1.00  0.00     0.126 A 
ATOM     20  C   UNL A   1      32.152  19.704  22.228  1.00  0.00     0.014 A 
ATOM     21  C   UNL A   1      32.601  19.960  24.597  1.00  0.00     0.053 A 
ATOM     22  F   UNL A   1      33.401  18.122  25.822  1.00  0.00    -0.207 F 
ENDBRANCH  13  15
ENDBRANCH   8  13
BRANCH  11  23
ATOM     23  C   UNL A   1      32.609  23.277  27.252  1.00  0.00     0.227 C 
ATOM     24  O   UNL A   1      32.676  22.631  28.304  1.00  0.00    -0.275 OA
ATOM     25  N   UNL A   1      33.754  23.612  26.576  1.00  0.00    -0.338 N 
ATOM     26  C   UNL A   1      34.086  24.872  25.912  1.00  0.00     0.148 C 
ATOM     27  C   UNL A   1      34.891  22.697  26.620  1.00  0.00     0.148 C 
ATOM     28  C   UNL A   1      34.612  24.592  24.498  1.00  0.00     0.181 C 
ATOM     29  C   UNL A   1      35.373  22.455  25.185  1.00  0.00     0.181 C 
ATOM     30  O   UNL A   1      35.737  23.694  24.549  1.00  0.00    -0.378 OA
ENDBRANCH  11  23
ENDBRANCH   4   7
ENDBRANCH   2   3
ENDBRANCH   1   2
BRANCH   1  31
ATOM     31  C   UNL A   1      33.068  28.173  27.050  1.00  0.00     0.023 C 
BRANCH  31  32
ATOM     32  C   UNL A   1      34.338  28.914  26.688  1.00  0.00     0.116 C 
BRANCH  32  33
ATOM     33  N   UNL A   1      34.278  30.314  27.102  1.00  0.00    -0.352 N 
ATOM     34  C   UNL A   1      35.042  30.927  28.071  1.00  0.00     0.251 C 
ATOM     35  H   UNL A   1      33.620  30.881  26.640  1.00  0.00     0.163 HD
ATOM     36  O   UNL A   1      34.714  31.982  28.584  1.00  0.00    -0.269 OA
BRANCH  34  37
ATOM     37  C   UNL A   1      36.306  30.273  28.419  1.00  0.00     0.039 A 
ATOM     38  C   UNL A   1      36.484  29.584  29.624  1.00  0.00     0.014 A 
ATOM     39  C   UNL A   1      37.312  30.354  27.462  1.00  0.00     0.014 A 
ATOM     40  C   UNL A   1      37.698  28.945  29.854  1.00  0.00     0.010 A 
ATOM     41  C   UNL A   1      38.418  29.580  27.605  1.00  0.00     0.010 A 
ATOM     42  C   UNL A   1      38.651  28.960  28.836  1.00  0.00    -0.014 A 
BRANCH  42  43
ATOM     43  C   UNL A   1      40.001  28.448  28.941  1.00  0.00     0.031 A 
ATOM     44  C   UNL A   1      40.286  27.047  28.634  1.00  0.00     0.074 A 
ATOM     45  C   UNL A   1      40.941  29.404  29.109  1.00  0.00     0.049 A 
ATOM     46  N   UNL A   1      41.321  26.415  29.052  1.00  0.00    -0.248 NA
ATOM     47  C   UNL A   1      39.389  26.220  27.834  1.00  0.00     0.031 C 
ATOM     48  C   UNL A   1      42.376  29.373  28.900  1.00  0.00     0.029 A 
ATOM     49  N   UNL A   1      40.705  30.692  29.623  1.00  0.00    -0.354 N 
ATOM     50  C   UNL A   1      41.421  25.262  28.302  1.00  0.00     0.074 A 
ATOM     51  C   UNL A   1      40.121  25.107  27.695  1.00  0.00     0.031 C 
ATOM     52  C   UNL A   1      42.925  30.413  29.558  1.00  0.00     0.029 A 
ATOM     53  C   UNL A   1      41.861  31.047  30.329  1.00  0.00     0.049 A 
ATOM     54  H   UNL A   1      39.891  31.234  29.509  1.00  0.00     0.167 HD
ATOM     55  C   UNL A   1      42.662  24.713  28.137  1.00  0.00     0.037 A 
ATOM     56  C   UNL A   1      41.784  31.107  31.693  1.00  0.00     0.037 A 
ATOM     57  C   UNL A   1      43.646  25.500  28.891  1.00  0.00     0.049 A 
ATOM     58  C   UNL A   1      42.639  30.041  32.321  1.00  0.00     0.074 A 
ATOM     59  C   UNL A   1      44.514  26.506  28.495  1.00  0.00     0.029 A 
ATOM     60  N   UNL A   1      43.552  25.582  30.278  1.00  0.00    -0.354 N 
ATOM     61  N   UNL A   1      42.881  28.882  31.769  1.00  0.00    -0.248 NA
ATOM     62  C   UNL A   1      43.343  30.233  33.581  1.00  0.00     0.031 C 
ATOM     63  C   UNL A   1      44.880  27.245  29.651  1.00  0.00     0.029 A 
ATOM     64  C   UNL A   1      44.249  26.680  30.748  1.00  0.00     0.049 A 
ATOM     65  H   UNL A   1      43.057  24.947  30.844  1.00  0.00     0.167 HD
ATOM     66  C   UNL A   1      43.795  28.207  32.531  1.00  0.00     0.074 A 
ATOM     67  C   UNL A   1      44.043  29.089  33.660  1.00  0.00     0.031 C 
ATOM     68  C   UNL A   1      44.300  26.991  32.170  1.00  0.00     0.037 A 
BRANCH  55  69
ATOM     69  C   UNL A   1      43.066  23.710  27.067  1.00  0.00     0.064 A 
ATOM     70  C   UNL A   1      42.709  22.346  27.199  1.00  0.00     0.173 A 
ATOM     71  C   UNL A   1      43.828  23.993  25.917  1.00  0.00     0.173 A 
ATOM     72  F   UNL A   1      41.910  21.923  28.189  1.00  0.00    -0.203 F 
ATOM     73  C   UNL A   1      43.149  21.353  26.318  1.00  0.00     0.198 A 
ATOM     74  C   UNL A   1      44.293  22.996  25.048  1.00  0.00     0.198 A 
ATOM     75  F   UNL A   1      44.113  25.244  25.549  1.00  0.00    -0.203 F 
ATOM     76  F   UNL A   1      42.782  20.080  26.514  1.00  0.00    -0.200 F 
ATOM     77  C   UNL A   1      43.960  21.675  25.252  1.00  0.00     0.200 A 
ATOM     78  F   UNL A   1      45.062  23.334  24.002  1.00  0.00    -0.200 F 
ATOM     79  F   UNL A   1      44.394  20.725  24.413  1.00  0.00    -0.200 F 
ENDBRANCH  55  69
BRANCH  56  80
ATOM     80  C   UNL A   1      40.420  31.530  32.156  1.00  0.00     0.064 A 
ATOM     81  C   UNL A   1      39.590  30.532  32.717  1.00  0.00     0.173 A 
ATOM     82  C   UNL A   1      40.128  32.862  32.486  1.00  0.00     0.173 A 
ATOM     83  F   UNL A   1      39.815  29.239  32.430  1.00  0.00    -0.203 F 
ATOM     84  C   UNL A   1      38.643  30.836  33.692  1.00  0.00     0.198 A 
ATOM     85  C   UNL A   1      39.149  33.164  33.441  1.00  0.00     0.198 A 
ATOM     86  F   UNL A   1      40.857  33.865  31.978  1.00  0.00    -0.203 F 
ATOM     87  F   UNL A   1      37.993  29.847  34.324  1.00  0.00    -0.200 F 
ATOM     88  C   UNL A   1      38.445  32.151  34.077  1.00  0.00     0.200 A 
ATOM     89  F   UNL A   1      38.950  34.438  33.813  1.00  0.00    -0.200 F 
ATOM     90  F   UNL A   1      37.605  32.435  35.081  1.00  0.00    -0.200 F 
ENDBRANCH  56  80
BRANCH  68  91
ATOM     91  C   UNL A   1      45.004  26.034  33.102  1.00  0.00     0.064 A 
ATOM     92  C   UNL A   1      44.340  25.261  34.068  1.00  0.00     0.173 A 
ATOM     93  C   UNL A   1      46.382  25.745  32.938  1.00  0.00     0.173 A 
ATOM     94  F   UNL A   1      43.011  25.319  34.223  1.00  0.00    -0.203 F 
ATOM     95  C   UNL A   1      45.015  24.343  34.873  1.00  0.00     0.198 A 
ATOM     96  C   UNL A   1      47.035  24.771  33.688  1.00  0.00     0.198 A 
ATOM     97  F   UNL A   1      47.133  26.371  32.021  1.00  0.00    -0.203 F 
ATOM     98  F   UNL A   1      44.343  23.682  35.826  1.00  0.00    -0.200 F 
ATOM     99  C   UNL A   1      46.358  24.089  34.676  1.00  0.00     0.200 A 
ATOM    100  F   UNL A   1      48.318  24.483  33.430  1.00  0.00    -0.200 F 
ATOM    101  F   UNL A   1      46.990  23.170  35.416  1.00  0.00    -0.200 F 
ENDBRANCH  68  91
ENDBRANCH  42  43
ENDBRANCH  34  37
ENDBRANCH  32  33
ENDBRANCH  31  32
ENDBRANCH   1  31
TORSDOF 14
ENDMDL
MODEL 3
REMARK VINA RESULT:     -14.3      3.388      8.940
REMARK SMILES Cc1ccc(C(=O)N2C[C@@H](C(=O)NCCCCNC(=O)c3ccc(-c4c5nc(c(-c6c(F)c(F)c(F)c(F)c6F)c6ccc([nH]6)c(-c6c(F)c(F)c(F)c(F)c6F)c6nc(c(-c7c(F)c(F)c(F)c(F)c7F)c7ccc4[nH]7)C=C6)C=C5)cc3)C[C@H](C(=O)N3CCOCC3)C2)cc1F
REMARK SMILES IDX 15 1 14 2 13 3 11 4 12 5 10 7 8 8 9 9 94 10 85 11 84 12 6 13
REMARK SMILES IDX 7 14 5 15 1 16 2 17 3 18 96 19 4 20 95 21 97 22 86 23 87 24
REMARK SMILES IDX 88 25 89 26 93 27 90 28 92 29 91 30 16 31 17 32 18 33 19 34
REMARK SMILES IDX 20 36 21 37 22 38 83 39 23 40 82 41 24 42 25 43 26 44 76 45
REMARK SMILES IDX 27 46 81 47 75 48 77 49 28 50 80 51 74 52 73 53 29 55 61 56
REMARK SMILES IDX 41 57 60 58 42 59 45 60 59 61 78 62 43 63 44 64 58 66 79 67
REMARK SMILES IDX 46 68 30 69 31 70 39 71 32 72 33 73 37 74 40 75 34 76 35 77
REMARK SMILES IDX 38 78 36 79 62 80 63 81 71 82 64 83 65 84 69 85 72 86 66 87
REMARK SMILES IDX 67 88 70 89 68 90 47 91 48 92 56 93 49 94 50 95 54 96 57 97
REMARK SMILES IDX 51 98 52 99 55 100 53 101
REMARK H PARENT 13 6 18 35 77 54 45 65
REMARK Flexibility Score: inf
ROOT
ATOM      1  C   UNL A   1      35.863  22.052  25.940  1.00  0.00     0.023 C 
ENDROOT
BRANCH   1   2
ATOM      2  C   UNL A   1      34.578  22.258  26.740  1.00  0.00     0.116 C 
BRANCH   2   3
ATOM      3  N   UNL A   1      33.505  21.452  26.197  1.00  0.00    -0.356 N 
ATOM      4  C   UNL A   1      32.429  21.825  25.460  1.00  0.00     0.224 C 
ATOM      5  O   UNL A   1      31.517  21.008  25.311  1.00  0.00    -0.275 OA
ATOM      6  H   UNL A   1      33.566  20.489  26.390  1.00  0.00     0.163 HD
BRANCH   4   7
ATOM      7  C   UNL A   1      32.358  23.190  24.806  1.00  0.00     0.099 C 
ATOM      8  N   UNL A   1      30.712  24.911  24.056  1.00  0.00    -0.337 N 
ATOM      9  C   UNL A   1      30.934  23.720  24.859  1.00  0.00     0.133 C 
ATOM     10  C   UNL A   1      31.233  24.909  22.691  1.00  0.00     0.133 C 
ATOM     11  C   UNL A   1      32.715  24.499  22.607  1.00  0.00     0.099 C 
ATOM     12  C   UNL A   1      33.064  23.277  23.450  1.00  0.00     0.030 C 
BRANCH   8  13
ATOM     13  C   UNL A   1      29.836  25.854  24.587  1.00  0.00     0.254 C 
ATOM     14  O   UNL A   1      29.442  25.804  25.752  1.00  0.00    -0.269 OA
BRANCH  13  15
ATOM     15  C   UNL A   1      29.226  26.892  23.729  1.00  0.00     0.042 A 
ATOM     16  C   UNL A   1      27.687  30.605  22.207  1.00  0.00     0.047 C 
ATOM     17  C   UNL A   1      28.187  29.266  22.659  1.00  0.00    -0.015 A 
ATOM     18  C   UNL A   1      27.335  28.339  23.272  1.00  0.00     0.007 A 
ATOM     19  C   UNL A   1      29.547  28.959  22.544  1.00  0.00     0.126 A 
ATOM     20  C   UNL A   1      27.852  27.156  23.812  1.00  0.00     0.014 A 
ATOM     21  C   UNL A   1      30.073  27.790  23.076  1.00  0.00     0.053 A 
ATOM     22  F   UNL A   1      30.379  29.838  21.966  1.00  0.00    -0.207 F 
ENDBRANCH  13  15
ENDBRANCH   8  13
BRANCH  11  23
ATOM     23  C   UNL A   1      33.599  25.752  22.661  1.00  0.00     0.227 C 
ATOM     24  O   UNL A   1      33.956  26.246  21.585  1.00  0.00    -0.275 OA
ATOM     25  N   UNL A   1      33.757  26.454  23.827  1.00  0.00    -0.338 N 
ATOM     26  C   UNL A   1      34.196  25.965  25.134  1.00  0.00     0.148 C 
ATOM     27  C   UNL A   1      33.641  27.909  23.795  1.00  0.00     0.148 C 
ATOM     28  C   UNL A   1      33.233  26.457  26.223  1.00  0.00     0.181 C 
ATOM     29  C   UNL A   1      32.672  28.342  24.900  1.00  0.00     0.181 C 
ATOM     30  O   UNL A   1      33.129  27.893  26.190  1.00  0.00    -0.378 OA
ENDBRANCH  11  23
ENDBRANCH   4   7
ENDBRANCH   2   3
ENDBRANCH   1   2
BRANCH   1  31
ATOM     31  C   UNL A   1      36.438  23.328  25.321  1.00  0.00     0.023 C 
BRANCH  31  32
ATOM     32  C   UNL A   1      37.327  24.095  26.277  1.00  0.00     0.116 C 
BRANCH  32  33
ATOM     33  N   UNL A   1      38.472  23.294  26.704  1.00  0.00    -0.352 N 
ATOM     34  C   UNL A   1      39.721  23.753  27.061  1.00  0.00     0.251 C 
ATOM     35  H   UNL A   1      38.337  22.320  26.741  1.00  0.00     0.163 HD
ATOM     36  O   UNL A   1      40.698  23.026  27.079  1.00  0.00    -0.269 OA
BRANCH  34  37
ATOM     37  C   UNL A   1      39.810  25.156  27.472  1.00  0.00     0.039 A 
ATOM     38  C   UNL A   1      40.204  26.170  26.592  1.00  0.00     0.014 A 
ATOM     39  C   UNL A   1      39.449  25.424  28.788  1.00  0.00     0.014 A 
ATOM     40  C   UNL A   1      40.211  27.485  27.048  1.00  0.00     0.010 A 
ATOM     41  C   UNL A   1      39.276  26.715  29.172  1.00  0.00     0.010 A 
ATOM     42  C   UNL A   1      39.749  27.733  28.340  1.00  0.00    -0.014 A 
BRANCH  42  43
ATOM     43  C   UNL A   1      39.789  29.014  29.014  1.00  0.00     0.031 A 
ATOM     44  C   UNL A   1      38.759  30.018  28.753  1.00  0.00     0.074 A 
ATOM     45  C   UNL A   1      40.686  29.077  30.023  1.00  0.00     0.049 A 
ATOM     46  N   UNL A   1      38.905  31.273  28.981  1.00  0.00    -0.248 NA
ATOM     47  C   UNL A   1      37.463  29.684  28.175  1.00  0.00     0.031 C 
ATOM     48  C   UNL A   1      40.793  29.991  31.143  1.00  0.00     0.029 A 
ATOM     49  N   UNL A   1      41.816  28.250  30.156  1.00  0.00    -0.354 N 
ATOM     50  C   UNL A   1      37.648  31.840  28.939  1.00  0.00     0.074 A 
ATOM     51  C   UNL A   1      36.827  30.858  28.271  1.00  0.00     0.031 C 
ATOM     52  C   UNL A   1      42.041  29.904  31.646  1.00  0.00     0.029 A 
ATOM     53  C   UNL A   1      42.805  29.037  30.758  1.00  0.00     0.049 A 
ATOM     54  H   UNL A   1      41.895  27.308  29.882  1.00  0.00     0.167 HD
ATOM     55  C   UNL A   1      37.436  32.978  29.665  1.00  0.00     0.037 A 
ATOM     56  C   UNL A   1      43.876  29.412  29.995  1.00  0.00     0.037 A 
ATOM     57  C   UNL A   1      38.690  33.382  30.312  1.00  0.00     0.049 A 
ATOM     58  C   UNL A   1      43.883  30.902  29.785  1.00  0.00     0.074 A 
ATOM     59  C   UNL A   1      39.170  33.172  31.596  1.00  0.00     0.029 A 
ATOM     60  N   UNL A   1      39.788  33.740  29.534  1.00  0.00    -0.354 N 
ATOM     61  N   UNL A   1      42.803  31.635  29.735  1.00  0.00    -0.248 NA
ATOM     62  C   UNL A   1      45.110  31.680  29.694  1.00  0.00     0.031 C 
ATOM     63  C   UNL A   1      40.580  33.329  31.565  1.00  0.00     0.029 A 
ATOM     64  C   UNL A   1      40.956  33.650  30.270  1.00  0.00     0.049 A 
ATOM     65  H   UNL A   1      39.740  34.017  28.592  1.00  0.00     0.167 HD
ATOM     66  C   UNL A   1      43.164  32.953  29.671  1.00  0.00     0.074 A 
ATOM     67  C   UNL A   1      44.616  32.928  29.635  1.00  0.00     0.031 C 
ATOM     68  C   UNL A   1      42.248  33.967  29.679  1.00  0.00     0.037 A 
BRANCH  55  69
ATOM     69  C   UNL A   1      36.085  33.542  30.079  1.00  0.00     0.064 A 
ATOM     70  C   UNL A   1      35.234  34.133  29.113  1.00  0.00     0.173 A 
ATOM     71  C   UNL A   1      35.573  33.578  31.391  1.00  0.00     0.173 A 
ATOM     72  F   UNL A   1      35.530  34.103  27.807  1.00  0.00    -0.203 F 
ATOM     73  C   UNL A   1      34.036  34.775  29.443  1.00  0.00     0.198 A 
ATOM     74  C   UNL A   1      34.388  34.244  31.727  1.00  0.00     0.198 A 
ATOM     75  F   UNL A   1      36.163  32.927  32.396  1.00  0.00    -0.203 F 
ATOM     76  F   UNL A   1      33.289  35.325  28.476  1.00  0.00    -0.200 F 
ATOM     77  C   UNL A   1      33.622  34.850  30.755  1.00  0.00     0.200 A 
ATOM     78  F   UNL A   1      33.990  34.285  33.008  1.00  0.00    -0.200 F 
ATOM     79  F   UNL A   1      32.482  35.476  31.076  1.00  0.00    -0.200 F 
ENDBRANCH  55  69
BRANCH  56  80
ATOM     80  C   UNL A   1      44.217  28.375  28.963  1.00  0.00     0.064 A 
ATOM     81  C   UNL A   1      44.526  27.077  29.429  1.00  0.00     0.173 A 
ATOM     82  C   UNL A   1      43.800  28.491  27.628  1.00  0.00     0.173 A 
ATOM     83  F   UNL A   1      44.940  26.903  30.695  1.00  0.00    -0.203 F 
ATOM     84  C   UNL A   1      44.258  25.945  28.662  1.00  0.00     0.198 A 
ATOM     85  C   UNL A   1      43.566  27.351  26.850  1.00  0.00     0.198 A 
ATOM     86  F   UNL A   1      43.508  29.691  27.108  1.00  0.00    -0.203 F 
ATOM     87  F   UNL A   1      44.404  24.724  29.199  1.00  0.00    -0.200 F 
ATOM     88  C   UNL A   1      43.747  26.082  27.383  1.00  0.00     0.200 A 
ATOM     89  F   UNL A   1      43.076  27.480  25.608  1.00  0.00    -0.200 F 
ATOM     90  F   UNL A   1      43.398  24.996  26.681  1.00  0.00    -0.200 F 
ENDBRANCH  56  80
BRANCH  68  91
ATOM     91  C   UNL A   1      42.526  35.387  29.248  1.00  0.00     0.064 A 
ATOM     92  C   UNL A   1      41.950  35.981  28.113  1.00  0.00     0.173 A 
ATOM     93  C   UNL A   1      43.276  36.262  30.074  1.00  0.00     0.173 A 
ATOM     94  F   UNL A   1      41.094  35.314  27.328  1.00  0.00    -0.203 F 
ATOM     95  C   UNL A   1      42.183  37.315  27.777  1.00  0.00     0.198 A 
ATOM     96  C   UNL A   1      43.439  37.612  29.777  1.00  0.00     0.198 A 
ATOM     97  F   UNL A   1      43.845  35.846  31.215  1.00  0.00    -0.203 F 
ATOM     98  F   UNL A   1      41.663  37.811  26.645  1.00  0.00    -0.200 F 
ATOM     99  C   UNL A   1      42.916  38.133  28.614  1.00  0.00     0.200 A 
ATOM    100  F   UNL A   1      44.087  38.408  30.639  1.00  0.00    -0.200 F 
ATOM    101  F   UNL A   1      43.094  39.426  28.313  1.00  0.00    -0.200 F 
ENDBRANCH  68  91
ENDBRANCH  42  43
ENDBRANCH  34  37
ENDBRANCH  32  33
ENDBRANCH  31  32
ENDBRANCH   1  31
TORSDOF 14
ENDMDL
