MODEL 1
REMARK VINA RESULT:     -12.0      0.000      0.000
REMARK SMILES CN1CC[N@H+](CC(=O)NCCCCNC(=O)c2ccc(-c3c4nc(c(-c5c(F)c(F)c(F)c(F)c5F)c5ccc([nH]5)c(-c5c(F)c(F)c(F)c(F)c5F)c5nc(c(-c6c(F)c(F)c(F)c(F)c6F)c6ccc3[nH]6)C=C5)C=C4)cc2)C(C)(C)C1=O
REMARK SMILES IDX 12 1 11 2 10 3 9 4 7 5 8 6 6 8 5 9 1 10 2 11 3 12 83 13 4 14
REMARK SMILES IDX 80 15 84 16 81 17 82 18 13 20 14 21 15 22 16 24 17 25 18 26
REMARK SMILES IDX 79 27 19 28 78 29 20 30 21 31 22 32 72 33 23 34 77 35 71 36
REMARK SMILES IDX 73 37 24 38 76 39 70 40 69 41 25 43 57 44 37 45 56 46 38 47
REMARK SMILES IDX 41 48 55 49 74 50 39 51 40 52 54 54 75 55 42 56 26 57 27 58
REMARK SMILES IDX 35 59 28 60 29 61 33 62 36 63 30 64 31 65 34 66 32 67 58 68
REMARK SMILES IDX 59 69 67 70 60 71 61 72 65 73 68 74 62 75 63 76 66 77 64 78
REMARK SMILES IDX 43 79 44 80 52 81 45 82 46 83 50 84 53 85 47 86 48 87 51 88
REMARK SMILES IDX 49 89
REMARK H PARENT 9 7 5 19 14 23 73 42 41 53
REMARK Flexibility Score: inf
ROOT
ATOM      1  C   UNL A   1      31.434  32.237  26.757  1.00  0.00     0.023 C 
ENDROOT
BRANCH   1   2
ATOM      2  C   UNL A   1      31.646  30.787  26.345  1.00  0.00     0.023 C 
BRANCH   2   3
ATOM      3  C   UNL A   1      33.052  30.222  26.542  1.00  0.00     0.116 C 
BRANCH   3   4
ATOM      4  N   UNL A   1      33.614  29.579  25.364  1.00  0.00    -0.351 N 
ATOM      5  C   UNL A   1      33.569  28.315  24.858  1.00  0.00     0.275 C 
ATOM      6  O   UNL A   1      34.034  28.173  23.720  1.00  0.00    -0.269 OA
ATOM      7  H   UNL A   1      34.145  30.194  24.809  1.00  0.00     0.163 HD
BRANCH   5   8
ATOM      8  C   UNL A   1      32.942  27.121  25.591  1.00  0.00     0.364 C 
BRANCH   8   9
ATOM      9  N   UNL A   1      32.668  25.883  24.798  1.00  0.00    -0.314 N 
ATOM     10  C   UNL A   1      32.980  22.516  27.499  1.00  0.00     0.147 C 
ATOM     11  N   UNL A   1      32.839  23.572  26.515  1.00  0.00    -0.335 N 
ATOM     12  C   UNL A   1      34.053  24.035  25.850  1.00  0.00     0.180 C 
ATOM     13  C   UNL A   1      31.637  24.286  26.440  1.00  0.00     0.283 C 
ATOM     14  C   UNL A   1      33.820  24.984  24.669  1.00  0.00     0.285 C 
ATOM     15  C   UNL A   1      31.430  25.134  25.134  1.00  0.00     0.172 C 
ATOM     16  O   UNL A   1      30.735  24.080  27.248  1.00  0.00    -0.268 OA
ATOM     17  C   UNL A   1      31.032  24.013  24.132  1.00  0.00     0.090 C 
ATOM     18  C   UNL A   1      30.238  26.102  24.999  1.00  0.00     0.090 C 
ATOM     19  H   UNL A   1      32.482  26.282  23.878  1.00  0.00     0.349 HD
ENDBRANCH   8   9
ENDBRANCH   5   8
ENDBRANCH   3   4
ENDBRANCH   2   3
ENDBRANCH   1   2
BRANCH   1  20
ATOM     20  C   UNL A   1      32.705  32.869  27.250  1.00  0.00     0.116 C 
BRANCH  20  21
ATOM     21  N   UNL A   1      32.499  34.263  27.644  1.00  0.00    -0.352 N 
ATOM     22  C   UNL A   1      33.110  34.956  28.655  1.00  0.00     0.251 C 
ATOM     23  H   UNL A   1      31.837  34.766  27.116  1.00  0.00     0.163 HD
ATOM     24  O   UNL A   1      32.722  36.070  28.993  1.00  0.00    -0.269 OA
BRANCH  22  25
ATOM     25  C   UNL A   1      34.229  34.304  29.352  1.00  0.00     0.039 A 
ATOM     26  C   UNL A   1      33.965  33.383  30.364  1.00  0.00     0.014 A 
ATOM     27  C   UNL A   1      35.533  34.541  28.914  1.00  0.00     0.014 A 
ATOM     28  C   UNL A   1      35.024  32.666  30.913  1.00  0.00     0.010 A 
ATOM     29  C   UNL A   1      36.551  33.716  29.340  1.00  0.00     0.010 A 
ATOM     30  C   UNL A   1      36.317  32.812  30.383  1.00  0.00    -0.014 A 
BRANCH  30  31
ATOM     31  C   UNL A   1      37.476  32.105  30.960  1.00  0.00     0.031 A 
ATOM     32  C   UNL A   1      37.936  32.475  32.342  1.00  0.00     0.074 A 
ATOM     33  C   UNL A   1      38.136  31.195  30.223  1.00  0.00     0.049 A 
ATOM     34  N   UNL A   1      38.962  32.034  33.022  1.00  0.00    -0.248 NA
ATOM     35  C   UNL A   1      37.166  33.523  33.037  1.00  0.00     0.031 C 
ATOM     36  C   UNL A   1      37.801  30.812  28.850  1.00  0.00     0.029 A 
ATOM     37  N   UNL A   1      39.223  30.424  30.532  1.00  0.00    -0.354 N 
ATOM     38  C   UNL A   1      38.966  32.764  34.202  1.00  0.00     0.074 A 
ATOM     39  C   UNL A   1      37.911  33.745  34.106  1.00  0.00     0.031 C 
ATOM     40  C   UNL A   1      38.633  29.835  28.455  1.00  0.00     0.029 A 
ATOM     41  C   UNL A   1      39.582  29.560  29.530  1.00  0.00     0.049 A 
ATOM     42  H   UNL A   1      39.703  30.486  31.389  1.00  0.00     0.167 HD
ATOM     43  C   UNL A   1      39.751  32.601  35.291  1.00  0.00     0.037 A 
ATOM     44  C   UNL A   1      40.564  28.642  29.498  1.00  0.00     0.037 A 
ATOM     45  C   UNL A   1      40.777  31.598  35.375  1.00  0.00     0.049 A 
ATOM     46  C   UNL A   1      41.439  28.485  30.711  1.00  0.00     0.074 A 
ATOM     47  C   UNL A   1      41.604  31.293  36.439  1.00  0.00     0.029 A 
ATOM     48  N   UNL A   1      41.115  30.737  34.339  1.00  0.00    -0.354 N 
ATOM     49  N   UNL A   1      41.392  29.125  31.856  1.00  0.00    -0.248 NA
ATOM     50  C   UNL A   1      42.500  27.475  30.629  1.00  0.00     0.031 C 
ATOM     51  C   UNL A   1      42.483  30.286  36.026  1.00  0.00     0.029 A 
ATOM     52  C   UNL A   1      42.161  29.918  34.728  1.00  0.00     0.049 A 
ATOM     53  H   UNL A   1      40.677  30.712  33.458  1.00  0.00     0.167 HD
ATOM     54  C   UNL A   1      42.394  28.575  32.643  1.00  0.00     0.074 A 
ATOM     55  C   UNL A   1      43.024  27.540  31.845  1.00  0.00     0.031 C 
ATOM     56  C   UNL A   1      42.763  28.893  33.909  1.00  0.00     0.037 A 
BRANCH  43  57
ATOM     57  C   UNL A   1      39.519  33.529  36.451  1.00  0.00     0.064 A 
ATOM     58  C   UNL A   1      40.128  34.793  36.522  1.00  0.00     0.173 A 
ATOM     59  C   UNL A   1      38.708  33.135  37.525  1.00  0.00     0.173 A 
ATOM     60  F   UNL A   1      40.929  35.215  35.531  1.00  0.00    -0.203 F 
ATOM     61  C   UNL A   1      39.982  35.600  37.647  1.00  0.00     0.198 A 
ATOM     62  C   UNL A   1      38.529  33.964  38.630  1.00  0.00     0.198 A 
ATOM     63  F   UNL A   1      38.098  31.940  37.512  1.00  0.00    -0.203 F 
ATOM     64  F   UNL A   1      40.646  36.762  37.729  1.00  0.00    -0.200 F 
ATOM     65  C   UNL A   1      39.179  35.187  38.698  1.00  0.00     0.200 A 
ATOM     66  F   UNL A   1      37.742  33.568  39.640  1.00  0.00    -0.200 F 
ATOM     67  F   UNL A   1      39.044  35.960  39.785  1.00  0.00    -0.200 F 
ENDBRANCH  43  57
BRANCH  44  68
ATOM     68  C   UNL A   1      40.718  27.768  28.307  1.00  0.00     0.064 A 
ATOM     69  C   UNL A   1      41.519  28.169  27.228  1.00  0.00     0.173 A 
ATOM     70  C   UNL A   1      40.105  26.510  28.232  1.00  0.00     0.173 A 
ATOM     71  F   UNL A   1      42.117  29.369  27.248  1.00  0.00    -0.203 F 
ATOM     72  C   UNL A   1      41.690  27.350  26.114  1.00  0.00     0.198 A 
ATOM     73  C   UNL A   1      40.298  25.679  27.129  1.00  0.00     0.198 A 
ATOM     74  F   UNL A   1      39.337  26.075  29.242  1.00  0.00    -0.203 F 
ATOM     75  F   UNL A   1      42.434  27.772  25.083  1.00  0.00    -0.200 F 
ATOM     76  C   UNL A   1      41.086  26.103  26.068  1.00  0.00     0.200 A 
ATOM     77  F   UNL A   1      39.727  24.468  27.096  1.00  0.00    -0.200 F 
ATOM     78  F   UNL A   1      41.258  25.311  25.001  1.00  0.00    -0.200 F 
ENDBRANCH  44  68
BRANCH  56  79
ATOM     79  C   UNL A   1      43.871  28.087  34.521  1.00  0.00     0.064 A 
ATOM     80  C   UNL A   1      45.204  28.519  34.485  1.00  0.00     0.173 A 
ATOM     81  C   UNL A   1      43.584  26.891  35.195  1.00  0.00     0.173 A 
ATOM     82  F   UNL A   1      45.531  29.650  33.842  1.00  0.00    -0.203 F 
ATOM     83  C   UNL A   1      46.215  27.766  35.076  1.00  0.00     0.198 A 
ATOM     84  C   UNL A   1      44.590  26.159  35.817  1.00  0.00     0.198 A 
ATOM     85  F   UNL A   1      42.322  26.440  35.267  1.00  0.00    -0.203 F 
ATOM     86  F   UNL A   1      47.489  28.169  34.983  1.00  0.00    -0.200 F 
ATOM     87  C   UNL A   1      45.906  26.593  35.748  1.00  0.00     0.200 A 
ATOM     88  F   UNL A   1      44.288  25.037  36.482  1.00  0.00    -0.200 F 
ATOM     89  F   UNL A   1      46.879  25.875  36.326  1.00  0.00    -0.200 F 
ENDBRANCH  56  79
ENDBRANCH  30  31
ENDBRANCH  22  25
ENDBRANCH  20  21
ENDBRANCH   1  20
TORSDOF 12
ENDMDL
MODEL 2
REMARK VINA RESULT:     -12.0      0.765      7.593
REMARK SMILES CN1CC[N@H+](CC(=O)NCCCCNC(=O)c2ccc(-c3c4nc(c(-c5c(F)c(F)c(F)c(F)c5F)c5ccc([nH]5)c(-c5c(F)c(F)c(F)c(F)c5F)c5nc(c(-c6c(F)c(F)c(F)c(F)c6F)c6ccc3[nH]6)C=C5)C=C4)cc2)C(C)(C)C1=O
REMARK SMILES IDX 12 1 11 2 10 3 9 4 7 5 8 6 6 8 5 9 1 10 2 11 3 12 83 13 4 14
REMARK SMILES IDX 80 15 84 16 81 17 82 18 13 20 14 21 15 22 16 24 17 25 18 26
REMARK SMILES IDX 79 27 19 28 78 29 20 30 21 31 22 32 72 33 23 34 77 35 71 36
REMARK SMILES IDX 73 37 24 38 76 39 70 40 69 41 25 43 57 44 37 45 56 46 38 47
REMARK SMILES IDX 41 48 55 49 74 50 39 51 40 52 54 54 75 55 42 56 26 57 27 58
REMARK SMILES IDX 35 59 28 60 29 61 33 62 36 63 30 64 31 65 34 66 32 67 58 68
REMARK SMILES IDX 59 69 67 70 60 71 61 72 65 73 68 74 62 75 63 76 66 77 64 78
REMARK SMILES IDX 43 79 44 80 52 81 45 82 46 83 50 84 53 85 47 86 48 87 51 88
REMARK SMILES IDX 49 89
REMARK H PARENT 9 7 5 19 14 23 73 42 41 53
REMARK Flexibility Score: inf
ROOT
ATOM      1  C   UNL A   1      31.587  32.004  26.896  1.00  0.00     0.023 C 
ENDROOT
BRANCH   1   2
ATOM      2  C   UNL A   1      31.877  30.543  26.581  1.00  0.00     0.023 C 
BRANCH   2   3
ATOM      3  C   UNL A   1      33.346  30.123  26.597  1.00  0.00     0.116 C 
BRANCH   3   4
ATOM      4  N   UNL A   1      33.809  29.504  25.363  1.00  0.00    -0.351 N 
ATOM      5  C   UNL A   1      33.745  28.246  24.848  1.00  0.00     0.275 C 
ATOM      6  O   UNL A   1      34.105  28.125  23.670  1.00  0.00    -0.269 OA
ATOM      7  H   UNL A   1      34.274  30.137  24.769  1.00  0.00     0.163 HD
BRANCH   5   8
ATOM      8  C   UNL A   1      33.215  27.030  25.622  1.00  0.00     0.364 C 
BRANCH   8   9
ATOM      9  N   UNL A   1      32.965  25.771  24.855  1.00  0.00    -0.314 N 
ATOM     10  C   UNL A   1      33.156  22.482  27.661  1.00  0.00     0.147 C 
ATOM     11  N   UNL A   1      33.058  23.510  26.642  1.00  0.00    -0.335 N 
ATOM     12  C   UNL A   1      34.299  23.948  26.011  1.00  0.00     0.180 C 
ATOM     13  C   UNL A   1      31.864  24.226  26.500  1.00  0.00     0.283 C 
ATOM     14  C   UNL A   1      34.117  24.864  24.796  1.00  0.00     0.285 C 
ATOM     15  C   UNL A   1      31.712  25.036  25.164  1.00  0.00     0.172 C 
ATOM     16  O   UNL A   1      30.930  24.047  27.279  1.00  0.00    -0.268 OA
ATOM     17  C   UNL A   1      31.347  23.889  24.180  1.00  0.00     0.090 C 
ATOM     18  C   UNL A   1      30.530  26.006  24.955  1.00  0.00     0.090 C 
ATOM     19  H   UNL A   1      32.816  26.144  23.917  1.00  0.00     0.349 HD
ENDBRANCH   8   9
ENDBRANCH   5   8
ENDBRANCH   3   4
ENDBRANCH   2   3
ENDBRANCH   1   2
BRANCH   1  20
ATOM     20  C   UNL A   1      32.805  32.717  27.412  1.00  0.00     0.116 C 
BRANCH  20  21
ATOM     21  N   UNL A   1      32.539  34.134  27.659  1.00  0.00    -0.352 N 
ATOM     22  C   UNL A   1      33.067  34.937  28.636  1.00  0.00     0.251 C 
ATOM     23  H   UNL A   1      31.898  34.565  27.047  1.00  0.00     0.163 HD
ATOM     24  O   UNL A   1      32.630  36.064  28.843  1.00  0.00    -0.269 OA
BRANCH  22  25
ATOM     25  C   UNL A   1      34.156  34.388  29.457  1.00  0.00     0.039 A 
ATOM     26  C   UNL A   1      33.852  33.584  30.553  1.00  0.00     0.014 A 
ATOM     27  C   UNL A   1      35.479  34.597  29.060  1.00  0.00     0.014 A 
ATOM     28  C   UNL A   1      34.890  32.953  31.232  1.00  0.00     0.010 A 
ATOM     29  C   UNL A   1      36.483  33.843  29.627  1.00  0.00     0.010 A 
ATOM     30  C   UNL A   1      36.207  33.060  30.754  1.00  0.00    -0.014 A 
BRANCH  30  31
ATOM     31  C   UNL A   1      37.343  32.443  31.464  1.00  0.00     0.031 A 
ATOM     32  C   UNL A   1      38.101  31.333  30.792  1.00  0.00     0.074 A 
ATOM     33  C   UNL A   1      37.638  32.835  32.716  1.00  0.00     0.049 A 
ATOM     34  N   UNL A   1      39.087  30.607  31.248  1.00  0.00    -0.248 NA
ATOM     35  C   UNL A   1      37.656  30.953  29.440  1.00  0.00     0.031 C 
ATOM     36  C   UNL A   1      36.922  33.862  33.474  1.00  0.00     0.029 A 
ATOM     37  N   UNL A   1      38.624  32.416  33.566  1.00  0.00    -0.354 N 
ATOM     38  C   UNL A   1      39.357  29.681  30.250  1.00  0.00     0.074 A 
ATOM     39  C   UNL A   1      38.370  29.865  29.213  1.00  0.00     0.031 C 
ATOM     40  C   UNL A   1      37.530  34.033  34.659  1.00  0.00     0.029 A 
ATOM     41  C   UNL A   1      38.647  33.098  34.756  1.00  0.00     0.049 A 
ATOM     42  H   UNL A   1      39.256  31.693  33.346  1.00  0.00     0.167 HD
ATOM     43  C   UNL A   1      40.369  28.786  30.183  1.00  0.00     0.037 A 
ATOM     44  C   UNL A   1      39.488  32.980  35.798  1.00  0.00     0.037 A 
ATOM     45  C   UNL A   1      41.357  28.639  31.216  1.00  0.00     0.049 A 
ATOM     46  C   UNL A   1      40.597  31.967  35.714  1.00  0.00     0.074 A 
ATOM     47  C   UNL A   1      42.462  27.810  31.246  1.00  0.00     0.029 A 
ATOM     48  N   UNL A   1      41.350  29.348  32.410  1.00  0.00    -0.354 N 
ATOM     49  N   UNL A   1      40.897  31.145  34.736  1.00  0.00    -0.248 NA
ATOM     50  C   UNL A   1      41.487  31.871  36.876  1.00  0.00     0.031 C 
ATOM     51  C   UNL A   1      43.090  27.974  32.485  1.00  0.00     0.029 A 
ATOM     52  C   UNL A   1      42.416  28.953  33.201  1.00  0.00     0.049 A 
ATOM     53  H   UNL A   1      40.686  30.030  32.660  1.00  0.00     0.167 HD
ATOM     54  C   UNL A   1      42.027  30.455  35.150  1.00  0.00     0.074 A 
ATOM     55  C   UNL A   1      42.365  30.967  36.464  1.00  0.00     0.031 C 
ATOM     56  C   UNL A   1      42.726  29.487  34.505  1.00  0.00     0.037 A 
BRANCH  43  57
ATOM     57  C   UNL A   1      40.434  27.913  28.961  1.00  0.00     0.064 A 
ATOM     58  C   UNL A   1      41.171  28.285  27.822  1.00  0.00     0.173 A 
ATOM     59  C   UNL A   1      39.721  26.708  28.909  1.00  0.00     0.173 A 
ATOM     60  F   UNL A   1      41.859  29.438  27.809  1.00  0.00    -0.203 F 
ATOM     61  C   UNL A   1      41.142  27.515  26.663  1.00  0.00     0.198 A 
ATOM     62  C   UNL A   1      39.729  25.917  27.761  1.00  0.00     0.198 A 
ATOM     63  F   UNL A   1      39.002  26.299  29.965  1.00  0.00    -0.203 F 
ATOM     64  F   UNL A   1      41.779  27.938  25.562  1.00  0.00    -0.200 F 
ATOM     65  C   UNL A   1      40.425  26.330  26.635  1.00  0.00     0.200 A 
ATOM     66  F   UNL A   1      39.045  24.765  27.740  1.00  0.00    -0.200 F 
ATOM     67  F   UNL A   1      40.391  25.592  25.516  1.00  0.00    -0.200 F 
ENDBRANCH  43  57
BRANCH  44  68
ATOM     68  C   UNL A   1      39.347  33.887  36.965  1.00  0.00     0.064 A 
ATOM     69  C   UNL A   1      38.653  33.471  38.110  1.00  0.00     0.173 A 
ATOM     70  C   UNL A   1      39.925  35.163  36.981  1.00  0.00     0.173 A 
ATOM     71  F   UNL A   1      38.071  32.263  38.138  1.00  0.00    -0.203 F 
ATOM     72  C   UNL A   1      38.531  34.303  39.221  1.00  0.00     0.198 A 
ATOM     73  C   UNL A   1      39.827  35.985  38.103  1.00  0.00     0.198 A 
ATOM     74  F   UNL A   1      40.610  35.604  35.915  1.00  0.00    -0.203 F 
ATOM     75  F   UNL A   1      37.833  33.894  40.289  1.00  0.00    -0.200 F 
ATOM     76  C   UNL A   1      39.124  35.556  39.220  1.00  0.00     0.200 A 
ATOM     77  F   UNL A   1      40.416  37.188  38.104  1.00  0.00    -0.200 F 
ATOM     78  F   UNL A   1      39.016  36.353  40.292  1.00  0.00    -0.200 F 
ENDBRANCH  44  68
BRANCH  56  79
ATOM     79  C   UNL A   1      43.945  28.949  35.195  1.00  0.00     0.064 A 
ATOM     80  C   UNL A   1      45.206  29.541  35.035  1.00  0.00     0.173 A 
ATOM     81  C   UNL A   1      43.836  27.855  36.067  1.00  0.00     0.173 A 
ATOM     82  F   UNL A   1      45.364  30.581  34.203  1.00  0.00    -0.203 F 
ATOM     83  C   UNL A   1      46.320  29.037  35.701  1.00  0.00     0.198 A 
ATOM     84  C   UNL A   1      44.944  27.378  36.760  1.00  0.00     0.198 A 
ATOM     85  F   UNL A   1      42.650  27.260  36.263  1.00  0.00    -0.203 F 
ATOM     86  F   UNL A   1      47.526  29.583  35.492  1.00  0.00    -0.200 F 
ATOM     87  C   UNL A   1      46.187  27.963  36.568  1.00  0.00     0.200 A 
ATOM     88  F   UNL A   1      44.809  26.353  37.611  1.00  0.00    -0.200 F 
ATOM     89  F   UNL A   1      47.258  27.487  37.216  1.00  0.00    -0.200 F 
ENDBRANCH  56  79
ENDBRANCH  30  31
ENDBRANCH  22  25
ENDBRANCH  20  21
ENDBRANCH   1  20
TORSDOF 12
ENDMDL
MODEL 3
REMARK VINA RESULT:     -12.0      0.604      7.582
REMARK SMILES CN1CC[N@H+](CC(=O)NCCCCNC(=O)c2ccc(-c3c4nc(c(-c5c(F)c(F)c(F)c(F)c5F)c5ccc([nH]5)c(-c5c(F)c(F)c(F)c(F)c5F)c5nc(c(-c6c(F)c(F)c(F)c(F)c6F)c6ccc3[nH]6)C=C5)C=C4)cc2)C(C)(C)C1=O
REMARK SMILES IDX 12 1 11 2 10 3 9 4 7 5 8 6 6 8 5 9 1 10 2 11 3 12 83 13 4 14
REMARK SMILES IDX 80 15 84 16 81 17 82 18 13 20 14 21 15 22 16 24 17 25 18 26
REMARK SMILES IDX 79 27 19 28 78 29 20 30 21 31 22 32 72 33 23 34 77 35 71 36
REMARK SMILES IDX 73 37 24 38 76 39 70 40 69 41 25 43 57 44 37 45 56 46 38 47
REMARK SMILES IDX 41 48 55 49 74 50 39 51 40 52 54 54 75 55 42 56 26 57 27 58
REMARK SMILES IDX 35 59 28 60 29 61 33 62 36 63 30 64 31 65 34 66 32 67 58 68
REMARK SMILES IDX 59 69 67 70 60 71 61 72 65 73 68 74 62 75 63 76 66 77 64 78
REMARK SMILES IDX 43 79 44 80 52 81 45 82 46 83 50 84 53 85 47 86 48 87 51 88
REMARK SMILES IDX 49 89
REMARK H PARENT 9 7 5 19 14 23 73 42 41 53
REMARK Flexibility Score: inf
ROOT
ATOM      1  C   UNL A   1      31.616  32.082  26.800  1.00  0.00     0.023 C 
ENDROOT
BRANCH   1   2
ATOM      2  C   UNL A   1      31.808  30.573  26.844  1.00  0.00     0.023 C 
BRANCH   2   3
ATOM      3  C   UNL A   1      33.247  30.068  26.748  1.00  0.00     0.116 C 
BRANCH   3   4
ATOM      4  N   UNL A   1      33.630  29.586  25.429  1.00  0.00    -0.351 N 
ATOM      5  C   UNL A   1      33.651  28.363  24.832  1.00  0.00     0.275 C 
ATOM      6  O   UNL A   1      33.880  28.359  23.616  1.00  0.00    -0.269 OA
ATOM      7  H   UNL A   1      33.945  30.306  24.835  1.00  0.00     0.163 HD
BRANCH   5   8
ATOM      8  C   UNL A   1      33.358  27.047  25.566  1.00  0.00     0.364 C 
BRANCH   8   9
ATOM      9  N   UNL A   1      32.938  25.870  24.746  1.00  0.00    -0.314 N 
ATOM     10  C   UNL A   1      33.166  22.371  27.283  1.00  0.00     0.147 C 
ATOM     11  N   UNL A   1      33.042  23.478  26.353  1.00  0.00    -0.335 N 
ATOM     12  C   UNL A   1      34.242  23.878  25.625  1.00  0.00     0.180 C 
ATOM     13  C   UNL A   1      31.897  24.281  26.390  1.00  0.00     0.283 C 
ATOM     14  C   UNL A   1      34.005  24.894  24.502  1.00  0.00     0.285 C 
ATOM     15  C   UNL A   1      31.670  25.200  25.137  1.00  0.00     0.172 C 
ATOM     16  O   UNL A   1      31.037  24.107  27.251  1.00  0.00    -0.268 OA
ATOM     17  C   UNL A   1      31.122  24.158  24.121  1.00  0.00     0.090 C 
ATOM     18  C   UNL A   1      30.550  26.260  25.123  1.00  0.00     0.090 C 
ATOM     19  H   UNL A   1      32.722  26.322  23.857  1.00  0.00     0.349 HD
ENDBRANCH   8   9
ENDBRANCH   5   8
ENDBRANCH   3   4
ENDBRANCH   2   3
ENDBRANCH   1   2
BRANCH   1  20
ATOM     20  C   UNL A   1      32.832  32.816  27.292  1.00  0.00     0.116 C 
BRANCH  20  21
ATOM     21  N   UNL A   1      32.528  34.206  27.625  1.00  0.00    -0.352 N 
ATOM     22  C   UNL A   1      33.026  34.958  28.657  1.00  0.00     0.251 C 
ATOM     23  H   UNL A   1      31.883  34.660  27.035  1.00  0.00     0.163 HD
ATOM     24  O   UNL A   1      32.559  36.059  28.931  1.00  0.00    -0.269 OA
BRANCH  22  25
ATOM     25  C   UNL A   1      34.120  34.384  29.455  1.00  0.00     0.039 A 
ATOM     26  C   UNL A   1      33.821  33.567  30.543  1.00  0.00     0.014 A 
ATOM     27  C   UNL A   1      35.439  34.583  29.042  1.00  0.00     0.014 A 
ATOM     28  C   UNL A   1      34.862  32.914  31.198  1.00  0.00     0.010 A 
ATOM     29  C   UNL A   1      36.443  33.810  29.584  1.00  0.00     0.010 A 
ATOM     30  C   UNL A   1      36.172  33.014  30.703  1.00  0.00    -0.014 A 
BRANCH  30  31
ATOM     31  C   UNL A   1      37.311  32.373  31.388  1.00  0.00     0.031 A 
ATOM     32  C   UNL A   1      38.048  31.266  30.688  1.00  0.00     0.074 A 
ATOM     33  C   UNL A   1      37.627  32.741  32.641  1.00  0.00     0.049 A 
ATOM     34  N   UNL A   1      39.032  30.522  31.119  1.00  0.00    -0.248 NA
ATOM     35  C   UNL A   1      37.580  30.912  29.336  1.00  0.00     0.031 C 
ATOM     36  C   UNL A   1      36.933  33.763  33.426  1.00  0.00     0.029 A 
ATOM     37  N   UNL A   1      38.620  32.297  33.471  1.00  0.00    -0.354 N 
ATOM     38  C   UNL A   1      39.278  29.609  30.102  1.00  0.00     0.074 A 
ATOM     39  C   UNL A   1      38.280  29.820  29.082  1.00  0.00     0.031 C 
ATOM     40  C   UNL A   1      37.558  33.909  34.604  1.00  0.00     0.029 A 
ATOM     41  C   UNL A   1      38.666  32.960  34.671  1.00  0.00     0.049 A 
ATOM     42  H   UNL A   1      39.241  31.572  33.231  1.00  0.00     0.167 HD
ATOM     43  C   UNL A   1      40.279  28.704  30.008  1.00  0.00     0.037 A 
ATOM     44  C   UNL A   1      39.520  32.816  35.700  1.00  0.00     0.037 A 
ATOM     45  C   UNL A   1      41.280  28.530  31.024  1.00  0.00     0.049 A 
ATOM     46  C   UNL A   1      40.616  31.793  35.585  1.00  0.00     0.074 A 
ATOM     47  C   UNL A   1      42.375  27.688  31.026  1.00  0.00     0.029 A 
ATOM     48  N   UNL A   1      41.296  29.219  32.230  1.00  0.00    -0.354 N 
ATOM     49  N   UNL A   1      40.894  30.983  34.590  1.00  0.00    -0.248 NA
ATOM     50  C   UNL A   1      41.520  31.668  36.733  1.00  0.00     0.031 C 
ATOM     51  C   UNL A   1      43.022  27.826  32.259  1.00  0.00     0.029 A 
ATOM     52  C   UNL A   1      42.368  28.800  32.999  1.00  0.00     0.049 A 
ATOM     53  H   UNL A   1      40.642  29.904  32.499  1.00  0.00     0.167 HD
ATOM     54  C   UNL A   1      42.022  30.274  34.977  1.00  0.00     0.074 A 
ATOM     55  C   UNL A   1      42.383  30.761  36.295  1.00  0.00     0.031 C 
ATOM     56  C   UNL A   1      42.701  29.310  34.307  1.00  0.00     0.037 A 
BRANCH  43  57
ATOM     57  C   UNL A   1      40.318  27.851  28.770  1.00  0.00     0.064 A 
ATOM     58  C   UNL A   1      39.654  26.614  28.701  1.00  0.00     0.173 A 
ATOM     59  C   UNL A   1      41.060  28.255  27.651  1.00  0.00     0.173 A 
ATOM     60  F   UNL A   1      38.944  26.168  29.749  1.00  0.00    -0.203 F 
ATOM     61  C   UNL A   1      39.781  25.790  27.585  1.00  0.00     0.198 A 
ATOM     62  C   UNL A   1      41.149  27.448  26.519  1.00  0.00     0.198 A 
ATOM     63  F   UNL A   1      41.713  29.427  27.658  1.00  0.00    -0.203 F 
ATOM     64  F   UNL A   1      39.212  24.577  27.581  1.00  0.00    -0.200 F 
ATOM     65  C   UNL A   1      40.524  26.210  26.494  1.00  0.00     0.200 A 
ATOM     66  F   UNL A   1      41.858  27.860  25.459  1.00  0.00    -0.200 F 
ATOM     67  F   UNL A   1      40.652  25.414  25.423  1.00  0.00    -0.200 F 
ENDBRANCH  43  57
BRANCH  44  68
ATOM     68  C   UNL A   1      39.405  33.706  36.884  1.00  0.00     0.064 A 
ATOM     69  C   UNL A   1      40.009  34.971  36.885  1.00  0.00     0.173 A 
ATOM     70  C   UNL A   1      38.667  33.335  38.016  1.00  0.00     0.173 A 
ATOM     71  F   UNL A   1      40.736  35.367  35.830  1.00  0.00    -0.203 F 
ATOM     72  C   UNL A   1      39.891  35.825  37.980  1.00  0.00     0.198 A 
ATOM     73  C   UNL A   1      38.527  34.200  39.100  1.00  0.00     0.198 A 
ATOM     74  F   UNL A   1      38.060  32.139  38.060  1.00  0.00    -0.203 F 
ATOM     75  F   UNL A   1      40.508  37.014  37.968  1.00  0.00    -0.200 F 
ATOM     76  C   UNL A   1      39.144  35.442  39.083  1.00  0.00     0.200 A 
ATOM     77  F   UNL A   1      37.790  33.833  40.156  1.00  0.00    -0.200 F 
ATOM     78  F   UNL A   1      39.022  36.267  40.132  1.00  0.00    -0.200 F 
ENDBRANCH  44  68
BRANCH  56  79
ATOM     79  C   UNL A   1      43.923  28.747  34.973  1.00  0.00     0.064 A 
ATOM     80  C   UNL A   1      45.185  29.339  34.820  1.00  0.00     0.173 A 
ATOM     81  C   UNL A   1      43.816  27.629  35.814  1.00  0.00     0.173 A 
ATOM     82  F   UNL A   1      45.341  30.402  34.017  1.00  0.00    -0.203 F 
ATOM     83  C   UNL A   1      46.302  28.812  35.462  1.00  0.00     0.198 A 
ATOM     84  C   UNL A   1      44.928  27.128  36.483  1.00  0.00     0.198 A 
ATOM     85  F   UNL A   1      42.629  27.033  36.001  1.00  0.00    -0.203 F 
ATOM     86  F   UNL A   1      47.509  29.359  35.260  1.00  0.00    -0.200 F 
ATOM     87  C   UNL A   1      46.171  27.714  36.299  1.00  0.00     0.200 A 
ATOM     88  F   UNL A   1      44.796  26.079  37.306  1.00  0.00    -0.200 F 
ATOM     89  F   UNL A   1      47.246  27.215  36.925  1.00  0.00    -0.200 F 
ENDBRANCH  56  79
ENDBRANCH  30  31
ENDBRANCH  22  25
ENDBRANCH  20  21
ENDBRANCH   1  20
TORSDOF 12
ENDMDL
