MODEL 1
REMARK VINA RESULT:     -14.5      0.000      0.000
REMARK SMILES Cc1c(NC(=O)c2ccccc2NC(=O)[C@@H]2CCCO2)cccc1C(=O)NCCCCNC(=O)c1ccc(-c2c3nc(c(-c4c(F)c(F)c(F)c(F)c4F)c4ccc([nH]4)c(-c4c(F)c(F)c(F)c(F)c4F)c4nc(c(-c5c(F)c(F)c(F)c(F)c5F)c5ccc2[nH]5)C=C4)C=C3)cc1
REMARK SMILES IDX 28 1 27 2 25 3 26 4 24 6 1 7 2 8 3 9 21 10 23 11 22 12 4 13
REMARK SMILES IDX 5 14 6 16 7 17 8 18 12 19 9 20 11 21 10 22 13 23 14 24 15 26
REMARK SMILES IDX 16 27 17 28 20 29 18 30 19 31 29 32 30 33 31 34 32 35 33 36
REMARK SMILES IDX 34 38 35 39 36 40 97 41 37 42 96 43 38 44 39 45 40 46 90 47
REMARK SMILES IDX 41 48 95 49 89 50 91 51 42 52 94 53 88 54 87 55 43 57 75 58
REMARK SMILES IDX 55 59 74 60 56 61 59 62 73 63 92 64 57 65 58 66 72 68 93 69
REMARK SMILES IDX 60 70 44 71 45 72 53 73 46 74 47 75 51 76 54 77 48 78 49 79
REMARK SMILES IDX 52 80 50 81 76 82 77 83 85 84 78 85 79 86 83 87 86 88 80 89
REMARK SMILES IDX 81 90 84 91 82 92 61 93 62 94 70 95 63 96 64 97 68 98 71 99
REMARK SMILES IDX 65 100 66 101 69 102 67 103
REMARK H PARENT 27 5 4 15 13 25 32 37 91 56 59 67
REMARK Flexibility Score: inf
ROOT
ATOM      1  C   UNL A   1      31.527  29.951  25.256  1.00  0.00     0.116 C 
ENDROOT
BRANCH   1   2
ATOM      2  N   UNL A   1      32.562  29.670  24.282  1.00  0.00    -0.352 N 
ATOM      3  C   UNL A   1      33.071  28.559  23.662  1.00  0.00     0.251 C 
ATOM      4  O   UNL A   1      33.971  28.813  22.851  1.00  0.00    -0.269 OA
ATOM      5  H   UNL A   1      33.020  30.492  23.990  1.00  0.00     0.163 HD
BRANCH   3   6
ATOM      6  C   UNL A   1      32.627  27.120  23.793  1.00  0.00     0.044 A 
ATOM      7  C   UNL A   1      33.461  26.576  26.152  1.00  0.00     0.047 C 
ATOM      8  C   UNL A   1      32.719  26.237  24.893  1.00  0.00    -0.015 A 
ATOM      9  C   UNL A   1      32.299  24.883  24.753  1.00  0.00     0.045 A 
ATOM     10  C   UNL A   1      31.884  24.374  23.526  1.00  0.00     0.026 A 
ATOM     11  C   UNL A   1      32.187  26.565  22.566  1.00  0.00     0.014 A 
ATOM     12  C   UNL A   1      31.840  25.217  22.426  1.00  0.00     0.003 A 
BRANCH   9  13
ATOM     13  N   UNL A   1      32.366  24.069  25.896  1.00  0.00    -0.322 N 
ATOM     14  C   UNL A   1      33.282  23.143  26.326  1.00  0.00     0.257 C 
ATOM     15  H   UNL A   1      31.606  24.187  26.510  1.00  0.00     0.170 HD
ATOM     16  O   UNL A   1      33.019  22.508  27.350  1.00  0.00    -0.269 OA
BRANCH  14  17
ATOM     17  C   UNL A   1      34.600  22.917  25.673  1.00  0.00     0.063 A 
ATOM     18  C   UNL A   1      35.634  23.708  26.211  1.00  0.00     0.016 A 
ATOM     19  C   UNL A   1      34.849  22.085  24.552  1.00  0.00     0.054 A 
ATOM     20  C   UNL A   1      36.927  23.626  25.714  1.00  0.00     0.001 A 
ATOM     21  C   UNL A   1      36.177  21.950  24.139  1.00  0.00     0.027 A 
ATOM     22  C   UNL A   1      37.202  22.720  24.703  1.00  0.00     0.002 A 
BRANCH  19  23
ATOM     23  N   UNL A   1      33.762  21.489  23.872  1.00  0.00    -0.323 N 
ATOM     24  C   UNL A   1      33.032  20.337  23.946  1.00  0.00     0.253 C 
ATOM     25  H   UNL A   1      33.443  22.065  23.141  1.00  0.00     0.170 HD
ATOM     26  O   UNL A   1      32.104  20.231  23.133  1.00  0.00    -0.272 OA
BRANCH  24  27
ATOM     27  C   UNL A   1      33.354  19.204  24.923  1.00  0.00     0.207 C 
ATOM     28  C   UNL A   1      34.309  18.214  24.270  1.00  0.00     0.044 C 
ATOM     29  O   UNL A   1      32.208  18.425  25.315  1.00  0.00    -0.368 OA
ATOM     30  C   UNL A   1      34.027  16.950  25.034  1.00  0.00     0.032 C 
ATOM     31  C   UNL A   1      32.530  17.033  25.213  1.00  0.00     0.161 C 
ENDBRANCH  24  27
ENDBRANCH  19  23
ENDBRANCH  14  17
ENDBRANCH   9  13
ENDBRANCH   3   6
ENDBRANCH   1   2
BRANCH   1  32
ATOM     32  C   UNL A   1      32.048  29.760  26.695  1.00  0.00     0.023 C 
BRANCH  32  33
ATOM     33  C   UNL A   1      32.870  30.916  27.256  1.00  0.00     0.023 C 
BRANCH  33  34
ATOM     34  C   UNL A   1      34.333  30.565  27.427  1.00  0.00     0.116 C 
BRANCH  34  35
ATOM     35  N   UNL A   1      35.072  31.419  28.353  1.00  0.00    -0.352 N 
ATOM     36  C   UNL A   1      36.199  31.124  29.104  1.00  0.00     0.251 C 
ATOM     37  H   UNL A   1      34.720  32.331  28.460  1.00  0.00     0.163 HD
ATOM     38  O   UNL A   1      36.638  31.943  29.907  1.00  0.00    -0.269 OA
BRANCH  36  39
ATOM     39  C   UNL A   1      36.972  29.889  28.815  1.00  0.00     0.039 A 
ATOM     40  C   UNL A   1      37.115  28.954  29.847  1.00  0.00     0.014 A 
ATOM     41  C   UNL A   1      37.789  29.815  27.694  1.00  0.00     0.014 A 
ATOM     42  C   UNL A   1      38.265  28.174  29.900  1.00  0.00     0.010 A 
ATOM     43  C   UNL A   1      38.998  29.166  27.819  1.00  0.00     0.010 A 
ATOM     44  C   UNL A   1      39.268  28.410  28.964  1.00  0.00    -0.014 A 
BRANCH  44  45
ATOM     45  C   UNL A   1      40.666  28.048  29.176  1.00  0.00     0.031 A 
ATOM     46  C   UNL A   1      41.204  26.788  28.624  1.00  0.00     0.074 A 
ATOM     47  C   UNL A   1      41.494  28.950  29.751  1.00  0.00     0.049 A 
ATOM     48  N   UNL A   1      42.304  26.231  29.007  1.00  0.00    -0.248 NA
ATOM     49  C   UNL A   1      40.497  26.012  27.616  1.00  0.00     0.031 C 
ATOM     50  C   UNL A   1      42.955  28.941  29.752  1.00  0.00     0.029 A 
ATOM     51  N   UNL A   1      41.155  29.995  30.631  1.00  0.00    -0.354 N 
ATOM     52  C   UNL A   1      42.598  25.218  28.121  1.00  0.00     0.074 A 
ATOM     53  C   UNL A   1      41.396  25.065  27.339  1.00  0.00     0.031 C 
ATOM     54  C   UNL A   1      43.394  29.692  30.774  1.00  0.00     0.029 A 
ATOM     55  C   UNL A   1      42.229  30.081  31.548  1.00  0.00     0.049 A 
ATOM     56  H   UNL A   1      40.341  30.549  30.611  1.00  0.00     0.167 HD
ATOM     57  C   UNL A   1      43.876  24.738  28.076  1.00  0.00     0.037 A 
ATOM     58  C   UNL A   1      42.052  29.808  32.873  1.00  0.00     0.037 A 
ATOM     59  C   UNL A   1      44.667  25.283  29.185  1.00  0.00     0.049 A 
ATOM     60  C   UNL A   1      42.888  28.657  33.382  1.00  0.00     0.074 A 
ATOM     61  C   UNL A   1      45.612  26.294  29.265  1.00  0.00     0.029 A 
ATOM     62  N   UNL A   1      44.306  24.983  30.497  1.00  0.00    -0.354 N 
ATOM     63  N   UNL A   1      43.452  27.773  32.608  1.00  0.00    -0.248 NA
ATOM     64  C   UNL A   1      43.117  28.385  34.799  1.00  0.00     0.031 C 
ATOM     65  C   UNL A   1      45.765  26.647  30.630  1.00  0.00     0.029 A 
ATOM     66  C   UNL A   1      44.934  25.837  31.383  1.00  0.00     0.049 A 
ATOM     67  H   UNL A   1      43.687  24.261  30.756  1.00  0.00     0.167 HD
ATOM     68  C   UNL A   1      44.071  26.821  33.375  1.00  0.00     0.074 A 
ATOM     69  C   UNL A   1      43.854  27.262  34.740  1.00  0.00     0.031 C 
ATOM     70  C   UNL A   1      44.691  25.740  32.816  1.00  0.00     0.037 A 
BRANCH  57  71
ATOM     71  C   UNL A   1      44.503  24.026  26.883  1.00  0.00     0.064 A 
ATOM     72  C   UNL A   1      44.191  22.672  26.613  1.00  0.00     0.173 A 
ATOM     73  C   UNL A   1      45.483  24.563  26.026  1.00  0.00     0.173 A 
ATOM     74  F   UNL A   1      43.196  22.042  27.250  1.00  0.00    -0.203 F 
ATOM     75  C   UNL A   1      44.886  21.904  25.670  1.00  0.00     0.198 A 
ATOM     76  C   UNL A   1      46.204  23.789  25.108  1.00  0.00     0.198 A 
ATOM     77  F   UNL A   1      45.748  25.868  25.983  1.00  0.00    -0.203 F 
ATOM     78  F   UNL A   1      44.554  20.619  25.484  1.00  0.00    -0.200 F 
ATOM     79  C   UNL A   1      45.918  22.454  24.942  1.00  0.00     0.200 A 
ATOM     80  F   UNL A   1      47.178  24.360  24.385  1.00  0.00    -0.200 F 
ATOM     81  F   UNL A   1      46.610  21.715  24.066  1.00  0.00    -0.200 F 
ENDBRANCH  57  71
BRANCH  58  82
ATOM     82  C   UNL A   1      40.696  30.166  33.367  1.00  0.00     0.064 A 
ATOM     83  C   UNL A   1      40.405  31.525  33.590  1.00  0.00     0.173 A 
ATOM     84  C   UNL A   1      39.616  29.284  33.251  1.00  0.00     0.173 A 
ATOM     85  F   UNL A   1      41.406  32.413  33.703  1.00  0.00    -0.203 F 
ATOM     86  C   UNL A   1      39.095  31.999  33.577  1.00  0.00     0.198 A 
ATOM     87  C   UNL A   1      38.302  29.761  33.250  1.00  0.00     0.198 A 
ATOM     88  F   UNL A   1      39.825  27.982  33.010  1.00  0.00    -0.203 F 
ATOM     89  F   UNL A   1      38.859  33.315  33.676  1.00  0.00    -0.200 F 
ATOM     90  C   UNL A   1      38.046  31.119  33.378  1.00  0.00     0.200 A 
ATOM     91  F   UNL A   1      37.287  28.916  33.019  1.00  0.00    -0.200 F 
ATOM     92  F   UNL A   1      36.792  31.581  33.264  1.00  0.00    -0.200 F 
ENDBRANCH  58  82
BRANCH  70  93
ATOM     93  C   UNL A   1      45.198  24.530  33.561  1.00  0.00     0.064 A 
ATOM     94  C   UNL A   1      44.414  23.402  33.850  1.00  0.00     0.173 A 
ATOM     95  C   UNL A   1      46.574  24.413  33.876  1.00  0.00     0.173 A 
ATOM     96  F   UNL A   1      43.122  23.343  33.499  1.00  0.00    -0.203 F 
ATOM     97  C   UNL A   1      44.952  22.265  34.461  1.00  0.00     0.198 A 
ATOM     98  C   UNL A   1      47.118  23.256  34.431  1.00  0.00     0.198 A 
ATOM     99  F   UNL A   1      47.435  25.411  33.628  1.00  0.00    -0.203 F 
ATOM    100  F   UNL A   1      44.153  21.228  34.753  1.00  0.00    -0.200 F 
ATOM    101  C   UNL A   1      46.304  22.187  34.738  1.00  0.00     0.200 A 
ATOM    102  F   UNL A   1      48.439  23.177  34.645  1.00  0.00    -0.200 F 
ATOM    103  F   UNL A   1      46.823  21.077  35.278  1.00  0.00    -0.200 F 
ENDBRANCH  70  93
ENDBRANCH  44  45
ENDBRANCH  36  39
ENDBRANCH  34  35
ENDBRANCH  33  34
ENDBRANCH  32  33
ENDBRANCH   1  32
TORSDOF 15
ENDMDL
MODEL 2
REMARK VINA RESULT:     -14.5      3.754     10.347
REMARK SMILES Cc1c(NC(=O)c2ccccc2NC(=O)[C@@H]2CCCO2)cccc1C(=O)NCCCCNC(=O)c1ccc(-c2c3nc(c(-c4c(F)c(F)c(F)c(F)c4F)c4ccc([nH]4)c(-c4c(F)c(F)c(F)c(F)c4F)c4nc(c(-c5c(F)c(F)c(F)c(F)c5F)c5ccc2[nH]5)C=C4)C=C3)cc1
REMARK SMILES IDX 28 1 27 2 25 3 26 4 24 6 1 7 2 8 3 9 21 10 23 11 22 12 4 13
REMARK SMILES IDX 5 14 6 16 7 17 8 18 12 19 9 20 11 21 10 22 13 23 14 24 15 26
REMARK SMILES IDX 16 27 17 28 20 29 18 30 19 31 29 32 30 33 31 34 32 35 33 36
REMARK SMILES IDX 34 38 35 39 36 40 97 41 37 42 96 43 38 44 39 45 40 46 90 47
REMARK SMILES IDX 41 48 95 49 89 50 91 51 42 52 94 53 88 54 87 55 43 57 75 58
REMARK SMILES IDX 55 59 74 60 56 61 59 62 73 63 92 64 57 65 58 66 72 68 93 69
REMARK SMILES IDX 60 70 44 71 45 72 53 73 46 74 47 75 51 76 54 77 48 78 49 79
REMARK SMILES IDX 52 80 50 81 76 82 77 83 85 84 78 85 79 86 83 87 86 88 80 89
REMARK SMILES IDX 81 90 84 91 82 92 61 93 62 94 70 95 63 96 64 97 68 98 71 99
REMARK SMILES IDX 65 100 66 101 69 102 67 103
REMARK H PARENT 27 5 4 15 13 25 32 37 91 56 59 67
REMARK Flexibility Score: inf
ROOT
ATOM      1  C   UNL A   1      35.787  20.548  25.015  1.00  0.00     0.116 C 
ENDROOT
BRANCH   1   2
ATOM      2  N   UNL A   1      35.238  21.072  26.249  1.00  0.00    -0.352 N 
ATOM      3  C   UNL A   1      34.308  22.014  26.604  1.00  0.00     0.251 C 
ATOM      4  O   UNL A   1      34.141  22.107  27.827  1.00  0.00    -0.269 OA
ATOM      5  H   UNL A   1      35.638  20.639  27.038  1.00  0.00     0.163 HD
BRANCH   3   6
ATOM      6  C   UNL A   1      33.440  22.866  25.708  1.00  0.00     0.044 A 
ATOM      7  C   UNL A   1      35.168  24.533  24.816  1.00  0.00     0.047 C 
ATOM      8  C   UNL A   1      33.791  23.937  24.856  1.00  0.00    -0.015 A 
ATOM      9  C   UNL A   1      32.774  24.653  24.159  1.00  0.00     0.045 A 
ATOM     10  C   UNL A   1      31.425  24.386  24.368  1.00  0.00     0.026 A 
ATOM     11  C   UNL A   1      32.056  22.619  25.882  1.00  0.00     0.014 A 
ATOM     12  C   UNL A   1      31.066  23.372  25.243  1.00  0.00     0.003 A 
BRANCH   9  13
ATOM     13  N   UNL A   1      33.190  25.672  23.287  1.00  0.00    -0.322 N 
ATOM     14  C   UNL A   1      33.237  27.038  23.407  1.00  0.00     0.257 C 
ATOM     15  H   UNL A   1      33.512  25.342  22.417  1.00  0.00     0.170 HD
ATOM     16  O   UNL A   1      33.573  27.690  22.416  1.00  0.00    -0.269 OA
BRANCH  14  17
ATOM     17  C   UNL A   1      32.981  27.766  24.679  1.00  0.00     0.063 A 
ATOM     18  C   UNL A   1      34.139  27.956  25.459  1.00  0.00     0.016 A 
ATOM     19  C   UNL A   1      31.714  28.169  25.175  1.00  0.00     0.054 A 
ATOM     20  C   UNL A   1      34.077  28.612  26.680  1.00  0.00     0.001 A 
ATOM     21  C   UNL A   1      31.699  28.913  26.358  1.00  0.00     0.027 A 
ATOM     22  C   UNL A   1      32.862  29.121  27.109  1.00  0.00     0.002 A 
BRANCH  19  23
ATOM     23  N   UNL A   1      30.541  27.758  24.503  1.00  0.00    -0.323 N 
ATOM     24  C   UNL A   1      29.730  28.224  23.507  1.00  0.00     0.253 C 
ATOM     25  H   UNL A   1      30.218  26.895  24.849  1.00  0.00     0.170 HD
ATOM     26  O   UNL A   1      28.780  27.492  23.197  1.00  0.00    -0.272 OA
BRANCH  24  27
ATOM     27  C   UNL A   1      29.923  29.586  22.840  1.00  0.00     0.207 C 
ATOM     28  C   UNL A   1      29.089  30.638  23.559  1.00  0.00     0.044 C 
ATOM     29  O   UNL A   1      29.492  29.633  21.466  1.00  0.00    -0.368 OA
ATOM     30  C   UNL A   1      28.888  31.672  22.486  1.00  0.00     0.032 C 
ATOM     31  C   UNL A   1      28.696  30.807  21.264  1.00  0.00     0.161 C 
ENDBRANCH  24  27
ENDBRANCH  19  23
ENDBRANCH  14  17
ENDBRANCH   9  13
ENDBRANCH   3   6
ENDBRANCH   1   2
BRANCH   1  32
ATOM     32  C   UNL A   1      37.009  21.369  24.554  1.00  0.00     0.023 C 
BRANCH  32  33
ATOM     33  C   UNL A   1      38.205  21.354  25.500  1.00  0.00     0.023 C 
BRANCH  33  34
ATOM     34  C   UNL A   1      38.653  22.745  25.900  1.00  0.00     0.116 C 
BRANCH  34  35
ATOM     35  N   UNL A   1      40.029  22.841  26.378  1.00  0.00    -0.352 N 
ATOM     36  C   UNL A   1      40.770  23.970  26.688  1.00  0.00     0.251 C 
ATOM     37  H   UNL A   1      40.497  21.983  26.495  1.00  0.00     0.163 HD
ATOM     38  O   UNL A   1      41.956  23.866  26.993  1.00  0.00    -0.269 OA
BRANCH  36  39
ATOM     39  C   UNL A   1      40.088  25.283  26.818  1.00  0.00     0.039 A 
ATOM     40  C   UNL A   1      40.673  26.384  26.180  1.00  0.00     0.014 A 
ATOM     41  C   UNL A   1      39.114  25.480  27.788  1.00  0.00     0.014 A 
ATOM     42  C   UNL A   1      40.520  27.649  26.738  1.00  0.00     0.010 A 
ATOM     43  C   UNL A   1      39.085  26.695  28.436  1.00  0.00     0.010 A 
ATOM     44  C   UNL A   1      39.855  27.759  27.956  1.00  0.00    -0.014 A 
BRANCH  44  45
ATOM     45  C   UNL A   1      40.038  28.881  28.872  1.00  0.00     0.031 A 
ATOM     46  C   UNL A   1      39.006  29.931  28.984  1.00  0.00     0.074 A 
ATOM     47  C   UNL A   1      41.090  28.863  29.724  1.00  0.00     0.049 A 
ATOM     48  N   UNL A   1      39.198  31.094  29.508  1.00  0.00    -0.248 NA
ATOM     49  C   UNL A   1      37.662  29.766  28.449  1.00  0.00     0.031 C 
ATOM     50  C   UNL A   1      41.276  29.678  30.922  1.00  0.00     0.029 A 
ATOM     51  N   UNL A   1      42.321  28.201  29.562  1.00  0.00    -0.354 N 
ATOM     52  C   UNL A   1      37.971  31.706  29.649  1.00  0.00     0.074 A 
ATOM     53  C   UNL A   1      37.069  30.878  28.888  1.00  0.00     0.031 C 
ATOM     54  C   UNL A   1      42.583  29.718  31.222  1.00  0.00     0.029 A 
ATOM     55  C   UNL A   1      43.289  29.056  30.139  1.00  0.00     0.049 A 
ATOM     56  H   UNL A   1      42.475  27.327  29.136  1.00  0.00     0.167 HD
ATOM     57  C   UNL A   1      37.860  32.758  30.513  1.00  0.00     0.037 A 
ATOM     58  C   UNL A   1      44.264  29.635  29.380  1.00  0.00     0.037 A 
ATOM     59  C   UNL A   1      39.185  33.179  30.981  1.00  0.00     0.049 A 
ATOM     60  C   UNL A   1      44.234  31.146  29.386  1.00  0.00     0.074 A 
ATOM     61  C   UNL A   1      39.882  32.968  32.161  1.00  0.00     0.029 A 
ATOM     62  N   UNL A   1      40.111  33.673  30.064  1.00  0.00    -0.354 N 
ATOM     63  N   UNL A   1      43.202  31.849  29.763  1.00  0.00    -0.248 NA
ATOM     64  C   UNL A   1      45.340  31.982  28.927  1.00  0.00     0.031 C 
ATOM     65  C   UNL A   1      41.247  33.272  31.926  1.00  0.00     0.029 A 
ATOM     66  C   UNL A   1      41.379  33.692  30.614  1.00  0.00     0.049 A 
ATOM     67  H   UNL A   1      39.892  33.966  29.150  1.00  0.00     0.167 HD
ATOM     68  C   UNL A   1      43.464  33.181  29.578  1.00  0.00     0.074 A 
ATOM     69  C   UNL A   1      44.824  33.215  29.076  1.00  0.00     0.031 C 
ATOM     70  C   UNL A   1      42.525  34.140  29.837  1.00  0.00     0.037 A 
BRANCH  57  71
ATOM     71  C   UNL A   1      36.564  33.217  31.171  1.00  0.00     0.064 A 
ATOM     72  C   UNL A   1      35.607  33.953  30.433  1.00  0.00     0.173 A 
ATOM     73  C   UNL A   1      36.233  33.064  32.532  1.00  0.00     0.173 A 
ATOM     74  F   UNL A   1      35.702  34.089  29.104  1.00  0.00    -0.203 F 
ATOM     75  C   UNL A   1      34.506  34.581  31.027  1.00  0.00     0.198 A 
ATOM     76  C   UNL A   1      35.153  33.719  33.136  1.00  0.00     0.198 A 
ATOM     77  F   UNL A   1      36.892  32.225  33.332  1.00  0.00    -0.203 F 
ATOM     78  F   UNL A   1      33.653  35.285  30.270  1.00  0.00    -0.200 F 
ATOM     79  C   UNL A   1      34.299  34.494  32.386  1.00  0.00     0.200 A 
ATOM     80  F   UNL A   1      34.953  33.586  34.455  1.00  0.00    -0.200 F 
ATOM     81  F   UNL A   1      33.268  35.123  32.964  1.00  0.00    -0.200 F 
ENDBRANCH  57  71
BRANCH  58  82
ATOM     82  C   UNL A   1      44.689  28.792  28.232  1.00  0.00     0.064 A 
ATOM     83  C   UNL A   1      45.488  27.662  28.495  1.00  0.00     0.173 A 
ATOM     84  C   UNL A   1      44.033  28.848  26.997  1.00  0.00     0.173 A 
ATOM     85  F   UNL A   1      46.133  27.558  29.667  1.00  0.00    -0.203 F 
ATOM     86  C   UNL A   1      45.530  26.584  27.614  1.00  0.00     0.198 A 
ATOM     87  C   UNL A   1      44.089  27.768  26.111  1.00  0.00     0.198 A 
ATOM     88  F   UNL A   1      43.236  29.883  26.698  1.00  0.00    -0.203 F 
ATOM     89  F   UNL A   1      46.208  25.475  27.948  1.00  0.00    -0.200 F 
ATOM     90  C   UNL A   1      44.807  26.626  26.435  1.00  0.00     0.200 A 
ATOM     91  F   UNL A   1      43.358  27.793  24.987  1.00  0.00    -0.200 F 
ATOM     92  F   UNL A   1      44.764  25.553  25.633  1.00  0.00    -0.200 F 
ENDBRANCH  58  82
BRANCH  70  93
ATOM     93  C   UNL A   1      42.624  35.597  29.458  1.00  0.00     0.064 A 
ATOM     94  C   UNL A   1      43.427  36.529  30.133  1.00  0.00     0.173 A 
ATOM     95  C   UNL A   1      42.009  36.067  28.272  1.00  0.00     0.173 A 
ATOM     96  F   UNL A   1      44.152  36.179  31.204  1.00  0.00    -0.203 F 
ATOM     97  C   UNL A   1      43.560  37.849  29.689  1.00  0.00     0.198 A 
ATOM     98  C   UNL A   1      42.190  37.366  27.801  1.00  0.00     0.198 A 
ATOM     99  F   UNL A   1      41.235  35.269  27.522  1.00  0.00    -0.203 F 
ATOM    100  F   UNL A   1      44.308  38.713  30.391  1.00  0.00    -0.200 F 
ATOM    101  C   UNL A   1      42.953  38.262  28.518  1.00  0.00     0.200 A 
ATOM    102  F   UNL A   1      41.637  37.736  26.636  1.00  0.00    -0.200 F 
ATOM    103  F   UNL A   1      43.123  39.514  28.071  1.00  0.00    -0.200 F 
ENDBRANCH  70  93
ENDBRANCH  44  45
ENDBRANCH  36  39
ENDBRANCH  34  35
ENDBRANCH  33  34
ENDBRANCH  32  33
ENDBRANCH   1  32
TORSDOF 15
ENDMDL
MODEL 3
REMARK VINA RESULT:     -14.2      3.924     10.365
REMARK SMILES Cc1c(NC(=O)c2ccccc2NC(=O)[C@@H]2CCCO2)cccc1C(=O)NCCCCNC(=O)c1ccc(-c2c3nc(c(-c4c(F)c(F)c(F)c(F)c4F)c4ccc([nH]4)c(-c4c(F)c(F)c(F)c(F)c4F)c4nc(c(-c5c(F)c(F)c(F)c(F)c5F)c5ccc2[nH]5)C=C4)C=C3)cc1
REMARK SMILES IDX 28 1 27 2 25 3 26 4 24 6 1 7 2 8 3 9 21 10 23 11 22 12 4 13
REMARK SMILES IDX 5 14 6 16 7 17 8 18 12 19 9 20 11 21 10 22 13 23 14 24 15 26
REMARK SMILES IDX 16 27 17 28 20 29 18 30 19 31 29 32 30 33 31 34 32 35 33 36
REMARK SMILES IDX 34 38 35 39 36 40 97 41 37 42 96 43 38 44 39 45 40 46 90 47
REMARK SMILES IDX 41 48 95 49 89 50 91 51 42 52 94 53 88 54 87 55 43 57 75 58
REMARK SMILES IDX 55 59 74 60 56 61 59 62 73 63 92 64 57 65 58 66 72 68 93 69
REMARK SMILES IDX 60 70 44 71 45 72 53 73 46 74 47 75 51 76 54 77 48 78 49 79
REMARK SMILES IDX 52 80 50 81 76 82 77 83 85 84 78 85 79 86 83 87 86 88 80 89
REMARK SMILES IDX 81 90 84 91 82 92 61 93 62 94 70 95 63 96 64 97 68 98 71 99
REMARK SMILES IDX 65 100 66 101 69 102 67 103
REMARK H PARENT 27 5 4 15 13 25 32 37 91 56 59 67
REMARK Flexibility Score: inf
ROOT
ATOM      1  C   UNL A   1      36.156  21.562  25.702  1.00  0.00     0.116 C 
ENDROOT
BRANCH   1   2
ATOM      2  N   UNL A   1      35.117  20.571  25.503  1.00  0.00    -0.352 N 
ATOM      3  C   UNL A   1      33.792  20.575  25.154  1.00  0.00     0.251 C 
ATOM      4  O   UNL A   1      33.297  19.443  25.079  1.00  0.00    -0.269 OA
ATOM      5  H   UNL A   1      35.451  19.658  25.660  1.00  0.00     0.163 HD
BRANCH   3   6
ATOM      6  C   UNL A   1      32.916  21.751  24.789  1.00  0.00     0.044 A 
ATOM      7  C   UNL A   1      32.440  22.729  27.108  1.00  0.00     0.047 C 
ATOM      8  C   UNL A   1      32.359  22.758  25.609  1.00  0.00    -0.015 A 
ATOM      9  C   UNL A   1      31.487  23.734  25.044  1.00  0.00     0.045 A 
ATOM     10  C   UNL A   1      31.090  23.667  23.713  1.00  0.00     0.026 A 
ATOM     11  C   UNL A   1      32.496  21.728  23.436  1.00  0.00     0.014 A 
ATOM     12  C   UNL A   1      31.588  22.652  22.910  1.00  0.00     0.003 A 
BRANCH   9  13
ATOM     13  N   UNL A   1      31.008  24.738  25.900  1.00  0.00    -0.322 N 
ATOM     14  C   UNL A   1      31.184  26.098  25.930  1.00  0.00     0.257 C 
ATOM     15  H   UNL A   1      30.431  24.399  26.622  1.00  0.00     0.170 HD
ATOM     16  O   UNL A   1      30.699  26.719  26.879  1.00  0.00    -0.269 OA
BRANCH  14  17
ATOM     17  C   UNL A   1      31.857  26.869  24.850  1.00  0.00     0.063 A 
ATOM     18  C   UNL A   1      33.235  27.057  25.072  1.00  0.00     0.016 A 
ATOM     19  C   UNL A   1      31.225  27.475  23.734  1.00  0.00     0.054 A 
ATOM     20  C   UNL A   1      34.014  27.760  24.164  1.00  0.00     0.001 A 
ATOM     21  C   UNL A   1      32.052  28.091  22.790  1.00  0.00     0.027 A 
ATOM     22  C   UNL A   1      33.426  28.244  23.006  1.00  0.00     0.002 A 
BRANCH  19  23
ATOM     23  N   UNL A   1      29.814  27.487  23.654  1.00  0.00    -0.323 N 
ATOM     24  C   UNL A   1      28.833  28.331  23.216  1.00  0.00     0.253 C 
ATOM     25  H   UNL A   1      29.432  26.655  24.014  1.00  0.00     0.170 HD
ATOM     26  O   UNL A   1      27.673  27.907  23.313  1.00  0.00    -0.272 OA
BRANCH  24  27
ATOM     27  C   UNL A   1      29.114  29.739  22.691  1.00  0.00     0.207 C 
ATOM     28  C   UNL A   1      28.179  30.738  23.360  1.00  0.00     0.044 C 
ATOM     29  O   UNL A   1      28.888  29.894  21.277  1.00  0.00    -0.368 OA
ATOM     30  C   UNL A   1      28.132  31.853  22.352  1.00  0.00     0.032 C 
ATOM     31  C   UNL A   1      28.124  31.085  21.053  1.00  0.00     0.161 C 
ENDBRANCH  24  27
ENDBRANCH  19  23
ENDBRANCH  14  17
ENDBRANCH   9  13
ENDBRANCH   3   6
ENDBRANCH   1   2
BRANCH   1  32
ATOM     32  C   UNL A   1      37.429  21.204  24.909  1.00  0.00     0.023 C 
BRANCH  32  33
ATOM     33  C   UNL A   1      38.736  21.288  25.691  1.00  0.00     0.023 C 
BRANCH  33  34
ATOM     34  C   UNL A   1      39.083  22.705  26.100  1.00  0.00     0.116 C 
BRANCH  34  35
ATOM     35  N   UNL A   1      40.476  22.915  26.485  1.00  0.00    -0.352 N 
ATOM     36  C   UNL A   1      41.132  24.101  26.776  1.00  0.00     0.251 C 
ATOM     37  H   UNL A   1      41.026  22.102  26.546  1.00  0.00     0.163 HD
ATOM     38  O   UNL A   1      42.341  24.099  26.996  1.00  0.00    -0.269 OA
BRANCH  36  39
ATOM     39  C   UNL A   1      40.346  25.343  26.991  1.00  0.00     0.039 A 
ATOM     40  C   UNL A   1      40.692  26.469  26.235  1.00  0.00     0.014 A 
ATOM     41  C   UNL A   1      39.535  25.480  28.110  1.00  0.00     0.014 A 
ATOM     42  C   UNL A   1      40.502  27.735  26.780  1.00  0.00     0.010 A 
ATOM     43  C   UNL A   1      39.487  26.713  28.724  1.00  0.00     0.010 A 
ATOM     44  C   UNL A   1      40.046  27.828  28.092  1.00  0.00    -0.014 A 
BRANCH  44  45
ATOM     45  C   UNL A   1      40.261  29.000  28.935  1.00  0.00     0.031 A 
ATOM     46  C   UNL A   1      39.225  30.048  29.038  1.00  0.00     0.074 A 
ATOM     47  C   UNL A   1      41.351  29.037  29.735  1.00  0.00     0.049 A 
ATOM     48  N   UNL A   1      39.430  31.240  29.487  1.00  0.00    -0.248 NA
ATOM     49  C   UNL A   1      37.859  29.844  28.576  1.00  0.00     0.031 C 
ATOM     50  C   UNL A   1      41.586  29.919  30.876  1.00  0.00     0.029 A 
ATOM     51  N   UNL A   1      42.580  28.376  29.552  1.00  0.00    -0.354 N 
ATOM     52  C   UNL A   1      38.205  31.849  29.652  1.00  0.00     0.074 A 
ATOM     53  C   UNL A   1      37.276  30.974  28.981  1.00  0.00     0.031 C 
ATOM     54  C   UNL A   1      42.905  29.985  31.111  1.00  0.00     0.029 A 
ATOM     55  C   UNL A   1      43.565  29.269  30.034  1.00  0.00     0.049 A 
ATOM     56  H   UNL A   1      42.722  27.481  29.168  1.00  0.00     0.167 HD
ATOM     57  C   UNL A   1      38.125  32.947  30.461  1.00  0.00     0.037 A 
ATOM     58  C   UNL A   1      44.499  29.812  29.199  1.00  0.00     0.037 A 
ATOM     59  C   UNL A   1      39.466  33.403  30.842  1.00  0.00     0.049 A 
ATOM     60  C   UNL A   1      44.453  31.321  29.123  1.00  0.00     0.074 A 
ATOM     61  C   UNL A   1      40.220  33.263  31.996  1.00  0.00     0.029 A 
ATOM     62  N   UNL A   1      40.343  33.851  29.856  1.00  0.00    -0.354 N 
ATOM     63  N   UNL A   1      43.434  32.036  29.509  1.00  0.00    -0.248 NA
ATOM     64  C   UNL A   1      45.529  32.138  28.567  1.00  0.00     0.031 C 
ATOM     65  C   UNL A   1      41.569  33.563  31.681  1.00  0.00     0.029 A 
ATOM     66  C   UNL A   1      41.635  33.910  30.343  1.00  0.00     0.049 A 
ATOM     67  H   UNL A   1      40.078  34.092  28.938  1.00  0.00     0.167 HD
ATOM     68  C   UNL A   1      43.674  33.358  29.239  1.00  0.00     0.074 A 
ATOM     69  C   UNL A   1      45.009  33.373  28.672  1.00  0.00     0.031 C 
ATOM     70  C   UNL A   1      42.739  34.323  29.488  1.00  0.00     0.037 A 
BRANCH  57  71
ATOM     71  C   UNL A   1      36.857  33.432  31.154  1.00  0.00     0.064 A 
ATOM     72  C   UNL A   1      36.675  33.226  32.542  1.00  0.00     0.173 A 
ATOM     73  C   UNL A   1      35.741  34.011  30.518  1.00  0.00     0.173 A 
ATOM     74  F   UNL A   1      37.676  32.799  33.323  1.00  0.00    -0.203 F 
ATOM     75  C   UNL A   1      35.457  33.453  33.193  1.00  0.00     0.198 A 
ATOM     76  C   UNL A   1      34.511  34.206  31.157  1.00  0.00     0.198 A 
ATOM     77  F   UNL A   1      35.800  34.479  29.270  1.00  0.00    -0.203 F 
ATOM     78  F   UNL A   1      35.349  33.211  34.507  1.00  0.00    -0.200 F 
ATOM     79  C   UNL A   1      34.362  33.910  32.492  1.00  0.00     0.200 A 
ATOM     80  F   UNL A   1      33.473  34.689  30.458  1.00  0.00    -0.200 F 
ATOM     81  F   UNL A   1      33.185  34.094  33.102  1.00  0.00    -0.200 F 
ENDBRANCH  57  71
BRANCH  58  82
ATOM     82  C   UNL A   1      44.877  28.909  28.080  1.00  0.00     0.064 A 
ATOM     83  C   UNL A   1      45.722  27.818  28.361  1.00  0.00     0.173 A 
ATOM     84  C   UNL A   1      44.146  28.871  26.887  1.00  0.00     0.173 A 
ATOM     85  F   UNL A   1      46.440  27.804  29.495  1.00  0.00    -0.203 F 
ATOM     86  C   UNL A   1      45.742  26.688  27.547  1.00  0.00     0.198 A 
ATOM     87  C   UNL A   1      44.179  27.740  26.067  1.00  0.00     0.198 A 
ATOM     88  F   UNL A   1      43.303  29.865  26.576  1.00  0.00    -0.203 F 
ATOM     89  F   UNL A   1      46.470  25.620  27.905  1.00  0.00    -0.200 F 
ATOM     90  C   UNL A   1      44.948  26.639  26.415  1.00  0.00     0.200 A 
ATOM     91  F   UNL A   1      43.381  27.676  24.991  1.00  0.00    -0.200 F 
ATOM     92  F   UNL A   1      44.888  25.517  25.684  1.00  0.00    -0.200 F 
ENDBRANCH  58  82
BRANCH  70  93
ATOM     93  C   UNL A   1      42.806  35.757  29.025  1.00  0.00     0.064 A 
ATOM     94  C   UNL A   1      42.115  36.253  27.909  1.00  0.00     0.173 A 
ATOM     95  C   UNL A   1      43.470  36.729  29.814  1.00  0.00     0.173 A 
ATOM     96  F   UNL A   1      41.356  35.454  27.147  1.00  0.00    -0.203 F 
ATOM     97  C   UNL A   1      42.133  37.610  27.573  1.00  0.00     0.198 A 
ATOM     98  C   UNL A   1      43.437  38.088  29.508  1.00  0.00     0.198 A 
ATOM     99  F   UNL A   1      44.147  36.387  30.920  1.00  0.00    -0.203 F 
ATOM    100  F   UNL A   1      41.489  38.030  26.473  1.00  0.00    -0.200 F 
ATOM    101  C   UNL A   1      42.782  38.528  28.378  1.00  0.00     0.200 A 
ATOM    102  F   UNL A   1      44.027  38.970  30.328  1.00  0.00    -0.200 F 
ATOM    103  F   UNL A   1      42.755  39.833  28.078  1.00  0.00    -0.200 F 
ENDBRANCH  70  93
ENDBRANCH  44  45
ENDBRANCH  36  39
ENDBRANCH  34  35
ENDBRANCH  33  34
ENDBRANCH  32  33
ENDBRANCH   1  32
TORSDOF 15
ENDMDL
