MODEL 1
REMARK VINA RESULT:     -12.2      0.000      0.000
REMARK SMILES CN(C)c1oc(/C=N/c2ccc(O)c(C(=O)NCCCCNC(=O)c3ccc(-c4c5nc(c(-c6c(F)c(F)c(F)c(F)c6F)c6ccc([nH]6)c(-c6c(F)c(F)c(F)c(F)c6F)c6nc(c(-c7c(F)c(F)c(F)c(F)c7F)c7ccc4[nH]7)C=C6)C=C5)cc3)c2)cc1Br
REMARK SMILES IDX 19 1 18 2 17 3 15 4 16 5 14 7 9 8 10 9 88 10 11 11 12 12
REMARK SMILES IDX 8 13 7 14 6 15 4 16 5 17 90 18 89 19 91 20 2 21 1 22 3 23
REMARK SMILES IDX 13 24 20 26 21 27 22 28 23 29 24 31 25 32 26 33 87 34 27 35
REMARK SMILES IDX 86 36 28 37 29 38 30 39 80 40 31 41 85 42 79 43 81 44 32 45
REMARK SMILES IDX 84 46 78 47 77 48 33 50 65 51 45 52 64 53 46 54 49 55 63 56
REMARK SMILES IDX 82 57 47 58 48 59 62 61 83 62 50 63 34 64 35 65 43 66 36 67
REMARK SMILES IDX 37 68 41 69 44 70 38 71 39 72 42 73 40 74 66 75 67 76 75 77
REMARK SMILES IDX 68 78 69 79 73 80 76 81 70 82 71 83 74 84 72 85 51 86 52 87
REMARK SMILES IDX 60 88 53 89 54 90 58 91 61 92 55 93 56 94 59 95 57 96
REMARK H PARENT 17 6 13 25 22 30 81 49 49 60
REMARK Flexibility Score: inf
ROOT
ATOM      1  C   UNL A   1      31.507  31.038  26.074  1.00  0.00     0.023 C 
ENDROOT
BRANCH   1   2
ATOM      2  C   UNL A   1      32.491  30.182  26.879  1.00  0.00     0.116 C 
BRANCH   2   3
ATOM      3  N   UNL A   1      31.858  28.950  27.282  1.00  0.00    -0.352 N 
ATOM      4  C   UNL A   1      31.572  27.793  26.608  1.00  0.00     0.255 C 
ATOM      5  O   UNL A   1      30.933  26.957  27.256  1.00  0.00    -0.269 OA
ATOM      6  H   UNL A   1      31.577  28.939  28.226  1.00  0.00     0.163 HD
BRANCH   4   7
ATOM      7  C   UNL A   1      32.014  27.439  25.219  1.00  0.00     0.083 A 
ATOM      8  C   UNL A   1      33.406  25.835  23.973  1.00  0.00     0.064 A 
ATOM      9  C   UNL A   1      32.997  26.409  22.773  1.00  0.00     0.032 A 
ATOM     10  C   UNL A   1      32.931  26.366  25.174  1.00  0.00     0.046 A 
ATOM     11  C   UNL A   1      32.097  27.468  22.779  1.00  0.00     0.049 A 
ATOM     12  C   UNL A   1      31.580  27.953  23.989  1.00  0.00     0.128 A 
BRANCH   8  13
ATOM     13  N   UNL A   1      34.119  24.636  24.008  1.00  0.00    -0.253 NA
ATOM     14  C   UNL A   1      33.481  23.515  24.080  1.00  0.00     0.158 C 
BRANCH  14  15
ATOM     15  C   UNL A   1      34.233  22.309  24.264  1.00  0.00     0.149 A 
ATOM     16  C   UNL A   1      34.485  20.148  24.633  1.00  0.00     0.210 A 
ATOM     17  O   UNL A   1      33.571  21.120  24.314  1.00  0.00    -0.438 OA
ATOM     18  C   UNL A   1      35.732  20.734  24.728  1.00  0.00     0.082 A 
ATOM     19  C   UNL A   1      35.582  22.109  24.475  1.00  0.00     0.070 A 
ATOM     20  Br  UNL A   1      37.404  19.965  25.088  1.00  0.00    -0.045 Br
BRANCH  16  21
ATOM     21  N   UNL A   1      33.992  18.897  24.813  1.00  0.00    -0.348 N 
ATOM     22  C   UNL A   1      34.636  17.746  24.212  1.00  0.00     0.146 C 
ATOM     23  C   UNL A   1      32.834  18.692  25.662  1.00  0.00     0.146 C 
ENDBRANCH  16  21
ENDBRANCH  14  15
ENDBRANCH   8  13
BRANCH  12  24
ATOM     24  O   UNL A   1      30.588  28.880  23.881  1.00  0.00    -0.507 OA
ATOM     25  H   UNL A   1      29.986  29.007  24.587  1.00  0.00     0.293 HD
ENDBRANCH  12  24
ENDBRANCH   4   7
ENDBRANCH   2   3
ENDBRANCH   1   2
BRANCH   1  26
ATOM     26  C   UNL A   1      31.362  32.478  26.568  1.00  0.00     0.023 C 
BRANCH  26  27
ATOM     27  C   UNL A   1      32.570  33.001  27.328  1.00  0.00     0.116 C 
BRANCH  27  28
ATOM     28  N   UNL A   1      32.411  34.368  27.798  1.00  0.00    -0.352 N 
ATOM     29  C   UNL A   1      33.145  35.038  28.745  1.00  0.00     0.251 C 
ATOM     30  H   UNL A   1      31.680  34.880  27.383  1.00  0.00     0.163 HD
ATOM     31  O   UNL A   1      32.822  36.163  29.102  1.00  0.00    -0.269 OA
BRANCH  29  32
ATOM     32  C   UNL A   1      34.307  34.367  29.362  1.00  0.00     0.039 A 
ATOM     33  C   UNL A   1      34.084  33.459  30.398  1.00  0.00     0.014 A 
ATOM     34  C   UNL A   1      35.606  34.624  28.914  1.00  0.00     0.014 A 
ATOM     35  C   UNL A   1      35.163  32.777  30.960  1.00  0.00     0.010 A 
ATOM     36  C   UNL A   1      36.668  33.881  29.412  1.00  0.00     0.010 A 
ATOM     37  C   UNL A   1      36.460  32.970  30.458  1.00  0.00    -0.014 A 
BRANCH  37  38
ATOM     38  C   UNL A   1      37.621  32.272  31.058  1.00  0.00     0.031 A 
ATOM     39  C   UNL A   1      38.092  32.653  32.434  1.00  0.00     0.074 A 
ATOM     40  C   UNL A   1      38.279  31.336  30.349  1.00  0.00     0.049 A 
ATOM     41  N   UNL A   1      39.096  32.180  33.128  1.00  0.00    -0.248 NA
ATOM     42  C   UNL A   1      37.360  33.739  33.103  1.00  0.00     0.031 C 
ATOM     43  C   UNL A   1      37.961  30.936  28.979  1.00  0.00     0.029 A 
ATOM     44  N   UNL A   1      39.357  30.559  30.685  1.00  0.00    -0.354 N 
ATOM     45  C   UNL A   1      39.120  32.919  34.303  1.00  0.00     0.074 A 
ATOM     46  C   UNL A   1      38.083  33.920  34.197  1.00  0.00     0.031 C 
ATOM     47  C   UNL A   1      38.812  29.968  28.598  1.00  0.00     0.029 A 
ATOM     48  C   UNL A   1      39.744  29.699  29.689  1.00  0.00     0.049 A 
ATOM     49  H   UNL A   1      39.811  30.613  31.556  1.00  0.00     0.167 HD
ATOM     50  C   UNL A   1      39.913  32.756  35.390  1.00  0.00     0.037 A 
ATOM     51  C   UNL A   1      40.737  28.790  29.664  1.00  0.00     0.037 A 
ATOM     52  C   UNL A   1      40.928  31.743  35.497  1.00  0.00     0.049 A 
ATOM     53  C   UNL A   1      41.579  28.594  30.895  1.00  0.00     0.074 A 
ATOM     54  C   UNL A   1      41.753  31.452  36.569  1.00  0.00     0.029 A 
ATOM     55  N   UNL A   1      41.257  30.849  34.486  1.00  0.00    -0.354 N 
ATOM     56  N   UNL A   1      41.542  29.242  32.034  1.00  0.00    -0.248 NA
ATOM     57  C   UNL A   1      42.583  27.524  30.844  1.00  0.00     0.031 C 
ATOM     58  C   UNL A   1      42.608  30.411  36.192  1.00  0.00     0.029 A 
ATOM     59  C   UNL A   1      42.280  30.014  34.905  1.00  0.00     0.049 A 
ATOM     60  H   UNL A   1      40.826  30.815  33.602  1.00  0.00     0.167 HD
ATOM     61  C   UNL A   1      42.495  28.641  32.847  1.00  0.00     0.074 A 
ATOM     62  C   UNL A   1      43.083  27.567  32.070  1.00  0.00     0.031 C 
ATOM     63  C   UNL A   1      42.848  28.947  34.119  1.00  0.00     0.037 A 
BRANCH  50  64
ATOM     64  C   UNL A   1      39.699  33.699  36.539  1.00  0.00     0.064 A 
ATOM     65  C   UNL A   1      40.336  34.950  36.594  1.00  0.00     0.173 A 
ATOM     66  C   UNL A   1      38.865  33.344  37.609  1.00  0.00     0.173 A 
ATOM     67  F   UNL A   1      41.156  35.334  35.605  1.00  0.00    -0.203 F 
ATOM     68  C   UNL A   1      40.186  35.785  37.700  1.00  0.00     0.198 A 
ATOM     69  C   UNL A   1      38.688  34.197  38.696  1.00  0.00     0.198 A 
ATOM     70  F   UNL A   1      38.227  32.164  37.608  1.00  0.00    -0.203 F 
ATOM     71  F   UNL A   1      40.866  36.938  37.762  1.00  0.00    -0.200 F 
ATOM     72  C   UNL A   1      39.361  35.410  38.747  1.00  0.00     0.200 A 
ATOM     73  F   UNL A   1      37.880  33.840  39.703  1.00  0.00    -0.200 F 
ATOM     74  F   UNL A   1      39.222  36.211  39.813  1.00  0.00    -0.200 F 
ENDBRANCH  50  64
BRANCH  51  75
ATOM     75  C   UNL A   1      40.939  27.962  28.448  1.00  0.00     0.064 A 
ATOM     76  C   UNL A   1      40.267  26.742  28.286  1.00  0.00     0.173 A 
ATOM     77  C   UNL A   1      41.781  28.387  27.410  1.00  0.00     0.173 A 
ATOM     78  F   UNL A   1      39.462  26.288  29.259  1.00  0.00    -0.203 F 
ATOM     79  C   UNL A   1      40.439  25.972  27.139  1.00  0.00     0.198 A 
ATOM     80  C   UNL A   1      41.933  27.628  26.252  1.00  0.00     0.198 A 
ATOM     81  F   UNL A   1      42.439  29.551  27.513  1.00  0.00    -0.203 F 
ATOM     82  F   UNL A   1      39.810  24.795  27.024  1.00  0.00    -0.200 F 
ATOM     83  C   UNL A   1      41.266  26.419  26.119  1.00  0.00     0.200 A 
ATOM     84  F   UNL A   1      42.720  28.070  25.262  1.00  0.00    -0.200 F 
ATOM     85  F   UNL A   1      41.422  25.684  25.010  1.00  0.00    -0.200 F 
ENDBRANCH  51  75
BRANCH  63  86
ATOM     86  C   UNL A   1      43.891  28.083  34.769  1.00  0.00     0.064 A 
ATOM     87  C   UNL A   1      45.250  28.429  34.759  1.00  0.00     0.173 A 
ATOM     88  C   UNL A   1      43.517  26.906  35.435  1.00  0.00     0.173 A 
ATOM     89  F   UNL A   1      45.660  29.539  34.126  1.00  0.00    -0.203 F 
ATOM     90  C   UNL A   1      46.200  27.610  35.364  1.00  0.00     0.198 A 
ATOM     91  C   UNL A   1      44.466  26.107  36.066  1.00  0.00     0.198 A 
ATOM     92  F   UNL A   1      42.229  26.534  35.480  1.00  0.00    -0.203 F 
ATOM     93  F   UNL A   1      47.500  27.932  35.296  1.00  0.00    -0.200 F 
ATOM     94  C   UNL A   1      45.807  26.454  36.022  1.00  0.00     0.200 A 
ATOM     95  F   UNL A   1      44.083  24.997  36.712  1.00  0.00    -0.200 F 
ATOM     96  F   UNL A   1      46.723  25.670  36.606  1.00  0.00    -0.200 F 
ENDBRANCH  63  86
ENDBRANCH  37  38
ENDBRANCH  29  32
ENDBRANCH  27  28
ENDBRANCH  26  27
ENDBRANCH   1  26
TORSDOF 15
ENDMDL
MODEL 2
REMARK VINA RESULT:     -12.2      0.746      7.279
REMARK SMILES CN(C)c1oc(/C=N/c2ccc(O)c(C(=O)NCCCCNC(=O)c3ccc(-c4c5nc(c(-c6c(F)c(F)c(F)c(F)c6F)c6ccc([nH]6)c(-c6c(F)c(F)c(F)c(F)c6F)c6nc(c(-c7c(F)c(F)c(F)c(F)c7F)c7ccc4[nH]7)C=C6)C=C5)cc3)c2)cc1Br
REMARK SMILES IDX 19 1 18 2 17 3 15 4 16 5 14 7 9 8 10 9 88 10 11 11 12 12
REMARK SMILES IDX 8 13 7 14 6 15 4 16 5 17 90 18 89 19 91 20 2 21 1 22 3 23
REMARK SMILES IDX 13 24 20 26 21 27 22 28 23 29 24 31 25 32 26 33 87 34 27 35
REMARK SMILES IDX 86 36 28 37 29 38 30 39 80 40 31 41 85 42 79 43 81 44 32 45
REMARK SMILES IDX 84 46 78 47 77 48 33 50 65 51 45 52 64 53 46 54 49 55 63 56
REMARK SMILES IDX 82 57 47 58 48 59 62 61 83 62 50 63 34 64 35 65 43 66 36 67
REMARK SMILES IDX 37 68 41 69 44 70 38 71 39 72 42 73 40 74 66 75 67 76 75 77
REMARK SMILES IDX 68 78 69 79 73 80 76 81 70 82 71 83 74 84 72 85 51 86 52 87
REMARK SMILES IDX 60 88 53 89 54 90 58 91 61 92 55 93 56 94 59 95 57 96
REMARK H PARENT 17 6 13 25 22 30 81 49 49 60
REMARK Flexibility Score: inf
ROOT
ATOM      1  C   UNL A   1      31.676  31.080  26.195  1.00  0.00     0.023 C 
ENDROOT
BRANCH   1   2
ATOM      2  C   UNL A   1      32.626  30.151  26.961  1.00  0.00     0.116 C 
BRANCH   2   3
ATOM      3  N   UNL A   1      31.933  28.946  27.345  1.00  0.00    -0.352 N 
ATOM      4  C   UNL A   1      31.620  27.801  26.663  1.00  0.00     0.255 C 
ATOM      5  O   UNL A   1      30.931  26.991  27.291  1.00  0.00    -0.269 OA
ATOM      6  H   UNL A   1      31.625  28.946  28.281  1.00  0.00     0.163 HD
BRANCH   4   7
ATOM      7  C   UNL A   1      32.087  27.429  25.286  1.00  0.00     0.083 A 
ATOM      8  C   UNL A   1      33.504  25.812  24.087  1.00  0.00     0.064 A 
ATOM      9  C   UNL A   1      33.114  26.368  22.871  1.00  0.00     0.032 A 
ATOM     10  C   UNL A   1      33.008  26.358  25.272  1.00  0.00     0.046 A 
ATOM     11  C   UNL A   1      32.212  27.425  22.847  1.00  0.00     0.049 A 
ATOM     12  C   UNL A   1      31.673  27.925  24.042  1.00  0.00     0.128 A 
BRANCH   8  13
ATOM     13  N   UNL A   1      34.219  24.615  24.150  1.00  0.00    -0.253 NA
ATOM     14  C   UNL A   1      33.603  23.492  23.981  1.00  0.00     0.158 C 
BRANCH  14  15
ATOM     15  C   UNL A   1      34.326  22.275  24.198  1.00  0.00     0.149 A 
ATOM     16  C   UNL A   1      34.527  20.118  24.621  1.00  0.00     0.210 A 
ATOM     17  O   UNL A   1      33.636  21.102  24.274  1.00  0.00    -0.438 OA
ATOM     18  C   UNL A   1      35.787  20.677  24.706  1.00  0.00     0.082 A 
ATOM     19  C   UNL A   1      35.669  22.049  24.419  1.00  0.00     0.070 A 
ATOM     20  Br  UNL A   1      37.439  19.878  25.092  1.00  0.00    -0.045 Br
BRANCH  16  21
ATOM     21  N   UNL A   1      34.004  18.883  24.829  1.00  0.00    -0.348 N 
ATOM     22  C   UNL A   1      32.824  18.699  25.650  1.00  0.00     0.146 C 
ATOM     23  C   UNL A   1      34.598  17.729  24.181  1.00  0.00     0.146 C 
ENDBRANCH  16  21
ENDBRANCH  14  15
ENDBRANCH   8  13
BRANCH  12  24
ATOM     24  O   UNL A   1      30.680  28.847  23.904  1.00  0.00    -0.507 OA
ATOM     25  H   UNL A   1      30.772  29.546  23.286  1.00  0.00     0.293 HD
ENDBRANCH  12  24
ENDBRANCH   4   7
ENDBRANCH   2   3
ENDBRANCH   1   2
BRANCH   1  26
ATOM     26  C   UNL A   1      31.429  32.432  26.864  1.00  0.00     0.023 C 
BRANCH  26  27
ATOM     27  C   UNL A   1      32.691  33.129  27.347  1.00  0.00     0.116 C 
BRANCH  27  28
ATOM     28  N   UNL A   1      32.469  34.503  27.766  1.00  0.00    -0.352 N 
ATOM     29  C   UNL A   1      33.116  35.214  28.747  1.00  0.00     0.251 C 
ATOM     30  H   UNL A   1      31.762  34.989  27.283  1.00  0.00     0.163 HD
ATOM     31  O   UNL A   1      32.745  36.340  29.048  1.00  0.00    -0.269 OA
BRANCH  29  32
ATOM     32  C   UNL A   1      34.241  34.585  29.468  1.00  0.00     0.039 A 
ATOM     33  C   UNL A   1      33.981  33.924  30.670  1.00  0.00     0.014 A 
ATOM     34  C   UNL A   1      35.541  34.636  28.956  1.00  0.00     0.014 A 
ATOM     35  C   UNL A   1      35.020  33.281  31.341  1.00  0.00     0.010 A 
ATOM     36  C   UNL A   1      36.557  33.921  29.577  1.00  0.00     0.010 A 
ATOM     37  C   UNL A   1      36.312  33.259  30.789  1.00  0.00    -0.014 A 
BRANCH  37  38
ATOM     38  C   UNL A   1      37.433  32.600  31.499  1.00  0.00     0.031 A 
ATOM     39  C   UNL A   1      38.160  31.457  30.848  1.00  0.00     0.074 A 
ATOM     40  C   UNL A   1      37.762  32.995  32.742  1.00  0.00     0.049 A 
ATOM     41  N   UNL A   1      39.152  30.736  31.305  1.00  0.00    -0.248 NA
ATOM     42  C   UNL A   1      37.683  31.044  29.519  1.00  0.00     0.031 C 
ATOM     43  C   UNL A   1      37.082  34.042  33.504  1.00  0.00     0.029 A 
ATOM     44  N   UNL A   1      38.749  32.555  33.585  1.00  0.00    -0.354 N 
ATOM     45  C   UNL A   1      39.403  29.781  30.329  1.00  0.00     0.074 A 
ATOM     46  C   UNL A   1      38.414  29.965  29.291  1.00  0.00     0.031 C 
ATOM     47  C   UNL A   1      37.688  34.180  34.695  1.00  0.00     0.029 A 
ATOM     48  C   UNL A   1      38.782  33.217  34.785  1.00  0.00     0.049 A 
ATOM     49  H   UNL A   1      39.375  31.831  33.352  1.00  0.00     0.167 HD
ATOM     50  C   UNL A   1      40.391  28.856  30.284  1.00  0.00     0.037 A 
ATOM     51  C   UNL A   1      39.609  33.068  35.837  1.00  0.00     0.037 A 
ATOM     52  C   UNL A   1      41.386  28.694  31.311  1.00  0.00     0.049 A 
ATOM     53  C   UNL A   1      40.726  32.065  35.751  1.00  0.00     0.074 A 
ATOM     54  C   UNL A   1      42.463  27.826  31.346  1.00  0.00     0.029 A 
ATOM     55  N   UNL A   1      41.422  29.423  32.492  1.00  0.00    -0.354 N 
ATOM     56  N   UNL A   1      41.009  31.221  34.789  1.00  0.00    -0.248 NA
ATOM     57  C   UNL A   1      41.655  32.013  36.888  1.00  0.00     0.031 C 
ATOM     58  C   UNL A   1      43.126  28.001  32.565  1.00  0.00     0.029 A 
ATOM     59  C   UNL A   1      42.496  29.017  33.268  1.00  0.00     0.049 A 
ATOM     60  H   UNL A   1      40.778  30.124  32.741  1.00  0.00     0.167 HD
ATOM     61  C   UNL A   1      42.161  30.557  35.187  1.00  0.00     0.074 A 
ATOM     62  C   UNL A   1      42.532  31.109  36.475  1.00  0.00     0.031 C 
ATOM     63  C   UNL A   1      42.852  29.583  34.545  1.00  0.00     0.037 A 
BRANCH  50  64
ATOM     64  C   UNL A   1      40.433  27.958  29.080  1.00  0.00     0.064 A 
ATOM     65  C   UNL A   1      41.214  28.271  27.955  1.00  0.00     0.173 A 
ATOM     66  C   UNL A   1      39.669  26.783  29.038  1.00  0.00     0.173 A 
ATOM     67  F   UNL A   1      41.952  29.391  27.935  1.00  0.00    -0.203 F 
ATOM     68  C   UNL A   1      41.188  27.468  26.816  1.00  0.00     0.198 A 
ATOM     69  C   UNL A   1      39.674  25.963  27.913  1.00  0.00     0.198 A 
ATOM     70  F   UNL A   1      38.909  26.432  30.086  1.00  0.00    -0.203 F 
ATOM     71  F   UNL A   1      41.881  27.830  25.728  1.00  0.00    -0.200 F 
ATOM     72  C   UNL A   1      40.421  26.314  26.797  1.00  0.00     0.200 A 
ATOM     73  F   UNL A   1      38.943  24.840  27.899  1.00  0.00    -0.200 F 
ATOM     74  F   UNL A   1      40.392  25.546  25.700  1.00  0.00    -0.200 F 
ENDBRANCH  50  64
BRANCH  51  75
ATOM     75  C   UNL A   1      39.438  33.936  37.030  1.00  0.00     0.064 A 
ATOM     76  C   UNL A   1      38.719  33.492  38.148  1.00  0.00     0.173 A 
ATOM     77  C   UNL A   1      40.016  35.213  37.089  1.00  0.00     0.173 A 
ATOM     78  F   UNL A   1      38.135  32.284  38.131  1.00  0.00    -0.203 F 
ATOM     79  C   UNL A   1      38.573  34.296  39.276  1.00  0.00     0.198 A 
ATOM     80  C   UNL A   1      39.890  36.006  38.227  1.00  0.00     0.198 A 
ATOM     81  F   UNL A   1      40.722  35.679  36.049  1.00  0.00    -0.203 F 
ATOM     82  F   UNL A   1      37.853  33.860  40.318  1.00  0.00    -0.200 F 
ATOM     83  C   UNL A   1      39.165  35.550  39.318  1.00  0.00     0.200 A 
ATOM     84  F   UNL A   1      40.478  37.210  38.271  1.00  0.00    -0.200 F 
ATOM     85  F   UNL A   1      39.034  36.318  40.407  1.00  0.00    -0.200 F 
ENDBRANCH  51  75
BRANCH  63  86
ATOM     86  C   UNL A   1      44.104  29.080  35.204  1.00  0.00     0.064 A 
ATOM     87  C   UNL A   1      44.095  27.968  36.059  1.00  0.00     0.173 A 
ATOM     88  C   UNL A   1      45.334  29.707  34.954  1.00  0.00     0.173 A 
ATOM     89  F   UNL A   1      42.942  27.341  36.340  1.00  0.00    -0.203 F 
ATOM     90  C   UNL A   1      45.267  27.522  36.663  1.00  0.00     0.198 A 
ATOM     91  C   UNL A   1      46.509  29.238  35.535  1.00  0.00     0.198 A 
ATOM     92  F   UNL A   1      45.398  30.770  34.139  1.00  0.00    -0.203 F 
ATOM     93  F   UNL A   1      45.227  26.489  37.518  1.00  0.00    -0.200 F 
ATOM     94  C   UNL A   1      46.474  28.152  36.396  1.00  0.00     0.200 A 
ATOM     95  F   UNL A   1      47.675  29.841  35.266  1.00  0.00    -0.200 F 
ATOM     96  F   UNL A   1      47.600  27.719  36.977  1.00  0.00    -0.200 F 
ENDBRANCH  63  86
ENDBRANCH  37  38
ENDBRANCH  29  32
ENDBRANCH  27  28
ENDBRANCH  26  27
ENDBRANCH   1  26
TORSDOF 15
ENDMDL
MODEL 3
REMARK VINA RESULT:     -12.1      0.789      2.262
REMARK SMILES CN(C)c1oc(/C=N/c2ccc(O)c(C(=O)NCCCCNC(=O)c3ccc(-c4c5nc(c(-c6c(F)c(F)c(F)c(F)c6F)c6ccc([nH]6)c(-c6c(F)c(F)c(F)c(F)c6F)c6nc(c(-c7c(F)c(F)c(F)c(F)c7F)c7ccc4[nH]7)C=C6)C=C5)cc3)c2)cc1Br
REMARK SMILES IDX 19 1 18 2 17 3 15 4 16 5 14 7 9 8 10 9 88 10 11 11 12 12
REMARK SMILES IDX 8 13 7 14 6 15 4 16 5 17 90 18 89 19 91 20 2 21 1 22 3 23
REMARK SMILES IDX 13 24 20 26 21 27 22 28 23 29 24 31 25 32 26 33 87 34 27 35
REMARK SMILES IDX 86 36 28 37 29 38 30 39 80 40 31 41 85 42 79 43 81 44 32 45
REMARK SMILES IDX 84 46 78 47 77 48 33 50 65 51 45 52 64 53 46 54 49 55 63 56
REMARK SMILES IDX 82 57 47 58 48 59 62 61 83 62 50 63 34 64 35 65 43 66 36 67
REMARK SMILES IDX 37 68 41 69 44 70 38 71 39 72 42 73 40 74 66 75 67 76 75 77
REMARK SMILES IDX 68 78 69 79 73 80 76 81 70 82 71 83 74 84 72 85 51 86 52 87
REMARK SMILES IDX 60 88 53 89 54 90 58 91 61 92 55 93 56 94 59 95 57 96
REMARK H PARENT 17 6 13 25 22 30 81 49 49 60
REMARK Flexibility Score: inf
ROOT
ATOM      1  C   UNL A   1      31.425  30.855  25.768  1.00  0.00     0.023 C 
ENDROOT
BRANCH   1   2
ATOM      2  C   UNL A   1      32.575  29.849  25.900  1.00  0.00     0.116 C 
BRANCH   2   3
ATOM      3  N   UNL A   1      33.247  29.700  24.632  1.00  0.00    -0.352 N 
ATOM      4  C   UNL A   1      33.159  28.757  23.644  1.00  0.00     0.255 C 
ATOM      5  O   UNL A   1      33.960  28.899  22.714  1.00  0.00    -0.269 OA
ATOM      6  H   UNL A   1      33.895  30.417  24.440  1.00  0.00     0.163 HD
BRANCH   4   7
ATOM      7  C   UNL A   1      32.158  27.642  23.564  1.00  0.00     0.083 A 
ATOM      8  C   UNL A   1      31.975  25.188  23.633  1.00  0.00     0.064 A 
ATOM      9  C   UNL A   1      30.589  25.286  23.550  1.00  0.00     0.032 A 
ATOM     10  C   UNL A   1      32.740  26.356  23.618  1.00  0.00     0.046 A 
ATOM     11  C   UNL A   1      29.982  26.536  23.493  1.00  0.00     0.049 A 
ATOM     12  C   UNL A   1      30.757  27.704  23.540  1.00  0.00     0.128 A 
BRANCH   8  13
ATOM     13  N   UNL A   1      32.609  23.979  23.922  1.00  0.00    -0.253 NA
ATOM     14  C   UNL A   1      33.869  23.969  24.207  1.00  0.00     0.158 C 
BRANCH  14  15
ATOM     15  C   UNL A   1      34.528  22.705  24.354  1.00  0.00     0.149 A 
ATOM     16  C   UNL A   1      34.620  20.528  24.707  1.00  0.00     0.210 A 
ATOM     17  O   UNL A   1      33.774  21.573  24.432  1.00  0.00    -0.438 OA
ATOM     18  C   UNL A   1      35.914  21.011  24.744  1.00  0.00     0.082 A 
ATOM     19  C   UNL A   1      35.864  22.395  24.500  1.00  0.00     0.070 A 
ATOM     20  Br  UNL A   1      37.533  20.106  25.023  1.00  0.00    -0.045 Br
BRANCH  16  21
ATOM     21  N   UNL A   1      34.037  19.321  24.907  1.00  0.00    -0.348 N 
ATOM     22  C   UNL A   1      32.819  19.197  25.683  1.00  0.00     0.146 C 
ATOM     23  C   UNL A   1      34.603  18.134  24.293  1.00  0.00     0.146 C 
ENDBRANCH  16  21
ENDBRANCH  14  15
ENDBRANCH   8  13
BRANCH  12  24
ATOM     24  O   UNL A   1      30.064  28.872  23.642  1.00  0.00    -0.507 OA
ATOM     25  H   UNL A   1      29.407  28.970  24.302  1.00  0.00     0.293 HD
ENDBRANCH  12  24
ENDBRANCH   4   7
ENDBRANCH   2   3
ENDBRANCH   1   2
BRANCH   1  26
ATOM     26  C   UNL A   1      31.377  31.917  26.866  1.00  0.00     0.023 C 
BRANCH  26  27
ATOM     27  C   UNL A   1      32.678  32.682  27.051  1.00  0.00     0.116 C 
BRANCH  27  28
ATOM     28  N   UNL A   1      32.494  34.008  27.619  1.00  0.00    -0.352 N 
ATOM     29  C   UNL A   1      33.208  34.616  28.622  1.00  0.00     0.251 C 
ATOM     30  H   UNL A   1      31.761  34.540  27.233  1.00  0.00     0.163 HD
ATOM     31  O   UNL A   1      32.865  35.707  29.057  1.00  0.00    -0.269 OA
BRANCH  29  32
ATOM     32  C   UNL A   1      34.372  33.916  29.203  1.00  0.00     0.039 A 
ATOM     33  C   UNL A   1      35.651  34.273  28.772  1.00  0.00     0.014 A 
ATOM     34  C   UNL A   1      34.204  32.925  30.173  1.00  0.00     0.014 A 
ATOM     35  C   UNL A   1      36.766  33.661  29.343  1.00  0.00     0.010 A 
ATOM     36  C   UNL A   1      35.315  32.381  30.805  1.00  0.00     0.010 A 
ATOM     37  C   UNL A   1      36.605  32.723  30.377  1.00  0.00    -0.014 A 
BRANCH  37  38
ATOM     38  C   UNL A   1      37.776  32.046  30.981  1.00  0.00     0.031 A 
ATOM     39  C   UNL A   1      38.229  32.425  32.363  1.00  0.00     0.074 A 
ATOM     40  C   UNL A   1      38.459  31.130  30.270  1.00  0.00     0.049 A 
ATOM     41  N   UNL A   1      39.237  31.969  33.061  1.00  0.00    -0.248 NA
ATOM     42  C   UNL A   1      37.468  33.490  33.036  1.00  0.00     0.031 C 
ATOM     43  C   UNL A   1      38.160  30.733  28.894  1.00  0.00     0.029 A 
ATOM     44  N   UNL A   1      39.551  30.374  30.607  1.00  0.00    -0.354 N 
ATOM     45  C   UNL A   1      39.237  32.698  34.242  1.00  0.00     0.074 A 
ATOM     46  C   UNL A   1      38.179  33.678  34.136  1.00  0.00     0.031 C 
ATOM     47  C   UNL A   1      39.034  29.788  28.512  1.00  0.00     0.029 A 
ATOM     48  C   UNL A   1      39.965  29.530  29.608  1.00  0.00     0.049 A 
ATOM     49  H   UNL A   1      39.998  30.430  31.483  1.00  0.00     0.167 HD
ATOM     50  C   UNL A   1      40.025  32.544  35.333  1.00  0.00     0.037 A 
ATOM     51  C   UNL A   1      40.977  28.643  29.583  1.00  0.00     0.037 A 
ATOM     52  C   UNL A   1      41.061  31.552  35.440  1.00  0.00     0.049 A 
ATOM     53  C   UNL A   1      41.813  28.455  30.819  1.00  0.00     0.074 A 
ATOM     54  C   UNL A   1      41.885  31.271  36.516  1.00  0.00     0.029 A 
ATOM     55  N   UNL A   1      41.416  30.674  34.425  1.00  0.00    -0.354 N 
ATOM     56  N   UNL A   1      41.755  29.093  31.963  1.00  0.00    -0.248 NA
ATOM     57  C   UNL A   1      42.841  27.407  30.767  1.00  0.00     0.031 C 
ATOM     58  C   UNL A   1      42.764  30.251  36.138  1.00  0.00     0.029 A 
ATOM     59  C   UNL A   1      42.454  29.858  34.845  1.00  0.00     0.049 A 
ATOM     60  H   UNL A   1      40.993  30.637  33.538  1.00  0.00     0.167 HD
ATOM     61  C   UNL A   1      42.714  28.506  32.778  1.00  0.00     0.074 A 
ATOM     62  C   UNL A   1      43.331  27.452  31.997  1.00  0.00     0.031 C 
ATOM     63  C   UNL A   1      43.051  28.810  34.055  1.00  0.00     0.037 A 
BRANCH  50  64
ATOM     64  C   UNL A   1      39.782  33.473  36.488  1.00  0.00     0.064 A 
ATOM     65  C   UNL A   1      38.894  33.143  37.526  1.00  0.00     0.173 A 
ATOM     66  C   UNL A   1      40.427  34.717  36.552  1.00  0.00     0.173 A 
ATOM     67  F   UNL A   1      38.239  31.973  37.508  1.00  0.00    -0.203 F 
ATOM     68  C   UNL A   1      38.623  34.044  38.554  1.00  0.00     0.198 A 
ATOM     69  C   UNL A   1      40.182  35.600  37.602  1.00  0.00     0.198 A 
ATOM     70  F   UNL A   1      41.289  35.083  35.593  1.00  0.00    -0.203 F 
ATOM     71  F   UNL A   1      37.714  33.735  39.489  1.00  0.00    -0.200 F 
ATOM     72  C   UNL A   1      39.268  35.269  38.593  1.00  0.00     0.200 A 
ATOM     73  F   UNL A   1      40.815  36.780  37.645  1.00  0.00    -0.200 F 
ATOM     74  F   UNL A   1      39.003  36.137  39.578  1.00  0.00    -0.200 F 
ENDBRANCH  50  64
BRANCH  51  75
ATOM     75  C   UNL A   1      41.205  27.829  28.362  1.00  0.00     0.064 A 
ATOM     76  C   UNL A   1      42.087  28.260  27.362  1.00  0.00     0.173 A 
ATOM     77  C   UNL A   1      40.573  26.590  28.186  1.00  0.00     0.173 A 
ATOM     78  F   UNL A   1      42.704  29.446  27.480  1.00  0.00    -0.203 F 
ATOM     79  C   UNL A   1      42.319  27.491  26.225  1.00  0.00     0.198 A 
ATOM     80  C   UNL A   1      40.824  25.809  27.060  1.00  0.00     0.198 A 
ATOM     81  F   UNL A   1      39.728  26.128  29.119  1.00  0.00    -0.203 F 
ATOM     82  F   UNL A   1      43.141  27.942  25.269  1.00  0.00    -0.200 F 
ATOM     83  C   UNL A   1      41.693  26.261  26.078  1.00  0.00     0.200 A 
ATOM     84  F   UNL A   1      40.230  24.615  26.929  1.00  0.00    -0.200 F 
ATOM     85  F   UNL A   1      41.925  25.516  24.990  1.00  0.00    -0.200 F 
ENDBRANCH  51  75
BRANCH  63  86
ATOM     86  C   UNL A   1      44.107  27.963  34.706  1.00  0.00     0.064 A 
ATOM     87  C   UNL A   1      43.793  26.767  35.367  1.00  0.00     0.173 A 
ATOM     88  C   UNL A   1      45.456  28.344  34.642  1.00  0.00     0.173 A 
ATOM     89  F   UNL A   1      42.517  26.364  35.467  1.00  0.00    -0.203 F 
ATOM     90  C   UNL A   1      44.788  26.000  35.968  1.00  0.00     0.198 A 
ATOM     91  C   UNL A   1      46.451  27.558  35.216  1.00  0.00     0.198 A 
ATOM     92  F   UNL A   1      45.810  29.476  34.015  1.00  0.00    -0.203 F 
ATOM     93  F   UNL A   1      44.459  24.887  36.641  1.00  0.00    -0.200 F 
ATOM     94  C   UNL A   1      46.116  26.392  35.886  1.00  0.00     0.200 A 
ATOM     95  F   UNL A   1      47.735  27.933  35.125  1.00  0.00    -0.200 F 
ATOM     96  F   UNL A   1      47.071  25.651  36.463  1.00  0.00    -0.200 F 
ENDBRANCH  63  86
ENDBRANCH  37  38
ENDBRANCH  29  32
ENDBRANCH  27  28
ENDBRANCH  26  27
ENDBRANCH   1  26
TORSDOF 15
ENDMDL
