MODEL 1
REMARK VINA RESULT:     -13.2      0.000      0.000
REMARK SMILES O=C(NCCCCNC(=O)[C@H]1C[C@H]2CCCC[C@@H]2[N@@H+]1Cc1ccno1)c1ccc(-c2c3nc(c(-c4c(F)c(F)c(F)c(F)c4F)c4ccc([nH]4)c(-c4c(F)c(F)c(F)c(F)c4F)c4nc(c(-c5c(F)c(F)c(F)c(F)c5F)c5ccc2[nH]5)C=C4)C=C3)cc1
REMARK SMILES IDX 5 1 4 2 3 3 1 4 2 5 26 7 27 8 88 9 28 10 87 11 29 12 30 13
REMARK SMILES IDX 31 14 81 15 32 16 86 17 80 18 82 19 33 20 85 21 79 22 78 23
REMARK SMILES IDX 34 25 66 26 46 27 65 28 47 29 50 30 64 31 83 32 48 33 49 34
REMARK SMILES IDX 63 36 84 37 51 38 35 39 36 40 44 41 37 42 38 43 42 44 45 45
REMARK SMILES IDX 39 46 40 47 43 48 41 49 67 50 68 51 76 52 69 53 70 54 74 55
REMARK SMILES IDX 77 56 71 57 72 58 75 59 73 60 52 61 53 62 61 63 54 64 55 65
REMARK SMILES IDX 59 66 62 67 56 68 57 69 60 70 58 71 6 72 7 73 8 74 9 75
REMARK SMILES IDX 10 77 11 78 12 79 19 80 13 81 18 82 14 84 17 85 15 86 16 87
REMARK SMILES IDX 20 88 21 89 22 90 25 91 23 92 24 93
REMARK H PARENT 3 6 82 24 50 35 8 76 19 83
REMARK Flexibility Score: inf
ROOT
ATOM      1  C   UNL A   1      31.475  31.993  26.727  1.00  0.00     0.023 C 
ENDROOT
BRANCH   1   2
ATOM      2  C   UNL A   1      32.648  32.791  27.284  1.00  0.00     0.116 C 
BRANCH   2   3
ATOM      3  N   UNL A   1      32.308  34.161  27.639  1.00  0.00    -0.352 N 
ATOM      4  O   UNL A   1      32.487  36.090  28.807  1.00  0.00    -0.269 OA
ATOM      5  C   UNL A   1      32.932  34.979  28.547  1.00  0.00     0.251 C 
ATOM      6  H   UNL A   1      31.534  34.548  27.170  1.00  0.00     0.163 HD
BRANCH   5   7
ATOM      7  C   UNL A   1      34.132  34.477  29.242  1.00  0.00     0.039 A 
ATOM      8  C   UNL A   1      35.400  34.645  28.679  1.00  0.00     0.014 A 
ATOM      9  C   UNL A   1      33.968  33.788  30.444  1.00  0.00     0.014 A 
ATOM     10  C   UNL A   1      36.496  34.019  29.260  1.00  0.00     0.010 A 
ATOM     11  C   UNL A   1      35.079  33.213  31.059  1.00  0.00     0.010 A 
ATOM     12  C   UNL A   1      36.344  33.301  30.454  1.00  0.00    -0.014 A 
BRANCH  12  13
ATOM     13  C   UNL A   1      37.517  32.672  31.099  1.00  0.00     0.031 A 
ATOM     14  C   UNL A   1      38.246  31.548  30.426  1.00  0.00     0.074 A 
ATOM     15  C   UNL A   1      37.896  33.102  32.314  1.00  0.00     0.049 A 
ATOM     16  N   UNL A   1      39.218  30.801  30.883  1.00  0.00    -0.248 NA
ATOM     17  C   UNL A   1      37.818  31.209  29.059  1.00  0.00     0.031 C 
ATOM     18  C   UNL A   1      37.258  34.191  33.056  1.00  0.00     0.029 A 
ATOM     19  N   UNL A   1      38.894  32.666  33.147  1.00  0.00    -0.354 N 
ATOM     20  C   UNL A   1      39.500  29.889  29.877  1.00  0.00     0.074 A 
ATOM     21  C   UNL A   1      38.588  30.164  28.787  1.00  0.00     0.031 C 
ATOM     22  C   UNL A   1      37.879  34.340  34.235  1.00  0.00     0.029 A 
ATOM     23  C   UNL A   1      38.916  33.321  34.353  1.00  0.00     0.049 A 
ATOM     24  H   UNL A   1      39.529  31.956  32.904  1.00  0.00     0.167 HD
ATOM     25  C   UNL A   1      40.437  28.911  29.871  1.00  0.00     0.037 A 
ATOM     26  C   UNL A   1      39.665  33.098  35.448  1.00  0.00     0.037 A 
ATOM     27  C   UNL A   1      41.350  28.659  30.958  1.00  0.00     0.049 A 
ATOM     28  C   UNL A   1      40.680  31.994  35.428  1.00  0.00     0.074 A 
ATOM     29  C   UNL A   1      42.366  27.723  31.033  1.00  0.00     0.029 A 
ATOM     30  N   UNL A   1      41.349  29.347  32.163  1.00  0.00    -0.354 N 
ATOM     31  N   UNL A   1      40.957  31.149  34.465  1.00  0.00    -0.248 NA
ATOM     32  C   UNL A   1      41.482  31.808  36.643  1.00  0.00     0.031 C 
ATOM     33  C   UNL A   1      42.951  27.817  32.301  1.00  0.00     0.029 A 
ATOM     34  C   UNL A   1      42.331  28.841  32.998  1.00  0.00     0.049 A 
ATOM     35  H   UNL A   1      40.739  30.087  32.391  1.00  0.00     0.167 HD
ATOM     36  C   UNL A   1      41.978  30.345  34.946  1.00  0.00     0.074 A 
ATOM     37  C   UNL A   1      42.275  30.805  36.287  1.00  0.00     0.031 C 
ATOM     38  C   UNL A   1      42.613  29.318  34.328  1.00  0.00     0.037 A 
BRANCH  25  39
ATOM     39  C   UNL A   1      40.503  28.020  28.665  1.00  0.00     0.064 A 
ATOM     40  C   UNL A   1      41.259  28.360  27.534  1.00  0.00     0.173 A 
ATOM     41  C   UNL A   1      39.816  26.796  28.652  1.00  0.00     0.173 A 
ATOM     42  F   UNL A   1      41.924  29.524  27.490  1.00  0.00    -0.203 F 
ATOM     43  C   UNL A   1      41.302  27.520  26.423  1.00  0.00     0.198 A 
ATOM     44  C   UNL A   1      39.883  25.948  27.550  1.00  0.00     0.198 A 
ATOM     45  F   UNL A   1      39.083  26.421  29.710  1.00  0.00    -0.203 F 
ATOM     46  F   UNL A   1      41.992  27.887  25.333  1.00  0.00    -0.200 F 
ATOM     47  C   UNL A   1      40.618  26.314  26.433  1.00  0.00     0.200 A 
ATOM     48  F   UNL A   1      39.229  24.778  27.566  1.00  0.00    -0.200 F 
ATOM     49  F   UNL A   1      40.660  25.507  25.363  1.00  0.00    -0.200 F 
ENDBRANCH  25  39
BRANCH  26  50
ATOM     50  C   UNL A   1      39.454  33.946  36.647  1.00  0.00     0.064 A 
ATOM     51  C   UNL A   1      38.670  33.498  37.715  1.00  0.00     0.173 A 
ATOM     52  C   UNL A   1      40.094  35.188  36.775  1.00  0.00     0.173 A 
ATOM     53  F   UNL A   1      38.029  32.324  37.630  1.00  0.00    -0.203 F 
ATOM     54  C   UNL A   1      38.535  34.262  38.872  1.00  0.00     0.198 A 
ATOM     55  C   UNL A   1      39.978  35.938  37.942  1.00  0.00     0.198 A 
ATOM     56  F   UNL A   1      40.865  35.652  35.780  1.00  0.00    -0.203 F 
ATOM     57  F   UNL A   1      37.765  33.819  39.878  1.00  0.00    -0.200 F 
ATOM     58  C   UNL A   1      39.196  35.475  38.989  1.00  0.00     0.200 A 
ATOM     59  F   UNL A   1      40.634  37.100  38.058  1.00  0.00    -0.200 F 
ATOM     60  F   UNL A   1      39.083  36.197  40.112  1.00  0.00    -0.200 F 
ENDBRANCH  26  50
BRANCH  38  61
ATOM     61  C   UNL A   1      43.718  28.643  35.084  1.00  0.00     0.064 A 
ATOM     62  C   UNL A   1      45.044  29.093  35.002  1.00  0.00     0.173 A 
ATOM     63  C   UNL A   1      43.433  27.573  35.945  1.00  0.00     0.173 A 
ATOM     64  F   UNL A   1      45.365  30.103  34.179  1.00  0.00    -0.203 F 
ATOM     65  C   UNL A   1      46.048  28.486  35.750  1.00  0.00     0.198 A 
ATOM     66  C   UNL A   1      44.437  26.985  36.708  1.00  0.00     0.198 A 
ATOM     67  F   UNL A   1      42.179  27.111  36.058  1.00  0.00    -0.203 F 
ATOM     68  F   UNL A   1      47.314  28.911  35.636  1.00  0.00    -0.200 F 
ATOM     69  C   UNL A   1      45.744  27.438  36.607  1.00  0.00     0.200 A 
ATOM     70  F   UNL A   1      44.139  25.979  37.543  1.00  0.00    -0.200 F 
ATOM     71  F   UNL A   1      46.711  26.864  37.336  1.00  0.00    -0.200 F 
ENDBRANCH  38  61
ENDBRANCH  12  13
ENDBRANCH   5   7
ENDBRANCH   2   3
ENDBRANCH   1   2
BRANCH   1  72
ATOM     72  C   UNL A   1      31.845  30.622  26.167  1.00  0.00     0.023 C 
BRANCH  72  73
ATOM     73  C   UNL A   1      32.271  29.591  27.214  1.00  0.00     0.116 C 
BRANCH  73  74
ATOM     74  N   UNL A   1      31.469  28.389  27.162  1.00  0.00    -0.351 N 
ATOM     75  C   UNL A   1      31.565  27.264  26.401  1.00  0.00     0.278 C 
ATOM     76  H   UNL A   1      30.713  28.383  27.794  1.00  0.00     0.163 HD
ATOM     77  O   UNL A   1      30.749  26.370  26.673  1.00  0.00    -0.268 OA
BRANCH  75  78
ATOM     78  C   UNL A   1      32.515  27.076  25.198  1.00  0.00     0.275 C 
ATOM     79  C   UNL A   1      33.827  26.373  25.584  1.00  0.00     0.085 C 
ATOM     80  N   UNL A   1      31.931  26.307  24.058  1.00  0.00    -0.316 N 
ATOM     81  C   UNL A   1      34.128  25.487  24.384  1.00  0.00     0.054 C 
ATOM     82  C   UNL A   1      32.733  25.088  23.931  1.00  0.00     0.188 C 
ATOM     83  H   UNL A   1      30.967  26.025  24.235  1.00  0.00     0.349 HD
ATOM     84  C   UNL A   1      34.984  24.255  24.642  1.00  0.00     0.010 C 
ATOM     85  C   UNL A   1      32.726  24.232  22.669  1.00  0.00     0.065 C 
ATOM     86  C   UNL A   1      35.022  23.377  23.384  1.00  0.00     0.001 C 
ATOM     87  C   UNL A   1      33.623  23.003  22.882  1.00  0.00     0.006 C 
BRANCH  80  88
ATOM     88  C   UNL A   1      31.713  27.115  22.847  1.00  0.00     0.342 C 
BRANCH  88  89
ATOM     89  C   UNL A   1      30.436  27.883  22.757  1.00  0.00     0.190 A 
ATOM     90  C   UNL A   1      29.252  27.894  23.458  1.00  0.00     0.075 A 
ATOM     91  O   UNL A   1      30.376  28.843  21.788  1.00  0.00    -0.355 OA
ATOM     92  C   UNL A   1      28.470  28.863  22.807  1.00  0.00     0.158 A 
ATOM     93  N   UNL A   1      29.131  29.447  21.807  1.00  0.00    -0.088 NA
ENDBRANCH  88  89
ENDBRANCH  80  88
ENDBRANCH  75  78
ENDBRANCH  73  74
ENDBRANCH  72  73
ENDBRANCH   1  72
TORSDOF 13
ENDMDL
MODEL 2
REMARK VINA RESULT:     -13.1      0.091      1.136
REMARK SMILES O=C(NCCCCNC(=O)[C@H]1C[C@H]2CCCC[C@@H]2[N@@H+]1Cc1ccno1)c1ccc(-c2c3nc(c(-c4c(F)c(F)c(F)c(F)c4F)c4ccc([nH]4)c(-c4c(F)c(F)c(F)c(F)c4F)c4nc(c(-c5c(F)c(F)c(F)c(F)c5F)c5ccc2[nH]5)C=C4)C=C3)cc1
REMARK SMILES IDX 5 1 4 2 3 3 1 4 2 5 26 7 27 8 88 9 28 10 87 11 29 12 30 13
REMARK SMILES IDX 31 14 81 15 32 16 86 17 80 18 82 19 33 20 85 21 79 22 78 23
REMARK SMILES IDX 34 25 66 26 46 27 65 28 47 29 50 30 64 31 83 32 48 33 49 34
REMARK SMILES IDX 63 36 84 37 51 38 35 39 36 40 44 41 37 42 38 43 42 44 45 45
REMARK SMILES IDX 39 46 40 47 43 48 41 49 67 50 68 51 76 52 69 53 70 54 74 55
REMARK SMILES IDX 77 56 71 57 72 58 75 59 73 60 52 61 53 62 61 63 54 64 55 65
REMARK SMILES IDX 59 66 62 67 56 68 57 69 60 70 58 71 6 72 7 73 8 74 9 75
REMARK SMILES IDX 10 77 11 78 12 79 19 80 13 81 18 82 14 84 17 85 15 86 16 87
REMARK SMILES IDX 20 88 21 89 22 90 25 91 23 92 24 93
REMARK H PARENT 3 6 82 24 50 35 8 76 19 83
REMARK Flexibility Score: inf
ROOT
ATOM      1  C   UNL A   1      31.491  31.970  26.844  1.00  0.00     0.023 C 
ENDROOT
BRANCH   1   2
ATOM      2  C   UNL A   1      32.684  32.816  27.269  1.00  0.00     0.116 C 
BRANCH   2   3
ATOM      3  N   UNL A   1      32.332  34.179  27.640  1.00  0.00    -0.352 N 
ATOM      4  O   UNL A   1      32.491  36.094  28.834  1.00  0.00    -0.269 OA
ATOM      5  C   UNL A   1      32.947  34.990  28.562  1.00  0.00     0.251 C 
ATOM      6  H   UNL A   1      31.558  34.567  27.172  1.00  0.00     0.163 HD
BRANCH   5   7
ATOM      7  C   UNL A   1      34.146  34.487  29.256  1.00  0.00     0.039 A 
ATOM      8  C   UNL A   1      35.415  34.661  28.697  1.00  0.00     0.014 A 
ATOM      9  C   UNL A   1      33.981  33.791  30.455  1.00  0.00     0.014 A 
ATOM     10  C   UNL A   1      36.511  34.035  29.277  1.00  0.00     0.010 A 
ATOM     11  C   UNL A   1      35.093  33.216  31.069  1.00  0.00     0.010 A 
ATOM     12  C   UNL A   1      36.358  33.310  30.467  1.00  0.00    -0.014 A 
BRANCH  12  13
ATOM     13  C   UNL A   1      37.532  32.680  31.111  1.00  0.00     0.031 A 
ATOM     14  C   UNL A   1      38.259  31.556  30.438  1.00  0.00     0.074 A 
ATOM     15  C   UNL A   1      37.913  33.111  32.326  1.00  0.00     0.049 A 
ATOM     16  N   UNL A   1      39.232  30.809  30.895  1.00  0.00    -0.248 NA
ATOM     17  C   UNL A   1      37.829  31.216  29.072  1.00  0.00     0.031 C 
ATOM     18  C   UNL A   1      37.277  34.201  33.067  1.00  0.00     0.029 A 
ATOM     19  N   UNL A   1      38.911  32.675  33.158  1.00  0.00    -0.354 N 
ATOM     20  C   UNL A   1      39.512  29.895  29.888  1.00  0.00     0.074 A 
ATOM     21  C   UNL A   1      38.598  30.171  28.799  1.00  0.00     0.031 C 
ATOM     22  C   UNL A   1      37.899  34.350  34.245  1.00  0.00     0.029 A 
ATOM     23  C   UNL A   1      38.936  33.330  34.363  1.00  0.00     0.049 A 
ATOM     24  H   UNL A   1      39.546  31.964  32.914  1.00  0.00     0.167 HD
ATOM     25  C   UNL A   1      40.448  28.917  29.882  1.00  0.00     0.037 A 
ATOM     26  C   UNL A   1      39.686  33.108  35.458  1.00  0.00     0.037 A 
ATOM     27  C   UNL A   1      41.362  28.665  30.967  1.00  0.00     0.049 A 
ATOM     28  C   UNL A   1      40.700  32.003  35.436  1.00  0.00     0.074 A 
ATOM     29  C   UNL A   1      42.377  27.728  31.043  1.00  0.00     0.029 A 
ATOM     30  N   UNL A   1      41.363  29.354  32.172  1.00  0.00    -0.354 N 
ATOM     31  N   UNL A   1      40.975  31.157  34.474  1.00  0.00    -0.248 NA
ATOM     32  C   UNL A   1      41.503  31.818  36.650  1.00  0.00     0.031 C 
ATOM     33  C   UNL A   1      42.964  27.822  32.309  1.00  0.00     0.029 A 
ATOM     34  C   UNL A   1      42.346  28.848  33.007  1.00  0.00     0.049 A 
ATOM     35  H   UNL A   1      40.754  30.094  32.401  1.00  0.00     0.167 HD
ATOM     36  C   UNL A   1      41.996  30.353  34.954  1.00  0.00     0.074 A 
ATOM     37  C   UNL A   1      42.295  30.814  36.295  1.00  0.00     0.031 C 
ATOM     38  C   UNL A   1      42.630  29.325  34.336  1.00  0.00     0.037 A 
BRANCH  25  39
ATOM     39  C   UNL A   1      40.511  28.025  28.676  1.00  0.00     0.064 A 
ATOM     40  C   UNL A   1      41.272  28.360  27.547  1.00  0.00     0.173 A 
ATOM     41  C   UNL A   1      39.819  26.805  28.663  1.00  0.00     0.173 A 
ATOM     42  F   UNL A   1      41.942  29.521  27.503  1.00  0.00    -0.203 F 
ATOM     43  C   UNL A   1      41.312  27.521  26.436  1.00  0.00     0.198 A 
ATOM     44  C   UNL A   1      39.883  25.955  27.561  1.00  0.00     0.198 A 
ATOM     45  F   UNL A   1      39.082  26.433  29.719  1.00  0.00    -0.203 F 
ATOM     46  F   UNL A   1      42.006  27.884  25.348  1.00  0.00    -0.200 F 
ATOM     47  C   UNL A   1      40.623  26.317  26.445  1.00  0.00     0.200 A 
ATOM     48  F   UNL A   1      39.224  24.788  27.577  1.00  0.00    -0.200 F 
ATOM     49  F   UNL A   1      40.663  25.510  25.376  1.00  0.00    -0.200 F 
ENDBRANCH  25  39
BRANCH  26  50
ATOM     50  C   UNL A   1      39.476  33.957  36.656  1.00  0.00     0.064 A 
ATOM     51  C   UNL A   1      38.690  33.512  37.724  1.00  0.00     0.173 A 
ATOM     52  C   UNL A   1      40.120  35.197  36.784  1.00  0.00     0.173 A 
ATOM     53  F   UNL A   1      38.046  32.339  37.639  1.00  0.00    -0.203 F 
ATOM     54  C   UNL A   1      38.557  34.276  38.881  1.00  0.00     0.198 A 
ATOM     55  C   UNL A   1      40.006  35.948  37.950  1.00  0.00     0.198 A 
ATOM     56  F   UNL A   1      40.893  35.659  35.789  1.00  0.00    -0.203 F 
ATOM     57  F   UNL A   1      37.786  33.836  39.886  1.00  0.00    -0.200 F 
ATOM     58  C   UNL A   1      39.222  35.487  38.998  1.00  0.00     0.200 A 
ATOM     59  F   UNL A   1      40.666  37.108  38.066  1.00  0.00    -0.200 F 
ATOM     60  F   UNL A   1      39.111  36.210  40.120  1.00  0.00    -0.200 F 
ENDBRANCH  26  50
BRANCH  38  61
ATOM     61  C   UNL A   1      43.735  28.650  35.091  1.00  0.00     0.064 A 
ATOM     62  C   UNL A   1      43.484  27.569  35.947  1.00  0.00     0.173 A 
ATOM     63  C   UNL A   1      45.065  29.054  34.907  1.00  0.00     0.173 A 
ATOM     64  F   UNL A   1      42.225  27.159  36.166  1.00  0.00    -0.203 F 
ATOM     65  C   UNL A   1      44.527  26.921  36.601  1.00  0.00     0.198 A 
ATOM     66  C   UNL A   1      46.108  28.389  35.545  1.00  0.00     0.198 A 
ATOM     67  F   UNL A   1      45.354  30.081  34.095  1.00  0.00    -0.203 F 
ATOM     68  F   UNL A   1      44.264  25.908  37.439  1.00  0.00    -0.200 F 
ATOM     69  C   UNL A   1      45.838  27.326  36.394  1.00  0.00     0.200 A 
ATOM     70  F   UNL A   1      47.374  28.775  35.336  1.00  0.00    -0.200 F 
ATOM     71  F   UNL A   1      46.843  26.692  37.015  1.00  0.00    -0.200 F 
ENDBRANCH  38  61
ENDBRANCH  12  13
ENDBRANCH   5   7
ENDBRANCH   2   3
ENDBRANCH   1   2
BRANCH   1  72
ATOM     72  C   UNL A   1      31.852  30.608  26.256  1.00  0.00     0.023 C 
BRANCH  72  73
ATOM     73  C   UNL A   1      32.287  29.558  27.281  1.00  0.00     0.116 C 
BRANCH  73  74
ATOM     74  N   UNL A   1      31.487  28.355  27.212  1.00  0.00    -0.351 N 
ATOM     75  C   UNL A   1      31.588  27.238  26.441  1.00  0.00     0.278 C 
ATOM     76  H   UNL A   1      30.727  28.342  27.839  1.00  0.00     0.163 HD
ATOM     77  O   UNL A   1      30.772  26.341  26.698  1.00  0.00    -0.268 OA
BRANCH  75  78
ATOM     78  C   UNL A   1      32.546  27.064  25.242  1.00  0.00     0.275 C 
ATOM     79  C   UNL A   1      33.823  26.291  25.612  1.00  0.00     0.085 C 
ATOM     80  N   UNL A   1      31.946  26.370  24.062  1.00  0.00    -0.316 N 
ATOM     81  C   UNL A   1      34.103  25.446  24.377  1.00  0.00     0.054 C 
ATOM     82  C   UNL A   1      32.699  25.125  23.891  1.00  0.00     0.188 C 
ATOM     83  H   UNL A   1      30.969  26.121  24.215  1.00  0.00     0.349 HD
ATOM     84  C   UNL A   1      34.904  24.169  24.591  1.00  0.00     0.010 C 
ATOM     85  C   UNL A   1      32.674  24.326  22.593  1.00  0.00     0.065 C 
ATOM     86  C   UNL A   1      34.924  23.346  23.296  1.00  0.00     0.001 C 
ATOM     87  C   UNL A   1      33.516  23.053  22.761  1.00  0.00     0.006 C 
BRANCH  80  88
ATOM     88  C   UNL A   1      31.778  27.239  22.885  1.00  0.00     0.342 C 
BRANCH  88  89
ATOM     89  C   UNL A   1      30.490  27.983  22.763  1.00  0.00     0.190 A 
ATOM     90  C   UNL A   1      29.323  28.041  23.489  1.00  0.00     0.075 A 
ATOM     91  O   UNL A   1      30.395  28.857  21.718  1.00  0.00    -0.355 OA
ATOM     92  C   UNL A   1      28.515  28.944  22.778  1.00  0.00     0.158 A 
ATOM     93  N   UNL A   1      29.144  29.448  21.716  1.00  0.00    -0.088 NA
ENDBRANCH  88  89
ENDBRANCH  80  88
ENDBRANCH  75  78
ENDBRANCH  73  74
ENDBRANCH  72  73
ENDBRANCH   1  72
TORSDOF 13
ENDMDL
MODEL 3
REMARK VINA RESULT:     -13.0      0.408      7.276
REMARK SMILES O=C(NCCCCNC(=O)[C@H]1C[C@H]2CCCC[C@@H]2[N@@H+]1Cc1ccno1)c1ccc(-c2c3nc(c(-c4c(F)c(F)c(F)c(F)c4F)c4ccc([nH]4)c(-c4c(F)c(F)c(F)c(F)c4F)c4nc(c(-c5c(F)c(F)c(F)c(F)c5F)c5ccc2[nH]5)C=C4)C=C3)cc1
REMARK SMILES IDX 5 1 4 2 3 3 1 4 2 5 26 7 27 8 88 9 28 10 87 11 29 12 30 13
REMARK SMILES IDX 31 14 81 15 32 16 86 17 80 18 82 19 33 20 85 21 79 22 78 23
REMARK SMILES IDX 34 25 66 26 46 27 65 28 47 29 50 30 64 31 83 32 48 33 49 34
REMARK SMILES IDX 63 36 84 37 51 38 35 39 36 40 44 41 37 42 38 43 42 44 45 45
REMARK SMILES IDX 39 46 40 47 43 48 41 49 67 50 68 51 76 52 69 53 70 54 74 55
REMARK SMILES IDX 77 56 71 57 72 58 75 59 73 60 52 61 53 62 61 63 54 64 55 65
REMARK SMILES IDX 59 66 62 67 56 68 57 69 60 70 58 71 6 72 7 73 8 74 9 75
REMARK SMILES IDX 10 77 11 78 12 79 19 80 13 81 18 82 14 84 17 85 15 86 16 87
REMARK SMILES IDX 20 88 21 89 22 90 25 91 23 92 24 93
REMARK H PARENT 3 6 82 24 50 35 8 76 19 83
REMARK Flexibility Score: inf
ROOT
ATOM      1  C   UNL A   1      31.492  32.070  26.818  1.00  0.00     0.023 C 
ENDROOT
BRANCH   1   2
ATOM      2  C   UNL A   1      32.733  32.864  27.207  1.00  0.00     0.116 C 
BRANCH   2   3
ATOM      3  N   UNL A   1      32.446  34.224  27.638  1.00  0.00    -0.352 N 
ATOM      4  O   UNL A   1      32.658  36.057  28.946  1.00  0.00    -0.269 OA
ATOM      5  C   UNL A   1      33.059  34.943  28.634  1.00  0.00     0.251 C 
ATOM      6  H   UNL A   1      31.724  34.686  27.155  1.00  0.00     0.163 HD
BRANCH   5   7
ATOM      7  C   UNL A   1      34.186  34.327  29.358  1.00  0.00     0.039 A 
ATOM      8  C   UNL A   1      35.500  34.531  28.931  1.00  0.00     0.014 A 
ATOM      9  C   UNL A   1      33.907  33.496  30.445  1.00  0.00     0.014 A 
ATOM     10  C   UNL A   1      36.533  33.810  29.518  1.00  0.00     0.010 A 
ATOM     11  C   UNL A   1      34.953  32.821  31.073  1.00  0.00     0.010 A 
ATOM     12  C   UNL A   1      36.266  32.952  30.594  1.00  0.00    -0.014 A 
BRANCH  12  13
ATOM     13  C   UNL A   1      37.369  32.216  31.250  1.00  0.00     0.031 A 
ATOM     14  C   UNL A   1      37.835  32.604  32.621  1.00  0.00     0.074 A 
ATOM     15  C   UNL A   1      37.970  31.218  30.580  1.00  0.00     0.049 A 
ATOM     16  N   UNL A   1      38.856  32.154  33.305  1.00  0.00    -0.248 NA
ATOM     17  C   UNL A   1      37.058  33.645  33.312  1.00  0.00     0.031 C 
ATOM     18  C   UNL A   1      37.592  30.757  29.243  1.00  0.00     0.029 A 
ATOM     19  N   UNL A   1      39.033  30.423  30.922  1.00  0.00    -0.354 N 
ATOM     20  C   UNL A   1      38.862  32.873  34.492  1.00  0.00     0.074 A 
ATOM     21  C   UNL A   1      37.751  33.800  34.432  1.00  0.00     0.031 C 
ATOM     22  C   UNL A   1      38.410  29.761  28.876  1.00  0.00     0.029 A 
ATOM     23  C   UNL A   1      39.402  29.554  29.926  1.00  0.00     0.049 A 
ATOM     24  H   UNL A   1      39.485  30.470  31.795  1.00  0.00     0.167 HD
ATOM     25  C   UNL A   1      39.721  32.764  35.533  1.00  0.00     0.037 A 
ATOM     26  C   UNL A   1      40.448  28.712  29.851  1.00  0.00     0.037 A 
ATOM     27  C   UNL A   1      40.812  31.825  35.586  1.00  0.00     0.049 A 
ATOM     28  C   UNL A   1      41.401  28.626  31.006  1.00  0.00     0.074 A 
ATOM     29  C   UNL A   1      41.713  31.603  36.613  1.00  0.00     0.029 A 
ATOM     30  N   UNL A   1      41.153  30.954  34.560  1.00  0.00    -0.354 N 
ATOM     31  N   UNL A   1      41.388  29.293  32.135  1.00  0.00    -0.248 NA
ATOM     32  C   UNL A   1      42.514  27.677  30.878  1.00  0.00     0.031 C 
ATOM     33  C   UNL A   1      42.624  30.629  36.191  1.00  0.00     0.029 A 
ATOM     34  C   UNL A   1      42.265  30.210  34.919  1.00  0.00     0.049 A 
ATOM     35  H   UNL A   1      40.675  30.877  33.702  1.00  0.00     0.167 HD
ATOM     36  C   UNL A   1      42.475  28.831  32.862  1.00  0.00     0.074 A 
ATOM     37  C   UNL A   1      43.124  27.825  32.047  1.00  0.00     0.031 C 
ATOM     38  C   UNL A   1      42.892  29.209  34.095  1.00  0.00     0.037 A 
BRANCH  25  39
ATOM     39  C   UNL A   1      39.534  33.705  36.688  1.00  0.00     0.064 A 
ATOM     40  C   UNL A   1      40.099  34.988  36.696  1.00  0.00     0.173 A 
ATOM     41  C   UNL A   1      38.758  33.323  37.793  1.00  0.00     0.173 A 
ATOM     42  F   UNL A   1      40.861  35.398  35.670  1.00  0.00    -0.203 F 
ATOM     43  C   UNL A   1      39.918  35.844  37.780  1.00  0.00     0.198 A 
ATOM     44  C   UNL A   1      38.557  34.191  38.863  1.00  0.00     0.198 A 
ATOM     45  F   UNL A   1      38.191  32.109  37.833  1.00  0.00    -0.203 F 
ATOM     46  F   UNL A   1      40.507  37.048  37.788  1.00  0.00    -0.200 F 
ATOM     47  C   UNL A   1      39.144  35.447  38.861  1.00  0.00     0.200 A 
ATOM     48  F   UNL A   1      37.800  33.808  39.901  1.00  0.00    -0.200 F 
ATOM     49  F   UNL A   1      38.970  36.271  39.903  1.00  0.00    -0.200 F 
ENDBRANCH  25  39
BRANCH  26  50
ATOM     50  C   UNL A   1      40.633  27.904  28.621  1.00  0.00     0.064 A 
ATOM     51  C   UNL A   1      39.991  26.671  28.468  1.00  0.00     0.173 A 
ATOM     52  C   UNL A   1      41.396  28.387  27.547  1.00  0.00     0.173 A 
ATOM     53  F   UNL A   1      39.263  26.165  29.473  1.00  0.00    -0.203 F 
ATOM     54  C   UNL A   1      40.103  25.949  27.282  1.00  0.00     0.198 A 
ATOM     55  C   UNL A   1      41.487  27.676  26.354  1.00  0.00     0.198 A 
ATOM     56  F   UNL A   1      42.020  29.571  27.645  1.00  0.00    -0.203 F 
ATOM     57  F   UNL A   1      39.491  24.762  27.163  1.00  0.00    -0.200 F 
ATOM     58  C   UNL A   1      40.841  26.456  26.223  1.00  0.00     0.200 A 
ATOM     59  F   UNL A   1      42.185  28.179  25.327  1.00  0.00    -0.200 F 
ATOM     60  F   UNL A   1      40.929  25.771  25.075  1.00  0.00    -0.200 F 
ENDBRANCH  26  50
BRANCH  38  61
ATOM     61  C   UNL A   1      44.092  28.505  34.656  1.00  0.00     0.064 A 
ATOM     62  C   UNL A   1      45.384  29.026  34.506  1.00  0.00     0.173 A 
ATOM     63  C   UNL A   1      43.934  27.328  35.403  1.00  0.00     0.173 A 
ATOM     64  F   UNL A   1      45.583  30.141  33.786  1.00  0.00    -0.203 F 
ATOM     65  C   UNL A   1      46.480  28.387  35.077  1.00  0.00     0.198 A 
ATOM     66  C   UNL A   1      45.030  26.704  35.990  1.00  0.00     0.198 A 
ATOM     67  F   UNL A   1      42.716  26.794  35.575  1.00  0.00    -0.203 F 
ATOM     68  F   UNL A   1      47.712  28.884  34.897  1.00  0.00    -0.200 F 
ATOM     69  C   UNL A   1      46.303  27.231  35.824  1.00  0.00     0.200 A 
ATOM     70  F   UNL A   1      44.855  25.593  36.720  1.00  0.00    -0.200 F 
ATOM     71  F   UNL A   1      47.358  26.624  36.384  1.00  0.00    -0.200 F 
ENDBRANCH  38  61
ENDBRANCH  12  13
ENDBRANCH   5   7
ENDBRANCH   2   3
ENDBRANCH   1   2
BRANCH   1  72
ATOM     72  C   UNL A   1      31.777  30.697  26.213  1.00  0.00     0.023 C 
BRANCH  72  73
ATOM     73  C   UNL A   1      32.290  29.650  27.203  1.00  0.00     0.116 C 
BRANCH  73  74
ATOM     74  N   UNL A   1      31.508  28.433  27.174  1.00  0.00    -0.351 N 
ATOM     75  C   UNL A   1      31.616  27.300  26.427  1.00  0.00     0.278 C 
ATOM     76  H   UNL A   1      30.758  28.423  27.813  1.00  0.00     0.163 HD
ATOM     77  O   UNL A   1      30.818  26.397  26.717  1.00  0.00    -0.268 OA
BRANCH  75  78
ATOM     78  C   UNL A   1      32.559  27.114  25.218  1.00  0.00     0.275 C 
ATOM     79  C   UNL A   1      33.853  26.370  25.586  1.00  0.00     0.085 C 
ATOM     80  N   UNL A   1      31.953  26.383  24.064  1.00  0.00    -0.316 N 
ATOM     81  C   UNL A   1      34.129  25.501  24.367  1.00  0.00     0.054 C 
ATOM     82  C   UNL A   1      32.724  25.147  23.910  1.00  0.00     0.188 C 
ATOM     83  H   UNL A   1      30.983  26.122  24.237  1.00  0.00     0.349 HD
ATOM     84  C   UNL A   1      34.954  24.242  24.598  1.00  0.00     0.010 C 
ATOM     85  C   UNL A   1      32.693  24.318  22.631  1.00  0.00     0.065 C 
ATOM     86  C   UNL A   1      34.968  23.389  23.323  1.00  0.00     0.001 C 
ATOM     87  C   UNL A   1      33.558  23.062  22.816  1.00  0.00     0.006 C 
BRANCH  80  88
ATOM     88  C   UNL A   1      31.754  27.221  22.870  1.00  0.00     0.342 C 
BRANCH  88  89
ATOM     89  C   UNL A   1      30.451  27.939  22.748  1.00  0.00     0.190 A 
ATOM     90  C   UNL A   1      29.242  27.887  23.403  1.00  0.00     0.075 A 
ATOM     91  O   UNL A   1      30.388  28.918  21.798  1.00  0.00    -0.355 OA
ATOM     92  C   UNL A   1      28.447  28.839  22.744  1.00  0.00     0.158 A 
ATOM     93  N   UNL A   1      29.120  29.472  21.782  1.00  0.00    -0.088 NA
ENDBRANCH  88  89
ENDBRANCH  80  88
ENDBRANCH  75  78
ENDBRANCH  73  74
ENDBRANCH  72  73
ENDBRANCH   1  72
TORSDOF 13
ENDMDL
