MODEL 1
REMARK VINA RESULT:     -12.6      0.000      0.000
REMARK SMILES COc1ccc(C(=O)N2CCC[C@H](C(=O)NCCCCNC(=O)c3ccc(-c4c5nc(c(-c6c(F)c(F)c(F)c(F)c6F)c6ccc([nH]6)c(-c6c(F)c(F)c(F)c(F)c6F)c6nc(c(-c7c(F)c(F)c(F)c(F)c7F)c7ccc4[nH]7)C=C6)C=C5)cc3)C2)cc1
REMARK SMILES IDX 18 1 17 2 16 3 14 4 15 5 13 7 9 8 10 9 87 10 11 11 12 12
REMARK SMILES IDX 7 13 8 14 6 15 3 16 4 17 89 18 5 19 88 20 2 21 1 22 19 23
REMARK SMILES IDX 20 24 21 25 22 26 23 28 24 29 25 30 86 31 26 32 85 33 27 34
REMARK SMILES IDX 28 35 29 36 79 37 30 38 84 39 78 40 80 41 31 42 83 43 77 44
REMARK SMILES IDX 76 45 32 47 64 48 44 49 63 50 45 51 48 52 62 53 81 54 46 55
REMARK SMILES IDX 47 56 61 58 82 59 49 60 33 61 34 62 42 63 35 64 36 65 40 66
REMARK SMILES IDX 43 67 37 68 38 69 41 70 39 71 65 72 66 73 74 74 67 75 68 76
REMARK SMILES IDX 72 77 75 78 69 79 70 80 73 81 71 82 50 83 51 84 59 85 52 86
REMARK SMILES IDX 53 87 57 88 60 89 54 90 55 91 58 92 56 93
REMARK H PARENT 16 6 21 27 80 46 48 57
REMARK Flexibility Score: inf
ROOT
ATOM      1  C   UNL A   1      32.305  30.115  27.082  1.00  0.00     0.023 C 
ENDROOT
BRANCH   1   2
ATOM      2  C   UNL A   1      33.724  29.575  26.936  1.00  0.00     0.116 C 
BRANCH   2   3
ATOM      3  N   UNL A   1      33.978  28.960  25.655  1.00  0.00    -0.356 N 
ATOM      4  C   UNL A   1      33.644  27.731  25.184  1.00  0.00     0.224 C 
ATOM      5  O   UNL A   1      33.840  27.537  23.978  1.00  0.00    -0.275 OA
ATOM      6  H   UNL A   1      34.476  29.523  25.019  1.00  0.00     0.163 HD
BRANCH   4   7
ATOM      7  C   UNL A   1      33.092  26.589  26.047  1.00  0.00     0.098 C 
ATOM      8  N   UNL A   1      32.720  24.367  24.932  1.00  0.00    -0.338 N 
ATOM      9  C   UNL A   1      31.305  24.369  25.277  1.00  0.00     0.120 C 
ATOM     10  C   UNL A   1      33.626  25.184  25.735  1.00  0.00     0.133 C 
ATOM     11  C   UNL A   1      30.726  25.766  25.416  1.00  0.00     0.022 C 
ATOM     12  C   UNL A   1      31.580  26.672  26.294  1.00  0.00     0.017 C 
BRANCH   8  13
ATOM     13  C   UNL A   1      33.139  23.631  23.827  1.00  0.00     0.253 C 
ATOM     14  O   UNL A   1      32.476  23.562  22.795  1.00  0.00    -0.269 OA
BRANCH  13  15
ATOM     15  C   UNL A   1      34.371  22.806  23.949  1.00  0.00     0.040 A 
ATOM     16  C   UNL A   1      36.765  21.535  24.619  1.00  0.00     0.118 A 
ATOM     17  C   UNL A   1      35.554  21.016  25.076  1.00  0.00     0.047 A 
ATOM     18  C   UNL A   1      36.782  22.635  23.763  1.00  0.00     0.047 A 
ATOM     19  C   UNL A   1      34.356  21.661  24.756  1.00  0.00     0.017 A 
ATOM     20  C   UNL A   1      35.588  23.279  23.439  1.00  0.00     0.017 A 
BRANCH  16  21
ATOM     21  O   UNL A   1      37.911  20.921  25.047  1.00  0.00    -0.497 OA
ATOM     22  C   UNL A   1      38.716  21.792  25.844  1.00  0.00     0.278 C 
ENDBRANCH  16  21
ENDBRANCH  13  15
ENDBRANCH   8  13
ENDBRANCH   4   7
ENDBRANCH   2   3
ENDBRANCH   1   2
BRANCH   1  23
ATOM     23  C   UNL A   1      32.153  31.598  26.767  1.00  0.00     0.023 C 
BRANCH  23  24
ATOM     24  C   UNL A   1      33.053  32.532  27.571  1.00  0.00     0.116 C 
BRANCH  24  25
ATOM     25  N   UNL A   1      32.550  33.890  27.723  1.00  0.00    -0.352 N 
ATOM     26  C   UNL A   1      33.026  34.874  28.567  1.00  0.00     0.251 C 
ATOM     27  H   UNL A   1      31.780  34.135  27.160  1.00  0.00     0.163 HD
ATOM     28  O   UNL A   1      32.473  35.957  28.672  1.00  0.00    -0.269 OA
BRANCH  26  29
ATOM     29  C   UNL A   1      34.216  34.566  29.388  1.00  0.00     0.039 A 
ATOM     30  C   UNL A   1      34.040  34.137  30.704  1.00  0.00     0.014 A 
ATOM     31  C   UNL A   1      35.486  34.589  28.806  1.00  0.00     0.014 A 
ATOM     32  C   UNL A   1      35.133  33.630  31.409  1.00  0.00     0.010 A 
ATOM     33  C   UNL A   1      36.554  34.009  29.480  1.00  0.00     0.010 A 
ATOM     34  C   UNL A   1      36.385  33.512  30.782  1.00  0.00    -0.014 A 
BRANCH  34  35
ATOM     35  C   UNL A   1      37.528  32.842  31.452  1.00  0.00     0.031 A 
ATOM     36  C   UNL A   1      38.204  31.674  30.793  1.00  0.00     0.074 A 
ATOM     37  C   UNL A   1      37.882  33.211  32.698  1.00  0.00     0.049 A 
ATOM     38  N   UNL A   1      39.140  30.887  31.260  1.00  0.00    -0.248 NA
ATOM     39  C   UNL A   1      37.735  31.317  29.445  1.00  0.00     0.031 C 
ATOM     40  C   UNL A   1      37.248  34.276  33.478  1.00  0.00     0.029 A 
ATOM     41  N   UNL A   1      38.848  32.715  33.538  1.00  0.00    -0.354 N 
ATOM     42  C   UNL A   1      39.344  29.926  30.281  1.00  0.00     0.074 A 
ATOM     43  C   UNL A   1      38.405  30.199  29.214  1.00  0.00     0.031 C 
ATOM     44  C   UNL A   1      37.851  34.363  34.675  1.00  0.00     0.029 A 
ATOM     45  C   UNL A   1      38.892  33.343  34.758  1.00  0.00     0.049 A 
ATOM     46  H   UNL A   1      39.452  31.979  33.288  1.00  0.00     0.167 HD
ATOM     47  C   UNL A   1      40.249  28.919  30.263  1.00  0.00     0.037 A 
ATOM     48  C   UNL A   1      39.680  33.117  35.827  1.00  0.00     0.037 A 
ATOM     49  C   UNL A   1      41.216  28.682  31.300  1.00  0.00     0.049 A 
ATOM     50  C   UNL A   1      40.719  32.033  35.759  1.00  0.00     0.074 A 
ATOM     51  C   UNL A   1      42.245  27.757  31.327  1.00  0.00     0.029 A 
ATOM     52  N   UNL A   1      41.274  29.381  32.496  1.00  0.00    -0.354 N 
ATOM     53  N   UNL A   1      40.968  31.188  34.789  1.00  0.00    -0.248 NA
ATOM     54  C   UNL A   1      41.594  31.877  36.930  1.00  0.00     0.031 C 
ATOM     55  C   UNL A   1      42.905  27.873  32.555  1.00  0.00     0.029 A 
ATOM     56  C   UNL A   1      42.310  28.896  33.278  1.00  0.00     0.049 A 
ATOM     57  H   UNL A   1      40.669  30.113  32.753  1.00  0.00     0.167 HD
ATOM     58  C   UNL A   1      42.036  30.414  35.220  1.00  0.00     0.074 A 
ATOM     59  C   UNL A   1      42.398  30.899  36.536  1.00  0.00     0.031 C 
ATOM     60  C   UNL A   1      42.658  29.392  34.584  1.00  0.00     0.037 A 
BRANCH  47  61
ATOM     61  C   UNL A   1      40.235  28.001  29.076  1.00  0.00     0.064 A 
ATOM     62  C   UNL A   1      40.934  28.310  27.899  1.00  0.00     0.173 A 
ATOM     63  C   UNL A   1      39.525  26.792  29.122  1.00  0.00     0.173 A 
ATOM     64  F   UNL A   1      41.618  29.460  27.801  1.00  0.00    -0.203 F 
ATOM     65  C   UNL A   1      40.893  27.458  26.798  1.00  0.00     0.198 A 
ATOM     66  C   UNL A   1      39.511  25.930  28.029  1.00  0.00     0.198 A 
ATOM     67  F   UNL A   1      38.845  26.448  30.224  1.00  0.00    -0.203 F 
ATOM     68  F   UNL A   1      41.522  27.801  25.665  1.00  0.00    -0.200 F 
ATOM     69  C   UNL A   1      40.186  26.267  26.865  1.00  0.00     0.200 A 
ATOM     70  F   UNL A   1      38.837  24.773  28.098  1.00  0.00    -0.200 F 
ATOM     71  F   UNL A   1      40.148  25.449  25.805  1.00  0.00    -0.200 F 
ENDBRANCH  47  61
BRANCH  48  72
ATOM     72  C   UNL A   1      39.536  33.962  37.039  1.00  0.00     0.064 A 
ATOM     73  C   UNL A   1      40.124  35.233  37.103  1.00  0.00     0.173 A 
ATOM     74  C   UNL A   1      38.794  33.528  38.148  1.00  0.00     0.173 A 
ATOM     75  F   UNL A   1      40.858  35.682  36.074  1.00  0.00    -0.203 F 
ATOM     76  C   UNL A   1      39.988  36.033  38.235  1.00  0.00     0.198 A 
ATOM     77  C   UNL A   1      38.640  34.339  39.270  1.00  0.00     0.198 A 
ATOM     78  F   UNL A   1      38.206  32.322  38.132  1.00  0.00    -0.203 F 
ATOM     79  F   UNL A   1      40.589  37.230  38.283  1.00  0.00    -0.200 F 
ATOM     80  C   UNL A   1      39.241  35.589  39.315  1.00  0.00     0.200 A 
ATOM     81  F   UNL A   1      37.907  33.911  40.308  1.00  0.00    -0.200 F 
ATOM     82  F   UNL A   1      39.103  36.361  40.401  1.00  0.00    -0.200 F 
ENDBRANCH  48  72
BRANCH  60  83
ATOM     83  C   UNL A   1      43.811  28.743  35.290  1.00  0.00     0.064 A 
ATOM     84  C   UNL A   1      43.615  27.686  36.190  1.00  0.00     0.173 A 
ATOM     85  C   UNL A   1      45.127  29.147  35.022  1.00  0.00     0.173 A 
ATOM     86  F   UNL A   1      42.373  27.275  36.490  1.00  0.00    -0.203 F 
ATOM     87  C   UNL A   1      44.697  27.067  36.810  1.00  0.00     0.198 A 
ATOM     88  C   UNL A   1      46.208  28.510  35.626  1.00  0.00     0.198 A 
ATOM     89  F   UNL A   1      45.365  30.150  34.164  1.00  0.00    -0.203 F 
ATOM     90  F   UNL A   1      44.486  26.083  37.696  1.00  0.00    -0.200 F 
ATOM     91  C   UNL A   1      45.991  27.474  36.522  1.00  0.00     0.200 A 
ATOM     92  F   UNL A   1      47.457  28.898  35.338  1.00  0.00    -0.200 F 
ATOM     93  F   UNL A   1      47.032  26.871  37.114  1.00  0.00    -0.200 F 
ENDBRANCH  60  83
ENDBRANCH  34  35
ENDBRANCH  26  29
ENDBRANCH  24  25
ENDBRANCH  23  24
ENDBRANCH   1  23
TORSDOF 14
ENDMDL
MODEL 2
REMARK VINA RESULT:     -12.6      1.779      8.069
REMARK SMILES COc1ccc(C(=O)N2CCC[C@H](C(=O)NCCCCNC(=O)c3ccc(-c4c5nc(c(-c6c(F)c(F)c(F)c(F)c6F)c6ccc([nH]6)c(-c6c(F)c(F)c(F)c(F)c6F)c6nc(c(-c7c(F)c(F)c(F)c(F)c7F)c7ccc4[nH]7)C=C6)C=C5)cc3)C2)cc1
REMARK SMILES IDX 18 1 17 2 16 3 14 4 15 5 13 7 9 8 10 9 87 10 11 11 12 12
REMARK SMILES IDX 7 13 8 14 6 15 3 16 4 17 89 18 5 19 88 20 2 21 1 22 19 23
REMARK SMILES IDX 20 24 21 25 22 26 23 28 24 29 25 30 86 31 26 32 85 33 27 34
REMARK SMILES IDX 28 35 29 36 79 37 30 38 84 39 78 40 80 41 31 42 83 43 77 44
REMARK SMILES IDX 76 45 32 47 64 48 44 49 63 50 45 51 48 52 62 53 81 54 46 55
REMARK SMILES IDX 47 56 61 58 82 59 49 60 33 61 34 62 42 63 35 64 36 65 40 66
REMARK SMILES IDX 43 67 37 68 38 69 41 70 39 71 65 72 66 73 74 74 67 75 68 76
REMARK SMILES IDX 72 77 75 78 69 79 70 80 73 81 71 82 50 83 51 84 59 85 52 86
REMARK SMILES IDX 53 87 57 88 60 89 54 90 55 91 58 92 56 93
REMARK H PARENT 16 6 21 27 80 46 48 57
REMARK Flexibility Score: inf
ROOT
ATOM      1  C   UNL A   1      32.269  30.653  26.157  1.00  0.00     0.023 C 
ENDROOT
BRANCH   1   2
ATOM      2  C   UNL A   1      32.619  29.480  27.068  1.00  0.00     0.116 C 
BRANCH   2   3
ATOM      3  N   UNL A   1      31.618  28.440  27.080  1.00  0.00    -0.356 N 
ATOM      4  C   UNL A   1      31.671  27.158  26.637  1.00  0.00     0.224 C 
ATOM      5  O   UNL A   1      30.712  26.437  26.938  1.00  0.00    -0.275 OA
ATOM      6  H   UNL A   1      30.755  28.704  27.474  1.00  0.00     0.163 HD
BRANCH   4   7
ATOM      7  C   UNL A   1      32.800  26.582  25.772  1.00  0.00     0.098 C 
ATOM      8  N   UNL A   1      32.314  26.195  23.337  1.00  0.00    -0.338 N 
ATOM      9  C   UNL A   1      32.626  24.777  23.443  1.00  0.00     0.120 C 
ATOM     10  C   UNL A   1      32.883  27.103  24.331  1.00  0.00     0.133 C 
ATOM     11  C   UNL A   1      32.378  24.214  24.832  1.00  0.00     0.022 C 
ATOM     12  C   UNL A   1      32.994  25.069  25.932  1.00  0.00     0.017 C 
BRANCH   8  13
ATOM     13  C   UNL A   1      31.453  26.618  22.328  1.00  0.00     0.253 C 
ATOM     14  O   UNL A   1      31.562  26.230  21.167  1.00  0.00    -0.269 OA
BRANCH  13  15
ATOM     15  C   UNL A   1      30.446  27.665  22.646  1.00  0.00     0.040 A 
ATOM     16  C   UNL A   1      28.322  29.472  22.797  1.00  0.00     0.118 A 
ATOM     17  C   UNL A   1      28.210  28.220  23.399  1.00  0.00     0.047 A 
ATOM     18  C   UNL A   1      29.517  29.859  22.193  1.00  0.00     0.047 A 
ATOM     19  C   UNL A   1      29.265  27.307  23.309  1.00  0.00     0.017 A 
ATOM     20  C   UNL A   1      30.574  28.952  22.105  1.00  0.00     0.017 A 
BRANCH  16  21
ATOM     21  O   UNL A   1      27.221  30.285  22.831  1.00  0.00    -0.497 OA
ATOM     22  C   UNL A   1      27.411  31.400  23.705  1.00  0.00     0.278 C 
ENDBRANCH  16  21
ENDBRANCH  13  15
ENDBRANCH   8  13
ENDBRANCH   4   7
ENDBRANCH   2   3
ENDBRANCH   1   2
BRANCH   1  23
ATOM     23  C   UNL A   1      31.783  31.900  26.886  1.00  0.00     0.023 C 
BRANCH  23  24
ATOM     24  C   UNL A   1      32.881  32.822  27.406  1.00  0.00     0.116 C 
BRANCH  24  25
ATOM     25  N   UNL A   1      32.457  34.188  27.682  1.00  0.00    -0.352 N 
ATOM     26  C   UNL A   1      32.976  35.056  28.622  1.00  0.00     0.251 C 
ATOM     27  H   UNL A   1      31.713  34.532  27.137  1.00  0.00     0.163 HD
ATOM     28  O   UNL A   1      32.487  36.155  28.826  1.00  0.00    -0.269 OA
BRANCH  26  29
ATOM     29  C   UNL A   1      34.132  34.599  29.423  1.00  0.00     0.039 A 
ATOM     30  C   UNL A   1      33.906  34.029  30.677  1.00  0.00     0.014 A 
ATOM     31  C   UNL A   1      35.415  34.629  28.872  1.00  0.00     0.014 A 
ATOM     32  C   UNL A   1      34.959  33.393  31.337  1.00  0.00     0.010 A 
ATOM     33  C   UNL A   1      36.440  33.926  29.492  1.00  0.00     0.010 A 
ATOM     34  C   UNL A   1      36.218  33.289  30.723  1.00  0.00    -0.014 A 
BRANCH  34  35
ATOM     35  C   UNL A   1      37.314  32.493  31.331  1.00  0.00     0.031 A 
ATOM     36  C   UNL A   1      37.827  32.844  32.698  1.00  0.00     0.074 A 
ATOM     37  C   UNL A   1      37.921  31.531  30.610  1.00  0.00     0.049 A 
ATOM     38  N   UNL A   1      38.846  32.348  33.354  1.00  0.00    -0.248 NA
ATOM     39  C   UNL A   1      37.128  33.929  33.404  1.00  0.00     0.031 C 
ATOM     40  C   UNL A   1      37.570  31.151  29.239  1.00  0.00     0.029 A 
ATOM     41  N   UNL A   1      38.978  30.711  30.920  1.00  0.00    -0.354 N 
ATOM     42  C   UNL A   1      38.928  33.081  34.528  1.00  0.00     0.074 A 
ATOM     43  C   UNL A   1      37.888  34.086  34.477  1.00  0.00     0.031 C 
ATOM     44  C   UNL A   1      38.385  30.164  28.834  1.00  0.00     0.029 A 
ATOM     45  C   UNL A   1      39.334  29.862  29.902  1.00  0.00     0.049 A 
ATOM     46  H   UNL A   1      39.436  30.730  31.791  1.00  0.00     0.167 HD
ATOM     47  C   UNL A   1      39.782  32.917  35.567  1.00  0.00     0.037 A 
ATOM     48  C   UNL A   1      40.319  28.947  29.834  1.00  0.00     0.037 A 
ATOM     49  C   UNL A   1      40.779  31.884  35.639  1.00  0.00     0.049 A 
ATOM     50  C   UNL A   1      41.215  28.740  31.024  1.00  0.00     0.074 A 
ATOM     51  C   UNL A   1      41.619  31.566  36.691  1.00  0.00     0.029 A 
ATOM     52  N   UNL A   1      41.070  30.998  34.612  1.00  0.00    -0.354 N 
ATOM     53  N   UNL A   1      41.225  29.377  32.170  1.00  0.00    -0.248 NA
ATOM     54  C   UNL A   1      42.229  27.682  30.917  1.00  0.00     0.031 C 
ATOM     55  C   UNL A   1      42.442  30.508  36.289  1.00  0.00     0.029 A 
ATOM     56  C   UNL A   1      42.089  30.144  34.999  1.00  0.00     0.049 A 
ATOM     57  H   UNL A   1      40.619  30.979  33.737  1.00  0.00     0.167 HD
ATOM     58  C   UNL A   1      42.228  28.788  32.926  1.00  0.00     0.074 A 
ATOM     59  C   UNL A   1      42.798  27.732  32.114  1.00  0.00     0.031 C 
ATOM     60  C   UNL A   1      42.641  29.096  34.179  1.00  0.00     0.037 A 
BRANCH  47  61
ATOM     61  C   UNL A   1      39.664  33.877  36.713  1.00  0.00     0.064 A 
ATOM     62  C   UNL A   1      40.305  35.126  36.696  1.00  0.00     0.173 A 
ATOM     63  C   UNL A   1      38.891  33.549  37.837  1.00  0.00     0.173 A 
ATOM     64  F   UNL A   1      41.066  35.480  35.650  1.00  0.00    -0.203 F 
ATOM     65  C   UNL A   1      40.203  35.996  37.779  1.00  0.00     0.198 A 
ATOM     66  C   UNL A   1      38.770  34.435  38.904  1.00  0.00     0.198 A 
ATOM     67  F   UNL A   1      38.255  32.371  37.901  1.00  0.00    -0.203 F 
ATOM     68  F   UNL A   1      40.870  37.160  37.764  1.00  0.00    -0.200 F 
ATOM     69  C   UNL A   1      39.433  35.653  38.879  1.00  0.00     0.200 A 
ATOM     70  F   UNL A   1      38.015  34.107  39.963  1.00  0.00    -0.200 F 
ATOM     71  F   UNL A   1      39.337  36.492  39.919  1.00  0.00    -0.200 F 
ENDBRANCH  47  61
BRANCH  48  72
ATOM     72  C   UNL A   1      40.486  28.133  28.603  1.00  0.00     0.064 A 
ATOM     73  C   UNL A   1      41.292  28.584  27.549  1.00  0.00     0.173 A 
ATOM     74  C   UNL A   1      39.862  26.885  28.463  1.00  0.00     0.173 A 
ATOM     75  F   UNL A   1      41.892  29.780  27.631  1.00  0.00    -0.203 F 
ATOM     76  C   UNL A   1      41.457  27.824  26.393  1.00  0.00     0.198 A 
ATOM     77  C   UNL A   1      40.047  26.115  27.317  1.00  0.00     0.198 A 
ATOM     78  F   UNL A   1      39.087  26.408  29.449  1.00  0.00    -0.203 F 
ATOM     79  F   UNL A   1      42.205  28.292  25.386  1.00  0.00    -0.200 F 
ATOM     80  C   UNL A   1      40.839  26.586  26.281  1.00  0.00     0.200 A 
ATOM     81  F   UNL A   1      39.458  24.915  27.217  1.00  0.00    -0.200 F 
ATOM     82  F   UNL A   1      41.004  25.851  25.174  1.00  0.00    -0.200 F 
ENDBRANCH  48  72
BRANCH  60  83
ATOM     83  C   UNL A   1      43.747  28.267  34.761  1.00  0.00     0.064 A 
ATOM     84  C   UNL A   1      45.089  28.663  34.658  1.00  0.00     0.173 A 
ATOM     85  C   UNL A   1      43.458  27.096  35.475  1.00  0.00     0.173 A 
ATOM     86  F   UNL A   1      45.416  29.769  33.971  1.00  0.00    -0.203 F 
ATOM     87  C   UNL A   1      46.103  27.904  35.235  1.00  0.00     0.198 A 
ATOM     88  C   UNL A   1      44.472  26.352  36.072  1.00  0.00     0.198 A 
ATOM     89  F   UNL A   1      42.189  26.680  35.605  1.00  0.00    -0.203 F 
ATOM     90  F   UNL A   1      47.382  28.280  35.094  1.00  0.00    -0.200 F 
ATOM     91  C   UNL A   1      45.793  26.755  35.947  1.00  0.00     0.200 A 
ATOM     92  F   UNL A   1      44.170  25.248  36.768  1.00  0.00    -0.200 F 
ATOM     93  F   UNL A   1      46.770  26.030  36.510  1.00  0.00    -0.200 F 
ENDBRANCH  60  83
ENDBRANCH  34  35
ENDBRANCH  26  29
ENDBRANCH  24  25
ENDBRANCH  23  24
ENDBRANCH   1  23
TORSDOF 14
ENDMDL
MODEL 3
REMARK VINA RESULT:     -12.6      1.159      7.447
REMARK SMILES COc1ccc(C(=O)N2CCC[C@H](C(=O)NCCCCNC(=O)c3ccc(-c4c5nc(c(-c6c(F)c(F)c(F)c(F)c6F)c6ccc([nH]6)c(-c6c(F)c(F)c(F)c(F)c6F)c6nc(c(-c7c(F)c(F)c(F)c(F)c7F)c7ccc4[nH]7)C=C6)C=C5)cc3)C2)cc1
REMARK SMILES IDX 18 1 17 2 16 3 14 4 15 5 13 7 9 8 10 9 87 10 11 11 12 12
REMARK SMILES IDX 7 13 8 14 6 15 3 16 4 17 89 18 5 19 88 20 2 21 1 22 19 23
REMARK SMILES IDX 20 24 21 25 22 26 23 28 24 29 25 30 86 31 26 32 85 33 27 34
REMARK SMILES IDX 28 35 29 36 79 37 30 38 84 39 78 40 80 41 31 42 83 43 77 44
REMARK SMILES IDX 76 45 32 47 64 48 44 49 63 50 45 51 48 52 62 53 81 54 46 55
REMARK SMILES IDX 47 56 61 58 82 59 49 60 33 61 34 62 42 63 35 64 36 65 40 66
REMARK SMILES IDX 43 67 37 68 38 69 41 70 39 71 65 72 66 73 74 74 67 75 68 76
REMARK SMILES IDX 72 77 75 78 69 79 70 80 73 81 71 82 50 83 51 84 59 85 52 86
REMARK SMILES IDX 53 87 57 88 60 89 54 90 55 91 58 92 56 93
REMARK H PARENT 16 6 21 27 80 46 48 57
REMARK Flexibility Score: inf
ROOT
ATOM      1  C   UNL A   1      32.080  30.367  26.808  1.00  0.00     0.023 C 
ENDROOT
BRANCH   1   2
ATOM      2  C   UNL A   1      33.569  30.042  26.718  1.00  0.00     0.116 C 
BRANCH   2   3
ATOM      3  N   UNL A   1      33.940  29.369  25.497  1.00  0.00    -0.356 N 
ATOM      4  C   UNL A   1      33.683  28.105  25.073  1.00  0.00     0.224 C 
ATOM      5  O   UNL A   1      33.977  27.854  23.898  1.00  0.00    -0.275 OA
ATOM      6  H   UNL A   1      34.465  29.915  24.869  1.00  0.00     0.163 HD
BRANCH   4   7
ATOM      7  C   UNL A   1      33.106  26.991  25.956  1.00  0.00     0.098 C 
ATOM      8  N   UNL A   1      32.967  24.683  24.970  1.00  0.00    -0.338 N 
ATOM      9  C   UNL A   1      31.526  24.624  25.173  1.00  0.00     0.120 C 
ATOM     10  C   UNL A   1      33.742  25.603  25.799  1.00  0.00     0.133 C 
ATOM     11  C   UNL A   1      30.863  25.991  25.154  1.00  0.00     0.022 C 
ATOM     12  C   UNL A   1      31.574  27.001  26.046  1.00  0.00     0.017 C 
BRANCH   8  13
ATOM     13  C   UNL A   1      33.535  23.902  23.968  1.00  0.00     0.253 C 
ATOM     14  O   UNL A   1      34.089  24.394  22.987  1.00  0.00    -0.269 OA
BRANCH  13  15
ATOM     15  C   UNL A   1      33.358  22.427  24.030  1.00  0.00     0.040 A 
ATOM     16  C   UNL A   1      32.565  19.772  24.377  1.00  0.00     0.118 A 
ATOM     17  C   UNL A   1      32.239  20.444  23.200  1.00  0.00     0.047 A 
ATOM     18  C   UNL A   1      33.354  20.390  25.346  1.00  0.00     0.047 A 
ATOM     19  C   UNL A   1      32.620  21.778  23.032  1.00  0.00     0.017 A 
ATOM     20  C   UNL A   1      33.740  21.721  25.180  1.00  0.00     0.017 A 
BRANCH  16  21
ATOM     21  O   UNL A   1      32.080  18.501  24.528  1.00  0.00    -0.497 OA
ATOM     22  C   UNL A   1      32.772  17.787  25.555  1.00  0.00     0.278 C 
ENDBRANCH  16  21
ENDBRANCH  13  15
ENDBRANCH   8  13
ENDBRANCH   4   7
ENDBRANCH   2   3
ENDBRANCH   1   2
BRANCH   1  23
ATOM     23  C   UNL A   1      31.755  31.855  26.846  1.00  0.00     0.023 C 
BRANCH  23  24
ATOM     24  C   UNL A   1      32.847  32.747  27.430  1.00  0.00     0.116 C 
BRANCH  24  25
ATOM     25  N   UNL A   1      32.445  34.124  27.684  1.00  0.00    -0.352 N 
ATOM     26  C   UNL A   1      32.982  35.000  28.605  1.00  0.00     0.251 C 
ATOM     27  H   UNL A   1      31.703  34.469  27.136  1.00  0.00     0.163 HD
ATOM     28  O   UNL A   1      32.511  36.111  28.791  1.00  0.00    -0.269 OA
BRANCH  26  29
ATOM     29  C   UNL A   1      34.135  34.540  29.408  1.00  0.00     0.039 A 
ATOM     30  C   UNL A   1      33.903  33.937  30.644  1.00  0.00     0.014 A 
ATOM     31  C   UNL A   1      35.424  34.603  28.873  1.00  0.00     0.014 A 
ATOM     32  C   UNL A   1      34.957  33.300  31.302  1.00  0.00     0.010 A 
ATOM     33  C   UNL A   1      36.451  33.899  29.488  1.00  0.00     0.010 A 
ATOM     34  C   UNL A   1      36.225  33.229  30.701  1.00  0.00    -0.014 A 
BRANCH  34  35
ATOM     35  C   UNL A   1      37.325  32.434  31.302  1.00  0.00     0.031 A 
ATOM     36  C   UNL A   1      37.843  32.782  32.668  1.00  0.00     0.074 A 
ATOM     37  C   UNL A   1      37.931  31.475  30.576  1.00  0.00     0.049 A 
ATOM     38  N   UNL A   1      38.865  32.287  33.318  1.00  0.00    -0.248 NA
ATOM     39  C   UNL A   1      37.144  33.863  33.380  1.00  0.00     0.031 C 
ATOM     40  C   UNL A   1      37.576  31.099  29.205  1.00  0.00     0.029 A 
ATOM     41  N   UNL A   1      38.991  30.657  30.879  1.00  0.00    -0.354 N 
ATOM     42  C   UNL A   1      38.950  33.016  34.494  1.00  0.00     0.074 A 
ATOM     43  C   UNL A   1      37.907  34.019  34.450  1.00  0.00     0.031 C 
ATOM     44  C   UNL A   1      38.392  30.115  28.794  1.00  0.00     0.029 A 
ATOM     45  C   UNL A   1      39.346  29.812  29.857  1.00  0.00     0.049 A 
ATOM     46  H   UNL A   1      39.453  30.675  31.749  1.00  0.00     0.167 HD
ATOM     47  C   UNL A   1      39.808  32.851  35.529  1.00  0.00     0.037 A 
ATOM     48  C   UNL A   1      40.333  28.899  29.783  1.00  0.00     0.037 A 
ATOM     49  C   UNL A   1      40.808  31.821  35.594  1.00  0.00     0.049 A 
ATOM     50  C   UNL A   1      41.234  28.692  30.969  1.00  0.00     0.074 A 
ATOM     51  C   UNL A   1      41.653  31.502  36.642  1.00  0.00     0.029 A 
ATOM     52  N   UNL A   1      41.097  30.939  34.564  1.00  0.00    -0.354 N 
ATOM     53  N   UNL A   1      41.246  29.325  32.117  1.00  0.00    -0.248 NA
ATOM     54  C   UNL A   1      42.250  27.637  30.855  1.00  0.00     0.031 C 
ATOM     55  C   UNL A   1      42.477  30.447  36.234  1.00  0.00     0.029 A 
ATOM     56  C   UNL A   1      42.120  30.086  34.944  1.00  0.00     0.049 A 
ATOM     57  H   UNL A   1      40.643  30.921  33.691  1.00  0.00     0.167 HD
ATOM     58  C   UNL A   1      42.254  28.737  32.867  1.00  0.00     0.074 A 
ATOM     59  C   UNL A   1      42.823  27.684  32.050  1.00  0.00     0.031 C 
ATOM     60  C   UNL A   1      42.671  29.042  34.119  1.00  0.00     0.037 A 
BRANCH  47  61
ATOM     61  C   UNL A   1      39.693  33.808  36.679  1.00  0.00     0.064 A 
ATOM     62  C   UNL A   1      38.909  33.514  37.805  1.00  0.00     0.173 A 
ATOM     63  C   UNL A   1      40.386  35.027  36.660  1.00  0.00     0.173 A 
ATOM     64  F   UNL A   1      38.216  32.367  37.865  1.00  0.00    -0.203 F 
ATOM     65  C   UNL A   1      38.794  34.423  38.854  1.00  0.00     0.198 A 
ATOM     66  C   UNL A   1      40.292  35.920  37.724  1.00  0.00     0.198 A 
ATOM     67  F   UNL A   1      41.153  35.354  35.610  1.00  0.00    -0.203 F 
ATOM     68  F   UNL A   1      37.994  34.145  39.894  1.00  0.00    -0.200 F 
ATOM     69  C   UNL A   1      39.489  35.622  38.816  1.00  0.00     0.200 A 
ATOM     70  F   UNL A   1      40.973  37.074  37.691  1.00  0.00    -0.200 F 
ATOM     71  F   UNL A   1      39.378  36.495  39.826  1.00  0.00    -0.200 F 
ENDBRANCH  47  61
BRANCH  48  72
ATOM     72  C   UNL A   1      40.497  28.090  28.549  1.00  0.00     0.064 A 
ATOM     73  C   UNL A   1      41.289  28.550  27.489  1.00  0.00     0.173 A 
ATOM     74  C   UNL A   1      39.884  26.836  28.412  1.00  0.00     0.173 A 
ATOM     75  F   UNL A   1      41.878  29.752  27.567  1.00  0.00    -0.203 F 
ATOM     76  C   UNL A   1      41.451  27.794  26.330  1.00  0.00     0.198 A 
ATOM     77  C   UNL A   1      40.066  26.070  27.263  1.00  0.00     0.198 A 
ATOM     78  F   UNL A   1      39.123  26.349  29.403  1.00  0.00    -0.203 F 
ATOM     79  F   UNL A   1      42.186  28.272  25.317  1.00  0.00    -0.200 F 
ATOM     80  C   UNL A   1      40.845  26.551  26.221  1.00  0.00     0.200 A 
ATOM     81  F   UNL A   1      39.489  24.864  27.165  1.00  0.00    -0.200 F 
ATOM     82  F   UNL A   1      41.008  25.819  25.111  1.00  0.00    -0.200 F 
ENDBRANCH  48  72
BRANCH  60  83
ATOM     83  C   UNL A   1      43.782  28.214  34.695  1.00  0.00     0.064 A 
ATOM     84  C   UNL A   1      43.524  27.007  35.361  1.00  0.00     0.173 A 
ATOM     85  C   UNL A   1      45.118  28.606  34.532  1.00  0.00     0.173 A 
ATOM     86  F   UNL A   1      42.261  26.599  35.554  1.00  0.00    -0.203 F 
ATOM     87  C   UNL A   1      44.567  26.230  35.857  1.00  0.00     0.198 A 
ATOM     88  C   UNL A   1      46.159  27.814  35.008  1.00  0.00     0.198 A 
ATOM     89  F   UNL A   1      45.415  29.750  33.897  1.00  0.00    -0.203 F 
ATOM     90  F   UNL A   1      44.298  25.097  36.522  1.00  0.00    -0.200 F 
ATOM     91  C   UNL A   1      45.882  26.629  35.674  1.00  0.00     0.200 A 
ATOM     92  F   UNL A   1      47.429  28.197  34.821  1.00  0.00    -0.200 F 
ATOM     93  F   UNL A   1      46.886  25.875  36.145  1.00  0.00    -0.200 F 
ENDBRANCH  60  83
ENDBRANCH  34  35
ENDBRANCH  26  29
ENDBRANCH  24  25
ENDBRANCH  23  24
ENDBRANCH   1  23
TORSDOF 14
ENDMDL
