MODEL 1
REMARK VINA RESULT:     -12.8      0.000      0.000
REMARK SMILES CC[C@]1(C(=O)NCCCCNC(=O)c2ccc(-c3c4nc(c(-c5c(F)c(F)c(F)c(F)c5F)c5ccc([nH]5)c(-c5c(F)c(F)c(F)c(F)c5F)c5nc(c(-c6c(F)c(F)c(F)c(F)c6F)c6ccc3[nH]6)C=C5)C=C4)cc2)CCC[N@@H+]([C@@H]2CCC[C@H](S(C)(=O)=O)C2)C1
REMARK SMILES IDX 8 1 7 2 6 3 4 4 5 5 3 7 77 8 91 9 78 10 80 11 79 12 2 14
REMARK SMILES IDX 1 15 81 16 82 17 90 18 83 19 85 20 84 21 86 22 87 23 88 24
REMARK SMILES IDX 89 25 9 26 10 27 11 28 12 29 13 31 14 32 15 33 76 34 16 35
REMARK SMILES IDX 75 36 17 37 18 38 19 39 69 40 20 41 74 42 68 43 70 44 21 45
REMARK SMILES IDX 73 46 67 47 66 48 22 50 54 51 34 52 53 53 35 54 38 55 52 56
REMARK SMILES IDX 71 57 36 58 37 59 51 61 72 62 39 63 23 64 24 65 32 66 25 67
REMARK SMILES IDX 26 68 30 69 33 70 27 71 28 72 31 73 29 74 55 75 56 76 64 77
REMARK SMILES IDX 57 78 58 79 62 80 65 81 59 82 60 83 63 84 61 85 40 86 41 87
REMARK SMILES IDX 49 88 42 89 43 90 47 91 50 92 44 93 45 94 48 95 46 96
REMARK H PARENT 6 6 80 13 11 30 70 49 38 60
REMARK Flexibility Score: inf
ROOT
ATOM      1  C   UNL A   1      31.559  30.822  26.590  1.00  0.00     0.023 C 
ENDROOT
BRANCH   1   2
ATOM      2  C   UNL A   1      31.392  30.282  25.175  1.00  0.00     0.116 C 
BRANCH   2   3
ATOM      3  N   UNL A   1      32.535  29.491  24.746  1.00  0.00    -0.355 N 
ATOM      4  C   UNL A   1      32.702  28.148  24.554  1.00  0.00     0.231 C 
ATOM      5  O   UNL A   1      33.773  27.815  24.041  1.00  0.00    -0.274 OA
ATOM      6  H   UNL A   1      33.343  30.024  24.559  1.00  0.00     0.163 HD
BRANCH   4   7
ATOM      7  C   UNL A   1      31.594  27.126  24.900  1.00  0.00     0.098 C 
ATOM      8  C   UNL A   1      30.347  27.349  24.006  1.00  0.00     0.028 C 
ATOM      9  C   UNL A   1      32.241  25.716  24.700  1.00  0.00     0.279 C 
ATOM     10  C   UNL A   1      29.473  26.109  23.896  1.00  0.00     0.063 C 
ATOM     11  N   UNL A   1      31.324  24.582  24.492  1.00  0.00    -0.332 N 
ATOM     12  C   UNL A   1      30.288  24.884  23.498  1.00  0.00     0.262 C 
ATOM     13  H   UNL A   1      30.814  24.425  25.362  1.00  0.00     0.348 HD
BRANCH   7  14
ATOM     14  C   UNL A   1      31.165  27.233  26.403  1.00  0.00     0.019 C 
ATOM     15  C   UNL A   1      32.276  27.448  27.432  1.00  0.00     0.005 C 
ENDBRANCH   7  14
BRANCH  11  16
ATOM     16  C   UNL A   1      32.071  23.321  24.230  1.00  0.00     0.185 C 
ATOM     17  C   UNL A   1      31.785  22.171  25.222  1.00  0.00     0.065 C 
ATOM     18  C   UNL A   1      33.583  23.597  24.128  1.00  0.00     0.084 C 
ATOM     19  C   UNL A   1      32.600  20.924  24.897  1.00  0.00     0.007 C 
ATOM     20  C   UNL A   1      34.428  22.338  23.883  1.00  0.00     0.114 C 
ATOM     21  C   UNL A   1      34.091  21.230  24.884  1.00  0.00     0.020 C 
BRANCH  20  22
ATOM     22  S   UNL A   1      36.176  22.796  23.966  1.00  0.00     0.150 S 
ATOM     23  C   UNL A   1      36.997  21.371  24.634  1.00  0.00     0.158 C 
ATOM     24  O   UNL A   1      36.653  22.954  22.603  1.00  0.00    -0.229 OA
ATOM     25  O   UNL A   1      36.324  23.870  24.928  1.00  0.00    -0.229 OA
ENDBRANCH  20  22
ENDBRANCH  11  16
ENDBRANCH   4   7
ENDBRANCH   2   3
ENDBRANCH   1   2
BRANCH   1  26
ATOM     26  C   UNL A   1      31.446  32.339  26.701  1.00  0.00     0.023 C 
BRANCH  26  27
ATOM     27  C   UNL A   1      32.685  33.035  27.254  1.00  0.00     0.116 C 
BRANCH  27  28
ATOM     28  N   UNL A   1      32.430  34.412  27.651  1.00  0.00    -0.352 N 
ATOM     29  C   UNL A   1      33.019  35.146  28.653  1.00  0.00     0.251 C 
ATOM     30  H   UNL A   1      31.741  34.883  27.130  1.00  0.00     0.163 HD
ATOM     31  O   UNL A   1      32.581  36.251  28.955  1.00  0.00    -0.269 OA
BRANCH  29  32
ATOM     32  C   UNL A   1      34.164  34.575  29.388  1.00  0.00     0.039 A 
ATOM     33  C   UNL A   1      33.943  33.981  30.631  1.00  0.00     0.014 A 
ATOM     34  C   UNL A   1      35.444  34.585  28.825  1.00  0.00     0.014 A 
ATOM     35  C   UNL A   1      34.992  33.322  31.275  1.00  0.00     0.010 A 
ATOM     36  C   UNL A   1      36.465  33.859  29.426  1.00  0.00     0.010 A 
ATOM     37  C   UNL A   1      36.248  33.214  30.654  1.00  0.00    -0.014 A 
BRANCH  37  38
ATOM     38  C   UNL A   1      37.346  32.420  31.260  1.00  0.00     0.031 A 
ATOM     39  C   UNL A   1      37.866  32.772  32.625  1.00  0.00     0.074 A 
ATOM     40  C   UNL A   1      37.926  31.433  30.550  1.00  0.00     0.049 A 
ATOM     41  N   UNL A   1      38.880  32.268  33.282  1.00  0.00    -0.248 NA
ATOM     42  C   UNL A   1      37.168  33.854  33.338  1.00  0.00     0.031 C 
ATOM     43  C   UNL A   1      37.536  31.020  29.200  1.00  0.00     0.029 A 
ATOM     44  N   UNL A   1      38.977  30.605  30.857  1.00  0.00    -0.354 N 
ATOM     45  C   UNL A   1      38.945  32.975  34.476  1.00  0.00     0.074 A 
ATOM     46  C   UNL A   1      37.909  33.982  34.428  1.00  0.00     0.031 C 
ATOM     47  C   UNL A   1      38.322  30.006  28.806  1.00  0.00     0.029 A 
ATOM     48  C   UNL A   1      39.303  29.729  29.850  1.00  0.00     0.049 A 
ATOM     49  H   UNL A   1      39.453  30.636  31.719  1.00  0.00     0.167 HD
ATOM     50  C   UNL A   1      39.780  32.784  35.525  1.00  0.00     0.037 A 
ATOM     51  C   UNL A   1      40.292  28.818  29.771  1.00  0.00     0.037 A 
ATOM     52  C   UNL A   1      40.804  31.773  35.570  1.00  0.00     0.049 A 
ATOM     53  C   UNL A   1      41.235  28.661  30.935  1.00  0.00     0.074 A 
ATOM     54  C   UNL A   1      41.668  31.468  36.606  1.00  0.00     0.029 A 
ATOM     55  N   UNL A   1      41.105  30.906  34.529  1.00  0.00    -0.354 N 
ATOM     56  N   UNL A   1      41.246  29.288  32.085  1.00  0.00    -0.248 NA
ATOM     57  C   UNL A   1      42.306  27.663  30.788  1.00  0.00     0.031 C 
ATOM     58  C   UNL A   1      42.531  30.457  36.172  1.00  0.00     0.029 A 
ATOM     59  C   UNL A   1      42.164  30.087  34.888  1.00  0.00     0.049 A 
ATOM     60  H   UNL A   1      40.636  30.877  33.665  1.00  0.00     0.167 HD
ATOM     61  C   UNL A   1      42.300  28.746  32.808  1.00  0.00     0.074 A 
ATOM     62  C   UNL A   1      42.894  27.722  31.973  1.00  0.00     0.031 C 
ATOM     63  C   UNL A   1      42.740  29.067  34.049  1.00  0.00     0.037 A 
BRANCH  50  64
ATOM     64  C   UNL A   1      39.622  33.690  36.712  1.00  0.00     0.064 A 
ATOM     65  C   UNL A   1      40.266  34.936  36.778  1.00  0.00     0.173 A 
ATOM     66  C   UNL A   1      38.783  33.330  37.778  1.00  0.00     0.173 A 
ATOM     67  F   UNL A   1      41.088  35.325  35.792  1.00  0.00    -0.203 F 
ATOM     68  C   UNL A   1      40.099  35.772  37.879  1.00  0.00     0.198 A 
ATOM     69  C   UNL A   1      38.592  34.184  38.862  1.00  0.00     0.198 A 
ATOM     70  F   UNL A   1      38.138  32.154  37.764  1.00  0.00    -0.203 F 
ATOM     71  F   UNL A   1      40.766  36.933  37.944  1.00  0.00    -0.200 F 
ATOM     72  C   UNL A   1      39.257  35.400  38.916  1.00  0.00     0.200 A 
ATOM     73  F   UNL A   1      37.766  33.829  39.854  1.00  0.00    -0.200 F 
ATOM     74  F   UNL A   1      39.090  36.209  39.970  1.00  0.00    -0.200 F 
ENDBRANCH  50  64
BRANCH  51  75
ATOM     75  C   UNL A   1      40.444  27.980  28.552  1.00  0.00     0.064 A 
ATOM     76  C   UNL A   1      39.832  26.722  28.462  1.00  0.00     0.173 A 
ATOM     77  C   UNL A   1      41.220  28.405  27.463  1.00  0.00     0.173 A 
ATOM     78  F   UNL A   1      39.098  26.261  29.486  1.00  0.00    -0.203 F 
ATOM     79  C   UNL A   1      40.012  25.910  27.345  1.00  0.00     0.198 A 
ATOM     80  C   UNL A   1      41.372  27.607  26.331  1.00  0.00     0.198 A 
ATOM     81  F   UNL A   1      41.824  29.602  27.494  1.00  0.00    -0.203 F 
ATOM     82  F   UNL A   1      39.463  24.688  27.311  1.00  0.00    -0.200 F 
ATOM     83  C   UNL A   1      40.778  26.355  26.278  1.00  0.00     0.200 A 
ATOM     84  F   UNL A   1      42.099  28.048  25.295  1.00  0.00    -0.200 F 
ATOM     85  F   UNL A   1      40.951  25.575  25.202  1.00  0.00    -0.200 F 
ENDBRANCH  51  75
BRANCH  63  86
ATOM     86  C   UNL A   1      43.898  28.282  34.597  1.00  0.00     0.064 A 
ATOM     87  C   UNL A   1      45.221  28.734  34.472  1.00  0.00     0.173 A 
ATOM     88  C   UNL A   1      43.678  27.085  35.293  1.00  0.00     0.173 A 
ATOM     89  F   UNL A   1      45.487  29.866  33.802  1.00  0.00    -0.203 F 
ATOM     90  C   UNL A   1      46.280  28.001  34.998  1.00  0.00     0.198 A 
ATOM     91  C   UNL A   1      44.736  26.373  35.850  1.00  0.00     0.198 A 
ATOM     92  F   UNL A   1      42.433  26.610  35.449  1.00  0.00    -0.203 F 
ATOM     93  F   UNL A   1      47.539  28.426  34.821  1.00  0.00    -0.200 F 
ATOM     94  C   UNL A   1      46.037  26.827  35.695  1.00  0.00     0.200 A 
ATOM     95  F   UNL A   1      44.498  25.247  36.538  1.00  0.00    -0.200 F 
ATOM     96  F   UNL A   1      47.058  26.129  36.211  1.00  0.00    -0.200 F 
ENDBRANCH  63  86
ENDBRANCH  37  38
ENDBRANCH  29  32
ENDBRANCH  27  28
ENDBRANCH  26  27
ENDBRANCH   1  26
TORSDOF 14
ENDMDL
MODEL 2
REMARK VINA RESULT:     -12.7      2.282      7.967
REMARK SMILES CC[C@]1(C(=O)NCCCCNC(=O)c2ccc(-c3c4nc(c(-c5c(F)c(F)c(F)c(F)c5F)c5ccc([nH]5)c(-c5c(F)c(F)c(F)c(F)c5F)c5nc(c(-c6c(F)c(F)c(F)c(F)c6F)c6ccc3[nH]6)C=C5)C=C4)cc2)CCC[N@@H+]([C@@H]2CCC[C@H](S(C)(=O)=O)C2)C1
REMARK SMILES IDX 8 1 7 2 6 3 4 4 5 5 3 7 77 8 91 9 78 10 80 11 79 12 2 14
REMARK SMILES IDX 1 15 81 16 82 17 90 18 83 19 85 20 84 21 86 22 87 23 88 24
REMARK SMILES IDX 89 25 9 26 10 27 11 28 12 29 13 31 14 32 15 33 76 34 16 35
REMARK SMILES IDX 75 36 17 37 18 38 19 39 69 40 20 41 74 42 68 43 70 44 21 45
REMARK SMILES IDX 73 46 67 47 66 48 22 50 54 51 34 52 53 53 35 54 38 55 52 56
REMARK SMILES IDX 71 57 36 58 37 59 51 61 72 62 39 63 23 64 24 65 32 66 25 67
REMARK SMILES IDX 26 68 30 69 33 70 27 71 28 72 31 73 29 74 55 75 56 76 64 77
REMARK SMILES IDX 57 78 58 79 62 80 65 81 59 82 60 83 63 84 61 85 40 86 41 87
REMARK SMILES IDX 49 88 42 89 43 90 47 91 50 92 44 93 45 94 48 95 46 96
REMARK H PARENT 6 6 80 13 11 30 70 49 38 60
REMARK Flexibility Score: inf
ROOT
ATOM      1  C   UNL A   1      31.382  27.712  26.372  1.00  0.00     0.023 C 
ENDROOT
BRANCH   1   2
ATOM      2  C   UNL A   1      30.576  26.580  25.745  1.00  0.00     0.116 C 
BRANCH   2   3
ATOM      3  N   UNL A   1      30.636  25.358  26.532  1.00  0.00    -0.355 N 
ATOM      4  C   UNL A   1      31.513  24.309  26.533  1.00  0.00     0.231 C 
ATOM      5  O   UNL A   1      31.356  23.487  27.438  1.00  0.00    -0.274 OA
ATOM      6  H   UNL A   1      29.907  25.269  27.189  1.00  0.00     0.163 HD
BRANCH   4   7
ATOM      7  C   UNL A   1      32.661  24.199  25.501  1.00  0.00     0.098 C 
ATOM      8  C   UNL A   1      33.778  25.227  25.815  1.00  0.00     0.028 C 
ATOM      9  C   UNL A   1      33.157  22.718  25.579  1.00  0.00     0.279 C 
ATOM     10  C   UNL A   1      35.122  24.834  25.222  1.00  0.00     0.063 C 
ATOM     11  N   UNL A   1      34.516  22.441  25.080  1.00  0.00    -0.332 N 
ATOM     12  C   UNL A   1      35.499  23.404  25.590  1.00  0.00     0.262 C 
ATOM     13  H   UNL A   1      34.515  22.579  24.069  1.00  0.00     0.348 HD
BRANCH   7  14
ATOM     14  C   UNL A   1      32.145  24.442  24.042  1.00  0.00     0.019 C 
ATOM     15  C   UNL A   1      31.045  23.513  23.527  1.00  0.00     0.005 C 
ENDBRANCH   7  14
BRANCH  11  16
ATOM     16  C   UNL A   1      34.892  21.016  25.292  1.00  0.00     0.185 C 
ATOM     17  C   UNL A   1      36.301  20.628  24.788  1.00  0.00     0.065 C 
ATOM     18  C   UNL A   1      33.820  20.079  24.706  1.00  0.00     0.084 C 
ATOM     19  C   UNL A   1      36.602  19.152  25.025  1.00  0.00     0.007 C 
ATOM     20  C   UNL A   1      34.149  18.586  24.862  1.00  0.00     0.114 C 
ATOM     21  C   UNL A   1      35.558  18.265  24.362  1.00  0.00     0.020 C 
BRANCH  20  22
ATOM     22  S   UNL A   1      32.897  17.627  23.975  1.00  0.00     0.150 S 
ATOM     23  C   UNL A   1      32.213  18.749  22.782  1.00  0.00     0.158 C 
ATOM     24  O   UNL A   1      33.586  16.590  23.229  1.00  0.00    -0.229 OA
ATOM     25  O   UNL A   1      31.837  17.287  24.904  1.00  0.00    -0.229 OA
ENDBRANCH  20  22
ENDBRANCH  11  16
ENDBRANCH   4   7
ENDBRANCH   2   3
ENDBRANCH   1   2
BRANCH   1  26
ATOM     26  C   UNL A   1      31.944  28.714  25.368  1.00  0.00     0.023 C 
BRANCH  26  27
ATOM     27  C   UNL A   1      33.137  29.520  25.867  1.00  0.00     0.116 C 
BRANCH  27  28
ATOM     28  N   UNL A   1      32.770  30.858  26.309  1.00  0.00    -0.352 N 
ATOM     29  C   UNL A   1      33.403  31.671  27.218  1.00  0.00     0.251 C 
ATOM     30  H   UNL A   1      31.956  31.232  25.901  1.00  0.00     0.163 HD
ATOM     31  O   UNL A   1      32.877  32.715  27.591  1.00  0.00    -0.269 OA
BRANCH  29  32
ATOM     32  C   UNL A   1      34.709  31.260  27.769  1.00  0.00     0.039 A 
ATOM     33  C   UNL A   1      35.717  32.215  27.909  1.00  0.00     0.014 A 
ATOM     34  C   UNL A   1      34.917  29.944  28.191  1.00  0.00     0.014 A 
ATOM     35  C   UNL A   1      36.908  31.869  28.550  1.00  0.00     0.010 A 
ATOM     36  C   UNL A   1      36.068  29.623  28.900  1.00  0.00     0.010 A 
ATOM     37  C   UNL A   1      37.072  30.585  29.093  1.00  0.00    -0.014 A 
BRANCH  37  38
ATOM     38  C   UNL A   1      38.278  30.225  29.881  1.00  0.00     0.031 A 
ATOM     39  C   UNL A   1      39.270  29.239  29.333  1.00  0.00     0.074 A 
ATOM     40  C   UNL A   1      38.439  30.728  31.121  1.00  0.00     0.049 A 
ATOM     41  N   UNL A   1      40.328  28.721  29.904  1.00  0.00    -0.248 NA
ATOM     42  C   UNL A   1      39.027  28.749  27.966  1.00  0.00     0.031 C 
ATOM     43  C   UNL A   1      37.527  31.665  31.779  1.00  0.00     0.029 A 
ATOM     44  N   UNL A   1      39.420  30.511  32.056  1.00  0.00    -0.354 N 
ATOM     45  C   UNL A   1      40.867  27.842  28.975  1.00  0.00     0.074 A 
ATOM     46  C   UNL A   1      39.990  27.851  27.825  1.00  0.00     0.031 C 
ATOM     47  C   UNL A   1      38.001  31.957  33.001  1.00  0.00     0.029 A 
ATOM     48  C   UNL A   1      39.222  31.192  33.233  1.00  0.00     0.049 A 
ATOM     49  H   UNL A   1      40.193  29.922  31.899  1.00  0.00     0.167 HD
ATOM     50  C   UNL A   1      42.005  27.113  29.064  1.00  0.00     0.037 A 
ATOM     51  C   UNL A   1      39.934  31.186  34.376  1.00  0.00     0.037 A 
ATOM     52  C   UNL A   1      42.880  27.117  30.207  1.00  0.00     0.049 A 
ATOM     53  C   UNL A   1      41.169  30.328  34.463  1.00  0.00     0.074 A 
ATOM     54  C   UNL A   1      44.081  26.451  30.375  1.00  0.00     0.029 A 
ATOM     55  N   UNL A   1      42.644  27.818  31.381  1.00  0.00    -0.354 N 
ATOM     56  N   UNL A   1      41.707  29.552  33.554  1.00  0.00    -0.248 NA
ATOM     57  C   UNL A   1      41.898  30.348  35.740  1.00  0.00     0.031 C 
ATOM     58  C   UNL A   1      44.542  26.701  31.671  1.00  0.00     0.029 A 
ATOM     59  C   UNL A   1      43.662  27.574  32.289  1.00  0.00     0.049 A 
ATOM     60  H   UNL A   1      41.870  28.402  31.544  1.00  0.00     0.167 HD
ATOM     61  C   UNL A   1      42.848  29.016  34.135  1.00  0.00     0.074 A 
ATOM     62  C   UNL A   1      42.937  29.571  35.469  1.00  0.00     0.031 C 
ATOM     63  C   UNL A   1      43.741  28.140  33.613  1.00  0.00     0.037 A 
BRANCH  50  64
ATOM     64  C   UNL A   1      42.369  26.247  27.892  1.00  0.00     0.064 A 
ATOM     65  C   UNL A   1      41.798  24.979  27.709  1.00  0.00     0.173 A 
ATOM     66  C   UNL A   1      43.266  26.708  26.916  1.00  0.00     0.173 A 
ATOM     67  F   UNL A   1      40.943  24.485  28.618  1.00  0.00    -0.203 F 
ATOM     68  C   UNL A   1      42.134  24.192  26.611  1.00  0.00     0.198 A 
ATOM     69  C   UNL A   1      43.574  25.932  25.801  1.00  0.00     0.198 A 
ATOM     70  F   UNL A   1      43.837  27.915  27.037  1.00  0.00    -0.203 F 
ATOM     71  F   UNL A   1      41.616  22.961  26.485  1.00  0.00    -0.200 F 
ATOM     72  C   UNL A   1      43.014  24.672  25.653  1.00  0.00     0.200 A 
ATOM     73  F   UNL A   1      44.413  26.405  24.869  1.00  0.00    -0.200 F 
ATOM     74  F   UNL A   1      43.330  23.918  24.591  1.00  0.00    -0.200 F 
ENDBRANCH  50  64
BRANCH  51  75
ATOM     75  C   UNL A   1      39.505  32.018  35.532  1.00  0.00     0.064 A 
ATOM     76  C   UNL A   1      38.593  31.524  36.475  1.00  0.00     0.173 A 
ATOM     77  C   UNL A   1      39.976  33.327  35.707  1.00  0.00     0.173 A 
ATOM     78  F   UNL A   1      38.095  30.286  36.340  1.00  0.00    -0.203 F 
ATOM     79  C   UNL A   1      38.147  32.316  37.531  1.00  0.00     0.198 A 
ATOM     80  C   UNL A   1      39.556  34.107  36.783  1.00  0.00     0.198 A 
ATOM     81  F   UNL A   1      40.854  33.848  34.837  1.00  0.00    -0.203 F 
ATOM     82  F   UNL A   1      37.230  31.839  38.384  1.00  0.00    -0.200 F 
ATOM     83  C   UNL A   1      38.633  33.605  37.687  1.00  0.00     0.200 A 
ATOM     84  F   UNL A   1      40.042  35.346  36.939  1.00  0.00    -0.200 F 
ATOM     85  F   UNL A   1      38.205  34.367  38.703  1.00  0.00    -0.200 F 
ENDBRANCH  51  75
BRANCH  63  86
ATOM     86  C   UNL A   1      44.912  27.752  34.471  1.00  0.00     0.064 A 
ATOM     87  C   UNL A   1      44.893  26.594  35.264  1.00  0.00     0.173 A 
ATOM     88  C   UNL A   1      46.082  28.524  34.466  1.00  0.00     0.173 A 
ATOM     89  F   UNL A   1      43.792  25.828  35.315  1.00  0.00    -0.203 F 
ATOM     90  C   UNL A   1      45.992  26.242  36.042  1.00  0.00     0.198 A 
ATOM     91  C   UNL A   1      47.193  28.149  35.217  1.00  0.00     0.198 A 
ATOM     92  F   UNL A   1      46.157  29.637  33.721  1.00  0.00    -0.203 F 
ATOM     93  F   UNL A   1      45.932  25.161  36.831  1.00  0.00    -0.200 F 
ATOM     94  C   UNL A   1      47.144  27.013  36.010  1.00  0.00     0.200 A 
ATOM     95  F   UNL A   1      48.311  28.888  35.173  1.00  0.00    -0.200 F 
ATOM     96  F   UNL A   1      48.205  26.666  36.751  1.00  0.00    -0.200 F 
ENDBRANCH  63  86
ENDBRANCH  37  38
ENDBRANCH  29  32
ENDBRANCH  27  28
ENDBRANCH  26  27
ENDBRANCH   1  26
TORSDOF 14
ENDMDL
MODEL 3
REMARK VINA RESULT:     -12.7      0.706      7.188
REMARK SMILES CC[C@]1(C(=O)NCCCCNC(=O)c2ccc(-c3c4nc(c(-c5c(F)c(F)c(F)c(F)c5F)c5ccc([nH]5)c(-c5c(F)c(F)c(F)c(F)c5F)c5nc(c(-c6c(F)c(F)c(F)c(F)c6F)c6ccc3[nH]6)C=C5)C=C4)cc2)CCC[N@@H+]([C@@H]2CCC[C@H](S(C)(=O)=O)C2)C1
REMARK SMILES IDX 8 1 7 2 6 3 4 4 5 5 3 7 77 8 91 9 78 10 80 11 79 12 2 14
REMARK SMILES IDX 1 15 81 16 82 17 90 18 83 19 85 20 84 21 86 22 87 23 88 24
REMARK SMILES IDX 89 25 9 26 10 27 11 28 12 29 13 31 14 32 15 33 76 34 16 35
REMARK SMILES IDX 75 36 17 37 18 38 19 39 69 40 20 41 74 42 68 43 70 44 21 45
REMARK SMILES IDX 73 46 67 47 66 48 22 50 54 51 34 52 53 53 35 54 38 55 52 56
REMARK SMILES IDX 71 57 36 58 37 59 51 61 72 62 39 63 23 64 24 65 32 66 25 67
REMARK SMILES IDX 26 68 30 69 33 70 27 71 28 72 31 73 29 74 55 75 56 76 64 77
REMARK SMILES IDX 57 78 58 79 62 80 65 81 59 82 60 83 63 84 61 85 40 86 41 87
REMARK SMILES IDX 49 88 42 89 43 90 47 91 50 92 44 93 45 94 48 95 46 96
REMARK H PARENT 6 6 80 13 11 30 70 49 38 60
REMARK Flexibility Score: inf
ROOT
ATOM      1  C   UNL A   1      31.877  30.830  25.881  1.00  0.00     0.023 C 
ENDROOT
BRANCH   1   2
ATOM      2  C   UNL A   1      33.196  30.112  26.141  1.00  0.00     0.116 C 
BRANCH   2   3
ATOM      3  N   UNL A   1      33.650  29.353  24.986  1.00  0.00    -0.355 N 
ATOM      4  C   UNL A   1      33.354  28.095  24.540  1.00  0.00     0.231 C 
ATOM      5  O   UNL A   1      33.808  27.805  23.431  1.00  0.00    -0.274 OA
ATOM      6  H   UNL A   1      34.292  29.837  24.416  1.00  0.00     0.163 HD
BRANCH   4   7
ATOM      7  C   UNL A   1      32.457  27.128  25.349  1.00  0.00     0.098 C 
ATOM      8  C   UNL A   1      30.964  27.338  24.988  1.00  0.00     0.028 C 
ATOM      9  C   UNL A   1      32.969  25.691  25.007  1.00  0.00     0.279 C 
ATOM     10  C   UNL A   1      30.107  26.120  25.300  1.00  0.00     0.063 C 
ATOM     11  N   UNL A   1      32.036  24.574  25.239  1.00  0.00    -0.332 N 
ATOM     12  C   UNL A   1      30.699  24.851  24.700  1.00  0.00     0.262 C 
ATOM     13  H   UNL A   1      31.897  24.483  26.246  1.00  0.00     0.348 HD
BRANCH   7  14
ATOM     14  C   UNL A   1      32.638  27.334  26.891  1.00  0.00     0.019 C 
ATOM     15  C   UNL A   1      31.424  27.833  27.676  1.00  0.00     0.005 C 
ENDBRANCH   7  14
BRANCH  11  16
ATOM     16  C   UNL A   1      32.617  23.278  24.792  1.00  0.00     0.185 C 
ATOM     17  C   UNL A   1      32.334  22.078  25.723  1.00  0.00     0.065 C 
ATOM     18  C   UNL A   1      34.126  23.425  24.525  1.00  0.00     0.084 C 
ATOM     19  C   UNL A   1      32.977  20.795  25.207  1.00  0.00     0.007 C 
ATOM     20  C   UNL A   1      34.807  22.120  24.084  1.00  0.00     0.114 C 
ATOM     21  C   UNL A   1      34.479  20.965  25.032  1.00  0.00     0.020 C 
BRANCH  20  22
ATOM     22  S   UNL A   1      36.590  22.409  23.984  1.00  0.00     0.150 S 
ATOM     23  C   UNL A   1      36.924  23.670  25.188  1.00  0.00     0.158 C 
ATOM     24  O   UNL A   1      37.256  21.203  24.444  1.00  0.00    -0.229 OA
ATOM     25  O   UNL A   1      36.892  22.966  22.680  1.00  0.00    -0.229 OA
ENDBRANCH  20  22
ENDBRANCH  11  16
ENDBRANCH   4   7
ENDBRANCH   2   3
ENDBRANCH   1   2
BRANCH   1  26
ATOM     26  C   UNL A   1      31.555  31.935  26.881  1.00  0.00     0.023 C 
BRANCH  26  27
ATOM     27  C   UNL A   1      32.759  32.739  27.358  1.00  0.00     0.116 C 
BRANCH  27  28
ATOM     28  N   UNL A   1      32.440  34.136  27.615  1.00  0.00    -0.352 N 
ATOM     29  C   UNL A   1      32.994  34.993  28.535  1.00  0.00     0.251 C 
ATOM     30  H   UNL A   1      31.730  34.520  27.053  1.00  0.00     0.163 HD
ATOM     31  O   UNL A   1      32.506  36.102  28.727  1.00  0.00    -0.269 OA
BRANCH  29  32
ATOM     32  C   UNL A   1      34.164  34.553  29.319  1.00  0.00     0.039 A 
ATOM     33  C   UNL A   1      33.958  33.914  30.544  1.00  0.00     0.014 A 
ATOM     34  C   UNL A   1      35.458  34.728  28.821  1.00  0.00     0.014 A 
ATOM     35  C   UNL A   1      35.048  33.376  31.230  1.00  0.00     0.010 A 
ATOM     36  C   UNL A   1      36.531  34.122  29.463  1.00  0.00     0.010 A 
ATOM     37  C   UNL A   1      36.336  33.433  30.671  1.00  0.00    -0.014 A 
BRANCH  37  38
ATOM     38  C   UNL A   1      37.493  32.768  31.322  1.00  0.00     0.031 A 
ATOM     39  C   UNL A   1      38.166  31.604  30.652  1.00  0.00     0.074 A 
ATOM     40  C   UNL A   1      37.886  33.163  32.549  1.00  0.00     0.049 A 
ATOM     41  N   UNL A   1      39.122  30.829  31.099  1.00  0.00    -0.248 NA
ATOM     42  C   UNL A   1      37.685  31.247  29.308  1.00  0.00     0.031 C 
ATOM     43  C   UNL A   1      37.288  34.255  33.318  1.00  0.00     0.029 A 
ATOM     44  N   UNL A   1      38.874  32.681  33.372  1.00  0.00    -0.354 N 
ATOM     45  C   UNL A   1      39.348  29.892  30.100  1.00  0.00     0.074 A 
ATOM     46  C   UNL A   1      38.391  30.157  29.048  1.00  0.00     0.031 C 
ATOM     47  C   UNL A   1      37.933  34.373  34.490  1.00  0.00     0.029 A 
ATOM     48  C   UNL A   1      38.955  33.335  34.577  1.00  0.00     0.049 A 
ATOM     49  H   UNL A   1      39.467  31.936  33.122  1.00  0.00     0.167 HD
ATOM     50  C   UNL A   1      40.285  28.916  30.054  1.00  0.00     0.037 A 
ATOM     51  C   UNL A   1      39.752  33.112  35.640  1.00  0.00     0.037 A 
ATOM     52  C   UNL A   1      41.242  28.664  31.099  1.00  0.00     0.049 A 
ATOM     53  C   UNL A   1      40.753  31.988  35.580  1.00  0.00     0.074 A 
ATOM     54  C   UNL A   1      42.262  27.730  31.127  1.00  0.00     0.029 A 
ATOM     55  N   UNL A   1      41.292  29.347  32.307  1.00  0.00    -0.354 N 
ATOM     56  N   UNL A   1      41.003  31.150  34.603  1.00  0.00    -0.248 NA
ATOM     57  C   UNL A   1      41.585  31.779  36.773  1.00  0.00     0.031 C 
ATOM     58  C   UNL A   1      42.891  27.807  32.373  1.00  0.00     0.029 A 
ATOM     59  C   UNL A   1      42.306  28.832  33.098  1.00  0.00     0.049 A 
ATOM     60  H   UNL A   1      40.696  30.086  32.562  1.00  0.00     0.167 HD
ATOM     61  C   UNL A   1      42.035  30.337  35.049  1.00  0.00     0.074 A 
ATOM     62  C   UNL A   1      42.380  30.795  36.379  1.00  0.00     0.031 C 
ATOM     63  C   UNL A   1      42.642  29.302  34.419  1.00  0.00     0.037 A 
BRANCH  50  64
ATOM     64  C   UNL A   1      40.320  28.043  28.832  1.00  0.00     0.064 A 
ATOM     65  C   UNL A   1      41.057  28.402  27.693  1.00  0.00     0.173 A 
ATOM     66  C   UNL A   1      39.645  26.812  28.814  1.00  0.00     0.173 A 
ATOM     67  F   UNL A   1      41.711  29.573  27.652  1.00  0.00    -0.203 F 
ATOM     68  C   UNL A   1      41.092  27.577  26.571  1.00  0.00     0.198 A 
ATOM     69  C   UNL A   1      39.710  25.974  27.704  1.00  0.00     0.198 A 
ATOM     70  F   UNL A   1      38.931  26.417  29.878  1.00  0.00    -0.203 F 
ATOM     71  F   UNL A   1      41.759  27.966  25.475  1.00  0.00    -0.200 F 
ATOM     72  C   UNL A   1      40.426  26.361  26.580  1.00  0.00     0.200 A 
ATOM     73  F   UNL A   1      39.079  24.793  27.720  1.00  0.00    -0.200 F 
ATOM     74  F   UNL A   1      40.468  25.563  25.505  1.00  0.00    -0.200 F 
ENDBRANCH  50  64
BRANCH  51  75
ATOM     75  C   UNL A   1      39.644  33.968  36.851  1.00  0.00     0.064 A 
ATOM     76  C   UNL A   1      38.846  33.581  37.937  1.00  0.00     0.173 A 
ATOM     77  C   UNL A   1      40.315  35.196  36.943  1.00  0.00     0.173 A 
ATOM     78  F   UNL A   1      38.167  32.425  37.890  1.00  0.00    -0.203 F 
ATOM     79  C   UNL A   1      38.700  34.401  39.054  1.00  0.00     0.198 A 
ATOM     80  C   UNL A   1      40.195  36.000  38.074  1.00  0.00     0.198 A 
ATOM     81  F   UNL A   1      41.096  35.612  35.935  1.00  0.00    -0.203 F 
ATOM     82  F   UNL A   1      37.884  34.033  40.051  1.00  0.00    -0.200 F 
ATOM     83  C   UNL A   1      39.379  35.608  39.124  1.00  0.00     0.200 A 
ATOM     84  F   UNL A   1      40.867  37.158  38.145  1.00  0.00    -0.200 F 
ATOM     85  F   UNL A   1      39.239  36.397  40.198  1.00  0.00    -0.200 F 
ENDBRANCH  51  75
BRANCH  63  86
ATOM     86  C   UNL A   1      43.765  28.614  35.142  1.00  0.00     0.064 A 
ATOM     87  C   UNL A   1      45.093  29.056  35.031  1.00  0.00     0.173 A 
ATOM     88  C   UNL A   1      43.504  27.527  35.988  1.00  0.00     0.173 A 
ATOM     89  F   UNL A   1      45.398  30.083  34.223  1.00  0.00    -0.203 F 
ATOM     90  C   UNL A   1      46.119  28.415  35.720  1.00  0.00     0.198 A 
ATOM     91  C   UNL A   1      44.528  26.911  36.702  1.00  0.00     0.198 A 
ATOM     92  F   UNL A   1      42.252  27.068  36.135  1.00  0.00    -0.203 F 
ATOM     93  F   UNL A   1      47.386  28.821  35.558  1.00  0.00    -0.200 F 
ATOM     94  C   UNL A   1      45.835  27.351  36.562  1.00  0.00     0.200 A 
ATOM     95  F   UNL A   1      44.249  25.893  37.529  1.00  0.00    -0.200 F 
ATOM     96  F   UNL A   1      46.823  26.743  37.232  1.00  0.00    -0.200 F 
ENDBRANCH  63  86
ENDBRANCH  37  38
ENDBRANCH  29  32
ENDBRANCH  27  28
ENDBRANCH  26  27
ENDBRANCH   1  26
TORSDOF 14
ENDMDL
