MODEL 1
REMARK VINA RESULT:     -13.5      0.000      0.000
REMARK SMILES CCc1c(C(=O)NCC(=O)NCCCCNC(=O)c2ccc(-c3c4nc(c(-c5c(F)c(F)c(F)c(F)c5F)c5ccc([nH]5)c(-c5c(F)c(F)c(F)c(F)c5F)c5nc(c(-c6c(F)c(F)c(F)c(F)c6F)c6ccc3[nH]6)C=C5)C=C4)cc2)nnn1-c1ccc(Cl)cc1
REMARK SMILES IDX 13 1 12 2 11 3 9 4 10 5 8 7 7 8 5 9 6 10 4 12 3 13 84 14
REMARK SMILES IDX 82 15 83 16 2 17 1 18 85 19 86 20 91 21 87 22 90 23 88 24
REMARK SMILES IDX 89 25 14 26 15 27 16 28 17 29 18 31 19 32 20 33 81 34 21 35
REMARK SMILES IDX 80 36 22 37 23 38 24 39 74 40 25 41 79 42 73 43 75 44 26 45
REMARK SMILES IDX 78 46 72 47 71 48 27 50 59 51 39 52 58 53 40 54 43 55 57 56
REMARK SMILES IDX 76 57 41 58 42 59 56 61 77 62 44 63 28 64 29 65 37 66 30 67
REMARK SMILES IDX 31 68 35 69 38 70 32 71 33 72 36 73 34 74 60 75 61 76 69 77
REMARK SMILES IDX 62 78 63 79 67 80 70 81 64 82 65 83 68 84 66 85 45 86 46 87
REMARK SMILES IDX 54 88 47 89 48 90 52 91 55 92 49 93 50 94 53 95 51 96
REMARK H PARENT 11 6 7 11 16 30 75 49 43 60
REMARK Flexibility Score: inf
ROOT
ATOM      1  C   UNL A   1      31.761  30.153  25.901  1.00  0.00     0.023 C 
ENDROOT
BRANCH   1   2
ATOM      2  C   UNL A   1      32.217  29.437  24.632  1.00  0.00     0.116 C 
BRANCH   2   3
ATOM      3  N   UNL A   1      31.239  29.493  23.570  1.00  0.00    -0.355 N 
ATOM      4  C   UNL A   1      30.962  28.634  22.556  1.00  0.00     0.239 C 
ATOM      5  O   UNL A   1      29.996  28.927  21.840  1.00  0.00    -0.273 OA
ATOM      6  H   UNL A   1      30.673  30.298  23.584  1.00  0.00     0.163 HD
BRANCH   4   7
ATOM      7  C   UNL A   1      31.652  27.275  22.360  1.00  0.00     0.216 C 
BRANCH   7   8
ATOM      8  N   UNL A   1      30.966  26.018  22.532  1.00  0.00    -0.342 N 
ATOM      9  C   UNL A   1      31.261  24.778  23.029  1.00  0.00     0.274 C 
ATOM     10  O   UNL A   1      30.265  24.053  23.128  1.00  0.00    -0.267 OA
ATOM     11  H   UNL A   1      30.039  26.064  22.203  1.00  0.00     0.164 HD
BRANCH   9  12
ATOM     12  C   UNL A   1      32.596  24.232  23.330  1.00  0.00     0.174 A 
ATOM     13  C   UNL A   1      33.481  24.185  24.414  1.00  0.00     0.077 A 
ATOM     14  N   UNL A   1      34.601  23.519  23.901  1.00  0.00    -0.217 N 
ATOM     15  N   UNL A   1      33.253  23.687  22.237  1.00  0.00    -0.124 NA
ATOM     16  N   UNL A   1      34.487  23.381  22.571  1.00  0.00    -0.061 NA
BRANCH  13  17
ATOM     17  C   UNL A   1      33.503  24.794  25.778  1.00  0.00     0.055 C 
ATOM     18  C   UNL A   1      33.758  26.292  25.782  1.00  0.00     0.011 C 
ENDBRANCH  13  17
BRANCH  14  19
ATOM     19  C   UNL A   1      35.783  23.088  24.553  1.00  0.00     0.067 A 
ATOM     20  C   UNL A   1      36.171  21.744  24.460  1.00  0.00     0.030 A 
ATOM     21  C   UNL A   1      36.553  23.986  25.300  1.00  0.00     0.030 A 
ATOM     22  C   UNL A   1      37.372  21.328  25.042  1.00  0.00     0.023 A 
ATOM     23  C   UNL A   1      37.740  23.561  25.897  1.00  0.00     0.023 A 
ATOM     24  C   UNL A   1      38.155  22.239  25.750  1.00  0.00     0.041 A 
ATOM     25  Cl  UNL A   1      39.640  21.732  26.453  1.00  0.00    -0.084 Cl
ENDBRANCH  14  19
ENDBRANCH   9  12
ENDBRANCH   7   8
ENDBRANCH   4   7
ENDBRANCH   2   3
ENDBRANCH   1   2
BRANCH   1  26
ATOM     26  C   UNL A   1      32.251  29.525  27.213  1.00  0.00     0.023 C 
BRANCH  26  27
ATOM     27  C   UNL A   1      33.725  29.760  27.521  1.00  0.00     0.116 C 
BRANCH  27  28
ATOM     28  N   UNL A   1      34.182  31.108  27.176  1.00  0.00    -0.352 N 
ATOM     29  C   UNL A   1      35.319  31.761  27.633  1.00  0.00     0.251 C 
ATOM     30  H   UNL A   1      33.616  31.611  26.548  1.00  0.00     0.163 HD
ATOM     31  O   UNL A   1      35.407  32.975  27.634  1.00  0.00    -0.269 OA
BRANCH  29  32
ATOM     32  C   UNL A   1      36.445  30.932  28.096  1.00  0.00     0.039 A 
ATOM     33  C   UNL A   1      36.575  29.583  27.756  1.00  0.00     0.014 A 
ATOM     34  C   UNL A   1      37.409  31.575  28.862  1.00  0.00     0.014 A 
ATOM     35  C   UNL A   1      37.733  28.908  28.141  1.00  0.00     0.010 A 
ATOM     36  C   UNL A   1      38.622  30.980  29.051  1.00  0.00     0.010 A 
ATOM     37  C   UNL A   1      38.756  29.625  28.780  1.00  0.00    -0.014 A 
BRANCH  37  38
ATOM     38  C   UNL A   1      40.039  29.022  29.105  1.00  0.00     0.031 A 
ATOM     39  C   UNL A   1      40.296  28.859  30.560  1.00  0.00     0.074 A 
ATOM     40  C   UNL A   1      40.788  28.415  28.158  1.00  0.00     0.049 A 
ATOM     41  N   UNL A   1      41.241  29.396  31.256  1.00  0.00    -0.248 NA
ATOM     42  C   UNL A   1      39.314  28.115  31.368  1.00  0.00     0.031 C 
ATOM     43  C   UNL A   1      40.486  28.225  26.732  1.00  0.00     0.029 A 
ATOM     44  N   UNL A   1      41.943  27.714  28.303  1.00  0.00    -0.354 N 
ATOM     45  C   UNL A   1      41.096  28.902  32.549  1.00  0.00     0.074 A 
ATOM     46  C   UNL A   1      39.800  28.281  32.601  1.00  0.00     0.031 C 
ATOM     47  C   UNL A   1      41.287  27.266  26.219  1.00  0.00     0.029 A 
ATOM     48  C   UNL A   1      42.264  26.896  27.224  1.00  0.00     0.049 A 
ATOM     49  H   UNL A   1      42.506  27.778  29.108  1.00  0.00     0.167 HD
ATOM     50  C   UNL A   1      42.166  28.825  33.389  1.00  0.00     0.037 A 
ATOM     51  C   UNL A   1      43.237  25.949  27.201  1.00  0.00     0.037 A 
ATOM     52  C   UNL A   1      43.248  29.659  32.926  1.00  0.00     0.049 A 
ATOM     53  C   UNL A   1      44.178  26.271  28.308  1.00  0.00     0.074 A 
ATOM     54  C   UNL A   1      43.362  31.007  32.637  1.00  0.00     0.029 A 
ATOM     55  N   UNL A   1      44.309  29.060  32.289  1.00  0.00    -0.354 N 
ATOM     56  N   UNL A   1      44.934  27.338  28.320  1.00  0.00    -0.248 NA
ATOM     57  C   UNL A   1      43.893  25.693  29.614  1.00  0.00     0.031 C 
ATOM     58  C   UNL A   1      44.129  31.057  31.434  1.00  0.00     0.029 A 
ATOM     59  C   UNL A   1      44.521  29.755  31.124  1.00  0.00     0.049 A 
ATOM     60  H   UNL A   1      44.818  28.279  32.606  1.00  0.00     0.167 HD
ATOM     61  C   UNL A   1      44.856  27.810  29.621  1.00  0.00     0.074 A 
ATOM     62  C   UNL A   1      44.249  26.722  30.388  1.00  0.00     0.031 C 
ATOM     63  C   UNL A   1      44.995  29.139  29.907  1.00  0.00     0.037 A 
BRANCH  50  64
ATOM     64  C   UNL A   1      42.376  27.724  34.401  1.00  0.00     0.064 A 
ATOM     65  C   UNL A   1      42.957  26.511  33.982  1.00  0.00     0.173 A 
ATOM     66  C   UNL A   1      41.764  27.695  35.674  1.00  0.00     0.173 A 
ATOM     67  F   UNL A   1      43.550  26.416  32.783  1.00  0.00    -0.203 F 
ATOM     68  C   UNL A   1      42.859  25.342  34.743  1.00  0.00     0.198 A 
ATOM     69  C   UNL A   1      41.717  26.541  36.454  1.00  0.00     0.198 A 
ATOM     70  F   UNL A   1      41.088  28.737  36.169  1.00  0.00    -0.203 F 
ATOM     71  F   UNL A   1      43.310  24.185  34.243  1.00  0.00    -0.200 F 
ATOM     72  C   UNL A   1      42.233  25.357  35.975  1.00  0.00     0.200 A 
ATOM     73  F   UNL A   1      41.088  26.573  37.638  1.00  0.00    -0.200 F 
ATOM     74  F   UNL A   1      42.079  24.226  36.677  1.00  0.00    -0.200 F 
ENDBRANCH  50  64
BRANCH  51  75
ATOM     75  C   UNL A   1      43.211  24.631  26.518  1.00  0.00     0.064 A 
ATOM     76  C   UNL A   1      43.878  24.429  25.297  1.00  0.00     0.173 A 
ATOM     77  C   UNL A   1      42.759  23.469  27.176  1.00  0.00     0.173 A 
ATOM     78  F   UNL A   1      44.383  25.474  24.626  1.00  0.00    -0.203 F 
ATOM     79  C   UNL A   1      44.097  23.145  24.781  1.00  0.00     0.198 A 
ATOM     80  C   UNL A   1      42.971  22.190  26.657  1.00  0.00     0.198 A 
ATOM     81  F   UNL A   1      42.181  23.541  28.385  1.00  0.00    -0.203 F 
ATOM     82  F   UNL A   1      44.789  22.991  23.643  1.00  0.00    -0.200 F 
ATOM     83  C   UNL A   1      43.652  22.028  25.466  1.00  0.00     0.200 A 
ATOM     84  F   UNL A   1      42.565  21.117  27.349  1.00  0.00    -0.200 F 
ATOM     85  F   UNL A   1      43.913  20.797  25.003  1.00  0.00    -0.200 F 
ENDBRANCH  51  75
BRANCH  63  86
ATOM     86  C   UNL A   1      45.452  30.068  28.813  1.00  0.00     0.064 A 
ATOM     87  C   UNL A   1      44.588  30.728  27.920  1.00  0.00     0.173 A 
ATOM     88  C   UNL A   1      46.803  30.434  28.777  1.00  0.00     0.173 A 
ATOM     89  F   UNL A   1      43.266  30.522  27.957  1.00  0.00    -0.203 F 
ATOM     90  C   UNL A   1      45.062  31.672  27.010  1.00  0.00     0.198 A 
ATOM     91  C   UNL A   1      47.271  31.405  27.894  1.00  0.00     0.198 A 
ATOM     92  F   UNL A   1      47.670  29.885  29.642  1.00  0.00    -0.203 F 
ATOM     93  F   UNL A   1      44.215  32.278  26.165  1.00  0.00    -0.200 F 
ATOM     94  C   UNL A   1      46.403  32.015  27.004  1.00  0.00     0.200 A 
ATOM     95  F   UNL A   1      48.560  31.770  27.930  1.00  0.00    -0.200 F 
ATOM     96  F   UNL A   1      46.855  32.953  26.160  1.00  0.00    -0.200 F 
ENDBRANCH  63  86
ENDBRANCH  37  38
ENDBRANCH  29  32
ENDBRANCH  27  28
ENDBRANCH  26  27
ENDBRANCH   1  26
TORSDOF 15
ENDMDL
MODEL 2
REMARK VINA RESULT:     -13.4      1.700      1.958
REMARK SMILES CCc1c(C(=O)NCC(=O)NCCCCNC(=O)c2ccc(-c3c4nc(c(-c5c(F)c(F)c(F)c(F)c5F)c5ccc([nH]5)c(-c5c(F)c(F)c(F)c(F)c5F)c5nc(c(-c6c(F)c(F)c(F)c(F)c6F)c6ccc3[nH]6)C=C5)C=C4)cc2)nnn1-c1ccc(Cl)cc1
REMARK SMILES IDX 13 1 12 2 11 3 9 4 10 5 8 7 7 8 5 9 6 10 4 12 3 13 84 14
REMARK SMILES IDX 82 15 83 16 2 17 1 18 85 19 86 20 91 21 87 22 90 23 88 24
REMARK SMILES IDX 89 25 14 26 15 27 16 28 17 29 18 31 19 32 20 33 81 34 21 35
REMARK SMILES IDX 80 36 22 37 23 38 24 39 74 40 25 41 79 42 73 43 75 44 26 45
REMARK SMILES IDX 78 46 72 47 71 48 27 50 59 51 39 52 58 53 40 54 43 55 57 56
REMARK SMILES IDX 76 57 41 58 42 59 56 61 77 62 44 63 28 64 29 65 37 66 30 67
REMARK SMILES IDX 31 68 35 69 38 70 32 71 33 72 36 73 34 74 60 75 61 76 69 77
REMARK SMILES IDX 62 78 63 79 67 80 70 81 64 82 65 83 68 84 66 85 45 86 46 87
REMARK SMILES IDX 54 88 47 89 48 90 52 91 55 92 49 93 50 94 53 95 51 96
REMARK H PARENT 11 6 7 11 16 30 75 49 43 60
REMARK Flexibility Score: inf
ROOT
ATOM      1  C   UNL A   1      32.139  29.876  26.774  1.00  0.00     0.023 C 
ENDROOT
BRANCH   1   2
ATOM      2  C   UNL A   1      32.175  29.829  25.248  1.00  0.00     0.116 C 
BRANCH   2   3
ATOM      3  N   UNL A   1      30.885  30.080  24.647  1.00  0.00    -0.355 N 
ATOM      4  C   UNL A   1      30.333  29.640  23.488  1.00  0.00     0.239 C 
ATOM      5  O   UNL A   1      29.159  29.972  23.280  1.00  0.00    -0.273 OA
ATOM      6  H   UNL A   1      30.304  30.676  25.171  1.00  0.00     0.163 HD
BRANCH   4   7
ATOM      7  C   UNL A   1      31.007  28.642  22.532  1.00  0.00     0.216 C 
BRANCH   7   8
ATOM      8  N   UNL A   1      32.423  28.660  22.255  1.00  0.00    -0.342 N 
ATOM      9  C   UNL A   1      33.415  27.737  22.062  1.00  0.00     0.274 C 
ATOM     10  O   UNL A   1      34.470  28.246  21.667  1.00  0.00    -0.267 OA
ATOM     11  H   UNL A   1      32.766  29.580  22.187  1.00  0.00     0.164 HD
BRANCH   9  12
ATOM     12  C   UNL A   1      33.368  26.298  22.373  1.00  0.00     0.174 A 
ATOM     13  C   UNL A   1      33.436  25.476  23.504  1.00  0.00     0.077 A 
ATOM     14  N   UNL A   1      33.369  24.180  22.978  1.00  0.00    -0.217 N 
ATOM     15  N   UNL A   1      33.356  25.471  21.261  1.00  0.00    -0.124 NA
ATOM     16  N   UNL A   1      33.480  24.218  21.641  1.00  0.00    -0.061 NA
BRANCH  13  17
ATOM     17  C   UNL A   1      33.706  25.706  24.955  1.00  0.00     0.055 C 
ATOM     18  C   UNL A   1      32.457  25.726  25.821  1.00  0.00     0.011 C 
ENDBRANCH  13  17
BRANCH  14  19
ATOM     19  C   UNL A   1      33.295  22.929  23.640  1.00  0.00     0.067 A 
ATOM     20  C   UNL A   1      34.478  22.261  23.988  1.00  0.00     0.030 A 
ATOM     21  C   UNL A   1      32.056  22.351  23.934  1.00  0.00     0.030 A 
ATOM     22  C   UNL A   1      34.412  21.062  24.703  1.00  0.00     0.023 A 
ATOM     23  C   UNL A   1      31.995  21.142  24.629  1.00  0.00     0.023 A 
ATOM     24  C   UNL A   1      33.172  20.513  25.028  1.00  0.00     0.041 A 
ATOM     25  Cl  UNL A   1      33.089  19.046  25.922  1.00  0.00    -0.084 Cl
ENDBRANCH  14  19
ENDBRANCH   9  12
ENDBRANCH   7   8
ENDBRANCH   4   7
ENDBRANCH   2   3
ENDBRANCH   1   2
BRANCH   1  26
ATOM     26  C   UNL A   1      33.424  29.401  27.469  1.00  0.00     0.023 C 
BRANCH  26  27
ATOM     27  C   UNL A   1      34.603  30.359  27.350  1.00  0.00     0.116 C 
BRANCH  27  28
ATOM     28  N   UNL A   1      34.474  31.548  28.196  1.00  0.00    -0.352 N 
ATOM     29  C   UNL A   1      35.085  31.790  29.418  1.00  0.00     0.251 C 
ATOM     30  H   UNL A   1      33.883  32.258  27.858  1.00  0.00     0.163 HD
ATOM     31  O   UNL A   1      34.624  32.577  30.223  1.00  0.00    -0.269 OA
BRANCH  29  32
ATOM     32  C   UNL A   1      36.343  31.080  29.707  1.00  0.00     0.039 A 
ATOM     33  C   UNL A   1      36.389  29.711  29.982  1.00  0.00     0.014 A 
ATOM     34  C   UNL A   1      37.505  31.840  29.650  1.00  0.00     0.014 A 
ATOM     35  C   UNL A   1      37.634  29.102  30.128  1.00  0.00     0.010 A 
ATOM     36  C   UNL A   1      38.714  31.210  29.581  1.00  0.00     0.010 A 
ATOM     37  C   UNL A   1      38.792  29.865  29.912  1.00  0.00    -0.014 A 
BRANCH  37  38
ATOM     38  C   UNL A   1      40.122  29.276  29.928  1.00  0.00     0.031 A 
ATOM     39  C   UNL A   1      40.700  29.089  31.285  1.00  0.00     0.074 A 
ATOM     40  C   UNL A   1      40.647  28.701  28.823  1.00  0.00     0.049 A 
ATOM     41  N   UNL A   1      41.771  29.627  31.763  1.00  0.00    -0.248 NA
ATOM     42  C   UNL A   1      39.933  28.313  32.275  1.00  0.00     0.031 C 
ATOM     43  C   UNL A   1      40.034  28.534  27.497  1.00  0.00     0.029 A 
ATOM     44  N   UNL A   1      41.812  28.016  28.691  1.00  0.00    -0.354 N 
ATOM     45  C   UNL A   1      41.925  29.105  33.044  1.00  0.00     0.074 A 
ATOM     46  C   UNL A   1      40.681  28.462  33.371  1.00  0.00     0.031 C 
ATOM     47  C   UNL A   1      40.712  27.599  26.796  1.00  0.00     0.029 A 
ATOM     48  C   UNL A   1      41.893  27.224  27.548  1.00  0.00     0.049 A 
ATOM     49  H   UNL A   1      42.541  28.073  29.351  1.00  0.00     0.167 HD
ATOM     50  C   UNL A   1      43.157  29.029  33.622  1.00  0.00     0.037 A 
ATOM     51  C   UNL A   1      42.846  26.294  27.286  1.00  0.00     0.037 A 
ATOM     52  C   UNL A   1      44.099  29.890  32.947  1.00  0.00     0.049 A 
ATOM     53  C   UNL A   1      44.009  26.610  28.162  1.00  0.00     0.074 A 
ATOM     54  C   UNL A   1      44.129  31.244  32.672  1.00  0.00     0.029 A 
ATOM     55  N   UNL A   1      44.996  29.320  32.076  1.00  0.00    -0.354 N 
ATOM     56  N   UNL A   1      44.735  27.688  28.029  1.00  0.00    -0.248 NA
ATOM     57  C   UNL A   1      44.030  26.001  29.485  1.00  0.00     0.031 C 
ATOM     58  C   UNL A   1      44.607  31.331  31.329  1.00  0.00     0.029 A 
ATOM     59  C   UNL A   1      44.934  30.041  30.909  1.00  0.00     0.049 A 
ATOM     60  H   UNL A   1      45.573  28.542  32.253  1.00  0.00     0.167 HD
ATOM     61  C   UNL A   1      44.945  28.133  29.325  1.00  0.00     0.074 A 
ATOM     62  C   UNL A   1      44.538  27.020  30.183  1.00  0.00     0.031 C 
ATOM     63  C   UNL A   1      45.130  29.458  29.603  1.00  0.00     0.037 A 
BRANCH  50  64
ATOM     64  C   UNL A   1      43.601  27.912  34.536  1.00  0.00     0.064 A 
ATOM     65  C   UNL A   1      43.546  26.583  34.069  1.00  0.00     0.173 A 
ATOM     66  C   UNL A   1      43.786  28.057  35.929  1.00  0.00     0.173 A 
ATOM     67  F   UNL A   1      43.354  26.324  32.767  1.00  0.00    -0.203 F 
ATOM     68  C   UNL A   1      43.589  25.491  34.940  1.00  0.00     0.198 A 
ATOM     69  C   UNL A   1      43.885  26.964  36.787  1.00  0.00     0.198 A 
ATOM     70  F   UNL A   1      43.764  29.249  36.534  1.00  0.00    -0.203 F 
ATOM     71  F   UNL A   1      43.399  24.253  34.464  1.00  0.00    -0.200 F 
ATOM     72  C   UNL A   1      43.751  25.683  36.299  1.00  0.00     0.200 A 
ATOM     73  F   UNL A   1      44.024  27.174  38.105  1.00  0.00    -0.200 F 
ATOM     74  F   UNL A   1      43.728  24.643  37.144  1.00  0.00    -0.200 F 
ENDBRANCH  50  64
BRANCH  51  75
ATOM     75  C   UNL A   1      42.683  24.990  26.597  1.00  0.00     0.064 A 
ATOM     76  C   UNL A   1      43.413  24.683  25.435  1.00  0.00     0.173 A 
ATOM     77  C   UNL A   1      42.011  23.912  27.207  1.00  0.00     0.173 A 
ATOM     78  F   UNL A   1      44.121  25.637  24.814  1.00  0.00    -0.203 F 
ATOM     79  C   UNL A   1      43.483  23.378  24.931  1.00  0.00     0.198 A 
ATOM     80  C   UNL A   1      42.074  22.612  26.701  1.00  0.00     0.198 A 
ATOM     81  F   UNL A   1      41.351  24.076  28.364  1.00  0.00    -0.203 F 
ATOM     82  F   UNL A   1      44.237  23.115  23.855  1.00  0.00    -0.200 F 
ATOM     83  C   UNL A   1      42.821  22.343  25.571  1.00  0.00     0.200 A 
ATOM     84  F   UNL A   1      41.458  21.615  27.351  1.00  0.00    -0.200 F 
ATOM     85  F   UNL A   1      42.935  21.083  25.125  1.00  0.00    -0.200 F 
ENDBRANCH  51  75
BRANCH  63  86
ATOM     86  C   UNL A   1      45.319  30.416  28.456  1.00  0.00     0.064 A 
ATOM     87  C   UNL A   1      44.271  31.091  27.805  1.00  0.00     0.173 A 
ATOM     88  C   UNL A   1      46.625  30.792  28.116  1.00  0.00     0.173 A 
ATOM     89  F   UNL A   1      42.995  30.876  28.143  1.00  0.00    -0.203 F 
ATOM     90  C   UNL A   1      44.520  32.060  26.833  1.00  0.00     0.198 A 
ATOM     91  C   UNL A   1      46.874  31.786  27.173  1.00  0.00     0.198 A 
ATOM     92  F   UNL A   1      47.670  30.227  28.743  1.00  0.00    -0.203 F 
ATOM     93  F   UNL A   1      43.499  32.680  26.224  1.00  0.00    -0.200 F 
ATOM     94  C   UNL A   1      45.823  32.411  26.524  1.00  0.00     0.200 A 
ATOM     95  F   UNL A   1      48.136  32.159  26.918  1.00  0.00    -0.200 F 
ATOM     96  F   UNL A   1      46.066  33.372  25.622  1.00  0.00    -0.200 F 
ENDBRANCH  63  86
ENDBRANCH  37  38
ENDBRANCH  29  32
ENDBRANCH  27  28
ENDBRANCH  26  27
ENDBRANCH   1  26
TORSDOF 15
ENDMDL
MODEL 3
REMARK VINA RESULT:     -13.4      3.561      8.734
REMARK SMILES CCc1c(C(=O)NCC(=O)NCCCCNC(=O)c2ccc(-c3c4nc(c(-c5c(F)c(F)c(F)c(F)c5F)c5ccc([nH]5)c(-c5c(F)c(F)c(F)c(F)c5F)c5nc(c(-c6c(F)c(F)c(F)c(F)c6F)c6ccc3[nH]6)C=C5)C=C4)cc2)nnn1-c1ccc(Cl)cc1
REMARK SMILES IDX 13 1 12 2 11 3 9 4 10 5 8 7 7 8 5 9 6 10 4 12 3 13 84 14
REMARK SMILES IDX 82 15 83 16 2 17 1 18 85 19 86 20 91 21 87 22 90 23 88 24
REMARK SMILES IDX 89 25 14 26 15 27 16 28 17 29 18 31 19 32 20 33 81 34 21 35
REMARK SMILES IDX 80 36 22 37 23 38 24 39 74 40 25 41 79 42 73 43 75 44 26 45
REMARK SMILES IDX 78 46 72 47 71 48 27 50 59 51 39 52 58 53 40 54 43 55 57 56
REMARK SMILES IDX 76 57 41 58 42 59 56 61 77 62 44 63 28 64 29 65 37 66 30 67
REMARK SMILES IDX 31 68 35 69 38 70 32 71 33 72 36 73 34 74 60 75 61 76 69 77
REMARK SMILES IDX 62 78 63 79 67 80 70 81 64 82 65 83 68 84 66 85 45 86 46 87
REMARK SMILES IDX 54 88 47 89 48 90 52 91 55 92 49 93 50 94 53 95 51 96
REMARK H PARENT 11 6 7 11 16 30 75 49 43 60
REMARK Flexibility Score: inf
ROOT
ATOM      1  C   UNL A   1      40.516  20.961  26.795  1.00  0.00     0.023 C 
ENDROOT
BRANCH   1   2
ATOM      2  C   UNL A   1      39.352  21.517  25.978  1.00  0.00     0.116 C 
BRANCH   2   3
ATOM      3  N   UNL A   1      38.807  22.736  26.530  1.00  0.00    -0.355 N 
ATOM      4  C   UNL A   1      37.914  23.628  26.032  1.00  0.00     0.239 C 
ATOM      5  O   UNL A   1      37.581  24.548  26.789  1.00  0.00    -0.273 OA
ATOM      6  H   UNL A   1      39.144  22.958  27.428  1.00  0.00     0.163 HD
BRANCH   4   7
ATOM      7  C   UNL A   1      37.189  23.467  24.687  1.00  0.00     0.216 C 
BRANCH   7   8
ATOM      8  N   UNL A   1      35.901  24.059  24.418  1.00  0.00    -0.342 N 
ATOM      9  C   UNL A   1      34.598  23.642  24.378  1.00  0.00     0.274 C 
ATOM     10  O   UNL A   1      33.800  24.580  24.269  1.00  0.00    -0.267 OA
ATOM     11  H   UNL A   1      35.981  25.017  24.205  1.00  0.00     0.164 HD
BRANCH   9  12
ATOM     12  C   UNL A   1      34.106  22.254  24.342  1.00  0.00     0.174 A 
ATOM     13  C   UNL A   1      34.487  21.003  24.840  1.00  0.00     0.077 A 
ATOM     14  N   UNL A   1      33.518  20.131  24.326  1.00  0.00    -0.217 N 
ATOM     15  N   UNL A   1      33.015  22.053  23.511  1.00  0.00    -0.124 NA
ATOM     16  N   UNL A   1      32.758  20.767  23.421  1.00  0.00    -0.061 NA
BRANCH  13  17
ATOM     17  C   UNL A   1      35.679  20.482  25.573  1.00  0.00     0.055 C 
ATOM     18  C   UNL A   1      36.689  19.770  24.686  1.00  0.00     0.011 C 
ENDBRANCH  13  17
BRANCH  14  19
ATOM     19  C   UNL A   1      33.317  18.748  24.564  1.00  0.00     0.067 A 
ATOM     20  C   UNL A   1      33.766  17.814  23.619  1.00  0.00     0.030 A 
ATOM     21  C   UNL A   1      32.663  18.312  25.720  1.00  0.00     0.030 A 
ATOM     22  C   UNL A   1      33.633  16.447  23.880  1.00  0.00     0.023 A 
ATOM     23  C   UNL A   1      32.514  16.946  25.966  1.00  0.00     0.023 A 
ATOM     24  C   UNL A   1      33.017  16.020  25.056  1.00  0.00     0.041 A 
ATOM     25  Cl  UNL A   1      32.868  14.338  25.385  1.00  0.00    -0.084 Cl
ENDBRANCH  14  19
ENDBRANCH   9  12
ENDBRANCH   7   8
ENDBRANCH   4   7
ENDBRANCH   2   3
ENDBRANCH   1   2
BRANCH   1  26
ATOM     26  C   UNL A   1      41.316  19.843  26.109  1.00  0.00     0.023 C 
BRANCH  26  27
ATOM     27  C   UNL A   1      42.718  19.630  26.665  1.00  0.00     0.116 C 
BRANCH  27  28
ATOM     28  N   UNL A   1      43.748  19.541  25.628  1.00  0.00    -0.352 N 
ATOM     29  C   UNL A   1      44.225  20.561  24.817  1.00  0.00     0.251 C 
ATOM     30  H   UNL A   1      44.148  18.653  25.488  1.00  0.00     0.163 HD
ATOM     31  O   UNL A   1      44.752  20.336  23.743  1.00  0.00    -0.269 OA
BRANCH  29  32
ATOM     32  C   UNL A   1      44.103  21.943  25.312  1.00  0.00     0.039 A 
ATOM     33  C   UNL A   1      43.111  22.818  24.863  1.00  0.00     0.014 A 
ATOM     34  C   UNL A   1      45.009  22.328  26.293  1.00  0.00     0.014 A 
ATOM     35  C   UNL A   1      42.999  24.067  25.472  1.00  0.00     0.010 A 
ATOM     36  C   UNL A   1      44.766  23.453  27.025  1.00  0.00     0.010 A 
ATOM     37  C   UNL A   1      43.829  24.367  26.563  1.00  0.00    -0.014 A 
BRANCH  37  38
ATOM     38  C   UNL A   1      43.692  25.598  27.326  1.00  0.00     0.031 A 
ATOM     39  C   UNL A   1      44.653  26.669  26.950  1.00  0.00     0.074 A 
ATOM     40  C   UNL A   1      42.607  25.827  28.099  1.00  0.00     0.049 A 
ATOM     41  N   UNL A   1      45.555  27.212  27.696  1.00  0.00    -0.248 NA
ATOM     42  C   UNL A   1      44.709  27.100  25.542  1.00  0.00     0.031 C 
ATOM     43  C   UNL A   1      41.426  24.974  28.297  1.00  0.00     0.029 A 
ATOM     44  N   UNL A   1      42.269  26.951  28.782  1.00  0.00    -0.354 N 
ATOM     45  C   UNL A   1      46.159  28.194  26.917  1.00  0.00     0.074 A 
ATOM     46  C   UNL A   1      45.737  27.953  25.563  1.00  0.00     0.031 C 
ATOM     47  C   UNL A   1      40.421  25.704  28.828  1.00  0.00     0.029 A 
ATOM     48  C   UNL A   1      40.931  27.019  29.161  1.00  0.00     0.049 A 
ATOM     49  H   UNL A   1      42.918  27.662  28.990  1.00  0.00     0.167 HD
ATOM     50  C   UNL A   1      46.752  29.276  27.496  1.00  0.00     0.037 A 
ATOM     51  C   UNL A   1      40.297  28.109  29.663  1.00  0.00     0.037 A 
ATOM     52  C   UNL A   1      47.013  29.035  28.895  1.00  0.00     0.049 A 
ATOM     53  C   UNL A   1      41.354  29.024  30.177  1.00  0.00     0.074 A 
ATOM     54  C   UNL A   1      47.723  28.070  29.584  1.00  0.00     0.029 A 
ATOM     55  N   UNL A   1      46.169  29.598  29.823  1.00  0.00    -0.354 N 
ATOM     56  N   UNL A   1      42.111  28.740  31.203  1.00  0.00    -0.248 NA
ATOM     57  C   UNL A   1      41.907  29.995  29.242  1.00  0.00     0.031 C 
ATOM     58  C   UNL A   1      46.900  27.742  30.703  1.00  0.00     0.029 A 
ATOM     59  C   UNL A   1      45.797  28.596  30.685  1.00  0.00     0.049 A 
ATOM     60  H   UNL A   1      45.884  30.540  29.862  1.00  0.00     0.167 HD
ATOM     61  C   UNL A   1      43.382  29.145  30.826  1.00  0.00     0.074 A 
ATOM     62  C   UNL A   1      43.185  29.966  29.632  1.00  0.00     0.031 C 
ATOM     63  C   UNL A   1      44.501  28.534  31.318  1.00  0.00     0.037 A 
BRANCH  50  64
ATOM     64  C   UNL A   1      46.748  30.666  26.906  1.00  0.00     0.064 A 
ATOM     65  C   UNL A   1      47.939  31.418  26.919  1.00  0.00     0.173 A 
ATOM     66  C   UNL A   1      45.575  31.394  26.608  1.00  0.00     0.173 A 
ATOM     67  F   UNL A   1      49.112  30.835  27.209  1.00  0.00    -0.203 F 
ATOM     68  C   UNL A   1      47.941  32.804  26.733  1.00  0.00     0.198 A 
ATOM     69  C   UNL A   1      45.588  32.766  26.367  1.00  0.00     0.198 A 
ATOM     70  F   UNL A   1      44.358  30.841  26.651  1.00  0.00    -0.203 F 
ATOM     71  F   UNL A   1      49.079  33.493  26.887  1.00  0.00    -0.200 F 
ATOM     72  C   UNL A   1      46.764  33.477  26.464  1.00  0.00     0.200 A 
ATOM     73  F   UNL A   1      44.432  33.403  26.126  1.00  0.00    -0.200 F 
ATOM     74  F   UNL A   1      46.752  34.812  26.348  1.00  0.00    -0.200 F 
ENDBRANCH  50  64
BRANCH  51  75
ATOM     75  C   UNL A   1      38.899  28.544  29.418  1.00  0.00     0.064 A 
ATOM     76  C   UNL A   1      38.007  28.761  30.482  1.00  0.00     0.173 A 
ATOM     77  C   UNL A   1      38.484  29.015  28.156  1.00  0.00     0.173 A 
ATOM     78  F   UNL A   1      38.339  28.388  31.726  1.00  0.00    -0.203 F 
ATOM     79  C   UNL A   1      36.788  29.427  30.298  1.00  0.00     0.198 A 
ATOM     80  C   UNL A   1      37.266  29.672  27.971  1.00  0.00     0.198 A 
ATOM     81  F   UNL A   1      39.292  28.933  27.088  1.00  0.00    -0.203 F 
ATOM     82  F   UNL A   1      35.990  29.666  31.348  1.00  0.00    -0.200 F 
ATOM     83  C   UNL A   1      36.424  29.890  29.044  1.00  0.00     0.200 A 
ATOM     84  F   UNL A   1      36.944  30.146  26.759  1.00  0.00    -0.200 F 
ATOM     85  F   UNL A   1      35.286  30.579  28.877  1.00  0.00    -0.200 F 
ENDBRANCH  51  75
BRANCH  63  86
ATOM     86  C   UNL A   1      44.347  27.550  32.448  1.00  0.00     0.064 A 
ATOM     87  C   UNL A   1      44.204  26.161  32.276  1.00  0.00     0.173 A 
ATOM     88  C   UNL A   1      44.520  28.013  33.759  1.00  0.00     0.173 A 
ATOM     89  F   UNL A   1      44.142  25.618  31.055  1.00  0.00    -0.203 F 
ATOM     90  C   UNL A   1      44.192  25.289  33.364  1.00  0.00     0.198 A 
ATOM     91  C   UNL A   1      44.546  27.139  34.842  1.00  0.00     0.198 A 
ATOM     92  F   UNL A   1      44.720  29.321  33.986  1.00  0.00    -0.203 F 
ATOM     93  F   UNL A   1      44.046  23.970  33.169  1.00  0.00    -0.200 F 
ATOM     94  C   UNL A   1      44.371  25.779  34.646  1.00  0.00     0.200 A 
ATOM     95  F   UNL A   1      44.773  27.614  36.074  1.00  0.00    -0.200 F 
ATOM     96  F   UNL A   1      44.402  24.939  35.691  1.00  0.00    -0.200 F 
ENDBRANCH  63  86
ENDBRANCH  37  38
ENDBRANCH  29  32
ENDBRANCH  27  28
ENDBRANCH  26  27
ENDBRANCH   1  26
TORSDOF 15
ENDMDL
