MODEL 1
REMARK VINA RESULT:     -10.8      0.000      0.000
REMARK SMILES CN(C)c1ccc(/C=N/NC(=O)/C=C\C(=O)NCCCCNC(=O)c2ccc(-c3c4nc(c(-c5c(F)c(F)c(F)c(F)c5F)c5ccc([nH]5)c(-c5c(F)c(F)c(F)c(F)c5F)c5nc(c(-c6c(F)c(F)c(F)c(F)c6F)c6ccc3[nH]6)C=C5)C=C4)cc2)cc1
REMARK SMILES IDX 18 1 17 2 15 3 16 4 14 6 13 7 11 8 10 9 12 11 9 12 8 13 7 14
REMARK SMILES IDX 4 15 5 16 89 17 6 18 88 19 2 20 1 21 3 22 19 23 20 24 21 25
REMARK SMILES IDX 22 26 23 27 24 29 25 30 26 31 87 32 27 33 86 34 28 35 29 36
REMARK SMILES IDX 30 37 80 38 31 39 85 40 79 41 81 42 32 43 84 44 78 45 77 46
REMARK SMILES IDX 33 48 65 49 45 50 64 51 46 52 49 53 63 54 82 55 47 56 48 57
REMARK SMILES IDX 62 59 83 60 50 61 34 62 35 63 43 64 36 65 37 66 41 67 44 68
REMARK SMILES IDX 38 69 39 70 42 71 40 72 66 73 67 74 75 75 68 76 69 77 73 78
REMARK SMILES IDX 76 79 70 80 71 81 74 82 72 83 51 84 52 85 60 86 53 87 54 88
REMARK SMILES IDX 58 89 61 90 55 91 56 92 59 93 57 94
REMARK H PARENT 17 5 10 10 22 28 81 47 49 58
REMARK Flexibility Score: inf
ROOT
ATOM      1  C   UNL A   1      43.326  19.107  25.939  1.00  0.00     0.116 C 
ENDROOT
BRANCH   1   2
ATOM      2  N   UNL A   1      43.795  18.903  24.585  1.00  0.00    -0.353 N 
ATOM      3  C   UNL A   1      44.987  19.207  24.019  1.00  0.00     0.244 C 
ATOM      4  O   UNL A   1      45.321  18.677  22.962  1.00  0.00    -0.270 OA
ATOM      5  H   UNL A   1      43.146  18.475  23.980  1.00  0.00     0.163 HD
BRANCH   3   6
ATOM      6  C   UNL A   1      45.950  20.077  24.713  1.00  0.00     0.077 C 
ATOM      7  C   UNL A   1      45.964  21.415  24.779  1.00  0.00     0.079 C 
BRANCH   7   8
ATOM      8  C   UNL A   1      44.998  22.425  24.288  1.00  0.00     0.264 C 
ATOM      9  N   UNL A   1      44.655  23.541  25.002  1.00  0.00    -0.244 N 
ATOM     10  H   UNL A   1      44.088  24.181  24.514  1.00  0.00     0.194 HD
ATOM     11  O   UNL A   1      44.491  22.228  23.181  1.00  0.00    -0.268 OA
BRANCH   9  12
ATOM     12  N   UNL A   1      44.965  23.912  26.271  1.00  0.00    -0.180 NA
ATOM     13  C   UNL A   1      44.237  23.414  27.219  1.00  0.00     0.141 C 
BRANCH  13  14
ATOM     14  C   UNL A   1      44.484  23.708  28.639  1.00  0.00    -0.005 A 
ATOM     15  C   UNL A   1      44.776  24.338  31.371  1.00  0.00     0.036 A 
ATOM     16  C   UNL A   1      45.661  24.846  30.405  1.00  0.00     0.026 A 
ATOM     17  C   UNL A   1      43.782  23.450  30.931  1.00  0.00     0.026 A 
ATOM     18  C   UNL A   1      45.525  24.536  29.048  1.00  0.00     0.012 A 
ATOM     19  C   UNL A   1      43.625  23.143  29.577  1.00  0.00     0.012 A 
BRANCH  15  20
ATOM     20  N   UNL A   1      44.871  24.740  32.702  1.00  0.00    -0.378 N 
ATOM     21  C   UNL A   1      45.200  23.768  33.735  1.00  0.00     0.143 C 
ATOM     22  C   UNL A   1      44.026  25.867  33.087  1.00  0.00     0.143 C 
ENDBRANCH  15  20
ENDBRANCH  13  14
ENDBRANCH   9  12
ENDBRANCH   7   8
ENDBRANCH   3   6
ENDBRANCH   1   2
BRANCH   1  23
ATOM     23  C   UNL A   1      42.434  20.336  26.112  1.00  0.00     0.023 C 
BRANCH  23  24
ATOM     24  C   UNL A   1      41.594  20.375  27.388  1.00  0.00     0.023 C 
BRANCH  24  25
ATOM     25  C   UNL A   1      40.841  21.678  27.613  1.00  0.00     0.116 C 
BRANCH  25  26
ATOM     26  N   UNL A   1      39.712  21.820  26.708  1.00  0.00    -0.352 N 
ATOM     27  C   UNL A   1      38.923  22.907  26.458  1.00  0.00     0.251 C 
ATOM     28  H   UNL A   1      39.480  21.011  26.199  1.00  0.00     0.163 HD
ATOM     29  O   UNL A   1      37.889  22.774  25.798  1.00  0.00    -0.269 OA
BRANCH  27  30
ATOM     30  C   UNL A   1      39.297  24.239  26.969  1.00  0.00     0.039 A 
ATOM     31  C   UNL A   1      40.022  25.098  26.139  1.00  0.00     0.014 A 
ATOM     32  C   UNL A   1      38.988  24.619  28.279  1.00  0.00     0.014 A 
ATOM     33  C   UNL A   1      40.422  26.345  26.616  1.00  0.00     0.010 A 
ATOM     34  C   UNL A   1      39.316  25.892  28.726  1.00  0.00     0.010 A 
ATOM     35  C   UNL A   1      40.062  26.753  27.909  1.00  0.00    -0.014 A 
BRANCH  35  36
ATOM     36  C   UNL A   1      40.517  28.052  28.455  1.00  0.00     0.031 A 
ATOM     37  C   UNL A   1      41.975  28.259  28.757  1.00  0.00     0.074 A 
ATOM     38  C   UNL A   1      39.614  29.012  28.728  1.00  0.00     0.049 A 
ATOM     39  N   UNL A   1      42.571  29.287  29.303  1.00  0.00    -0.248 NA
ATOM     40  C   UNL A   1      42.880  27.145  28.431  1.00  0.00     0.031 C 
ATOM     41  C   UNL A   1      38.170  28.897  28.522  1.00  0.00     0.029 A 
ATOM     42  N   UNL A   1      39.779  30.270  29.247  1.00  0.00    -0.354 N 
ATOM     43  C   UNL A   1      43.910  28.933  29.410  1.00  0.00     0.074 A 
ATOM     44  C   UNL A   1      44.032  27.577  28.922  1.00  0.00     0.031 C 
ATOM     45  C   UNL A   1      37.582  30.046  28.891  1.00  0.00     0.029 A 
ATOM     46  C   UNL A   1      38.603  30.964  29.384  1.00  0.00     0.049 A 
ATOM     47  H   UNL A   1      40.656  30.638  29.498  1.00  0.00     0.167 HD
ATOM     48  C   UNL A   1      44.948  29.682  29.851  1.00  0.00     0.037 A 
ATOM     49  C   UNL A   1      38.382  32.205  29.856  1.00  0.00     0.037 A 
ATOM     50  C   UNL A   1      44.819  31.045  30.296  1.00  0.00     0.049 A 
ATOM     51  C   UNL A   1      39.557  33.032  30.303  1.00  0.00     0.074 A 
ATOM     52  C   UNL A   1      45.809  31.918  30.710  1.00  0.00     0.029 A 
ATOM     53  N   UNL A   1      43.616  31.734  30.375  1.00  0.00    -0.354 N 
ATOM     54  N   UNL A   1      40.827  32.711  30.344  1.00  0.00    -0.248 NA
ATOM     55  C   UNL A   1      39.268  34.399  30.755  1.00  0.00     0.031 C 
ATOM     56  C   UNL A   1      45.201  33.126  31.071  1.00  0.00     0.029 A 
ATOM     57  C   UNL A   1      43.839  33.019  30.838  1.00  0.00     0.049 A 
ATOM     58  H   UNL A   1      42.736  31.363  30.136  1.00  0.00     0.167 HD
ATOM     59  C   UNL A   1      41.493  33.840  30.796  1.00  0.00     0.074 A 
ATOM     60  C   UNL A   1      40.486  34.861  31.003  1.00  0.00     0.031 C 
ATOM     61  C   UNL A   1      42.818  34.019  31.022  1.00  0.00     0.037 A 
BRANCH  48  62
ATOM     62  C   UNL A   1      46.306  29.045  29.867  1.00  0.00     0.064 A 
ATOM     63  C   UNL A   1      47.166  29.115  28.760  1.00  0.00     0.173 A 
ATOM     64  C   UNL A   1      46.765  28.370  31.009  1.00  0.00     0.173 A 
ATOM     65  F   UNL A   1      46.771  29.735  27.637  1.00  0.00    -0.203 F 
ATOM     66  C   UNL A   1      48.417  28.506  28.782  1.00  0.00     0.198 A 
ATOM     67  C   UNL A   1      48.031  27.790  31.039  1.00  0.00     0.198 A 
ATOM     68  F   UNL A   1      45.987  28.277  32.097  1.00  0.00    -0.203 F 
ATOM     69  F   UNL A   1      49.197  28.539  27.692  1.00  0.00    -0.200 F 
ATOM     70  C   UNL A   1      48.852  27.849  29.923  1.00  0.00     0.200 A 
ATOM     71  F   UNL A   1      48.453  27.166  32.148  1.00  0.00    -0.200 F 
ATOM     72  F   UNL A   1      50.059  27.268  29.945  1.00  0.00    -0.200 F 
ENDBRANCH  48  62
BRANCH  49  73
ATOM     73  C   UNL A   1      37.002  32.753  29.880  1.00  0.00     0.064 A 
ATOM     74  C   UNL A   1      36.450  33.360  28.743  1.00  0.00     0.173 A 
ATOM     75  C   UNL A   1      36.202  32.671  31.030  1.00  0.00     0.173 A 
ATOM     76  F   UNL A   1      37.182  33.476  27.626  1.00  0.00    -0.203 F 
ATOM     77  C   UNL A   1      35.160  33.884  28.761  1.00  0.00     0.198 A 
ATOM     78  C   UNL A   1      34.902  33.172  31.039  1.00  0.00     0.198 A 
ATOM     79  F   UNL A   1      36.680  32.091  32.141  1.00  0.00    -0.203 F 
ATOM     80  F   UNL A   1      34.673  34.498  27.674  1.00  0.00    -0.200 F 
ATOM     81  C   UNL A   1      34.385  33.784  29.907  1.00  0.00     0.200 A 
ATOM     82  F   UNL A   1      34.151  33.061  32.142  1.00  0.00    -0.200 F 
ATOM     83  F   UNL A   1      33.141  34.284  29.922  1.00  0.00    -0.200 F 
ENDBRANCH  49  73
BRANCH  61  84
ATOM     84  C   UNL A   1      43.254  35.379  31.476  1.00  0.00     0.064 A 
ATOM     85  C   UNL A   1      43.642  36.371  30.564  1.00  0.00     0.173 A 
ATOM     86  C   UNL A   1      43.250  35.704  32.841  1.00  0.00     0.173 A 
ATOM     87  F   UNL A   1      43.674  36.102  29.250  1.00  0.00    -0.203 F 
ATOM     88  C   UNL A   1      44.036  37.631  31.003  1.00  0.00     0.198 A 
ATOM     89  C   UNL A   1      43.618  36.975  33.275  1.00  0.00     0.198 A 
ATOM     90  F   UNL A   1      42.881  34.792  33.753  1.00  0.00    -0.203 F 
ATOM     91  F   UNL A   1      44.448  38.548  30.118  1.00  0.00    -0.200 F 
ATOM     92  C   UNL A   1      44.017  37.933  32.357  1.00  0.00     0.200 A 
ATOM     93  F   UNL A   1      43.589  37.269  34.582  1.00  0.00    -0.200 F 
ATOM     94  F   UNL A   1      44.393  39.149  32.778  1.00  0.00    -0.200 F 
ENDBRANCH  61  84
ENDBRANCH  35  36
ENDBRANCH  27  30
ENDBRANCH  25  26
ENDBRANCH  24  25
ENDBRANCH  23  24
ENDBRANCH   1  23
TORSDOF 15
ENDMDL
MODEL 2
REMARK VINA RESULT:     -10.7      5.648     11.549
REMARK SMILES CN(C)c1ccc(/C=N/NC(=O)/C=C\C(=O)NCCCCNC(=O)c2ccc(-c3c4nc(c(-c5c(F)c(F)c(F)c(F)c5F)c5ccc([nH]5)c(-c5c(F)c(F)c(F)c(F)c5F)c5nc(c(-c6c(F)c(F)c(F)c(F)c6F)c6ccc3[nH]6)C=C5)C=C4)cc2)cc1
REMARK SMILES IDX 18 1 17 2 15 3 16 4 14 6 13 7 11 8 10 9 12 11 9 12 8 13 7 14
REMARK SMILES IDX 4 15 5 16 89 17 6 18 88 19 2 20 1 21 3 22 19 23 20 24 21 25
REMARK SMILES IDX 22 26 23 27 24 29 25 30 26 31 87 32 27 33 86 34 28 35 29 36
REMARK SMILES IDX 30 37 80 38 31 39 85 40 79 41 81 42 32 43 84 44 78 45 77 46
REMARK SMILES IDX 33 48 65 49 45 50 64 51 46 52 49 53 63 54 82 55 47 56 48 57
REMARK SMILES IDX 62 59 83 60 50 61 34 62 35 63 43 64 36 65 37 66 41 67 44 68
REMARK SMILES IDX 38 69 39 70 42 71 40 72 66 73 67 74 75 75 68 76 69 77 73 78
REMARK SMILES IDX 76 79 70 80 71 81 74 82 72 83 51 84 52 85 60 86 53 87 54 88
REMARK SMILES IDX 58 89 61 90 55 91 56 92 59 93 57 94
REMARK H PARENT 17 5 10 10 22 28 81 47 49 58
REMARK Flexibility Score: inf
ROOT
ATOM      1  C   UNL A   1      31.523  26.799  26.384  1.00  0.00     0.116 C 
ENDROOT
BRANCH   1   2
ATOM      2  N   UNL A   1      31.194  25.475  26.869  1.00  0.00    -0.353 N 
ATOM      3  C   UNL A   1      31.901  24.322  26.806  1.00  0.00     0.244 C 
ATOM      4  O   UNL A   1      31.613  23.381  27.542  1.00  0.00    -0.270 OA
ATOM      5  H   UNL A   1      30.319  25.401  27.314  1.00  0.00     0.163 HD
BRANCH   3   6
ATOM      6  C   UNL A   1      33.093  24.215  25.949  1.00  0.00     0.077 C 
ATOM      7  C   UNL A   1      33.237  23.528  24.808  1.00  0.00     0.079 C 
BRANCH   7   8
ATOM      8  C   UNL A   1      32.259  22.765  23.999  1.00  0.00     0.264 C 
ATOM      9  N   UNL A   1      31.448  23.344  23.062  1.00  0.00    -0.244 N 
ATOM     10  H   UNL A   1      30.925  22.707  22.523  1.00  0.00     0.194 HD
ATOM     11  O   UNL A   1      32.190  21.549  24.200  1.00  0.00    -0.268 OA
BRANCH   9  12
ATOM     12  N   UNL A   1      31.243  24.651  22.752  1.00  0.00    -0.180 NA
ATOM     13  C   UNL A   1      30.340  25.278  23.436  1.00  0.00     0.141 C 
BRANCH  13  14
ATOM     14  C   UNL A   1      30.039  26.702  23.225  1.00  0.00    -0.005 A 
ATOM     15  C   UNL A   1      29.321  29.377  22.702  1.00  0.00     0.036 A 
ATOM     16  C   UNL A   1      30.632  28.917  22.488  1.00  0.00     0.026 A 
ATOM     17  C   UNL A   1      28.401  28.470  23.250  1.00  0.00     0.026 A 
ATOM     18  C   UNL A   1      30.997  27.592  22.748  1.00  0.00     0.012 A 
ATOM     19  C   UNL A   1      28.748  27.141  23.500  1.00  0.00     0.012 A 
BRANCH  15  20
ATOM     20  N   UNL A   1      28.956  30.673  22.342  1.00  0.00    -0.378 N 
ATOM     21  C   UNL A   1      28.833  31.705  23.362  1.00  0.00     0.143 C 
ATOM     22  C   UNL A   1      28.100  30.789  21.165  1.00  0.00     0.143 C 
ENDBRANCH  15  20
ENDBRANCH  13  14
ENDBRANCH   9  12
ENDBRANCH   7   8
ENDBRANCH   3   6
ENDBRANCH   1   2
BRANCH   1  23
ATOM     23  C   UNL A   1      31.978  27.768  27.474  1.00  0.00     0.023 C 
BRANCH  23  24
ATOM     24  C   UNL A   1      31.717  29.249  27.200  1.00  0.00     0.023 C 
BRANCH  24  25
ATOM     25  C   UNL A   1      32.825  29.957  26.434  1.00  0.00     0.116 C 
BRANCH  25  26
ATOM     26  N   UNL A   1      32.790  31.398  26.628  1.00  0.00    -0.352 N 
ATOM     27  C   UNL A   1      33.575  32.194  27.413  1.00  0.00     0.251 C 
ATOM     28  H   UNL A   1      32.096  31.871  26.116  1.00  0.00     0.163 HD
ATOM     29  O   UNL A   1      33.262  33.374  27.592  1.00  0.00    -0.269 OA
BRANCH  27  30
ATOM     30  C   UNL A   1      34.793  31.656  28.046  1.00  0.00     0.039 A 
ATOM     31  C   UNL A   1      34.776  30.344  28.530  1.00  0.00     0.014 A 
ATOM     32  C   UNL A   1      35.927  32.456  28.218  1.00  0.00     0.014 A 
ATOM     33  C   UNL A   1      35.902  29.829  29.169  1.00  0.00     0.010 A 
ATOM     34  C   UNL A   1      37.076  31.916  28.783  1.00  0.00     0.010 A 
ATOM     35  C   UNL A   1      37.062  30.610  29.290  1.00  0.00    -0.014 A 
BRANCH  35  36
ATOM     36  C   UNL A   1      38.253  30.102  30.008  1.00  0.00     0.031 A 
ATOM     37  C   UNL A   1      38.517  30.555  31.417  1.00  0.00     0.074 A 
ATOM     38  C   UNL A   1      39.115  29.287  29.374  1.00  0.00     0.049 A 
ATOM     39  N   UNL A   1      39.534  30.291  32.196  1.00  0.00    -0.248 NA
ATOM     40  C   UNL A   1      37.519  31.455  32.018  1.00  0.00     0.031 C 
ATOM     41  C   UNL A   1      38.982  28.827  27.991  1.00  0.00     0.029 A 
ATOM     42  N   UNL A   1      40.280  28.709  29.808  1.00  0.00    -0.354 N 
ATOM     43  C   UNL A   1      39.311  31.010  33.363  1.00  0.00     0.074 A 
ATOM     44  C   UNL A   1      38.091  31.763  33.172  1.00  0.00     0.031 C 
ATOM     45  C   UNL A   1      40.013  28.020  27.696  1.00  0.00     0.029 A 
ATOM     46  C   UNL A   1      40.892  27.930  28.858  1.00  0.00     0.049 A 
ATOM     47  H   UNL A   1      40.643  28.841  30.713  1.00  0.00     0.167 HD
ATOM     48  C   UNL A   1      40.045  31.021  34.501  1.00  0.00     0.037 A 
ATOM     49  C   UNL A   1      42.036  27.223  28.925  1.00  0.00     0.037 A 
ATOM     50  C   UNL A   1      41.234  30.234  34.693  1.00  0.00     0.049 A 
ATOM     51  C   UNL A   1      42.812  27.219  30.214  1.00  0.00     0.074 A 
ATOM     52  C   UNL A   1      42.025  30.122  35.822  1.00  0.00     0.029 A 
ATOM     53  N   UNL A   1      41.799  29.417  33.723  1.00  0.00    -0.354 N 
ATOM     54  N   UNL A   1      42.561  27.855  31.333  1.00  0.00    -0.248 NA
ATOM     55  C   UNL A   1      44.022  26.388  30.254  1.00  0.00     0.031 C 
ATOM     56  C   UNL A   1      43.088  29.260  35.525  1.00  0.00     0.029 A 
ATOM     57  C   UNL A   1      42.933  28.802  34.227  1.00  0.00     0.049 A 
ATOM     58  H   UNL A   1      41.446  29.293  32.813  1.00  0.00     0.167 HD
ATOM     59  C   UNL A   1      43.560  27.479  32.218  1.00  0.00     0.074 A 
ATOM     60  C   UNL A   1      44.415  26.548  31.509  1.00  0.00     0.031 C 
ATOM     61  C   UNL A   1      43.757  27.869  33.502  1.00  0.00     0.037 A 
BRANCH  48  62
ATOM     62  C   UNL A   1      39.576  31.902  35.621  1.00  0.00     0.064 A 
ATOM     63  C   UNL A   1      38.575  31.488  36.514  1.00  0.00     0.173 A 
ATOM     64  C   UNL A   1      40.145  33.170  35.818  1.00  0.00     0.173 A 
ATOM     65  F   UNL A   1      37.987  30.292  36.363  1.00  0.00    -0.203 F 
ATOM     66  C   UNL A   1      38.138  32.323  37.540  1.00  0.00     0.198 A 
ATOM     67  C   UNL A   1      39.728  33.988  36.865  1.00  0.00     0.198 A 
ATOM     68  F   UNL A   1      41.108  33.613  34.998  1.00  0.00    -0.203 F 
ATOM     69  F   UNL A   1      37.142  31.927  38.345  1.00  0.00    -0.200 F 
ATOM     70  C   UNL A   1      38.719  33.569  37.719  1.00  0.00     0.200 A 
ATOM     71  F   UNL A   1      40.298  35.188  37.043  1.00  0.00    -0.200 F 
ATOM     72  F   UNL A   1      38.301  34.369  38.710  1.00  0.00    -0.200 F 
ENDBRANCH  48  62
BRANCH  49  73
ATOM     73  C   UNL A   1      42.484  26.427  27.755  1.00  0.00     0.064 A 
ATOM     74  C   UNL A   1      41.990  25.133  27.536  1.00  0.00     0.173 A 
ATOM     75  C   UNL A   1      43.400  26.942  26.826  1.00  0.00     0.173 A 
ATOM     76  F   UNL A   1      41.124  24.592  28.405  1.00  0.00    -0.203 F 
ATOM     77  C   UNL A   1      42.412  24.376  26.445  1.00  0.00     0.198 A 
ATOM     78  C   UNL A   1      43.802  26.194  25.721  1.00  0.00     0.198 A 
ATOM     79  F   UNL A   1      43.895  28.178  26.986  1.00  0.00    -0.203 F 
ATOM     80  F   UNL A   1      41.956  23.126  26.284  1.00  0.00    -0.200 F 
ATOM     81  C   UNL A   1      43.313  24.909  25.536  1.00  0.00     0.200 A 
ATOM     82  F   UNL A   1      44.661  26.716  24.837  1.00  0.00    -0.200 F 
ATOM     83  F   UNL A   1      43.715  24.182  24.484  1.00  0.00    -0.200 F 
ENDBRANCH  49  73
BRANCH  61  84
ATOM     84  C   UNL A   1      44.915  27.256  34.231  1.00  0.00     0.064 A 
ATOM     85  C   UNL A   1      46.176  27.867  34.255  1.00  0.00     0.173 A 
ATOM     86  C   UNL A   1      44.748  26.058  34.943  1.00  0.00     0.173 A 
ATOM     87  F   UNL A   1      46.387  29.005  33.577  1.00  0.00    -0.203 F 
ATOM     88  C   UNL A   1      47.238  27.288  34.944  1.00  0.00     0.198 A 
ATOM     89  C   UNL A   1      45.804  25.496  35.655  1.00  0.00     0.198 A 
ATOM     90  F   UNL A   1      43.558  25.439  34.956  1.00  0.00    -0.203 F 
ATOM     91  F   UNL A   1      48.447  27.863  34.915  1.00  0.00    -0.200 F 
ATOM     92  C   UNL A   1      47.049  26.107  35.648  1.00  0.00     0.200 A 
ATOM     93  F   UNL A   1      45.617  24.363  36.344  1.00  0.00    -0.200 F 
ATOM     94  F   UNL A   1      48.071  25.553  36.315  1.00  0.00    -0.200 F 
ENDBRANCH  61  84
ENDBRANCH  35  36
ENDBRANCH  27  30
ENDBRANCH  25  26
ENDBRANCH  24  25
ENDBRANCH  23  24
ENDBRANCH   1  23
TORSDOF 15
ENDMDL
MODEL 3
REMARK VINA RESULT:     -10.6      4.332     11.783
REMARK SMILES CN(C)c1ccc(/C=N/NC(=O)/C=C\C(=O)NCCCCNC(=O)c2ccc(-c3c4nc(c(-c5c(F)c(F)c(F)c(F)c5F)c5ccc([nH]5)c(-c5c(F)c(F)c(F)c(F)c5F)c5nc(c(-c6c(F)c(F)c(F)c(F)c6F)c6ccc3[nH]6)C=C5)C=C4)cc2)cc1
REMARK SMILES IDX 18 1 17 2 15 3 16 4 14 6 13 7 11 8 10 9 12 11 9 12 8 13 7 14
REMARK SMILES IDX 4 15 5 16 89 17 6 18 88 19 2 20 1 21 3 22 19 23 20 24 21 25
REMARK SMILES IDX 22 26 23 27 24 29 25 30 26 31 87 32 27 33 86 34 28 35 29 36
REMARK SMILES IDX 30 37 80 38 31 39 85 40 79 41 81 42 32 43 84 44 78 45 77 46
REMARK SMILES IDX 33 48 65 49 45 50 64 51 46 52 49 53 63 54 82 55 47 56 48 57
REMARK SMILES IDX 62 59 83 60 50 61 34 62 35 63 43 64 36 65 37 66 41 67 44 68
REMARK SMILES IDX 38 69 39 70 42 71 40 72 66 73 67 74 75 75 68 76 69 77 73 78
REMARK SMILES IDX 76 79 70 80 71 81 74 82 72 83 51 84 52 85 60 86 53 87 54 88
REMARK SMILES IDX 58 89 61 90 55 91 56 92 59 93 57 94
REMARK H PARENT 17 5 10 10 22 28 81 47 49 58
REMARK Flexibility Score: inf
ROOT
ATOM      1  C   UNL A   1      33.448  36.363  29.743  1.00  0.00     0.116 C 
ENDROOT
BRANCH   1   2
ATOM      2  N   UNL A   1      32.486  36.364  30.826  1.00  0.00    -0.353 N 
ATOM      3  C   UNL A   1      32.670  36.542  32.156  1.00  0.00     0.244 C 
ATOM      4  O   UNL A   1      31.717  36.828  32.877  1.00  0.00    -0.270 OA
ATOM      5  H   UNL A   1      31.552  36.212  30.553  1.00  0.00     0.163 HD
BRANCH   3   6
ATOM      6  C   UNL A   1      34.020  36.516  32.740  1.00  0.00     0.077 C 
ATOM      7  C   UNL A   1      34.726  35.455  33.155  1.00  0.00     0.079 C 
BRANCH   7   8
ATOM      8  C   UNL A   1      34.445  34.004  33.071  1.00  0.00     0.264 C 
ATOM      9  N   UNL A   1      35.408  33.069  32.807  1.00  0.00    -0.244 N 
ATOM     10  H   UNL A   1      35.105  32.135  32.888  1.00  0.00     0.194 HD
ATOM     11  O   UNL A   1      33.277  33.645  33.249  1.00  0.00    -0.268 OA
BRANCH   9  12
ATOM     12  N   UNL A   1      36.711  33.213  32.452  1.00  0.00    -0.180 NA
ATOM     13  C   UNL A   1      36.949  33.862  31.357  1.00  0.00     0.141 C 
BRANCH  13  14
ATOM     14  C   UNL A   1      38.314  34.118  30.874  1.00  0.00    -0.005 A 
ATOM     15  C   UNL A   1      40.933  34.766  30.059  1.00  0.00     0.036 A 
ATOM     16  C   UNL A   1      39.902  34.577  29.122  1.00  0.00     0.026 A 
ATOM     17  C   UNL A   1      40.624  34.552  31.411  1.00  0.00     0.026 A 
ATOM     18  C   UNL A   1      38.600  34.253  29.519  1.00  0.00     0.012 A 
ATOM     19  C   UNL A   1      39.325  34.243  31.821  1.00  0.00     0.012 A 
BRANCH  15  20
ATOM     20  N   UNL A   1      42.197  35.186  29.647  1.00  0.00    -0.378 N 
ATOM     21  C   UNL A   1      42.389  35.709  28.302  1.00  0.00     0.143 C 
ATOM     22  C   UNL A   1      43.327  34.501  30.267  1.00  0.00     0.143 C 
ENDBRANCH  15  20
ENDBRANCH  13  14
ENDBRANCH   9  12
ENDBRANCH   7   8
ENDBRANCH   3   6
ENDBRANCH   1   2
BRANCH   1  23
ATOM     23  C   UNL A   1      33.361  35.140  28.832  1.00  0.00     0.023 C 
BRANCH  23  24
ATOM     24  C   UNL A   1      34.028  33.870  29.359  1.00  0.00     0.023 C 
BRANCH  24  25
ATOM     25  C   UNL A   1      34.867  33.122  28.332  1.00  0.00     0.116 C 
BRANCH  25  26
ATOM     26  N   UNL A   1      34.126  32.041  27.702  1.00  0.00    -0.352 N 
ATOM     27  C   UNL A   1      34.507  30.756  27.439  1.00  0.00     0.251 C 
ATOM     28  H   UNL A   1      33.210  32.270  27.423  1.00  0.00     0.163 HD
ATOM     29  O   UNL A   1      33.801  30.044  26.719  1.00  0.00    -0.269 OA
BRANCH  27  30
ATOM     30  C   UNL A   1      35.754  30.212  28.008  1.00  0.00     0.039 A 
ATOM     31  C   UNL A   1      35.733  29.702  29.309  1.00  0.00     0.014 A 
ATOM     32  C   UNL A   1      36.952  30.257  27.288  1.00  0.00     0.014 A 
ATOM     33  C   UNL A   1      36.908  29.221  29.882  1.00  0.00     0.010 A 
ATOM     34  C   UNL A   1      38.106  29.704  27.828  1.00  0.00     0.010 A 
ATOM     35  C   UNL A   1      38.100  29.210  29.140  1.00  0.00    -0.014 A 
BRANCH  35  36
ATOM     36  C   UNL A   1      39.371  28.749  29.743  1.00  0.00     0.031 A 
ATOM     37  C   UNL A   1      39.921  29.463  30.948  1.00  0.00     0.074 A 
ATOM     38  C   UNL A   1      40.049  27.735  29.176  1.00  0.00     0.049 A 
ATOM     39  N   UNL A   1      41.047  29.270  31.583  1.00  0.00    -0.248 NA
ATOM     40  C   UNL A   1      39.109  30.566  31.487  1.00  0.00     0.031 C 
ATOM     41  C   UNL A   1      39.632  27.007  27.976  1.00  0.00     0.029 A 
ATOM     42  N   UNL A   1      41.237  27.148  29.527  1.00  0.00    -0.354 N 
ATOM     43  C   UNL A   1      41.090  30.239  32.576  1.00  0.00     0.074 A 
ATOM     44  C   UNL A   1      39.904  31.054  32.428  1.00  0.00     0.031 C 
ATOM     45  C   UNL A   1      40.539  26.056  27.703  1.00  0.00     0.029 A 
ATOM     46  C   UNL A   1      41.612  26.128  28.690  1.00  0.00     0.049 A 
ATOM     47  H   UNL A   1      41.769  27.433  30.304  1.00  0.00     0.167 HD
ATOM     48  C   UNL A   1      42.023  30.418  33.542  1.00  0.00     0.037 A 
ATOM     49  C   UNL A   1      42.703  25.340  28.722  1.00  0.00     0.037 A 
ATOM     50  C   UNL A   1      43.177  29.574  33.704  1.00  0.00     0.049 A 
ATOM     51  C   UNL A   1      43.704  25.532  29.829  1.00  0.00     0.074 A 
ATOM     52  C   UNL A   1      44.156  29.626  34.680  1.00  0.00     0.029 A 
ATOM     53  N   UNL A   1      43.500  28.517  32.865  1.00  0.00    -0.354 N 
ATOM     54  N   UNL A   1      43.706  26.413  30.799  1.00  0.00    -0.248 NA
ATOM     55  C   UNL A   1      44.847  24.610  29.852  1.00  0.00     0.031 C 
ATOM     56  C   UNL A   1      45.091  28.618  34.412  1.00  0.00     0.029 A 
ATOM     57  C   UNL A   1      44.668  27.912  33.297  1.00  0.00     0.049 A 
ATOM     58  H   UNL A   1      42.976  28.238  32.080  1.00  0.00     0.167 HD
ATOM     59  C   UNL A   1      44.828  26.136  31.565  1.00  0.00     0.074 A 
ATOM     60  C   UNL A   1      45.478  24.994  30.953  1.00  0.00     0.031 C 
ATOM     61  C   UNL A   1      45.284  26.768  32.675  1.00  0.00     0.037 A 
BRANCH  48  62
ATOM     62  C   UNL A   1      41.825  31.560  34.494  1.00  0.00     0.064 A 
ATOM     63  C   UNL A   1      42.427  32.810  34.280  1.00  0.00     0.173 A 
ATOM     64  C   UNL A   1      41.009  31.413  35.627  1.00  0.00     0.173 A 
ATOM     65  F   UNL A   1      43.228  33.001  33.220  1.00  0.00    -0.203 F 
ATOM     66  C   UNL A   1      42.247  33.858  35.179  1.00  0.00     0.198 A 
ATOM     67  C   UNL A   1      40.806  32.473  36.507  1.00  0.00     0.198 A 
ATOM     68  F   UNL A   1      40.406  30.242  35.877  1.00  0.00    -0.203 F 
ATOM     69  F   UNL A   1      42.877  35.024  34.982  1.00  0.00    -0.200 F 
ATOM     70  C   UNL A   1      41.432  33.691  36.289  1.00  0.00     0.200 A 
ATOM     71  F   UNL A   1      40.009  32.313  37.573  1.00  0.00    -0.200 F 
ATOM     72  F   UNL A   1      41.257  34.702  37.151  1.00  0.00    -0.200 F 
ENDBRANCH  48  62
BRANCH  49  73
ATOM     73  C   UNL A   1      42.875  24.272  27.705  1.00  0.00     0.064 A 
ATOM     74  C   UNL A   1      43.466  24.550  26.465  1.00  0.00     0.173 A 
ATOM     75  C   UNL A   1      42.466  22.953  27.952  1.00  0.00     0.173 A 
ATOM     76  F   UNL A   1      43.858  25.800  26.176  1.00  0.00    -0.203 F 
ATOM     77  C   UNL A   1      43.622  23.556  25.502  1.00  0.00     0.198 A 
ATOM     78  C   UNL A   1      42.647  21.953  26.999  1.00  0.00     0.198 A 
ATOM     79  F   UNL A   1      41.903  22.633  29.127  1.00  0.00    -0.203 F 
ATOM     80  F   UNL A   1      44.152  23.859  24.309  1.00  0.00    -0.200 F 
ATOM     81  C   UNL A   1      43.218  22.257  25.772  1.00  0.00     0.200 A 
ATOM     82  F   UNL A   1      42.269  20.697  27.268  1.00  0.00    -0.200 F 
ATOM     83  F   UNL A   1      43.373  21.299  24.847  1.00  0.00    -0.200 F 
ENDBRANCH  49  73
BRANCH  61  84
ATOM     84  C   UNL A   1      46.518  26.210  33.318  1.00  0.00     0.064 A 
ATOM     85  C   UNL A   1      46.450  25.205  34.294  1.00  0.00     0.173 A 
ATOM     86  C   UNL A   1      47.787  26.664  32.928  1.00  0.00     0.173 A 
ATOM     87  F   UNL A   1      45.258  24.749  34.709  1.00  0.00    -0.203 F 
ATOM     88  C   UNL A   1      47.606  24.693  34.874  1.00  0.00     0.198 A 
ATOM     89  C   UNL A   1      48.942  26.130  33.490  1.00  0.00     0.198 A 
ATOM     90  F   UNL A   1      47.906  27.620  31.993  1.00  0.00    -0.203 F 
ATOM     91  F   UNL A   1      47.516  23.768  35.839  1.00  0.00    -0.200 F 
ATOM     92  C   UNL A   1      48.851  25.152  34.468  1.00  0.00     0.200 A 
ATOM     93  F   UNL A   1      50.144  26.565  33.088  1.00  0.00    -0.200 F 
ATOM     94  F   UNL A   1      49.963  24.654  35.025  1.00  0.00    -0.200 F 
ENDBRANCH  61  84
ENDBRANCH  35  36
ENDBRANCH  27  30
ENDBRANCH  25  26
ENDBRANCH  24  25
ENDBRANCH  23  24
ENDBRANCH   1  23
TORSDOF 15
ENDMDL
