MODEL 1
REMARK VINA RESULT:     -13.0      0.000      0.000
REMARK SMILES CN1C(=O)[C@H](CC(=O)NCCCCNC(=O)c2ccc(-c3c4nc(c(-c5c(F)c(F)c(F)c(F)c5F)c5ccc([nH]5)c(-c5c(F)c(F)c(F)c(F)c5F)c5nc(c(-c6c(F)c(F)c(F)c(F)c6F)c6ccc3[nH]6)C=C5)C=C4)cc2)S/C1=[NH+]\N=C\c1ccc(O)cc1O
REMARK SMILES IDX 10 1 9 2 7 3 8 4 6 6 5 7 1 8 2 9 3 10 81 11 4 12 80 13 82 14
REMARK SMILES IDX 83 16 84 17 85 18 86 19 91 20 87 21 90 22 88 23 92 24 89 26
REMARK SMILES IDX 11 28 12 29 13 30 14 31 15 32 16 34 17 35 18 36 79 37 19 38
REMARK SMILES IDX 78 39 20 40 21 41 22 42 72 43 23 44 77 45 71 46 73 47 24 48
REMARK SMILES IDX 76 49 70 50 69 51 25 53 57 54 37 55 56 56 38 57 41 58 55 59
REMARK SMILES IDX 74 60 39 61 40 62 54 64 75 65 42 66 26 67 27 68 35 69 28 70
REMARK SMILES IDX 29 71 33 72 36 73 30 74 31 75 34 76 32 77 58 78 59 79 67 80
REMARK SMILES IDX 60 81 61 82 65 83 68 84 62 85 63 86 66 87 64 88 43 89 44 90
REMARK SMILES IDX 52 91 45 92 46 93 50 94 53 95 47 96 48 97 51 98 49 99
REMARK H PARENT 9 5 82 15 92 25 89 27 14 33 73 52 41 63
REMARK Flexibility Score: inf
ROOT
ATOM      1  C   UNL A   1      37.026  22.002  24.934  1.00  0.00     0.116 C 
ENDROOT
BRANCH   1   2
ATOM      2  N   UNL A   1      36.272  22.621  23.861  1.00  0.00    -0.356 N 
ATOM      3  C   UNL A   1      35.393  23.659  23.893  1.00  0.00     0.221 C 
ATOM      4  O   UNL A   1      34.747  23.882  22.869  1.00  0.00    -0.275 OA
ATOM      5  H   UNL A   1      36.418  22.229  22.970  1.00  0.00     0.163 HD
BRANCH   3   6
ATOM      6  C   UNL A   1      35.249  24.532  25.127  1.00  0.00     0.127 C 
BRANCH   6   7
ATOM      7  C   UNL A   1      33.877  24.523  25.813  1.00  0.00     0.183 C 
ATOM      8  C   UNL A   1      31.095  24.270  23.320  1.00  0.00     0.301 C 
ATOM      9  N   UNL A   1      32.021  24.000  24.398  1.00  0.00    -0.191 N 
ATOM     10  C   UNL A   1      32.740  25.037  24.955  1.00  0.00     0.324 C 
ATOM     11  C   UNL A   1      32.221  22.753  24.921  1.00  0.00     0.339 C 
ATOM     12  O   UNL A   1      32.511  26.231  24.789  1.00  0.00    -0.245 OA
ATOM     13  S   UNL A   1      33.350  22.835  26.261  1.00  0.00    -0.020 SA
ATOM     14  N   UNL A   1      31.665  21.685  24.441  1.00  0.00    -0.142 N 
ATOM     15  H   UNL A   1      30.975  21.720  23.739  1.00  0.00     0.343 HD
BRANCH  14  16
ATOM     16  N   UNL A   1      32.112  20.480  24.988  1.00  0.00    -0.093 NA
ATOM     17  C   UNL A   1      32.363  19.617  24.051  1.00  0.00     0.170 C 
BRANCH  17  18
ATOM     18  C   UNL A   1      33.031  18.329  24.329  1.00  0.00     0.039 A 
ATOM     19  C   UNL A   1      33.667  17.682  23.262  1.00  0.00     0.017 A 
ATOM     20  C   UNL A   1      33.116  17.790  25.619  1.00  0.00     0.128 A 
ATOM     21  C   UNL A   1      34.372  16.498  23.488  1.00  0.00     0.047 A 
ATOM     22  C   UNL A   1      33.830  16.613  25.846  1.00  0.00     0.093 A 
ATOM     23  C   UNL A   1      34.456  15.981  24.776  1.00  0.00     0.119 A 
BRANCH  20  24
ATOM     24  O   UNL A   1      32.542  18.378  26.715  1.00  0.00    -0.507 OA
ATOM     25  H   UNL A   1      31.662  18.162  26.954  1.00  0.00     0.293 HD
ENDBRANCH  20  24
BRANCH  23  26
ATOM     26  O   UNL A   1      35.185  14.842  24.952  1.00  0.00    -0.508 OA
ATOM     27  H   UNL A   1      35.215  14.196  24.274  1.00  0.00     0.293 HD
ENDBRANCH  23  26
ENDBRANCH  17  18
ENDBRANCH  14  16
ENDBRANCH   6   7
ENDBRANCH   3   6
ENDBRANCH   1   2
BRANCH   1  28
ATOM     28  C   UNL A   1      36.680  20.525  25.051  1.00  0.00     0.023 C 
BRANCH  28  29
ATOM     29  C   UNL A   1      37.877  19.583  25.010  1.00  0.00     0.023 C 
BRANCH  29  30
ATOM     30  C   UNL A   1      39.099  20.095  25.747  1.00  0.00     0.116 C 
BRANCH  30  31
ATOM     31  N   UNL A   1      40.178  19.120  25.824  1.00  0.00    -0.352 N 
ATOM     32  C   UNL A   1      41.509  19.292  26.118  1.00  0.00     0.251 C 
ATOM     33  H   UNL A   1      39.910  18.191  25.635  1.00  0.00     0.163 HD
ATOM     34  O   UNL A   1      42.274  18.342  26.099  1.00  0.00    -0.269 OA
BRANCH  32  35
ATOM     35  C   UNL A   1      42.013  20.646  26.431  1.00  0.00     0.039 A 
ATOM     36  C   UNL A   1      42.257  20.982  27.765  1.00  0.00     0.014 A 
ATOM     37  C   UNL A   1      42.254  21.571  25.414  1.00  0.00     0.014 A 
ATOM     38  C   UNL A   1      42.806  22.227  28.074  1.00  0.00     0.010 A 
ATOM     39  C   UNL A   1      42.882  22.771  25.711  1.00  0.00     0.010 A 
ATOM     40  C   UNL A   1      43.141  23.118  27.045  1.00  0.00    -0.014 A 
BRANCH  40  41
ATOM     41  C   UNL A   1      43.654  24.477  27.327  1.00  0.00     0.031 A 
ATOM     42  C   UNL A   1      42.702  25.501  27.874  1.00  0.00     0.074 A 
ATOM     43  C   UNL A   1      44.923  24.803  27.024  1.00  0.00     0.049 A 
ATOM     44  N   UNL A   1      42.870  26.785  28.050  1.00  0.00    -0.248 NA
ATOM     45  C   UNL A   1      41.358  25.016  28.232  1.00  0.00     0.031 C 
ATOM     46  C   UNL A   1      45.922  23.892  26.462  1.00  0.00     0.029 A 
ATOM     47  N   UNL A   1      45.584  25.999  27.132  1.00  0.00    -0.354 N 
ATOM     48  C   UNL A   1      41.648  27.262  28.502  1.00  0.00     0.074 A 
ATOM     49  C   UNL A   1      40.731  26.145  28.524  1.00  0.00     0.031 C 
ATOM     50  C   UNL A   1      47.075  24.561  26.289  1.00  0.00     0.029 A 
ATOM     51  C   UNL A   1      46.884  25.951  26.693  1.00  0.00     0.049 A 
ATOM     52  H   UNL A   1      45.166  26.815  27.490  1.00  0.00     0.167 HD
ATOM     53  C   UNL A   1      41.325  28.519  28.887  1.00  0.00     0.037 A 
ATOM     54  C   UNL A   1      47.807  26.928  26.623  1.00  0.00     0.037 A 
ATOM     55  C   UNL A   1      42.260  29.609  28.904  1.00  0.00     0.049 A 
ATOM     56  C   UNL A   1      47.433  28.313  27.084  1.00  0.00     0.074 A 
ATOM     57  C   UNL A   1      42.061  30.915  29.316  1.00  0.00     0.029 A 
ATOM     58  N   UNL A   1      43.584  29.512  28.499  1.00  0.00    -0.354 N 
ATOM     59  N   UNL A   1      46.285  28.751  27.542  1.00  0.00    -0.248 NA
ATOM     60  C   UNL A   1      48.484  29.338  27.023  1.00  0.00     0.031 C 
ATOM     61  C   UNL A   1      43.259  31.614  29.135  1.00  0.00     0.029 A 
ATOM     62  C   UNL A   1      44.213  30.735  28.646  1.00  0.00     0.049 A 
ATOM     63  H   UNL A   1      44.011  28.693  28.157  1.00  0.00     0.167 HD
ATOM     64  C   UNL A   1      46.479  30.090  27.848  1.00  0.00     0.074 A 
ATOM     65  C   UNL A   1      47.862  30.390  27.536  1.00  0.00     0.031 C 
ATOM     66  C   UNL A   1      45.597  30.994  28.340  1.00  0.00     0.037 A 
BRANCH  53  67
ATOM     67  C   UNL A   1      39.909  28.764  29.316  1.00  0.00     0.064 A 
ATOM     68  C   UNL A   1      39.491  28.542  30.638  1.00  0.00     0.173 A 
ATOM     69  C   UNL A   1      38.953  29.211  28.393  1.00  0.00     0.173 A 
ATOM     70  F   UNL A   1      40.361  28.092  31.555  1.00  0.00    -0.203 F 
ATOM     71  C   UNL A   1      38.161  28.721  31.009  1.00  0.00     0.198 A 
ATOM     72  C   UNL A   1      37.631  29.420  28.776  1.00  0.00     0.198 A 
ATOM     73  F   UNL A   1      39.298  29.438  27.117  1.00  0.00    -0.203 F 
ATOM     74  F   UNL A   1      37.773  28.440  32.261  1.00  0.00    -0.200 F 
ATOM     75  C   UNL A   1      37.233  29.165  30.079  1.00  0.00     0.200 A 
ATOM     76  F   UNL A   1      36.735  29.856  27.878  1.00  0.00    -0.200 F 
ATOM     77  F   UNL A   1      35.953  29.334  30.438  1.00  0.00    -0.200 F 
ENDBRANCH  53  67
BRANCH  54  78
ATOM     78  C   UNL A   1      49.176  26.629  26.129  1.00  0.00     0.064 A 
ATOM     79  C   UNL A   1      49.536  26.903  24.802  1.00  0.00     0.173 A 
ATOM     80  C   UNL A   1      50.151  26.068  26.965  1.00  0.00     0.173 A 
ATOM     81  F   UNL A   1      48.633  27.423  23.958  1.00  0.00    -0.203 F 
ATOM     82  C   UNL A   1      50.812  26.609  24.325  1.00  0.00     0.198 A 
ATOM     83  C   UNL A   1      51.435  25.796  26.495  1.00  0.00     0.198 A 
ATOM     84  F   UNL A   1      49.861  25.792  28.245  1.00  0.00    -0.203 F 
ATOM     85  F   UNL A   1      51.115  26.843  23.041  1.00  0.00    -0.200 F 
ATOM     86  C   UNL A   1      51.762  26.061  25.172  1.00  0.00     0.200 A 
ATOM     87  F   UNL A   1      52.355  25.279  27.320  1.00  0.00    -0.200 F 
ATOM     88  F   UNL A   1      52.989  25.781  24.714  1.00  0.00    -0.200 F 
ENDBRANCH  54  78
BRANCH  66  89
ATOM     89  C   UNL A   1      46.110  32.377  28.603  1.00  0.00     0.064 A 
ATOM     90  C   UNL A   1      46.683  32.724  29.834  1.00  0.00     0.173 A 
ATOM     91  C   UNL A   1      46.075  33.349  27.592  1.00  0.00     0.173 A 
ATOM     92  F   UNL A   1      46.726  31.831  30.835  1.00  0.00    -0.203 F 
ATOM     93  C   UNL A   1      47.186  34.004  30.050  1.00  0.00     0.198 A 
ATOM     94  C   UNL A   1      46.602  34.618  27.804  1.00  0.00     0.198 A 
ATOM     95  F   UNL A   1      45.542  33.061  26.395  1.00  0.00    -0.203 F 
ATOM     96  F   UNL A   1      47.695  34.327  31.248  1.00  0.00    -0.200 F 
ATOM     97  C   UNL A   1      47.153  34.946  29.034  1.00  0.00     0.200 A 
ATOM     98  F   UNL A   1      46.580  35.525  26.816  1.00  0.00    -0.200 F 
ATOM     99  F   UNL A   1      47.647  36.175  29.241  1.00  0.00    -0.200 F 
ENDBRANCH  66  89
ENDBRANCH  40  41
ENDBRANCH  32  35
ENDBRANCH  30  31
ENDBRANCH  29  30
ENDBRANCH  28  29
ENDBRANCH   1  28
TORSDOF 16
ENDMDL
MODEL 2
REMARK VINA RESULT:     -13.0      6.078     11.869
REMARK SMILES CN1C(=O)[C@H](CC(=O)NCCCCNC(=O)c2ccc(-c3c4nc(c(-c5c(F)c(F)c(F)c(F)c5F)c5ccc([nH]5)c(-c5c(F)c(F)c(F)c(F)c5F)c5nc(c(-c6c(F)c(F)c(F)c(F)c6F)c6ccc3[nH]6)C=C5)C=C4)cc2)S/C1=[NH+]\N=C\c1ccc(O)cc1O
REMARK SMILES IDX 10 1 9 2 7 3 8 4 6 6 5 7 1 8 2 9 3 10 81 11 4 12 80 13 82 14
REMARK SMILES IDX 83 16 84 17 85 18 86 19 91 20 87 21 90 22 88 23 92 24 89 26
REMARK SMILES IDX 11 28 12 29 13 30 14 31 15 32 16 34 17 35 18 36 79 37 19 38
REMARK SMILES IDX 78 39 20 40 21 41 22 42 72 43 23 44 77 45 71 46 73 47 24 48
REMARK SMILES IDX 76 49 70 50 69 51 25 53 57 54 37 55 56 56 38 57 41 58 55 59
REMARK SMILES IDX 74 60 39 61 40 62 54 64 75 65 42 66 26 67 27 68 35 69 28 70
REMARK SMILES IDX 29 71 33 72 36 73 30 74 31 75 34 76 32 77 58 78 59 79 67 80
REMARK SMILES IDX 60 81 61 82 65 83 68 84 62 85 63 86 66 87 64 88 43 89 44 90
REMARK SMILES IDX 52 91 45 92 46 93 50 94 53 95 47 96 48 97 51 98 49 99
REMARK H PARENT 9 5 82 15 92 25 89 27 14 33 73 52 41 63
REMARK Flexibility Score: inf
ROOT
ATOM      1  C   UNL A   1      32.409  29.520  26.878  1.00  0.00     0.116 C 
ENDROOT
BRANCH   1   2
ATOM      2  N   UNL A   1      31.560  28.344  26.912  1.00  0.00    -0.356 N 
ATOM      3  C   UNL A   1      31.825  27.060  26.550  1.00  0.00     0.221 C 
ATOM      4  O   UNL A   1      30.876  26.278  26.509  1.00  0.00    -0.275 OA
ATOM      5  H   UNL A   1      30.649  28.500  27.250  1.00  0.00     0.163 HD
BRANCH   3   6
ATOM      6  C   UNL A   1      33.243  26.602  26.254  1.00  0.00     0.127 C 
BRANCH   6   7
ATOM      7  C   UNL A   1      33.543  26.204  24.803  1.00  0.00     0.183 C 
ATOM      8  C   UNL A   1      30.823  24.061  23.378  1.00  0.00     0.301 C 
ATOM      9  N   UNL A   1      31.744  25.147  23.633  1.00  0.00    -0.191 N 
ATOM     10  C   UNL A   1      32.894  24.910  24.359  1.00  0.00     0.324 C 
ATOM     11  C   UNL A   1      31.548  26.421  23.178  1.00  0.00     0.339 C 
ATOM     12  O   UNL A   1      33.350  23.804  24.626  1.00  0.00    -0.245 OA
ATOM     13  S   UNL A   1      32.910  27.435  23.615  1.00  0.00    -0.020 SA
ATOM     14  N   UNL A   1      30.476  26.792  22.549  1.00  0.00    -0.142 N 
ATOM     15  H   UNL A   1      29.785  26.151  22.262  1.00  0.00     0.343 HD
BRANCH  14  16
ATOM     16  N   UNL A   1      30.369  28.164  22.307  1.00  0.00    -0.093 NA
ATOM     17  C   UNL A   1      29.205  28.604  22.677  1.00  0.00     0.170 C 
BRANCH  17  18
ATOM     18  C   UNL A   1      28.888  30.046  22.716  1.00  0.00     0.039 A 
ATOM     19  C   UNL A   1      29.325  30.779  23.826  1.00  0.00     0.017 A 
ATOM     20  C   UNL A   1      28.251  30.704  21.656  1.00  0.00     0.128 A 
ATOM     21  C   UNL A   1      29.111  32.158  23.877  1.00  0.00     0.047 A 
ATOM     22  C   UNL A   1      28.049  32.083  21.702  1.00  0.00     0.093 A 
ATOM     23  C   UNL A   1      28.487  32.798  22.812  1.00  0.00     0.119 A 
BRANCH  20  24
ATOM     24  O   UNL A   1      27.819  30.060  20.527  1.00  0.00    -0.507 OA
ATOM     25  H   UNL A   1      27.339  30.531  19.875  1.00  0.00     0.293 HD
ENDBRANCH  20  24
BRANCH  23  26
ATOM     26  O   UNL A   1      28.333  34.150  22.893  1.00  0.00    -0.508 OA
ATOM     27  H   UNL A   1      28.231  34.658  22.111  1.00  0.00     0.293 HD
ENDBRANCH  23  26
ENDBRANCH  17  18
ENDBRANCH  14  16
ENDBRANCH   6   7
ENDBRANCH   3   6
ENDBRANCH   1   2
BRANCH   1  28
ATOM     28  C   UNL A   1      31.758  30.629  26.063  1.00  0.00     0.023 C 
BRANCH  28  29
ATOM     29  C   UNL A   1      31.497  31.918  26.834  1.00  0.00     0.023 C 
BRANCH  29  30
ATOM     30  C   UNL A   1      32.733  32.761  27.076  1.00  0.00     0.116 C 
BRANCH  30  31
ATOM     31  N   UNL A   1      32.435  34.078  27.620  1.00  0.00    -0.352 N 
ATOM     32  C   UNL A   1      33.061  34.788  28.616  1.00  0.00     0.251 C 
ATOM     33  H   UNL A   1      31.664  34.532  27.208  1.00  0.00     0.163 HD
ATOM     34  O   UNL A   1      32.636  35.880  28.958  1.00  0.00    -0.269 OA
BRANCH  32  35
ATOM     35  C   UNL A   1      34.239  34.204  29.292  1.00  0.00     0.039 A 
ATOM     36  C   UNL A   1      35.516  34.567  28.852  1.00  0.00     0.014 A 
ATOM     37  C   UNL A   1      34.086  33.316  30.357  1.00  0.00     0.014 A 
ATOM     38  C   UNL A   1      36.640  34.087  29.525  1.00  0.00     0.010 A 
ATOM     39  C   UNL A   1      35.197  32.912  31.082  1.00  0.00     0.010 A 
ATOM     40  C   UNL A   1      36.483  33.276  30.657  1.00  0.00    -0.014 A 
BRANCH  40  41
ATOM     41  C   UNL A   1      37.644  32.683  31.358  1.00  0.00     0.031 A 
ATOM     42  C   UNL A   1      38.391  31.567  30.685  1.00  0.00     0.074 A 
ATOM     43  C   UNL A   1      37.966  33.083  32.600  1.00  0.00     0.049 A 
ATOM     44  N   UNL A   1      39.329  30.790  31.157  1.00  0.00    -0.248 NA
ATOM     45  C   UNL A   1      37.994  31.259  29.300  1.00  0.00     0.031 C 
ATOM     46  C   UNL A   1      37.288  34.137  33.356  1.00  0.00     0.029 A 
ATOM     47  N   UNL A   1      38.942  32.635  33.453  1.00  0.00    -0.354 N 
ATOM     48  C   UNL A   1      39.606  29.883  30.144  1.00  0.00     0.074 A 
ATOM     49  C   UNL A   1      38.703  30.169  29.052  1.00  0.00     0.031 C 
ATOM     50  C   UNL A   1      37.879  34.264  34.556  1.00  0.00     0.029 A 
ATOM     51  C   UNL A   1      38.951  33.279  34.666  1.00  0.00     0.049 A 
ATOM     52  H   UNL A   1      39.575  31.919  33.219  1.00  0.00     0.167 HD
ATOM     53  C   UNL A   1      40.547  28.911  30.119  1.00  0.00     0.037 A 
ATOM     54  C   UNL A   1      39.736  33.082  35.741  1.00  0.00     0.037 A 
ATOM     55  C   UNL A   1      41.469  28.669  31.193  1.00  0.00     0.049 A 
ATOM     56  C   UNL A   1      40.796  32.013  35.679  1.00  0.00     0.074 A 
ATOM     57  C   UNL A   1      42.494  27.743  31.263  1.00  0.00     0.029 A 
ATOM     58  N   UNL A   1      41.481  29.375  32.388  1.00  0.00    -0.354 N 
ATOM     59  N   UNL A   1      41.075  31.180  34.705  1.00  0.00    -0.248 NA
ATOM     60  C   UNL A   1      41.653  31.859  36.862  1.00  0.00     0.031 C 
ATOM     61  C   UNL A   1      43.110  27.872  32.513  1.00  0.00     0.029 A 
ATOM     62  C   UNL A   1      42.493  28.902  33.205  1.00  0.00     0.049 A 
ATOM     63  H   UNL A   1      40.861  30.103  32.620  1.00  0.00     0.167 HD
ATOM     64  C   UNL A   1      42.152  30.423  35.144  1.00  0.00     0.074 A 
ATOM     65  C   UNL A   1      42.485  30.906  36.469  1.00  0.00     0.031 C 
ATOM     66  C   UNL A   1      42.807  29.417  34.514  1.00  0.00     0.037 A 
BRANCH  53  67
ATOM     67  C   UNL A   1      40.614  28.052  28.891  1.00  0.00     0.064 A 
ATOM     68  C   UNL A   1      41.392  28.414  27.780  1.00  0.00     0.173 A 
ATOM     69  C   UNL A   1      39.881  26.859  28.817  1.00  0.00     0.173 A 
ATOM     70  F   UNL A   1      42.096  29.556  27.792  1.00  0.00    -0.203 F 
ATOM     71  C   UNL A   1      41.402  27.634  26.627  1.00  0.00     0.198 A 
ATOM     72  C   UNL A   1      39.918  26.065  27.673  1.00  0.00     0.198 A 
ATOM     73  F   UNL A   1      39.120  26.466  29.849  1.00  0.00    -0.203 F 
ATOM     74  F   UNL A   1      42.102  28.034  25.555  1.00  0.00    -0.200 F 
ATOM     75  C   UNL A   1      40.669  26.457  26.576  1.00  0.00     0.200 A 
ATOM     76  F   UNL A   1      39.215  24.925  27.627  1.00  0.00    -0.200 F 
ATOM     77  F   UNL A   1      40.677  25.710  25.464  1.00  0.00    -0.200 F 
ENDBRANCH  53  67
BRANCH  54  78
ATOM     78  C   UNL A   1      39.575  33.931  36.950  1.00  0.00     0.064 A 
ATOM     79  C   UNL A   1      38.837  33.477  38.052  1.00  0.00     0.173 A 
ATOM     80  C   UNL A   1      40.151  35.207  37.033  1.00  0.00     0.173 A 
ATOM     81  F   UNL A   1      38.252  32.271  38.014  1.00  0.00    -0.203 F 
ATOM     82  C   UNL A   1      38.665  34.273  39.183  1.00  0.00     0.198 A 
ATOM     83  C   UNL A   1      39.999  35.993  38.174  1.00  0.00     0.198 A 
ATOM     84  F   UNL A   1      40.872  35.686  36.009  1.00  0.00    -0.203 F 
ATOM     85  F   UNL A   1      37.920  33.830  40.205  1.00  0.00    -0.200 F 
ATOM     86  C   UNL A   1      39.250  35.528  39.245  1.00  0.00     0.200 A 
ATOM     87  F   UNL A   1      40.578  37.200  38.237  1.00  0.00    -0.200 F 
ATOM     88  F   UNL A   1      39.087  36.292  40.334  1.00  0.00    -0.200 F 
ENDBRANCH  54  78
BRANCH  66  89
ATOM     89  C   UNL A   1      43.967  28.800  35.233  1.00  0.00     0.064 A 
ATOM     90  C   UNL A   1      45.266  29.311  35.102  1.00  0.00     0.173 A 
ATOM     91  C   UNL A   1      43.766  27.720  36.104  1.00  0.00     0.173 A 
ATOM     92  F   UNL A   1      45.508  30.336  34.269  1.00  0.00    -0.203 F 
ATOM     93  C   UNL A   1      46.327  28.747  35.804  1.00  0.00     0.198 A 
ATOM     94  C   UNL A   1      44.824  27.176  36.823  1.00  0.00     0.198 A 
ATOM     95  F   UNL A   1      42.539  27.202  36.267  1.00  0.00    -0.203 F 
ATOM     96  F   UNL A   1      47.568  29.226  35.635  1.00  0.00    -0.200 F 
ATOM     97  C   UNL A   1      46.105  27.687  36.669  1.00  0.00     0.200 A 
ATOM     98  F   UNL A   1      44.606  26.159  37.669  1.00  0.00    -0.200 F 
ATOM     99  F   UNL A   1      47.127  27.152  37.352  1.00  0.00    -0.200 F 
ENDBRANCH  66  89
ENDBRANCH  40  41
ENDBRANCH  32  35
ENDBRANCH  30  31
ENDBRANCH  29  30
ENDBRANCH  28  29
ENDBRANCH   1  28
TORSDOF 16
ENDMDL
MODEL 3
REMARK VINA RESULT:     -12.9      1.993      4.667
REMARK SMILES CN1C(=O)[C@H](CC(=O)NCCCCNC(=O)c2ccc(-c3c4nc(c(-c5c(F)c(F)c(F)c(F)c5F)c5ccc([nH]5)c(-c5c(F)c(F)c(F)c(F)c5F)c5nc(c(-c6c(F)c(F)c(F)c(F)c6F)c6ccc3[nH]6)C=C5)C=C4)cc2)S/C1=[NH+]\N=C\c1ccc(O)cc1O
REMARK SMILES IDX 10 1 9 2 7 3 8 4 6 6 5 7 1 8 2 9 3 10 81 11 4 12 80 13 82 14
REMARK SMILES IDX 83 16 84 17 85 18 86 19 91 20 87 21 90 22 88 23 92 24 89 26
REMARK SMILES IDX 11 28 12 29 13 30 14 31 15 32 16 34 17 35 18 36 79 37 19 38
REMARK SMILES IDX 78 39 20 40 21 41 22 42 72 43 23 44 77 45 71 46 73 47 24 48
REMARK SMILES IDX 76 49 70 50 69 51 25 53 57 54 37 55 56 56 38 57 41 58 55 59
REMARK SMILES IDX 74 60 39 61 40 62 54 64 75 65 42 66 26 67 27 68 35 69 28 70
REMARK SMILES IDX 29 71 33 72 36 73 30 74 31 75 34 76 32 77 58 78 59 79 67 80
REMARK SMILES IDX 60 81 61 82 65 83 68 84 62 85 63 86 66 87 64 88 43 89 44 90
REMARK SMILES IDX 52 91 45 92 46 93 50 94 53 95 47 96 48 97 51 98 49 99
REMARK H PARENT 9 5 82 15 92 25 89 27 14 33 73 52 41 63
REMARK Flexibility Score: inf
ROOT
ATOM      1  C   UNL A   1      36.918  21.915  25.167  1.00  0.00     0.116 C 
ENDROOT
BRANCH   1   2
ATOM      2  N   UNL A   1      36.475  22.565  23.948  1.00  0.00    -0.356 N 
ATOM      3  C   UNL A   1      35.230  22.959  23.568  1.00  0.00     0.221 C 
ATOM      4  O   UNL A   1      35.088  23.330  22.403  1.00  0.00    -0.275 OA
ATOM      5  H   UNL A   1      37.186  22.749  23.294  1.00  0.00     0.163 HD
BRANCH   3   6
ATOM      6  C   UNL A   1      34.075  22.982  24.554  1.00  0.00     0.127 C 
BRANCH   6   7
ATOM      7  C   UNL A   1      32.700  22.583  24.004  1.00  0.00     0.183 C 
ATOM      8  C   UNL A   1      30.038  22.872  26.622  1.00  0.00     0.301 C 
ATOM      9  N   UNL A   1      30.842  23.059  25.434  1.00  0.00    -0.191 N 
ATOM     10  C   UNL A   1      31.728  22.074  25.048  1.00  0.00     0.324 C 
ATOM     11  C   UNL A   1      30.766  24.171  24.643  1.00  0.00     0.339 C 
ATOM     12  O   UNL A   1      31.749  20.927  25.482  1.00  0.00    -0.245 OA
ATOM     13  S   UNL A   1      31.828  24.000  23.258  1.00  0.00    -0.020 SA
ATOM     14  N   UNL A   1      30.030  25.199  24.933  1.00  0.00    -0.142 N 
ATOM     15  H   UNL A   1      29.393  25.195  25.684  1.00  0.00     0.343 HD
BRANCH  14  16
ATOM     16  N   UNL A   1      30.203  26.312  24.106  1.00  0.00    -0.093 NA
ATOM     17  C   UNL A   1      29.058  26.847  23.813  1.00  0.00     0.170 C 
BRANCH  17  18
ATOM     18  C   UNL A   1      28.954  28.144  23.116  1.00  0.00     0.039 A 
ATOM     19  C   UNL A   1      30.129  28.702  22.598  1.00  0.00     0.017 A 
ATOM     20  C   UNL A   1      27.726  28.778  22.887  1.00  0.00     0.128 A 
ATOM     21  C   UNL A   1      30.073  29.892  21.870  1.00  0.00     0.047 A 
ATOM     22  C   UNL A   1      27.668  29.961  22.150  1.00  0.00     0.093 A 
ATOM     23  C   UNL A   1      28.845  30.503  21.643  1.00  0.00     0.119 A 
BRANCH  20  24
ATOM     24  O   UNL A   1      26.532  28.282  23.340  1.00  0.00    -0.507 OA
ATOM     25  H   UNL A   1      25.878  28.005  22.728  1.00  0.00     0.293 HD
ENDBRANCH  20  24
BRANCH  23  26
ATOM     26  O   UNL A   1      28.837  31.644  20.896  1.00  0.00    -0.508 OA
ATOM     27  H   UNL A   1      29.643  32.080  20.698  1.00  0.00     0.293 HD
ENDBRANCH  23  26
ENDBRANCH  17  18
ENDBRANCH  14  16
ENDBRANCH   6   7
ENDBRANCH   3   6
ENDBRANCH   1   2
BRANCH   1  28
ATOM     28  C   UNL A   1      36.715  20.409  25.078  1.00  0.00     0.023 C 
BRANCH  28  29
ATOM     29  C   UNL A   1      37.996  19.603  24.896  1.00  0.00     0.023 C 
BRANCH  29  30
ATOM     30  C   UNL A   1      39.151  20.062  25.763  1.00  0.00     0.116 C 
BRANCH  30  31
ATOM     31  N   UNL A   1      40.235  19.093  25.841  1.00  0.00    -0.352 N 
ATOM     32  C   UNL A   1      41.565  19.273  26.134  1.00  0.00     0.251 C 
ATOM     33  H   UNL A   1      39.972  18.162  25.655  1.00  0.00     0.163 HD
ATOM     34  O   UNL A   1      42.336  18.326  26.116  1.00  0.00    -0.269 OA
BRANCH  32  35
ATOM     35  C   UNL A   1      42.062  20.630  26.443  1.00  0.00     0.039 A 
ATOM     36  C   UNL A   1      42.282  20.978  27.779  1.00  0.00     0.014 A 
ATOM     37  C   UNL A   1      42.320  21.546  25.423  1.00  0.00     0.014 A 
ATOM     38  C   UNL A   1      42.824  22.227  28.085  1.00  0.00     0.010 A 
ATOM     39  C   UNL A   1      42.942  22.750  25.719  1.00  0.00     0.010 A 
ATOM     40  C   UNL A   1      43.177  23.108  27.055  1.00  0.00    -0.014 A 
BRANCH  40  41
ATOM     41  C   UNL A   1      43.683  24.471  27.333  1.00  0.00     0.031 A 
ATOM     42  C   UNL A   1      42.725  25.492  27.876  1.00  0.00     0.074 A 
ATOM     43  C   UNL A   1      44.951  24.801  27.031  1.00  0.00     0.049 A 
ATOM     44  N   UNL A   1      42.888  26.777  28.048  1.00  0.00    -0.248 NA
ATOM     45  C   UNL A   1      41.383  25.002  28.234  1.00  0.00     0.031 C 
ATOM     46  C   UNL A   1      45.955  23.894  26.473  1.00  0.00     0.029 A 
ATOM     47  N   UNL A   1      45.606  26.001  27.136  1.00  0.00    -0.354 N 
ATOM     48  C   UNL A   1      41.663  27.250  28.497  1.00  0.00     0.074 A 
ATOM     49  C   UNL A   1      40.751  26.129  28.521  1.00  0.00     0.031 C 
ATOM     50  C   UNL A   1      47.105  24.567  26.299  1.00  0.00     0.029 A 
ATOM     51  C   UNL A   1      46.907  25.957  26.699  1.00  0.00     0.049 A 
ATOM     52  H   UNL A   1      45.185  26.816  27.491  1.00  0.00     0.167 HD
ATOM     53  C   UNL A   1      41.334  28.507  28.878  1.00  0.00     0.037 A 
ATOM     54  C   UNL A   1      47.826  26.939  26.627  1.00  0.00     0.037 A 
ATOM     55  C   UNL A   1      42.264  29.601  28.894  1.00  0.00     0.049 A 
ATOM     56  C   UNL A   1      47.445  28.323  27.084  1.00  0.00     0.074 A 
ATOM     57  C   UNL A   1      42.058  30.907  29.301  1.00  0.00     0.029 A 
ATOM     58  N   UNL A   1      43.589  29.509  28.490  1.00  0.00    -0.354 N 
ATOM     59  N   UNL A   1      46.294  28.757  27.539  1.00  0.00    -0.248 NA
ATOM     60  C   UNL A   1      48.491  29.353  27.021  1.00  0.00     0.031 C 
ATOM     61  C   UNL A   1      43.254  31.611  29.120  1.00  0.00     0.029 A 
ATOM     62  C   UNL A   1      44.212  30.735  28.635  1.00  0.00     0.049 A 
ATOM     63  H   UNL A   1      44.020  28.691  28.151  1.00  0.00     0.167 HD
ATOM     64  C   UNL A   1      46.482  30.098  27.841  1.00  0.00     0.074 A 
ATOM     65  C   UNL A   1      47.865  30.404  27.530  1.00  0.00     0.031 C 
ATOM     66  C   UNL A   1      45.596  31.000  28.329  1.00  0.00     0.037 A 
BRANCH  53  67
ATOM     67  C   UNL A   1      39.916  28.746  29.305  1.00  0.00     0.064 A 
ATOM     68  C   UNL A   1      39.499  28.530  30.627  1.00  0.00     0.173 A 
ATOM     69  C   UNL A   1      38.959  29.184  28.378  1.00  0.00     0.173 A 
ATOM     70  F   UNL A   1      40.371  28.091  31.548  1.00  0.00    -0.203 F 
ATOM     71  C   UNL A   1      38.168  28.705  30.996  1.00  0.00     0.198 A 
ATOM     72  C   UNL A   1      37.635  29.388  28.759  1.00  0.00     0.198 A 
ATOM     73  F   UNL A   1      39.304  29.405  27.102  1.00  0.00    -0.203 F 
ATOM     74  F   UNL A   1      37.780  28.428  32.250  1.00  0.00    -0.200 F 
ATOM     75  C   UNL A   1      37.238  29.138  30.063  1.00  0.00     0.200 A 
ATOM     76  F   UNL A   1      36.738  29.814  27.858  1.00  0.00    -0.200 F 
ATOM     77  F   UNL A   1      35.957  29.302  30.420  1.00  0.00    -0.200 F 
ENDBRANCH  53  67
BRANCH  54  78
ATOM     78  C   UNL A   1      49.197  26.644  26.136  1.00  0.00     0.064 A 
ATOM     79  C   UNL A   1      50.154  26.069  26.984  1.00  0.00     0.173 A 
ATOM     80  C   UNL A   1      49.580  26.925  24.817  1.00  0.00     0.173 A 
ATOM     81  F   UNL A   1      49.842  25.798  28.259  1.00  0.00    -0.203 F 
ATOM     82  C   UNL A   1      51.448  25.806  26.537  1.00  0.00     0.198 A 
ATOM     83  C   UNL A   1      50.866  26.638  24.363  1.00  0.00     0.198 A 
ATOM     84  F   UNL A   1      48.700  27.469  23.963  1.00  0.00    -0.203 F 
ATOM     85  F   UNL A   1      52.355  25.294  27.381  1.00  0.00    -0.200 F 
ATOM     86  C   UNL A   1      51.802  26.085  25.227  1.00  0.00     0.200 A 
ATOM     87  F   UNL A   1      51.201  26.897  23.092  1.00  0.00    -0.200 F 
ATOM     88  F   UNL A   1      53.045  25.829  24.796  1.00  0.00    -0.200 F 
ENDBRANCH  54  78
BRANCH  66  89
ATOM     89  C   UNL A   1      46.102  32.386  28.589  1.00  0.00     0.064 A 
ATOM     90  C   UNL A   1      46.028  33.388  27.612  1.00  0.00     0.173 A 
ATOM     91  C   UNL A   1      46.617  32.726  29.848  1.00  0.00     0.173 A 
ATOM     92  F   UNL A   1      45.556  33.104  26.387  1.00  0.00    -0.203 F 
ATOM     93  C   UNL A   1      46.471  34.679  27.881  1.00  0.00     0.198 A 
ATOM     94  C   UNL A   1      47.034  34.024  30.122  1.00  0.00     0.198 A 
ATOM     95  F   UNL A   1      46.700  31.802  30.818  1.00  0.00    -0.203 F 
ATOM     96  F   UNL A   1      46.428  35.614  26.920  1.00  0.00    -0.200 F 
ATOM     97  C   UNL A   1      46.966  34.999  29.136  1.00  0.00     0.200 A 
ATOM     98  F   UNL A   1      47.501  34.335  31.340  1.00  0.00    -0.200 F 
ATOM     99  F   UNL A   1      47.382  36.246  29.397  1.00  0.00    -0.200 F 
ENDBRANCH  66  89
ENDBRANCH  40  41
ENDBRANCH  32  35
ENDBRANCH  30  31
ENDBRANCH  29  30
ENDBRANCH  28  29
ENDBRANCH   1  28
TORSDOF 16
ENDMDL
