MODEL 1
REMARK VINA RESULT:     -13.7      0.000      0.000
REMARK SMILES O=C(COc1ccc(Br)cc1/C=C1\C(=O)Nc2ccc(Br)cc21)NCCCCNC(=O)c1ccc(-c2c3nc(c(-c4c(F)c(F)c(F)c(F)c4F)c4ccc([nH]4)c(-c4c(F)c(F)c(F)c(F)c4F)c4nc(c(-c5c(F)c(F)c(F)c(F)c5F)c5ccc2[nH]5)C=C4)C=C3)cc1
REMARK SMILES IDX 26 1 25 2 24 3 1 4 2 5 3 7 4 8 5 9 6 10 11 11 7 12 10 13
REMARK SMILES IDX 8 14 9 15 12 16 13 17 14 18 23 19 15 20 16 21 17 22 22 23
REMARK SMILES IDX 18 25 20 26 19 27 21 28 27 29 28 30 29 31 30 32 31 34 32 35
REMARK SMILES IDX 33 36 94 37 34 38 93 39 35 40 36 41 37 42 87 43 38 44 92 45
REMARK SMILES IDX 86 46 88 47 39 48 91 49 85 50 84 51 40 53 72 54 52 55 71 56
REMARK SMILES IDX 53 57 56 58 70 59 89 60 54 61 55 62 69 64 90 65 57 66 41 67
REMARK SMILES IDX 42 68 50 69 43 70 44 71 48 72 51 73 45 74 46 75 49 76 47 77
REMARK SMILES IDX 73 78 74 79 82 80 75 81 76 82 80 83 83 84 77 85 78 86 81 87
REMARK SMILES IDX 79 88 58 89 59 90 67 91 60 92 61 93 65 94 68 95 62 96 63 97
REMARK SMILES IDX 66 98 64 99
REMARK H PARENT 24 6 16 24 29 33 88 52 56 63
REMARK Flexibility Score: inf
ROOT
ATOM      1  C   UNL A   1      31.879  30.229  26.953  1.00  0.00     0.023 C 
ENDROOT
BRANCH   1   2
ATOM      2  C   UNL A   1      33.304  29.684  26.996  1.00  0.00     0.116 C 
BRANCH   2   3
ATOM      3  N   UNL A   1      33.887  29.346  25.702  1.00  0.00    -0.353 N 
ATOM      4  O   UNL A   1      33.491  27.092  25.864  1.00  0.00    -0.271 OA
ATOM      5  C   UNL A   1      33.775  28.069  25.176  1.00  0.00     0.257 C 
ATOM      6  H   UNL A   1      34.370  30.037  25.195  1.00  0.00     0.163 HD
BRANCH   5   7
ATOM      7  C   UNL A   1      33.968  27.953  23.638  1.00  0.00     0.329 C 
BRANCH   7   8
ATOM      8  O   UNL A   1      33.057  27.219  22.805  1.00  0.00    -0.483 OA
BRANCH   8   9
ATOM      9  C   UNL A   1      31.725  27.559  22.931  1.00  0.00     0.127 A 
ATOM     10  C   UNL A   1      31.332  28.889  22.659  1.00  0.00     0.048 A 
ATOM     11  C   UNL A   1      30.736  26.577  23.219  1.00  0.00     0.018 A 
ATOM     12  C   UNL A   1      30.012  29.309  22.731  1.00  0.00     0.019 A 
ATOM     13  C   UNL A   1      29.408  27.051  23.247  1.00  0.00     0.027 A 
ATOM     14  C   UNL A   1      29.049  28.382  23.033  1.00  0.00     0.018 A 
ATOM     15  Br  UNL A   1      27.237  28.903  23.152  1.00  0.00    -0.051 Br
BRANCH  11  16
ATOM     16  C   UNL A   1      31.046  25.132  23.555  1.00  0.00     0.026 C 
ATOM     17  C   UNL A   1      30.973  24.479  24.745  1.00  0.00     0.050 C 
ATOM     18  C   UNL A   1      30.571  25.056  26.082  1.00  0.00     0.256 C 
ATOM     19  C   UNL A   1      31.792  23.303  25.125  1.00  0.00     0.012 A 
ATOM     20  O   UNL A   1      29.506  25.521  26.424  1.00  0.00    -0.269 OA
ATOM     21  N   UNL A   1      31.614  24.719  26.925  1.00  0.00    -0.321 N 
ATOM     22  C   UNL A   1      32.303  23.634  26.395  1.00  0.00     0.049 A 
ATOM     23  C   UNL A   1      31.968  22.018  24.651  1.00  0.00     0.026 A 
ATOM     24  H   UNL A   1      31.834  25.177  27.769  1.00  0.00     0.170 HD
ATOM     25  C   UNL A   1      33.165  22.836  27.115  1.00  0.00     0.028 A 
ATOM     26  C   UNL A   1      32.749  21.142  25.430  1.00  0.00     0.018 A 
ATOM     27  C   UNL A   1      33.394  21.561  26.612  1.00  0.00     0.018 A 
ATOM     28  Br  UNL A   1      32.851  19.308  24.964  1.00  0.00    -0.051 Br
ENDBRANCH  11  16
ENDBRANCH   8   9
ENDBRANCH   7   8
ENDBRANCH   5   7
ENDBRANCH   2   3
ENDBRANCH   1   2
BRANCH   1  29
ATOM     29  C   UNL A   1      31.754  31.732  26.721  1.00  0.00     0.023 C 
BRANCH  29  30
ATOM     30  C   UNL A   1      32.851  32.594  27.335  1.00  0.00     0.116 C 
BRANCH  30  31
ATOM     31  N   UNL A   1      32.437  33.954  27.651  1.00  0.00    -0.352 N 
ATOM     32  C   UNL A   1      32.986  34.845  28.553  1.00  0.00     0.251 C 
ATOM     33  H   UNL A   1      31.656  34.286  27.152  1.00  0.00     0.163 HD
ATOM     34  O   UNL A   1      32.453  35.931  28.753  1.00  0.00    -0.269 OA
BRANCH  32  35
ATOM     35  C   UNL A   1      34.191  34.463  29.325  1.00  0.00     0.039 A 
ATOM     36  C   UNL A   1      35.468  34.638  28.792  1.00  0.00     0.014 A 
ATOM     37  C   UNL A   1      34.037  33.860  30.578  1.00  0.00     0.014 A 
ATOM     38  C   UNL A   1      36.558  34.020  29.398  1.00  0.00     0.010 A 
ATOM     39  C   UNL A   1      35.150  33.326  31.236  1.00  0.00     0.010 A 
ATOM     40  C   UNL A   1      36.410  33.338  30.617  1.00  0.00    -0.014 A 
BRANCH  40  41
ATOM     41  C   UNL A   1      37.578  32.620  31.202  1.00  0.00     0.031 A 
ATOM     42  C   UNL A   1      38.072  32.950  32.589  1.00  0.00     0.074 A 
ATOM     43  C   UNL A   1      38.156  31.619  30.509  1.00  0.00     0.049 A 
ATOM     44  N   UNL A   1      39.059  32.412  33.263  1.00  0.00    -0.248 NA
ATOM     45  C   UNL A   1      37.371  34.021  33.315  1.00  0.00     0.031 C 
ATOM     46  C   UNL A   1      37.766  31.194  29.164  1.00  0.00     0.029 A 
ATOM     47  N   UNL A   1      39.177  30.764  30.845  1.00  0.00    -0.354 N 
ATOM     48  C   UNL A   1      39.109  33.089  34.476  1.00  0.00     0.074 A 
ATOM     49  C   UNL A   1      38.074  34.097  34.439  1.00  0.00     0.031 C 
ATOM     50  C   UNL A   1      38.501  30.131  28.809  1.00  0.00     0.029 A 
ATOM     51  C   UNL A   1      39.460  29.838  29.870  1.00  0.00     0.049 A 
ATOM     52  H   UNL A   1      39.658  30.809  31.701  1.00  0.00     0.167 HD
ATOM     53  C   UNL A   1      39.934  32.878  35.529  1.00  0.00     0.037 A 
ATOM     54  C   UNL A   1      40.397  28.872  29.824  1.00  0.00     0.037 A 
ATOM     55  C   UNL A   1      40.942  31.852  35.583  1.00  0.00     0.049 A 
ATOM     56  C   UNL A   1      41.324  28.688  30.993  1.00  0.00     0.074 A 
ATOM     57  C   UNL A   1      41.798  31.541  36.626  1.00  0.00     0.029 A 
ATOM     58  N   UNL A   1      41.231  30.969  34.553  1.00  0.00    -0.354 N 
ATOM     59  N   UNL A   1      41.345  29.324  32.138  1.00  0.00    -0.248 NA
ATOM     60  C   UNL A   1      42.362  27.657  30.860  1.00  0.00     0.031 C 
ATOM     61  C   UNL A   1      42.638  30.504  36.211  1.00  0.00     0.029 A 
ATOM     62  C   UNL A   1      42.269  30.132  34.928  1.00  0.00     0.049 A 
ATOM     63  H   UNL A   1      40.767  30.942  33.686  1.00  0.00     0.167 HD
ATOM     64  C   UNL A   1      42.386  28.764  32.865  1.00  0.00     0.074 A 
ATOM     65  C   UNL A   1      42.958  27.720  32.042  1.00  0.00     0.031 C 
ATOM     66  C   UNL A   1      42.831  29.094  34.102  1.00  0.00     0.037 A 
BRANCH  53  67
ATOM     67  C   UNL A   1      39.793  33.769  36.731  1.00  0.00     0.064 A 
ATOM     68  C   UNL A   1      40.411  35.026  36.791  1.00  0.00     0.173 A 
ATOM     69  C   UNL A   1      38.942  33.405  37.787  1.00  0.00     0.173 A 
ATOM     70  F   UNL A   1      41.239  35.418  35.810  1.00  0.00    -0.203 F 
ATOM     71  C   UNL A   1      40.190  35.883  37.867  1.00  0.00     0.198 A 
ATOM     72  C   UNL A   1      38.703  34.274  38.848  1.00  0.00     0.198 A 
ATOM     73  F   UNL A   1      38.318  32.217  37.774  1.00  0.00    -0.203 F 
ATOM     74  F   UNL A   1      40.809  37.070  37.914  1.00  0.00    -0.200 F 
ATOM     75  C   UNL A   1      39.327  35.512  38.887  1.00  0.00     0.200 A 
ATOM     76  F   UNL A   1      37.855  33.920  39.825  1.00  0.00    -0.200 F 
ATOM     77  F   UNL A   1      39.097  36.347  39.910  1.00  0.00    -0.200 F 
ENDBRANCH  53  67
BRANCH  54  78
ATOM     78  C   UNL A   1      40.504  28.011  28.617  1.00  0.00     0.064 A 
ATOM     79  C   UNL A   1      41.277  28.402  27.516  1.00  0.00     0.173 A 
ATOM     80  C   UNL A   1      39.850  26.771  28.549  1.00  0.00     0.173 A 
ATOM     81  F   UNL A   1      41.903  29.589  27.524  1.00  0.00    -0.203 F 
ATOM     82  C   UNL A   1      41.384  27.591  26.388  1.00  0.00     0.198 A 
ATOM     83  C   UNL A   1      39.984  25.946  27.435  1.00  0.00     0.198 A 
ATOM     84  F   UNL A   1      39.100  26.351  29.577  1.00  0.00    -0.203 F 
ATOM     85  F   UNL A   1      42.098  28.005  25.333  1.00  0.00    -0.200 F 
ATOM     86  C   UNL A   1      40.747  26.360  26.352  1.00  0.00     0.200 A 
ATOM     87  F   UNL A   1      39.381  24.751  27.413  1.00  0.00    -0.200 F 
ATOM     88  F   UNL A   1      40.862  25.573  25.274  1.00  0.00    -0.200 F 
ENDBRANCH  54  78
BRANCH  66  89
ATOM     89  C   UNL A   1      43.988  28.315  34.656  1.00  0.00     0.064 A 
ATOM     90  C   UNL A   1      45.307  28.770  34.520  1.00  0.00     0.173 A 
ATOM     91  C   UNL A   1      43.769  27.141  35.392  1.00  0.00     0.173 A 
ATOM     92  F   UNL A   1      45.568  29.882  33.815  1.00  0.00    -0.203 F 
ATOM     93  C   UNL A   1      46.367  28.071  35.090  1.00  0.00     0.198 A 
ATOM     94  C   UNL A   1      44.829  26.460  35.985  1.00  0.00     0.198 A 
ATOM     95  F   UNL A   1      42.525  26.667  35.557  1.00  0.00    -0.203 F 
ATOM     96  F   UNL A   1      47.623  28.506  34.920  1.00  0.00    -0.200 F 
ATOM     97  C   UNL A   1      46.126  26.923  35.831  1.00  0.00     0.200 A 
ATOM     98  F   UNL A   1      44.592  25.360  36.714  1.00  0.00    -0.200 F 
ATOM     99  F   UNL A   1      47.146  26.261  36.393  1.00  0.00    -0.200 F 
ENDBRANCH  66  89
ENDBRANCH  40  41
ENDBRANCH  32  35
ENDBRANCH  30  31
ENDBRANCH  29  30
ENDBRANCH   1  29
TORSDOF 14
ENDMDL
MODEL 2
REMARK VINA RESULT:     -13.4      5.480     11.006
REMARK SMILES O=C(COc1ccc(Br)cc1/C=C1\C(=O)Nc2ccc(Br)cc21)NCCCCNC(=O)c1ccc(-c2c3nc(c(-c4c(F)c(F)c(F)c(F)c4F)c4ccc([nH]4)c(-c4c(F)c(F)c(F)c(F)c4F)c4nc(c(-c5c(F)c(F)c(F)c(F)c5F)c5ccc2[nH]5)C=C4)C=C3)cc1
REMARK SMILES IDX 26 1 25 2 24 3 1 4 2 5 3 7 4 8 5 9 6 10 11 11 7 12 10 13
REMARK SMILES IDX 8 14 9 15 12 16 13 17 14 18 23 19 15 20 16 21 17 22 22 23
REMARK SMILES IDX 18 25 20 26 19 27 21 28 27 29 28 30 29 31 30 32 31 34 32 35
REMARK SMILES IDX 33 36 94 37 34 38 93 39 35 40 36 41 37 42 87 43 38 44 92 45
REMARK SMILES IDX 86 46 88 47 39 48 91 49 85 50 84 51 40 53 72 54 52 55 71 56
REMARK SMILES IDX 53 57 56 58 70 59 89 60 54 61 55 62 69 64 90 65 57 66 41 67
REMARK SMILES IDX 42 68 50 69 43 70 44 71 48 72 51 73 45 74 46 75 49 76 47 77
REMARK SMILES IDX 73 78 74 79 82 80 75 81 76 82 80 83 83 84 77 85 78 86 81 87
REMARK SMILES IDX 79 88 58 89 59 90 67 91 60 92 61 93 65 94 68 95 62 96 63 97
REMARK SMILES IDX 66 98 64 99
REMARK H PARENT 24 6 16 24 29 33 88 52 56 63
REMARK Flexibility Score: inf
ROOT
ATOM      1  C   UNL A   1      37.307  21.224  24.529  1.00  0.00     0.023 C 
ENDROOT
BRANCH   1   2
ATOM      2  C   UNL A   1      37.442  22.448  25.431  1.00  0.00     0.116 C 
BRANCH   2   3
ATOM      3  N   UNL A   1      36.429  22.576  26.474  1.00  0.00    -0.353 N 
ATOM      4  O   UNL A   1      35.172  24.146  25.370  1.00  0.00    -0.271 OA
ATOM      5  C   UNL A   1      35.274  23.312  26.267  1.00  0.00     0.257 C 
ATOM      6  H   UNL A   1      36.571  22.131  27.341  1.00  0.00     0.163 HD
BRANCH   5   7
ATOM      7  C   UNL A   1      34.080  22.974  27.203  1.00  0.00     0.329 C 
BRANCH   7   8
ATOM      8  O   UNL A   1      32.772  22.667  26.696  1.00  0.00    -0.483 OA
BRANCH   8   9
ATOM      9  C   UNL A   1      32.722  21.690  25.721  1.00  0.00     0.127 A 
ATOM     10  C   UNL A   1      33.244  20.410  26.012  1.00  0.00     0.048 A 
ATOM     11  C   UNL A   1      32.060  21.917  24.482  1.00  0.00     0.018 A 
ATOM     12  C   UNL A   1      33.209  19.363  25.103  1.00  0.00     0.019 A 
ATOM     13  C   UNL A   1      32.024  20.810  23.609  1.00  0.00     0.027 A 
ATOM     14  C   UNL A   1      32.598  19.571  23.894  1.00  0.00     0.018 A 
ATOM     15  Br  UNL A   1      32.529  18.181  22.616  1.00  0.00    -0.051 Br
BRANCH  11  16
ATOM     16  C   UNL A   1      31.492  23.255  24.055  1.00  0.00     0.026 C 
ATOM     17  C   UNL A   1      31.994  24.181  23.194  1.00  0.00     0.050 C 
ATOM     18  C   UNL A   1      33.300  24.115  22.440  1.00  0.00     0.256 C 
ATOM     19  C   UNL A   1      31.718  25.636  23.250  1.00  0.00     0.012 A 
ATOM     20  O   UNL A   1      33.651  23.328  21.588  1.00  0.00    -0.269 OA
ATOM     21  N   UNL A   1      33.935  25.302  22.754  1.00  0.00    -0.321 N 
ATOM     22  C   UNL A   1      32.991  26.233  23.173  1.00  0.00     0.049 A 
ATOM     23  C   UNL A   1      30.598  26.441  23.159  1.00  0.00     0.026 A 
ATOM     24  H   UNL A   1      34.905  25.463  22.691  1.00  0.00     0.170 HD
ATOM     25  C   UNL A   1      33.215  27.591  23.236  1.00  0.00     0.028 A 
ATOM     26  C   UNL A   1      30.806  27.833  23.102  1.00  0.00     0.018 A 
ATOM     27  C   UNL A   1      32.090  28.406  23.205  1.00  0.00     0.018 A 
ATOM     28  Br  UNL A   1      29.344  28.987  22.751  1.00  0.00    -0.051 Br
ENDBRANCH  11  16
ENDBRANCH   8   9
ENDBRANCH   7   8
ENDBRANCH   5   7
ENDBRANCH   2   3
ENDBRANCH   1   2
BRANCH   1  29
ATOM     29  C   UNL A   1      38.043  19.973  25.001  1.00  0.00     0.023 C 
BRANCH  29  30
ATOM     30  C   UNL A   1      39.342  20.212  25.763  1.00  0.00     0.116 C 
BRANCH  30  31
ATOM     31  N   UNL A   1      40.253  19.076  25.764  1.00  0.00    -0.352 N 
ATOM     32  C   UNL A   1      41.612  19.049  26.010  1.00  0.00     0.251 C 
ATOM     33  H   UNL A   1      39.843  18.205  25.560  1.00  0.00     0.163 HD
ATOM     34  O   UNL A   1      42.243  18.005  25.886  1.00  0.00    -0.269 OA
BRANCH  32  35
ATOM     35  C   UNL A   1      42.321  20.299  26.370  1.00  0.00     0.039 A 
ATOM     36  C   UNL A   1      42.279  20.796  27.672  1.00  0.00     0.014 A 
ATOM     37  C   UNL A   1      42.985  21.019  25.371  1.00  0.00     0.014 A 
ATOM     38  C   UNL A   1      42.699  22.098  27.927  1.00  0.00     0.010 A 
ATOM     39  C   UNL A   1      43.498  22.290  25.653  1.00  0.00     0.010 A 
ATOM     40  C   UNL A   1      43.297  22.870  26.916  1.00  0.00    -0.014 A 
BRANCH  40  41
ATOM     41  C   UNL A   1      43.665  24.286  27.196  1.00  0.00     0.031 A 
ATOM     42  C   UNL A   1      45.058  24.792  26.913  1.00  0.00     0.074 A 
ATOM     43  C   UNL A   1      42.725  25.141  27.645  1.00  0.00     0.049 A 
ATOM     44  N   UNL A   1      45.548  25.997  27.075  1.00  0.00    -0.248 NA
ATOM     45  C   UNL A   1      46.030  23.824  26.380  1.00  0.00     0.031 C 
ATOM     46  C   UNL A   1      41.338  24.781  27.947  1.00  0.00     0.029 A 
ATOM     47  N   UNL A   1      42.781  26.488  27.903  1.00  0.00    -0.354 N 
ATOM     48  C   UNL A   1      46.880  25.926  26.685  1.00  0.00     0.074 A 
ATOM     49  C   UNL A   1      47.135  24.555  26.306  1.00  0.00     0.031 C 
ATOM     50  C   UNL A   1      40.665  25.885  28.301  1.00  0.00     0.029 A 
ATOM     51  C   UNL A   1      41.584  27.019  28.316  1.00  0.00     0.049 A 
ATOM     52  H   UNL A   1      43.601  27.022  27.802  1.00  0.00     0.167 HD
ATOM     53  C   UNL A   1      47.801  26.917  26.635  1.00  0.00     0.037 A 
ATOM     54  C   UNL A   1      41.261  28.273  28.685  1.00  0.00     0.037 A 
ATOM     55  C   UNL A   1      47.540  28.291  26.980  1.00  0.00     0.049 A 
ATOM     56  C   UNL A   1      42.315  29.344  28.656  1.00  0.00     0.074 A 
ATOM     57  C   UNL A   1      48.405  29.371  26.921  1.00  0.00     0.029 A 
ATOM     58  N   UNL A   1      46.327  28.776  27.443  1.00  0.00    -0.354 N 
ATOM     59  N   UNL A   1      43.564  29.264  28.268  1.00  0.00    -0.248 NA
ATOM     60  C   UNL A   1      41.917  30.679  29.125  1.00  0.00     0.031 C 
ATOM     61  C   UNL A   1      47.731  30.499  27.397  1.00  0.00     0.029 A 
ATOM     62  C   UNL A   1      46.429  30.134  27.700  1.00  0.00     0.049 A 
ATOM     63  H   UNL A   1      45.514  28.235  27.571  1.00  0.00     0.167 HD
ATOM     64  C   UNL A   1      44.096  30.534  28.433  1.00  0.00     0.074 A 
ATOM     65  C   UNL A   1      43.030  31.374  28.934  1.00  0.00     0.031 C 
ATOM     66  C   UNL A   1      45.360  30.961  28.197  1.00  0.00     0.037 A 
BRANCH  53  67
ATOM     67  C   UNL A   1      49.193  26.571  26.189  1.00  0.00     0.064 A 
ATOM     68  C   UNL A   1      49.608  26.760  24.863  1.00  0.00     0.173 A 
ATOM     69  C   UNL A   1      50.152  26.147  27.122  1.00  0.00     0.173 A 
ATOM     70  F   UNL A   1      48.728  27.158  23.930  1.00  0.00    -0.203 F 
ATOM     71  C   UNL A   1      50.929  26.531  24.485  1.00  0.00     0.198 A 
ATOM     72  C   UNL A   1      51.478  25.943  26.748  1.00  0.00     0.198 A 
ATOM     73  F   UNL A   1      49.810  25.960  28.406  1.00  0.00    -0.203 F 
ATOM     74  F   UNL A   1      51.298  26.697  23.208  1.00  0.00    -0.200 F 
ATOM     75  C   UNL A   1      51.865  26.135  25.430  1.00  0.00     0.200 A 
ATOM     76  F   UNL A   1      52.383  25.577  27.665  1.00  0.00    -0.200 F 
ATOM     77  F   UNL A   1      53.141  25.938  25.070  1.00  0.00    -0.200 F 
ENDBRANCH  53  67
BRANCH  54  78
ATOM     78  C   UNL A   1      39.872  28.575  29.121  1.00  0.00     0.064 A 
ATOM     79  C   UNL A   1      38.924  29.075  28.218  1.00  0.00     0.173 A 
ATOM     80  C   UNL A   1      39.461  28.354  30.444  1.00  0.00     0.173 A 
ATOM     81  F   UNL A   1      39.274  29.325  26.948  1.00  0.00    -0.203 F 
ATOM     82  C   UNL A   1      37.620  29.350  28.625  1.00  0.00     0.198 A 
ATOM     83  C   UNL A   1      38.150  28.599  30.842  1.00  0.00     0.198 A 
ATOM     84  F   UNL A   1      40.331  27.876  31.346  1.00  0.00    -0.203 F 
ATOM     85  F   UNL A   1      36.743  29.863  27.752  1.00  0.00    -0.200 F 
ATOM     86  C   UNL A   1      37.231  29.103  29.933  1.00  0.00     0.200 A 
ATOM     87  F   UNL A   1      37.775  28.341  32.102  1.00  0.00    -0.200 F 
ATOM     88  F   UNL A   1      35.973  29.355  30.320  1.00  0.00    -0.200 F 
ENDBRANCH  54  78
BRANCH  66  89
ATOM     89  C   UNL A   1      45.667  32.406  28.464  1.00  0.00     0.064 A 
ATOM     90  C   UNL A   1      45.440  33.392  27.493  1.00  0.00     0.173 A 
ATOM     91  C   UNL A   1      46.121  32.817  29.726  1.00  0.00     0.173 A 
ATOM     92  F   UNL A   1      45.017  33.048  26.267  1.00  0.00    -0.203 F 
ATOM     93  C   UNL A   1      45.670  34.736  27.772  1.00  0.00     0.198 A 
ATOM     94  C   UNL A   1      46.323  34.165  30.010  1.00  0.00     0.198 A 
ATOM     95  F   UNL A   1      46.347  31.914  30.692  1.00  0.00    -0.203 F 
ATOM     96  F   UNL A   1      45.480  35.659  26.819  1.00  0.00    -0.200 F 
ATOM     97  C   UNL A   1      46.101  35.123  29.033  1.00  0.00     0.200 A 
ATOM     98  F   UNL A   1      46.723  34.537  31.234  1.00  0.00    -0.200 F 
ATOM     99  F   UNL A   1      46.305  36.419  29.304  1.00  0.00    -0.200 F 
ENDBRANCH  66  89
ENDBRANCH  40  41
ENDBRANCH  32  35
ENDBRANCH  30  31
ENDBRANCH  29  30
ENDBRANCH   1  29
TORSDOF 14
ENDMDL
MODEL 3
REMARK VINA RESULT:     -13.4      5.476     10.053
REMARK SMILES O=C(COc1ccc(Br)cc1/C=C1\C(=O)Nc2ccc(Br)cc21)NCCCCNC(=O)c1ccc(-c2c3nc(c(-c4c(F)c(F)c(F)c(F)c4F)c4ccc([nH]4)c(-c4c(F)c(F)c(F)c(F)c4F)c4nc(c(-c5c(F)c(F)c(F)c(F)c5F)c5ccc2[nH]5)C=C4)C=C3)cc1
REMARK SMILES IDX 26 1 25 2 24 3 1 4 2 5 3 7 4 8 5 9 6 10 11 11 7 12 10 13
REMARK SMILES IDX 8 14 9 15 12 16 13 17 14 18 23 19 15 20 16 21 17 22 22 23
REMARK SMILES IDX 18 25 20 26 19 27 21 28 27 29 28 30 29 31 30 32 31 34 32 35
REMARK SMILES IDX 33 36 94 37 34 38 93 39 35 40 36 41 37 42 87 43 38 44 92 45
REMARK SMILES IDX 86 46 88 47 39 48 91 49 85 50 84 51 40 53 72 54 52 55 71 56
REMARK SMILES IDX 53 57 56 58 70 59 89 60 54 61 55 62 69 64 90 65 57 66 41 67
REMARK SMILES IDX 42 68 50 69 43 70 44 71 48 72 51 73 45 74 46 75 49 76 47 77
REMARK SMILES IDX 73 78 74 79 82 80 75 81 76 82 80 83 83 84 77 85 78 86 81 87
REMARK SMILES IDX 79 88 58 89 59 90 67 91 60 92 61 93 65 94 68 95 62 96 63 97
REMARK SMILES IDX 66 98 64 99
REMARK H PARENT 24 6 16 24 29 33 88 52 56 63
REMARK Flexibility Score: inf
ROOT
ATOM      1  C   UNL A   1      37.287  21.147  24.579  1.00  0.00     0.023 C 
ENDROOT
BRANCH   1   2
ATOM      2  C   UNL A   1      37.442  22.378  25.468  1.00  0.00     0.116 C 
BRANCH   2   3
ATOM      3  N   UNL A   1      36.423  22.541  26.500  1.00  0.00    -0.353 N 
ATOM      4  O   UNL A   1      35.182  24.084  25.343  1.00  0.00    -0.271 OA
ATOM      5  C   UNL A   1      35.273  23.276  26.264  1.00  0.00     0.257 C 
ATOM      6  H   UNL A   1      36.556  22.121  27.380  1.00  0.00     0.163 HD
BRANCH   5   7
ATOM      7  C   UNL A   1      34.071  22.971  27.202  1.00  0.00     0.329 C 
BRANCH   7   8
ATOM      8  O   UNL A   1      32.763  22.662  26.694  1.00  0.00    -0.483 OA
BRANCH   8   9
ATOM      9  C   UNL A   1      32.716  21.687  25.717  1.00  0.00     0.127 A 
ATOM     10  C   UNL A   1      33.236  20.406  26.007  1.00  0.00     0.048 A 
ATOM     11  C   UNL A   1      32.059  21.918  24.476  1.00  0.00     0.018 A 
ATOM     12  C   UNL A   1      33.202  19.361  25.095  1.00  0.00     0.019 A 
ATOM     13  C   UNL A   1      32.024  20.813  23.600  1.00  0.00     0.027 A 
ATOM     14  C   UNL A   1      32.596  19.573  23.884  1.00  0.00     0.018 A 
ATOM     15  Br  UNL A   1      32.529  18.185  22.603  1.00  0.00    -0.051 Br
BRANCH  11  16
ATOM     16  C   UNL A   1      31.494  23.257  24.050  1.00  0.00     0.026 C 
ATOM     17  C   UNL A   1      31.998  24.183  23.190  1.00  0.00     0.050 C 
ATOM     18  C   UNL A   1      33.304  24.114  22.435  1.00  0.00     0.256 C 
ATOM     19  C   UNL A   1      31.725  25.638  23.247  1.00  0.00     0.012 A 
ATOM     20  O   UNL A   1      33.653  23.328  21.583  1.00  0.00    -0.269 OA
ATOM     21  N   UNL A   1      33.942  25.300  22.751  1.00  0.00    -0.321 N 
ATOM     22  C   UNL A   1      33.000  26.233  23.171  1.00  0.00     0.049 A 
ATOM     23  C   UNL A   1      30.608  26.447  23.157  1.00  0.00     0.026 A 
ATOM     24  H   UNL A   1      34.911  25.458  22.688  1.00  0.00     0.170 HD
ATOM     25  C   UNL A   1      33.227  27.590  23.235  1.00  0.00     0.028 A 
ATOM     26  C   UNL A   1      30.818  27.838  23.101  1.00  0.00     0.018 A 
ATOM     27  C   UNL A   1      32.104  28.408  23.204  1.00  0.00     0.018 A 
ATOM     28  Br  UNL A   1      29.359  28.996  22.751  1.00  0.00    -0.051 Br
ENDBRANCH  11  16
ENDBRANCH   8   9
ENDBRANCH   7   8
ENDBRANCH   5   7
ENDBRANCH   2   3
ENDBRANCH   1   2
BRANCH   1  29
ATOM     29  C   UNL A   1      38.096  19.923  25.001  1.00  0.00     0.023 C 
BRANCH  29  30
ATOM     30  C   UNL A   1      39.370  20.206  25.789  1.00  0.00     0.116 C 
BRANCH  30  31
ATOM     31  N   UNL A   1      40.287  19.077  25.869  1.00  0.00    -0.352 N 
ATOM     32  C   UNL A   1      41.644  19.073  26.126  1.00  0.00     0.251 C 
ATOM     33  H   UNL A   1      39.883  18.192  25.718  1.00  0.00     0.163 HD
ATOM     34  O   UNL A   1      42.282  18.027  26.073  1.00  0.00    -0.269 OA
BRANCH  32  35
ATOM     35  C   UNL A   1      42.344  20.348  26.410  1.00  0.00     0.039 A 
ATOM     36  C   UNL A   1      42.277  20.935  27.674  1.00  0.00     0.014 A 
ATOM     37  C   UNL A   1      43.026  20.998  25.376  1.00  0.00     0.014 A 
ATOM     38  C   UNL A   1      42.691  22.252  27.844  1.00  0.00     0.010 A 
ATOM     39  C   UNL A   1      43.531  22.287  25.577  1.00  0.00     0.010 A 
ATOM     40  C   UNL A   1      43.305  22.954  26.792  1.00  0.00    -0.014 A 
BRANCH  40  41
ATOM     41  C   UNL A   1      43.666  24.387  26.979  1.00  0.00     0.031 A 
ATOM     42  C   UNL A   1      42.663  25.371  27.527  1.00  0.00     0.074 A 
ATOM     43  C   UNL A   1      44.924  24.794  26.719  1.00  0.00     0.049 A 
ATOM     44  N   UNL A   1      42.811  26.650  27.775  1.00  0.00    -0.248 NA
ATOM     45  C   UNL A   1      41.318  24.859  27.836  1.00  0.00     0.031 C 
ATOM     46  C   UNL A   1      45.992  23.940  26.197  1.00  0.00     0.029 A 
ATOM     47  N   UNL A   1      45.526  26.018  26.877  1.00  0.00    -0.354 N 
ATOM     48  C   UNL A   1      41.582  27.094  28.247  1.00  0.00     0.074 A 
ATOM     49  C   UNL A   1      40.686  25.959  28.225  1.00  0.00     0.031 C 
ATOM     50  C   UNL A   1      47.127  24.650  26.124  1.00  0.00     0.029 A 
ATOM     51  C   UNL A   1      46.855  26.025  26.531  1.00  0.00     0.049 A 
ATOM     52  H   UNL A   1      45.051  26.813  27.208  1.00  0.00     0.167 HD
ATOM     53  C   UNL A   1      41.236  28.333  28.673  1.00  0.00     0.037 A 
ATOM     54  C   UNL A   1      47.754  27.028  26.522  1.00  0.00     0.037 A 
ATOM     55  C   UNL A   1      42.135  29.456  28.729  1.00  0.00     0.049 A 
ATOM     56  C   UNL A   1      47.330  28.401  26.964  1.00  0.00     0.074 A 
ATOM     57  C   UNL A   1      41.881  30.739  29.184  1.00  0.00     0.029 A 
ATOM     58  N   UNL A   1      43.460  29.433  28.320  1.00  0.00    -0.354 N 
ATOM     59  N   UNL A   1      46.170  28.799  27.424  1.00  0.00    -0.248 NA
ATOM     60  C   UNL A   1      48.339  29.466  26.876  1.00  0.00     0.031 C 
ATOM     61  C   UNL A   1      43.035  31.506  29.004  1.00  0.00     0.029 A 
ATOM     62  C   UNL A   1      44.026  30.687  28.487  1.00  0.00     0.049 A 
ATOM     63  H   UNL A   1      43.927  28.644  27.963  1.00  0.00     0.167 HD
ATOM     64  C   UNL A   1      46.312  30.153  27.693  1.00  0.00     0.074 A 
ATOM     65  C   UNL A   1      47.677  30.505  27.367  1.00  0.00     0.031 C 
ATOM     66  C   UNL A   1      45.387  31.026  28.161  1.00  0.00     0.037 A 
BRANCH  53  67
ATOM     67  C   UNL A   1      39.821  28.559  29.124  1.00  0.00     0.064 A 
ATOM     68  C   UNL A   1      39.430  28.347  30.454  1.00  0.00     0.173 A 
ATOM     69  C   UNL A   1      38.873  29.097  28.239  1.00  0.00     0.173 A 
ATOM     70  F   UNL A   1      40.297  27.828  31.338  1.00  0.00    -0.203 F 
ATOM     71  C   UNL A   1      38.141  28.657  30.880  1.00  0.00     0.198 A 
ATOM     72  C   UNL A   1      37.593  29.430  28.674  1.00  0.00     0.198 A 
ATOM     73  F   UNL A   1      39.198  29.328  26.958  1.00  0.00    -0.203 F 
ATOM     74  F   UNL A   1      37.783  28.426  32.151  1.00  0.00    -0.200 F 
ATOM     75  C   UNL A   1      37.228  29.210  29.994  1.00  0.00     0.200 A 
ATOM     76  F   UNL A   1      36.718  29.980  27.820  1.00  0.00    -0.200 F 
ATOM     77  F   UNL A   1      35.995  29.530  30.412  1.00  0.00    -0.200 F 
ENDBRANCH  53  67
BRANCH  54  78
ATOM     78  C   UNL A   1      49.145  26.763  26.069  1.00  0.00     0.064 A 
ATOM     79  C   UNL A   1      50.112  26.270  26.954  1.00  0.00     0.173 A 
ATOM     80  C   UNL A   1      49.529  26.982  24.737  1.00  0.00     0.173 A 
ATOM     81  F   UNL A   1      49.799  26.065  28.243  1.00  0.00    -0.203 F 
ATOM     82  C   UNL A   1      51.413  26.014  26.528  1.00  0.00     0.198 A 
ATOM     83  C   UNL A   1      50.821  26.696  24.304  1.00  0.00     0.198 A 
ATOM     84  F   UNL A   1      48.641  27.453  23.851  1.00  0.00    -0.203 F 
ATOM     85  F   UNL A   1      52.329  25.578  27.402  1.00  0.00    -0.200 F 
ATOM     86  C   UNL A   1      51.764  26.217  25.201  1.00  0.00     0.200 A 
ATOM     87  F   UNL A   1      51.150  26.878  23.018  1.00  0.00    -0.200 F 
ATOM     88  F   UNL A   1      53.012  25.957  24.788  1.00  0.00    -0.200 F 
ENDBRANCH  54  78
BRANCH  66  89
ATOM     89  C   UNL A   1      45.816  32.450  28.363  1.00  0.00     0.064 A 
ATOM     90  C   UNL A   1      45.644  33.414  27.360  1.00  0.00     0.173 A 
ATOM     91  C   UNL A   1      46.334  32.870  29.598  1.00  0.00     0.173 A 
ATOM     92  F   UNL A   1      45.163  33.060  26.158  1.00  0.00    -0.203 F 
ATOM     93  C   UNL A   1      45.988  34.745  27.580  1.00  0.00     0.198 A 
ATOM     94  C   UNL A   1      46.650  34.207  29.824  1.00  0.00     0.198 A 
ATOM     95  F   UNL A   1      46.510  31.988  30.593  1.00  0.00    -0.203 F 
ATOM     96  F   UNL A   1      45.848  35.643  26.596  1.00  0.00    -0.200 F 
ATOM     97  C   UNL A   1      46.481  35.142  28.815  1.00  0.00     0.200 A 
ATOM     98  F   UNL A   1      47.110  34.591  31.023  1.00  0.00    -0.200 F 
ATOM     99  F   UNL A   1      46.796  36.426  29.030  1.00  0.00    -0.200 F 
ENDBRANCH  66  89
ENDBRANCH  40  41
ENDBRANCH  32  35
ENDBRANCH  30  31
ENDBRANCH  29  30
ENDBRANCH   1  29
TORSDOF 14
ENDMDL
