MODEL 1
REMARK VINA RESULT:     -13.3      0.000      0.000
REMARK SMILES Cc1ccc(-n2nc(C(=O)NCCCCNC(=O)c3ccc(-c4c5nc(c(-c6c(F)c(F)c(F)c(F)c6F)c6ccc([nH]6)c(-c6c(F)c(F)c(F)c(F)c6F)c6nc(c(-c7c(F)c(F)c(F)c(F)c7F)c7ccc4[nH]7)C=C6)C=C5)cc3)c(C)c(C#N)c2=O)cc1Cl
REMARK SMILES IDX 14 1 13 2 12 3 11 4 9 5 10 6 8 8 6 9 7 10 87 11 84 12 88 13
REMARK SMILES IDX 82 14 83 15 5 16 1 17 2 18 3 19 90 20 4 21 89 22 91 23 85 24
REMARK SMILES IDX 86 25 15 26 16 27 17 28 18 30 19 31 20 32 81 33 21 34 80 35
REMARK SMILES IDX 22 36 23 37 24 38 74 39 25 40 79 41 73 42 75 43 26 44 78 45
REMARK SMILES IDX 72 46 71 47 27 49 59 50 39 51 58 52 40 53 43 54 57 55 76 56
REMARK SMILES IDX 41 57 42 58 56 60 77 61 44 62 28 63 29 64 37 65 30 66 31 67
REMARK SMILES IDX 35 68 38 69 32 70 33 71 36 72 34 73 60 74 61 75 69 76 62 77
REMARK SMILES IDX 63 78 67 79 70 80 64 81 65 82 68 83 66 84 45 85 46 86 54 87
REMARK SMILES IDX 47 88 48 89 52 90 55 91 49 92 50 93 53 94 51 95
REMARK H PARENT 11 7 16 29 75 48 43 59
REMARK Flexibility Score: inf
ROOT
ATOM      1  C   UNL A   1      32.256  29.029  25.183  1.00  0.00     0.023 C 
ENDROOT
BRANCH   1   2
ATOM      2  C   UNL A   1      33.137  29.092  23.946  1.00  0.00     0.023 C 
BRANCH   2   3
ATOM      3  C   UNL A   1      32.381  28.705  22.677  1.00  0.00     0.116 C 
BRANCH   3   4
ATOM      4  N   UNL A   1      32.982  27.592  22.010  1.00  0.00    -0.351 N 
ATOM      5  C   UNL A   1      33.091  26.252  22.210  1.00  0.00     0.272 C 
ATOM      6  O   UNL A   1      33.393  25.649  21.172  1.00  0.00    -0.267 OA
ATOM      7  H   UNL A   1      33.441  27.872  21.185  1.00  0.00     0.163 HD
BRANCH   5   8
ATOM      8  C   UNL A   1      32.936  25.395  23.496  1.00  0.00     0.153 A 
ATOM      9  N   UNL A   1      34.241  24.042  24.844  1.00  0.00    -0.195 N 
ATOM     10  N   UNL A   1      34.105  24.913  23.821  1.00  0.00    -0.159 NA
ATOM     11  C   UNL A   1      33.218  23.669  25.689  1.00  0.00     0.289 A 
ATOM     12  C   UNL A   1      31.915  24.294  25.400  1.00  0.00     0.124 A 
ATOM     13  O   UNL A   1      33.324  22.902  26.643  1.00  0.00    -0.266 OA
ATOM     14  C   UNL A   1      31.712  25.088  24.325  1.00  0.00     0.006 A 
ATOM     15  C   UNL A   1      30.338  25.608  24.081  1.00  0.00     0.048 C 
BRANCH   9  16
ATOM     16  C   UNL A   1      35.525  23.461  24.961  1.00  0.00     0.070 A 
ATOM     17  C   UNL A   1      39.151  21.301  25.798  1.00  0.00     0.046 C 
ATOM     18  C   UNL A   1      37.936  22.112  25.454  1.00  0.00    -0.032 A 
ATOM     19  C   UNL A   1      36.958  21.536  24.636  1.00  0.00     0.007 A 
ATOM     20  C   UNL A   1      37.718  23.403  25.968  1.00  0.00     0.046 A 
ATOM     21  C   UNL A   1      35.760  22.201  24.403  1.00  0.00     0.029 A 
ATOM     22  C   UNL A   1      36.534  24.094  25.691  1.00  0.00     0.049 A 
ATOM     23  Cl  UNL A   1      38.866  24.153  27.020  1.00  0.00    -0.084 Cl
ENDBRANCH   9  16
BRANCH  12  24
ATOM     24  C   UNL A   1      30.884  23.975  26.338  1.00  0.00     0.105 C 
ATOM     25  N   UNL A   1      30.079  23.648  27.100  1.00  0.00    -0.192 NA
ENDBRANCH  12  24
ENDBRANCH   5   8
ENDBRANCH   3   4
ENDBRANCH   2   3
ENDBRANCH   1   2
BRANCH   1  26
ATOM     26  C   UNL A   1      32.947  29.516  26.447  1.00  0.00     0.116 C 
BRANCH  26  27
ATOM     27  N   UNL A   1      32.649  30.898  26.794  1.00  0.00    -0.352 N 
ATOM     28  C   UNL A   1      33.479  31.786  27.441  1.00  0.00     0.251 C 
ATOM     29  H   UNL A   1      31.759  31.234  26.540  1.00  0.00     0.163 HD
ATOM     30  O   UNL A   1      33.103  32.909  27.750  1.00  0.00    -0.269 OA
BRANCH  28  31
ATOM     31  C   UNL A   1      34.826  31.308  27.807  1.00  0.00     0.039 A 
ATOM     32  C   UNL A   1      35.852  32.241  27.937  1.00  0.00     0.014 A 
ATOM     33  C   UNL A   1      34.998  29.981  28.216  1.00  0.00     0.014 A 
ATOM     34  C   UNL A   1      37.039  31.856  28.553  1.00  0.00     0.010 A 
ATOM     35  C   UNL A   1      36.134  29.639  28.937  1.00  0.00     0.010 A 
ATOM     36  C   UNL A   1      37.171  30.568  29.104  1.00  0.00    -0.014 A 
BRANCH  36  37
ATOM     37  C   UNL A   1      38.406  30.186  29.834  1.00  0.00     0.031 A 
ATOM     38  C   UNL A   1      38.629  30.685  31.234  1.00  0.00     0.074 A 
ATOM     39  C   UNL A   1      39.319  29.391  29.241  1.00  0.00     0.049 A 
ATOM     40  N   UNL A   1      39.604  30.406  32.061  1.00  0.00    -0.248 NA
ATOM     41  C   UNL A   1      37.646  31.639  31.773  1.00  0.00     0.031 C 
ATOM     42  C   UNL A   1      39.243  28.895  27.866  1.00  0.00     0.029 A 
ATOM     43  N   UNL A   1      40.482  28.843  29.724  1.00  0.00    -0.354 N 
ATOM     44  C   UNL A   1      39.339  31.135  33.211  1.00  0.00     0.074 A 
ATOM     45  C   UNL A   1      38.169  31.939  32.950  1.00  0.00     0.031 C 
ATOM     46  C   UNL A   1      40.275  28.067  27.637  1.00  0.00     0.029 A 
ATOM     47  C   UNL A   1      41.109  28.003  28.833  1.00  0.00     0.049 A 
ATOM     48  H   UNL A   1      40.834  29.032  30.624  1.00  0.00     0.167 HD
ATOM     49  C   UNL A   1      39.984  31.097  34.398  1.00  0.00     0.037 A 
ATOM     50  C   UNL A   1      42.223  27.255  28.972  1.00  0.00     0.037 A 
ATOM     51  C   UNL A   1      41.133  30.278  34.660  1.00  0.00     0.049 A 
ATOM     52  C   UNL A   1      42.948  27.264  30.292  1.00  0.00     0.074 A 
ATOM     53  C   UNL A   1      41.833  30.137  35.844  1.00  0.00     0.029 A 
ATOM     54  N   UNL A   1      41.754  29.465  33.724  1.00  0.00    -0.354 N 
ATOM     55  N   UNL A   1      42.634  27.888  31.402  1.00  0.00    -0.248 NA
ATOM     56  C   UNL A   1      44.179  26.465  30.385  1.00  0.00     0.031 C 
ATOM     57  C   UNL A   1      42.916  29.290  35.608  1.00  0.00     0.029 A 
ATOM     58  C   UNL A   1      42.853  28.848  34.296  1.00  0.00     0.049 A 
ATOM     59  H   UNL A   1      41.457  29.345  32.793  1.00  0.00     0.167 HD
ATOM     60  C   UNL A   1      43.608  27.538  32.329  1.00  0.00     0.074 A 
ATOM     61  C   UNL A   1      44.517  26.634  31.657  1.00  0.00     0.031 C 
ATOM     62  C   UNL A   1      43.739  27.936  33.617  1.00  0.00     0.037 A 
BRANCH  49  63
ATOM     63  C   UNL A   1      39.448  31.944  35.515  1.00  0.00     0.064 A 
ATOM     64  C   UNL A   1      38.507  31.440  36.427  1.00  0.00     0.173 A 
ATOM     65  C   UNL A   1      39.933  33.243  35.723  1.00  0.00     0.173 A 
ATOM     66  F   UNL A   1      37.999  30.209  36.264  1.00  0.00    -0.203 F 
ATOM     67  C   UNL A   1      38.063  32.210  37.498  1.00  0.00     0.198 A 
ATOM     68  C   UNL A   1      39.513  33.997  36.815  1.00  0.00     0.198 A 
ATOM     69  F   UNL A   1      40.834  33.771  34.881  1.00  0.00    -0.203 F 
ATOM     70  F   UNL A   1      37.136  31.722  38.333  1.00  0.00    -0.200 F 
ATOM     71  C   UNL A   1      38.576  33.482  37.699  1.00  0.00     0.200 A 
ATOM     72  F   UNL A   1      40.022  35.221  37.016  1.00  0.00    -0.200 F 
ATOM     73  F   UNL A   1      38.166  34.214  38.743  1.00  0.00    -0.200 F 
ENDBRANCH  49  63
BRANCH  50  74
ATOM     74  C   UNL A   1      42.692  26.404  27.845  1.00  0.00     0.064 A 
ATOM     75  C   UNL A   1      42.292  25.064  27.733  1.00  0.00     0.173 A 
ATOM     76  C   UNL A   1      43.538  26.912  26.846  1.00  0.00     0.173 A 
ATOM     77  F   UNL A   1      41.498  24.524  28.670  1.00  0.00    -0.203 F 
ATOM     78  C   UNL A   1      42.727  24.265  26.678  1.00  0.00     0.198 A 
ATOM     79  C   UNL A   1      43.947  26.121  25.774  1.00  0.00     0.198 A 
ATOM     80  F   UNL A   1      43.950  28.187  26.901  1.00  0.00    -0.203 F 
ATOM     81  F   UNL A   1      42.360  22.978  26.620  1.00  0.00    -0.200 F 
ATOM     82  C   UNL A   1      43.548  24.796  25.695  1.00  0.00     0.200 A 
ATOM     83  F   UNL A   1      44.724  26.646  24.816  1.00  0.00    -0.200 F 
ATOM     84  F   UNL A   1      43.955  24.031  24.673  1.00  0.00    -0.200 F 
ENDBRANCH  50  74
BRANCH  62  85
ATOM     85  C   UNL A   1      44.891  27.398  34.413  1.00  0.00     0.064 A 
ATOM     86  C   UNL A   1      46.094  28.108  34.525  1.00  0.00     0.173 A 
ATOM     87  C   UNL A   1      44.740  26.233  35.180  1.00  0.00     0.173 A 
ATOM     88  F   UNL A   1      46.291  29.223  33.804  1.00  0.00    -0.203 F 
ATOM     89  C   UNL A   1      47.103  27.673  35.380  1.00  0.00     0.198 A 
ATOM     90  C   UNL A   1      45.737  25.819  36.059  1.00  0.00     0.198 A 
ATOM     91  F   UNL A   1      43.602  25.524  35.118  1.00  0.00    -0.203 F 
ATOM     92  F   UNL A   1      48.252  28.359  35.460  1.00  0.00    -0.200 F 
ATOM     93  C   UNL A   1      46.917  26.540  36.158  1.00  0.00     0.200 A 
ATOM     94  F   UNL A   1      45.545  24.738  36.828  1.00  0.00    -0.200 F 
ATOM     95  F   UNL A   1      47.875  26.145  37.008  1.00  0.00    -0.200 F 
ENDBRANCH  62  85
ENDBRANCH  36  37
ENDBRANCH  28  31
ENDBRANCH  26  27
ENDBRANCH   1  26
TORSDOF 13
ENDMDL
MODEL 2
REMARK VINA RESULT:     -13.3      0.323      1.159
REMARK SMILES Cc1ccc(-n2nc(C(=O)NCCCCNC(=O)c3ccc(-c4c5nc(c(-c6c(F)c(F)c(F)c(F)c6F)c6ccc([nH]6)c(-c6c(F)c(F)c(F)c(F)c6F)c6nc(c(-c7c(F)c(F)c(F)c(F)c7F)c7ccc4[nH]7)C=C6)C=C5)cc3)c(C)c(C#N)c2=O)cc1Cl
REMARK SMILES IDX 14 1 13 2 12 3 11 4 9 5 10 6 8 8 6 9 7 10 87 11 84 12 88 13
REMARK SMILES IDX 82 14 83 15 5 16 1 17 2 18 3 19 90 20 4 21 89 22 91 23 85 24
REMARK SMILES IDX 86 25 15 26 16 27 17 28 18 30 19 31 20 32 81 33 21 34 80 35
REMARK SMILES IDX 22 36 23 37 24 38 74 39 25 40 79 41 73 42 75 43 26 44 78 45
REMARK SMILES IDX 72 46 71 47 27 49 59 50 39 51 58 52 40 53 43 54 57 55 76 56
REMARK SMILES IDX 41 57 42 58 56 60 77 61 44 62 28 63 29 64 37 65 30 66 31 67
REMARK SMILES IDX 35 68 38 69 32 70 33 71 36 72 34 73 60 74 61 75 69 76 62 77
REMARK SMILES IDX 63 78 67 79 70 80 64 81 65 82 68 83 66 84 45 85 46 86 54 87
REMARK SMILES IDX 47 88 48 89 52 90 55 91 49 92 50 93 53 94 51 95
REMARK H PARENT 11 7 16 29 75 48 43 59
REMARK Flexibility Score: inf
ROOT
ATOM      1  C   UNL A   1      32.426  29.087  25.033  1.00  0.00     0.023 C 
ENDROOT
BRANCH   1   2
ATOM      2  C   UNL A   1      33.294  28.972  23.790  1.00  0.00     0.023 C 
BRANCH   2   3
ATOM      3  C   UNL A   1      32.483  28.614  22.548  1.00  0.00     0.116 C 
BRANCH   3   4
ATOM      4  N   UNL A   1      32.998  27.457  21.883  1.00  0.00    -0.351 N 
ATOM      5  C   UNL A   1      33.051  26.119  22.111  1.00  0.00     0.272 C 
ATOM      6  O   UNL A   1      33.276  25.478  21.076  1.00  0.00    -0.267 OA
ATOM      7  H   UNL A   1      33.431  27.696  21.031  1.00  0.00     0.163 HD
BRANCH   5   8
ATOM      8  C   UNL A   1      32.914  25.300  23.424  1.00  0.00     0.153 A 
ATOM      9  N   UNL A   1      34.241  23.992  24.796  1.00  0.00    -0.195 N 
ATOM     10  N   UNL A   1      34.089  24.832  23.750  1.00  0.00    -0.159 NA
ATOM     11  C   UNL A   1      33.229  23.641  25.664  1.00  0.00     0.289 A 
ATOM     12  C   UNL A   1      31.921  24.252  25.372  1.00  0.00     0.124 A 
ATOM     13  O   UNL A   1      33.349  22.902  26.639  1.00  0.00    -0.266 OA
ATOM     14  C   UNL A   1      31.701  25.013  24.276  1.00  0.00     0.006 A 
ATOM     15  C   UNL A   1      30.323  25.521  24.033  1.00  0.00     0.048 C 
BRANCH   9  16
ATOM     16  C   UNL A   1      35.528  23.420  24.915  1.00  0.00     0.070 A 
ATOM     17  C   UNL A   1      39.171  21.297  25.771  1.00  0.00     0.046 C 
ATOM     18  C   UNL A   1      37.949  22.094  25.419  1.00  0.00    -0.032 A 
ATOM     19  C   UNL A   1      36.966  21.493  24.625  1.00  0.00     0.007 A 
ATOM     20  C   UNL A   1      37.731  23.396  25.901  1.00  0.00     0.046 A 
ATOM     21  C   UNL A   1      35.763  22.146  24.388  1.00  0.00     0.029 A 
ATOM     22  C   UNL A   1      36.542  24.076  25.619  1.00  0.00     0.049 A 
ATOM     23  Cl  UNL A   1      38.886  24.178  26.922  1.00  0.00    -0.084 Cl
ENDBRANCH   9  16
BRANCH  12  24
ATOM     24  C   UNL A   1      30.902  23.957  26.331  1.00  0.00     0.105 C 
ATOM     25  N   UNL A   1      30.131  23.695  27.151  1.00  0.00    -0.192 NA
ENDBRANCH  12  24
ENDBRANCH   5   8
ENDBRANCH   3   4
ENDBRANCH   2   3
ENDBRANCH   1   2
BRANCH   1  26
ATOM     26  C   UNL A   1      33.197  29.499  26.277  1.00  0.00     0.116 C 
BRANCH  26  27
ATOM     27  N   UNL A   1      32.878  30.835  26.761  1.00  0.00    -0.352 N 
ATOM     28  C   UNL A   1      33.680  31.649  27.530  1.00  0.00     0.251 C 
ATOM     29  H   UNL A   1      31.996  31.194  26.512  1.00  0.00     0.163 HD
ATOM     30  O   UNL A   1      33.286  32.731  27.944  1.00  0.00    -0.269 OA
BRANCH  28  31
ATOM     31  C   UNL A   1      35.015  31.136  27.891  1.00  0.00     0.039 A 
ATOM     32  C   UNL A   1      36.068  32.041  28.002  1.00  0.00     0.014 A 
ATOM     33  C   UNL A   1      35.153  29.810  28.313  1.00  0.00     0.014 A 
ATOM     34  C   UNL A   1      37.249  31.630  28.613  1.00  0.00     0.010 A 
ATOM     35  C   UNL A   1      36.284  29.443  29.029  1.00  0.00     0.010 A 
ATOM     36  C   UNL A   1      37.349  30.344  29.177  1.00  0.00    -0.014 A 
BRANCH  36  37
ATOM     37  C   UNL A   1      38.578  29.936  29.903  1.00  0.00     0.031 A 
ATOM     38  C   UNL A   1      38.829  30.447  31.293  1.00  0.00     0.074 A 
ATOM     39  C   UNL A   1      39.461  29.104  29.313  1.00  0.00     0.049 A 
ATOM     40  N   UNL A   1      39.802  30.151  32.115  1.00  0.00    -0.248 NA
ATOM     41  C   UNL A   1      37.880  31.438  31.826  1.00  0.00     0.031 C 
ATOM     42  C   UNL A   1      39.357  28.592  27.946  1.00  0.00     0.029 A 
ATOM     43  N   UNL A   1      40.612  28.528  29.794  1.00  0.00    -0.354 N 
ATOM     44  C   UNL A   1      39.570  30.903  33.257  1.00  0.00     0.074 A 
ATOM     45  C   UNL A   1      38.422  31.739  32.994  1.00  0.00     0.031 C 
ATOM     46  C   UNL A   1      40.362  27.730  27.720  1.00  0.00     0.029 A 
ATOM     47  C   UNL A   1      41.205  27.657  28.910  1.00  0.00     0.049 A 
ATOM     48  H   UNL A   1      40.978  28.720  30.688  1.00  0.00     0.167 HD
ATOM     49  C   UNL A   1      40.224  30.863  34.439  1.00  0.00     0.037 A 
ATOM     50  C   UNL A   1      42.296  26.878  29.050  1.00  0.00     0.037 A 
ATOM     51  C   UNL A   1      41.350  30.013  34.703  1.00  0.00     0.049 A 
ATOM     52  C   UNL A   1      43.033  26.883  30.364  1.00  0.00     0.074 A 
ATOM     53  C   UNL A   1      42.057  29.868  35.883  1.00  0.00     0.029 A 
ATOM     54  N   UNL A   1      41.938  29.169  33.773  1.00  0.00    -0.354 N 
ATOM     55  N   UNL A   1      42.749  27.532  31.467  1.00  0.00    -0.248 NA
ATOM     56  C   UNL A   1      44.241  26.049  30.457  1.00  0.00     0.031 C 
ATOM     57  C   UNL A   1      43.111  28.985  35.649  1.00  0.00     0.029 A 
ATOM     58  C   UNL A   1      43.023  28.526  34.344  1.00  0.00     0.049 A 
ATOM     59  H   UNL A   1      41.629  29.044  32.846  1.00  0.00     0.167 HD
ATOM     60  C   UNL A   1      43.720  27.167  32.390  1.00  0.00     0.074 A 
ATOM     61  C   UNL A   1      44.595  26.226  31.723  1.00  0.00     0.031 C 
ATOM     62  C   UNL A   1      43.874  27.579  33.671  1.00  0.00     0.037 A 
BRANCH  49  63
ATOM     63  C   UNL A   1      39.724  31.741  35.548  1.00  0.00     0.064 A 
ATOM     64  C   UNL A   1      40.223  33.041  35.733  1.00  0.00     0.173 A 
ATOM     65  C   UNL A   1      38.686  31.311  36.387  1.00  0.00     0.173 A 
ATOM     66  F   UNL A   1      41.227  33.495  34.968  1.00  0.00    -0.203 F 
ATOM     67  C   UNL A   1      39.709  33.871  36.724  1.00  0.00     0.198 A 
ATOM     68  C   UNL A   1      38.151  32.157  37.354  1.00  0.00     0.198 A 
ATOM     69  F   UNL A   1      38.173  30.079  36.251  1.00  0.00    -0.203 F 
ATOM     70  F   UNL A   1      40.227  35.092  36.908  1.00  0.00    -0.200 F 
ATOM     71  C   UNL A   1      38.665  33.434  37.525  1.00  0.00     0.200 A 
ATOM     72  F   UNL A   1      37.131  31.739  38.116  1.00  0.00    -0.200 F 
ATOM     73  F   UNL A   1      38.154  34.242  38.464  1.00  0.00    -0.200 F 
ENDBRANCH  49  63
BRANCH  50  74
ATOM     74  C   UNL A   1      42.729  25.997  27.931  1.00  0.00     0.064 A 
ATOM     75  C   UNL A   1      42.257  24.681  27.821  1.00  0.00     0.173 A 
ATOM     76  C   UNL A   1      43.612  26.453  26.939  1.00  0.00     0.173 A 
ATOM     77  F   UNL A   1      41.426  24.189  28.752  1.00  0.00    -0.203 F 
ATOM     78  C   UNL A   1      42.658  23.854  26.774  1.00  0.00     0.198 A 
ATOM     79  C   UNL A   1      43.988  25.636  25.874  1.00  0.00     0.198 A 
ATOM     80  F   UNL A   1      44.093  27.704  26.992  1.00  0.00    -0.203 F 
ATOM     81  F   UNL A   1      42.221  22.588  26.717  1.00  0.00    -0.200 F 
ATOM     82  C   UNL A   1      43.516  24.335  25.796  1.00  0.00     0.200 A 
ATOM     83  F   UNL A   1      44.801  26.113  24.923  1.00  0.00    -0.200 F 
ATOM     84  F   UNL A   1      43.892  23.544  24.782  1.00  0.00    -0.200 F 
ENDBRANCH  50  74
BRANCH  62  85
ATOM     85  C   UNL A   1      45.017  27.017  34.464  1.00  0.00     0.064 A 
ATOM     86  C   UNL A   1      46.246  27.686  34.546  1.00  0.00     0.173 A 
ATOM     87  C   UNL A   1      44.835  25.875  35.260  1.00  0.00     0.173 A 
ATOM     88  F   UNL A   1      46.473  28.776  33.797  1.00  0.00    -0.203 F 
ATOM     89  C   UNL A   1      47.250  27.233  35.398  1.00  0.00     0.198 A 
ATOM     90  C   UNL A   1      45.827  25.446  36.136  1.00  0.00     0.198 A 
ATOM     91  F   UNL A   1      43.671  25.207  35.227  1.00  0.00    -0.203 F 
ATOM     92  F   UNL A   1      48.424  27.879  35.448  1.00  0.00    -0.200 F 
ATOM     93  C   UNL A   1      47.034  26.125  36.203  1.00  0.00     0.200 A 
ATOM     94  F   UNL A   1      45.607  24.390  36.931  1.00  0.00    -0.200 F 
ATOM     95  F   UNL A   1      47.988  25.715  37.051  1.00  0.00    -0.200 F 
ENDBRANCH  62  85
ENDBRANCH  36  37
ENDBRANCH  28  31
ENDBRANCH  26  27
ENDBRANCH   1  26
TORSDOF 13
ENDMDL
MODEL 3
REMARK VINA RESULT:     -13.1      4.133      9.721
REMARK SMILES Cc1ccc(-n2nc(C(=O)NCCCCNC(=O)c3ccc(-c4c5nc(c(-c6c(F)c(F)c(F)c(F)c6F)c6ccc([nH]6)c(-c6c(F)c(F)c(F)c(F)c6F)c6nc(c(-c7c(F)c(F)c(F)c(F)c7F)c7ccc4[nH]7)C=C6)C=C5)cc3)c(C)c(C#N)c2=O)cc1Cl
REMARK SMILES IDX 14 1 13 2 12 3 11 4 9 5 10 6 8 8 6 9 7 10 87 11 84 12 88 13
REMARK SMILES IDX 82 14 83 15 5 16 1 17 2 18 3 19 90 20 4 21 89 22 91 23 85 24
REMARK SMILES IDX 86 25 15 26 16 27 17 28 18 30 19 31 20 32 81 33 21 34 80 35
REMARK SMILES IDX 22 36 23 37 24 38 74 39 25 40 79 41 73 42 75 43 26 44 78 45
REMARK SMILES IDX 72 46 71 47 27 49 59 50 39 51 58 52 40 53 43 54 57 55 76 56
REMARK SMILES IDX 41 57 42 58 56 60 77 61 44 62 28 63 29 64 37 65 30 66 31 67
REMARK SMILES IDX 35 68 38 69 32 70 33 71 36 72 34 73 60 74 61 75 69 76 62 77
REMARK SMILES IDX 63 78 67 79 70 80 64 81 65 82 68 83 66 84 45 85 46 86 54 87
REMARK SMILES IDX 47 88 48 89 52 90 55 91 49 92 50 93 53 94 51 95
REMARK H PARENT 11 7 16 29 75 48 43 59
REMARK Flexibility Score: inf
ROOT
ATOM      1  C   UNL A   1      35.569  21.721  25.730  1.00  0.00     0.023 C 
ENDROOT
BRANCH   1   2
ATOM      2  C   UNL A   1      34.776  22.513  26.758  1.00  0.00     0.023 C 
BRANCH   2   3
ATOM      3  C   UNL A   1      33.634  21.700  27.360  1.00  0.00     0.116 C 
BRANCH   3   4
ATOM      4  N   UNL A   1      32.453  22.485  27.545  1.00  0.00    -0.351 N 
ATOM      5  C   UNL A   1      31.777  23.443  26.859  1.00  0.00     0.272 C 
ATOM      6  O   UNL A   1      30.609  23.562  27.251  1.00  0.00    -0.267 OA
ATOM      7  H   UNL A   1      32.011  22.275  28.400  1.00  0.00     0.163 HD
BRANCH   5   8
ATOM      8  C   UNL A   1      32.233  24.401  25.724  1.00  0.00     0.153 A 
ATOM      9  N   UNL A   1      32.915  26.599  25.482  1.00  0.00    -0.195 N 
ATOM     10  N   UNL A   1      32.577  25.544  26.254  1.00  0.00    -0.159 NA
ATOM     11  C   UNL A   1      33.033  26.550  24.109  1.00  0.00     0.289 A 
ATOM     12  C   UNL A   1      32.755  25.235  23.508  1.00  0.00     0.124 A 
ATOM     13  O   UNL A   1      33.366  27.488  23.388  1.00  0.00    -0.266 OA
ATOM     14  C   UNL A   1      32.313  24.182  24.232  1.00  0.00     0.006 A 
ATOM     15  C   UNL A   1      31.988  22.918  23.516  1.00  0.00     0.048 C 
BRANCH   9  16
ATOM     16  C   UNL A   1      33.080  27.817  26.181  1.00  0.00     0.070 A 
ATOM     17  C   UNL A   1      33.596  31.812  27.691  1.00  0.00     0.046 C 
ATOM     18  C   UNL A   1      33.430  30.387  27.250  1.00  0.00    -0.032 A 
ATOM     19  C   UNL A   1      32.162  29.957  26.846  1.00  0.00     0.007 A 
ATOM     20  C   UNL A   1      34.509  29.488  27.174  1.00  0.00     0.046 A 
ATOM     21  C   UNL A   1      31.993  28.688  26.305  1.00  0.00     0.029 A 
ATOM     22  C   UNL A   1      34.330  28.193  26.679  1.00  0.00     0.049 A 
ATOM     23  Cl  UNL A   1      36.109  29.971  27.616  1.00  0.00    -0.084 Cl
ENDBRANCH   9  16
BRANCH  12  24
ATOM     24  C   UNL A   1      32.972  25.171  22.096  1.00  0.00     0.105 C 
ATOM     25  N   UNL A   1      33.219  25.132  20.967  1.00  0.00    -0.192 NA
ENDBRANCH  12  24
ENDBRANCH   5   8
ENDBRANCH   3   4
ENDBRANCH   2   3
ENDBRANCH   1   2
BRANCH   1  26
ATOM     26  C   UNL A   1      36.991  22.225  25.539  1.00  0.00     0.116 C 
BRANCH  26  27
ATOM     27  N   UNL A   1      38.004  21.181  25.586  1.00  0.00    -0.352 N 
ATOM     28  C   UNL A   1      39.267  21.278  26.126  1.00  0.00     0.251 C 
ATOM     29  H   UNL A   1      37.761  20.313  25.190  1.00  0.00     0.163 HD
ATOM     30  O   UNL A   1      40.070  20.358  26.050  1.00  0.00    -0.269 OA
BRANCH  28  31
ATOM     31  C   UNL A   1      39.640  22.564  26.746  1.00  0.00     0.039 A 
ATOM     32  C   UNL A   1      40.622  22.567  27.733  1.00  0.00     0.014 A 
ATOM     33  C   UNL A   1      39.162  23.758  26.196  1.00  0.00     0.014 A 
ATOM     34  C   UNL A   1      41.186  23.780  28.120  1.00  0.00     0.010 A 
ATOM     35  C   UNL A   1      39.812  24.947  26.497  1.00  0.00     0.010 A 
ATOM     36  C   UNL A   1      40.822  24.974  27.469  1.00  0.00    -0.014 A 
BRANCH  36  37
ATOM     37  C   UNL A   1      41.485  26.254  27.824  1.00  0.00     0.031 A 
ATOM     38  C   UNL A   1      42.887  26.523  27.356  1.00  0.00     0.074 A 
ATOM     39  C   UNL A   1      40.825  27.171  28.559  1.00  0.00     0.049 A 
ATOM     40  N   UNL A   1      43.609  27.605  27.500  1.00  0.00    -0.248 NA
ATOM     41  C   UNL A   1      43.584  25.431  26.656  1.00  0.00     0.031 C 
ATOM     42  C   UNL A   1      39.485  26.998  29.122  1.00  0.00     0.029 A 
ATOM     43  N   UNL A   1      41.183  28.440  28.945  1.00  0.00    -0.354 N 
ATOM     44  C   UNL A   1      44.827  27.325  26.897  1.00  0.00     0.074 A 
ATOM     45  C   UNL A   1      44.787  25.947  26.468  1.00  0.00     0.031 C 
ATOM     46  C   UNL A   1      39.108  28.138  29.724  1.00  0.00     0.029 A 
ATOM     47  C   UNL A   1      40.193  29.110  29.626  1.00  0.00     0.049 A 
ATOM     48  H   UNL A   1      42.064  28.834  28.752  1.00  0.00     0.167 HD
ATOM     49  C   UNL A   1      45.866  28.159  26.675  1.00  0.00     0.037 A 
ATOM     50  C   UNL A   1      40.160  30.371  30.104  1.00  0.00     0.037 A 
ATOM     51  C   UNL A   1      45.892  29.535  27.082  1.00  0.00     0.049 A 
ATOM     52  C   UNL A   1      41.349  31.267  29.880  1.00  0.00     0.074 A 
ATOM     53  C   UNL A   1      46.882  30.475  26.866  1.00  0.00     0.029 A 
ATOM     54  N   UNL A   1      44.883  30.167  27.795  1.00  0.00    -0.354 N 
ATOM     55  N   UNL A   1      42.460  31.018  29.228  1.00  0.00    -0.248 NA
ATOM     56  C   UNL A   1      41.286  32.620  30.453  1.00  0.00     0.031 C 
ATOM     57  C   UNL A   1      46.503  31.658  27.503  1.00  0.00     0.029 A 
ATOM     58  C   UNL A   1      45.246  31.476  28.058  1.00  0.00     0.049 A 
ATOM     59  H   UNL A   1      44.037  29.747  28.071  1.00  0.00     0.167 HD
ATOM     60  C   UNL A   1      43.211  32.184  29.289  1.00  0.00     0.074 A 
ATOM     61  C   UNL A   1      42.426  33.149  30.028  1.00  0.00     0.031 C 
ATOM     62  C   UNL A   1      44.443  32.429  28.782  1.00  0.00     0.037 A 
BRANCH  49  63
ATOM     63  C   UNL A   1      47.054  27.619  25.933  1.00  0.00     0.064 A 
ATOM     64  C   UNL A   1      47.143  27.705  24.535  1.00  0.00     0.173 A 
ATOM     65  C   UNL A   1      48.146  27.078  26.629  1.00  0.00     0.173 A 
ATOM     66  F   UNL A   1      46.120  28.199  23.821  1.00  0.00    -0.203 F 
ATOM     67  C   UNL A   1      48.275  27.259  23.860  1.00  0.00     0.198 A 
ATOM     68  C   UNL A   1      49.290  26.666  25.953  1.00  0.00     0.198 A 
ATOM     69  F   UNL A   1      48.111  26.975  27.966  1.00  0.00    -0.203 F 
ATOM     70  F   UNL A   1      48.322  27.316  22.522  1.00  0.00    -0.200 F 
ATOM     71  C   UNL A   1      49.353  26.753  24.570  1.00  0.00     0.200 A 
ATOM     72  F   UNL A   1      50.338  26.191  26.642  1.00  0.00    -0.200 F 
ATOM     73  F   UNL A   1      50.453  26.346  23.922  1.00  0.00    -0.200 F 
ENDBRANCH  49  63
BRANCH  50  74
ATOM     74  C   UNL A   1      38.943  30.870  30.801  1.00  0.00     0.064 A 
ATOM     75  C   UNL A   1      38.736  30.619  32.165  1.00  0.00     0.173 A 
ATOM     76  C   UNL A   1      37.969  31.621  30.125  1.00  0.00     0.173 A 
ATOM     77  F   UNL A   1      39.627  29.890  32.854  1.00  0.00    -0.203 F 
ATOM     78  C   UNL A   1      37.599  31.086  32.822  1.00  0.00     0.198 A 
ATOM     79  C   UNL A   1      36.848  32.116  30.790  1.00  0.00     0.198 A 
ATOM     80  F   UNL A   1      38.117  31.895  28.821  1.00  0.00    -0.203 F 
ATOM     81  F   UNL A   1      37.408  30.797  34.116  1.00  0.00    -0.200 F 
ATOM     82  C   UNL A   1      36.660  31.842  32.136  1.00  0.00     0.200 A 
ATOM     83  F   UNL A   1      35.954  32.862  30.127  1.00  0.00    -0.200 F 
ATOM     84  F   UNL A   1      35.574  32.303  32.770  1.00  0.00    -0.200 F 
ENDBRANCH  50  74
BRANCH  62  85
ATOM     85  C   UNL A   1      45.035  33.793  28.983  1.00  0.00     0.064 A 
ATOM     86  C   UNL A   1      45.898  34.063  30.054  1.00  0.00     0.173 A 
ATOM     87  C   UNL A   1      44.848  34.797  28.019  1.00  0.00     0.173 A 
ATOM     88  F   UNL A   1      46.101  33.140  31.007  1.00  0.00    -0.203 F 
ATOM     89  C   UNL A   1      46.554  35.287  30.152  1.00  0.00     0.198 A 
ATOM     90  C   UNL A   1      45.532  36.006  28.101  1.00  0.00     0.198 A 
ATOM     91  F   UNL A   1      44.042  34.583  26.968  1.00  0.00    -0.203 F 
ATOM     92  F   UNL A   1      47.362  35.530  31.194  1.00  0.00    -0.200 F 
ATOM     93  C   UNL A   1      46.384  36.249  29.168  1.00  0.00     0.200 A 
ATOM     94  F   UNL A   1      45.386  36.925  27.137  1.00  0.00    -0.200 F 
ATOM     95  F   UNL A   1      47.048  37.412  29.244  1.00  0.00    -0.200 F 
ENDBRANCH  62  85
ENDBRANCH  36  37
ENDBRANCH  28  31
ENDBRANCH  26  27
ENDBRANCH   1  26
TORSDOF 13
ENDMDL
