MODEL 1
REMARK VINA RESULT:     -12.1      0.000      0.000
REMARK SMILES COc1ccc(-c2nc(NCC(=O)NCCCCNC(=O)c3ccc(-c4c5nc(c(-c6c(F)c(F)c(F)c(F)c6F)c6ccc([nH]6)c(-c6c(F)c(F)c(F)c(F)c6F)c6nc(c(-c7c(F)c(F)c(F)c(F)c7F)c7ccc4[nH]7)C=C6)C=C5)cc3)sc2-c2ccc(OC)cc2)cc1
REMARK SMILES IDX 15 1 14 2 12 3 13 4 11 6 10 7 9 9 7 10 8 11 86 12 85 13 6 14
REMARK SMILES IDX 3 15 4 16 96 17 5 18 95 19 2 20 1 21 87 22 88 23 94 24 89 25
REMARK SMILES IDX 93 26 90 27 91 28 92 29 16 30 17 31 18 32 19 33 20 34 21 36
REMARK SMILES IDX 22 37 23 38 84 39 24 40 83 41 25 42 26 43 27 44 77 45 28 46
REMARK SMILES IDX 82 47 76 48 78 49 29 50 81 51 75 52 74 53 30 55 62 56 42 57
REMARK SMILES IDX 61 58 43 59 46 60 60 61 79 62 44 63 45 64 59 66 80 67 47 68
REMARK SMILES IDX 31 69 32 70 40 71 33 72 34 73 38 74 41 75 35 76 36 77 39 78
REMARK SMILES IDX 37 79 63 80 64 81 72 82 65 83 66 84 70 85 73 86 67 87 68 88
REMARK SMILES IDX 71 89 69 90 48 91 49 92 57 93 50 94 51 95 55 96 58 97 52 98
REMARK SMILES IDX 53 99 56 100 54 101
REMARK H PARENT 14 5 10 8 19 35 78 54 46 65
REMARK Flexibility Score: inf
ROOT
ATOM      1  C   UNL A   1      32.041  29.323  24.531  1.00  0.00     0.116 C 
ENDROOT
BRANCH   1   2
ATOM      2  N   UNL A   1      30.877  29.470  23.682  1.00  0.00    -0.355 N 
ATOM      3  C   UNL A   1      30.491  28.687  22.627  1.00  0.00     0.239 C 
ATOM      4  O   UNL A   1      29.496  29.027  21.984  1.00  0.00    -0.273 OA
ATOM      5  H   UNL A   1      30.288  30.230  23.890  1.00  0.00     0.163 HD
BRANCH   3   6
ATOM      6  C   UNL A   1      31.259  27.398  22.302  1.00  0.00     0.215 C 
BRANCH   6   7
ATOM      7  N   UNL A   1      30.932  26.329  23.229  1.00  0.00    -0.352 N 
ATOM      8  H   UNL A   1      30.127  26.447  23.784  1.00  0.00     0.163 HD
BRANCH   7   9
ATOM      9  C   UNL A   1      31.632  25.187  23.395  1.00  0.00     0.184 A 
ATOM     10  C   UNL A   1      33.347  23.924  24.017  1.00  0.00     0.091 A 
ATOM     11  N   UNL A   1      32.872  25.211  23.828  1.00  0.00    -0.220 NA
ATOM     12  C   UNL A   1      32.422  22.912  23.806  1.00  0.00     0.064 A 
ATOM     13  S   UNL A   1      31.011  23.601  23.124  1.00  0.00    -0.096 S 
BRANCH  10  14
ATOM     14  C   UNL A   1      34.716  23.681  24.448  1.00  0.00     0.002 A 
ATOM     15  C   UNL A   1      37.319  23.082  25.304  1.00  0.00     0.118 A 
ATOM     16  C   UNL A   1      36.930  22.802  23.995  1.00  0.00     0.047 A 
ATOM     17  C   UNL A   1      36.421  23.702  26.175  1.00  0.00     0.047 A 
ATOM     18  C   UNL A   1      35.634  23.092  23.570  1.00  0.00     0.014 A 
ATOM     19  C   UNL A   1      35.122  24.008  25.746  1.00  0.00     0.014 A 
BRANCH  15  20
ATOM     20  O   UNL A   1      38.612  22.759  25.611  1.00  0.00    -0.497 OA
ATOM     21  C   UNL A   1      38.863  21.368  25.774  1.00  0.00     0.278 C 
ENDBRANCH  15  20
ENDBRANCH  10  14
BRANCH  12  22
ATOM     22  C   UNL A   1      32.483  21.477  24.098  1.00  0.00    -0.006 A 
ATOM     23  C   UNL A   1      32.276  20.511  23.107  1.00  0.00     0.013 A 
ATOM     24  C   UNL A   1      32.763  21.047  25.404  1.00  0.00     0.013 A 
ATOM     25  C   UNL A   1      32.366  19.151  23.419  1.00  0.00     0.047 A 
ATOM     26  C   UNL A   1      32.859  19.687  25.713  1.00  0.00     0.047 A 
ATOM     27  C   UNL A   1      32.670  18.732  24.717  1.00  0.00     0.118 A 
BRANCH  27  28
ATOM     28  O   UNL A   1      32.748  17.377  24.881  1.00  0.00    -0.497 OA
ATOM     29  C   UNL A   1      34.044  16.797  24.787  1.00  0.00     0.278 C 
ENDBRANCH  27  28
ENDBRANCH  12  22
ENDBRANCH   7   9
ENDBRANCH   6   7
ENDBRANCH   3   6
ENDBRANCH   1   2
BRANCH   1  30
ATOM     30  C   UNL A   1      31.649  28.954  25.963  1.00  0.00     0.023 C 
BRANCH  30  31
ATOM     31  C   UNL A   1      32.601  27.959  26.631  1.00  0.00     0.023 C 
BRANCH  31  32
ATOM     32  C   UNL A   1      33.939  28.543  27.071  1.00  0.00     0.116 C 
BRANCH  32  33
ATOM     33  N   UNL A   1      33.834  29.901  27.583  1.00  0.00    -0.352 N 
ATOM     34  C   UNL A   1      34.767  30.630  28.281  1.00  0.00     0.251 C 
ATOM     35  H   UNL A   1      32.981  30.359  27.405  1.00  0.00     0.163 HD
ATOM     36  O   UNL A   1      34.476  31.726  28.750  1.00  0.00    -0.269 OA
BRANCH  34  37
ATOM     37  C   UNL A   1      36.116  30.066  28.498  1.00  0.00     0.039 A 
ATOM     38  C   UNL A   1      37.067  30.180  27.481  1.00  0.00     0.014 A 
ATOM     39  C   UNL A   1      36.449  29.453  29.710  1.00  0.00     0.014 A 
ATOM     40  C   UNL A   1      38.373  29.744  27.706  1.00  0.00     0.010 A 
ATOM     41  C   UNL A   1      37.767  29.087  29.959  1.00  0.00     0.010 A 
ATOM     42  C   UNL A   1      38.743  29.229  28.959  1.00  0.00    -0.014 A 
BRANCH  42  43
ATOM     43  C   UNL A   1      40.145  28.838  29.248  1.00  0.00     0.031 A 
ATOM     44  C   UNL A   1      41.038  29.753  30.037  1.00  0.00     0.074 A 
ATOM     45  C   UNL A   1      40.635  27.690  28.742  1.00  0.00     0.049 A 
ATOM     46  N   UNL A   1      42.303  29.613  30.347  1.00  0.00    -0.248 NA
ATOM     47  C   UNL A   1      40.436  31.006  30.516  1.00  0.00     0.031 C 
ATOM     48  C   UNL A   1      39.883  26.740  27.924  1.00  0.00     0.029 A 
ATOM     49  N   UNL A   1      41.885  27.132  28.837  1.00  0.00    -0.354 N 
ATOM     50  C   UNL A   1      42.649  30.763  31.043  1.00  0.00     0.074 A 
ATOM     51  C   UNL A   1      41.480  31.616  31.056  1.00  0.00     0.031 C 
ATOM     52  C   UNL A   1      40.674  25.699  27.621  1.00  0.00     0.029 A 
ATOM     53  C   UNL A   1      41.999  25.927  28.191  1.00  0.00     0.049 A 
ATOM     54  H   UNL A   1      42.629  27.555  29.325  1.00  0.00     0.167 HD
ATOM     55  C   UNL A   1      43.827  31.069  31.640  1.00  0.00     0.037 A 
ATOM     56  C   UNL A   1      43.054  25.099  28.071  1.00  0.00     0.037 A 
ATOM     57  C   UNL A   1      44.982  30.212  31.637  1.00  0.00     0.049 A 
ATOM     58  C   UNL A   1      44.359  25.471  28.719  1.00  0.00     0.074 A 
ATOM     59  C   UNL A   1      46.201  30.402  32.262  1.00  0.00     0.029 A 
ATOM     60  N   UNL A   1      45.064  29.000  30.964  1.00  0.00    -0.354 N 
ATOM     61  N   UNL A   1      44.656  26.526  29.437  1.00  0.00    -0.248 NA
ATOM     62  C   UNL A   1      45.476  24.533  28.540  1.00  0.00     0.031 C 
ATOM     63  C   UNL A   1      47.038  29.331  31.926  1.00  0.00     0.029 A 
ATOM     64  C   UNL A   1      46.323  28.446  31.135  1.00  0.00     0.049 A 
ATOM     65  H   UNL A   1      44.335  28.595  30.440  1.00  0.00     0.167 HD
ATOM     66  C   UNL A   1      45.980  26.367  29.823  1.00  0.00     0.074 A 
ATOM     67  C   UNL A   1      46.427  25.107  29.265  1.00  0.00     0.031 C 
ATOM     68  C   UNL A   1      46.754  27.189  30.574  1.00  0.00     0.037 A 
BRANCH  55  69
ATOM     69  C   UNL A   1      43.915  32.398  32.338  1.00  0.00     0.064 A 
ATOM     70  C   UNL A   1      43.550  32.549  33.685  1.00  0.00     0.173 A 
ATOM     71  C   UNL A   1      44.363  33.536  31.651  1.00  0.00     0.173 A 
ATOM     72  F   UNL A   1      43.104  31.496  34.388  1.00  0.00    -0.203 F 
ATOM     73  C   UNL A   1      43.583  33.797  34.303  1.00  0.00     0.198 A 
ATOM     74  C   UNL A   1      44.428  34.776  32.282  1.00  0.00     0.198 A 
ATOM     75  F   UNL A   1      44.731  33.448  30.364  1.00  0.00    -0.203 F 
ATOM     76  F   UNL A   1      43.161  33.928  35.568  1.00  0.00    -0.200 F 
ATOM     77  C   UNL A   1      44.025  34.908  33.602  1.00  0.00     0.200 A 
ATOM     78  F   UNL A   1      44.869  35.847  31.607  1.00  0.00    -0.200 F 
ATOM     79  F   UNL A   1      44.052  36.109  34.196  1.00  0.00    -0.200 F 
ENDBRANCH  55  69
BRANCH  56  80
ATOM     80  C   UNL A   1      42.900  23.811  27.347  1.00  0.00     0.064 A 
ATOM     81  C   UNL A   1      43.294  23.697  26.007  1.00  0.00     0.173 A 
ATOM     82  C   UNL A   1      42.384  22.670  27.977  1.00  0.00     0.173 A 
ATOM     83  F   UNL A   1      43.775  24.768  25.358  1.00  0.00    -0.203 F 
ATOM     84  C   UNL A   1      43.169  22.491  25.320  1.00  0.00     0.198 A 
ATOM     85  C   UNL A   1      42.281  21.458  27.296  1.00  0.00     0.198 A 
ATOM     86  F   UNL A   1      41.997  22.727  29.260  1.00  0.00    -0.203 F 
ATOM     87  F   UNL A   1      43.523  22.418  24.030  1.00  0.00    -0.200 F 
ATOM     88  C   UNL A   1      42.670  21.372  25.967  1.00  0.00     0.200 A 
ATOM     89  F   UNL A   1      41.813  20.374  27.928  1.00  0.00    -0.200 F 
ATOM     90  F   UNL A   1      42.559  20.209  25.309  1.00  0.00    -0.200 F 
ENDBRANCH  56  80
BRANCH  68  91
ATOM     91  C   UNL A   1      48.156  26.736  30.867  1.00  0.00     0.064 A 
ATOM     92  C   UNL A   1      48.441  25.844  31.911  1.00  0.00     0.173 A 
ATOM     93  C   UNL A   1      49.222  27.174  30.066  1.00  0.00     0.173 A 
ATOM     94  F   UNL A   1      47.459  25.411  32.715  1.00  0.00    -0.203 F 
ATOM     95  C   UNL A   1      49.747  25.428  32.159  1.00  0.00     0.198 A 
ATOM     96  C   UNL A   1      50.521  26.730  30.297  1.00  0.00     0.198 A 
ATOM     97  F   UNL A   1      49.004  28.022  29.051  1.00  0.00    -0.203 F 
ATOM     98  F   UNL A   1      50.002  24.614  33.193  1.00  0.00    -0.200 F 
ATOM     99  C   UNL A   1      50.784  25.863  31.348  1.00  0.00     0.200 A 
ATOM    100  F   UNL A   1      51.520  27.141  29.504  1.00  0.00    -0.200 F 
ATOM    101  F   UNL A   1      52.038  25.454  31.583  1.00  0.00    -0.200 F 
ENDBRANCH  68  91
ENDBRANCH  42  43
ENDBRANCH  34  37
ENDBRANCH  32  33
ENDBRANCH  31  32
ENDBRANCH  30  31
ENDBRANCH   1  30
TORSDOF 17
ENDMDL
MODEL 2
REMARK VINA RESULT:     -12.0      3.501      8.724
REMARK SMILES COc1ccc(-c2nc(NCC(=O)NCCCCNC(=O)c3ccc(-c4c5nc(c(-c6c(F)c(F)c(F)c(F)c6F)c6ccc([nH]6)c(-c6c(F)c(F)c(F)c(F)c6F)c6nc(c(-c7c(F)c(F)c(F)c(F)c7F)c7ccc4[nH]7)C=C6)C=C5)cc3)sc2-c2ccc(OC)cc2)cc1
REMARK SMILES IDX 15 1 14 2 12 3 13 4 11 6 10 7 9 9 7 10 8 11 86 12 85 13 6 14
REMARK SMILES IDX 3 15 4 16 96 17 5 18 95 19 2 20 1 21 87 22 88 23 94 24 89 25
REMARK SMILES IDX 93 26 90 27 91 28 92 29 16 30 17 31 18 32 19 33 20 34 21 36
REMARK SMILES IDX 22 37 23 38 84 39 24 40 83 41 25 42 26 43 27 44 77 45 28 46
REMARK SMILES IDX 82 47 76 48 78 49 29 50 81 51 75 52 74 53 30 55 62 56 42 57
REMARK SMILES IDX 61 58 43 59 46 60 60 61 79 62 44 63 45 64 59 66 80 67 47 68
REMARK SMILES IDX 31 69 32 70 40 71 33 72 34 73 38 74 41 75 35 76 36 77 39 78
REMARK SMILES IDX 37 79 63 80 64 81 72 82 65 83 66 84 70 85 73 86 67 87 68 88
REMARK SMILES IDX 71 89 69 90 48 91 49 92 57 93 50 94 51 95 55 96 58 97 52 98
REMARK SMILES IDX 53 99 56 100 54 101
REMARK H PARENT 14 5 10 8 19 35 78 54 46 65
REMARK Flexibility Score: inf
ROOT
ATOM      1  C   UNL A   1      31.891  29.697  24.951  1.00  0.00     0.116 C 
ENDROOT
BRANCH   1   2
ATOM      2  N   UNL A   1      30.549  29.439  24.472  1.00  0.00    -0.355 N 
ATOM      3  C   UNL A   1      30.165  28.815  23.316  1.00  0.00     0.239 C 
ATOM      4  O   UNL A   1      28.961  28.758  23.057  1.00  0.00    -0.273 OA
ATOM      5  H   UNL A   1      29.819  29.754  25.052  1.00  0.00     0.163 HD
BRANCH   3   6
ATOM      6  C   UNL A   1      31.216  28.162  22.407  1.00  0.00     0.215 C 
BRANCH   6   7
ATOM      7  N   UNL A   1      31.041  26.722  22.329  1.00  0.00    -0.352 N 
ATOM      8  H   UNL A   1      30.293  26.390  21.781  1.00  0.00     0.163 HD
BRANCH   7   9
ATOM      9  C   UNL A   1      31.814  25.800  22.939  1.00  0.00     0.184 A 
ATOM     10  C   UNL A   1      32.482  23.765  23.518  1.00  0.00     0.091 A 
ATOM     11  N   UNL A   1      31.491  24.527  22.921  1.00  0.00    -0.220 NA
ATOM     12  C   UNL A   1      33.612  24.464  23.916  1.00  0.00     0.064 A 
ATOM     13  S   UNL A   1      33.299  26.139  23.750  1.00  0.00    -0.096 S 
BRANCH  10  14
ATOM     14  C   UNL A   1      32.338  22.324  23.666  1.00  0.00     0.002 A 
ATOM     15  C   UNL A   1      32.197  19.538  23.963  1.00  0.00     0.118 A 
ATOM     16  C   UNL A   1      32.279  20.359  25.086  1.00  0.00     0.047 A 
ATOM     17  C   UNL A   1      32.141  20.110  22.690  1.00  0.00     0.047 A 
ATOM     18  C   UNL A   1      32.356  21.744  24.941  1.00  0.00     0.014 A 
ATOM     19  C   UNL A   1      32.205  21.502  22.542  1.00  0.00     0.014 A 
BRANCH  15  20
ATOM     20  O   UNL A   1      32.123  18.198  24.224  1.00  0.00    -0.497 OA
ATOM     21  C   UNL A   1      32.604  17.805  25.504  1.00  0.00     0.278 C 
ENDBRANCH  15  20
ENDBRANCH  10  14
BRANCH  12  22
ATOM     22  C   UNL A   1      34.920  23.993  24.381  1.00  0.00    -0.006 A 
ATOM     23  C   UNL A   1      35.788  23.281  23.546  1.00  0.00     0.013 A 
ATOM     24  C   UNL A   1      35.328  24.266  25.695  1.00  0.00     0.013 A 
ATOM     25  C   UNL A   1      37.040  22.870  24.017  1.00  0.00     0.047 A 
ATOM     26  C   UNL A   1      36.582  23.861  26.162  1.00  0.00     0.047 A 
ATOM     27  C   UNL A   1      37.448  23.167  25.320  1.00  0.00     0.118 A 
BRANCH  27  28
ATOM     28  O   UNL A   1      38.700  22.726  25.646  1.00  0.00    -0.497 OA
ATOM     29  C   UNL A   1      38.863  21.321  25.794  1.00  0.00     0.278 C 
ENDBRANCH  27  28
ENDBRANCH  12  22
ENDBRANCH   7   9
ENDBRANCH   6   7
ENDBRANCH   3   6
ENDBRANCH   1   2
BRANCH   1  30
ATOM     30  C   UNL A   1      31.885  30.201  26.395  1.00  0.00     0.023 C 
BRANCH  30  31
ATOM     31  C   UNL A   1      31.706  31.716  26.523  1.00  0.00     0.023 C 
BRANCH  31  32
ATOM     32  C   UNL A   1      32.765  32.422  27.362  1.00  0.00     0.116 C 
BRANCH  32  33
ATOM     33  N   UNL A   1      32.454  33.819  27.624  1.00  0.00    -0.352 N 
ATOM     34  C   UNL A   1      33.034  34.672  28.532  1.00  0.00     0.251 C 
ATOM     35  H   UNL A   1      31.733  34.205  27.076  1.00  0.00     0.163 HD
ATOM     36  O   UNL A   1      32.572  35.794  28.715  1.00  0.00    -0.269 OA
BRANCH  34  37
ATOM     37  C   UNL A   1      34.198  34.213  29.320  1.00  0.00     0.039 A 
ATOM     38  C   UNL A   1      33.975  33.495  30.497  1.00  0.00     0.014 A 
ATOM     39  C   UNL A   1      35.502  34.467  28.885  1.00  0.00     0.014 A 
ATOM     40  C   UNL A   1      35.059  32.968  31.200  1.00  0.00     0.010 A 
ATOM     41  C   UNL A   1      36.576  33.879  29.544  1.00  0.00     0.010 A 
ATOM     42  C   UNL A   1      36.366  33.124  30.709  1.00  0.00    -0.014 A 
BRANCH  42  43
ATOM     43  C   UNL A   1      37.526  32.500  31.393  1.00  0.00     0.031 A 
ATOM     44  C   UNL A   1      38.253  31.351  30.755  1.00  0.00     0.074 A 
ATOM     45  C   UNL A   1      37.882  32.924  32.621  1.00  0.00     0.049 A 
ATOM     46  N   UNL A   1      39.252  30.642  31.217  1.00  0.00    -0.248 NA
ATOM     47  C   UNL A   1      37.772  30.923  29.433  1.00  0.00     0.031 C 
ATOM     48  C   UNL A   1      37.227  34.000  33.366  1.00  0.00     0.029 A 
ATOM     49  N   UNL A   1      38.879  32.496  33.461  1.00  0.00    -0.354 N 
ATOM     50  C   UNL A   1      39.509  29.679  30.251  1.00  0.00     0.074 A 
ATOM     51  C   UNL A   1      38.522  29.855  29.207  1.00  0.00     0.031 C 
ATOM     52  C   UNL A   1      37.862  34.172  34.536  1.00  0.00     0.029 A 
ATOM     53  C   UNL A   1      38.942  33.195  34.641  1.00  0.00     0.049 A 
ATOM     54  H   UNL A   1      39.493  31.759  33.238  1.00  0.00     0.167 HD
ATOM     55  C   UNL A   1      40.494  28.749  30.224  1.00  0.00     0.037 A 
ATOM     56  C   UNL A   1      39.776  33.062  35.688  1.00  0.00     0.037 A 
ATOM     57  C   UNL A   1      41.482  28.587  31.257  1.00  0.00     0.049 A 
ATOM     58  C   UNL A   1      40.845  32.005  35.649  1.00  0.00     0.074 A 
ATOM     59  C   UNL A   1      42.557  27.717  31.297  1.00  0.00     0.029 A 
ATOM     60  N   UNL A   1      41.509  29.308  32.443  1.00  0.00    -0.354 N 
ATOM     61  N   UNL A   1      41.128  31.147  34.699  1.00  0.00    -0.248 NA
ATOM     62  C   UNL A   1      41.715  31.902  36.828  1.00  0.00     0.031 C 
ATOM     63  C   UNL A   1      43.204  27.875  32.528  1.00  0.00     0.029 A 
ATOM     64  C   UNL A   1      42.565  28.882  33.234  1.00  0.00     0.049 A 
ATOM     65  H   UNL A   1      40.871  30.017  32.687  1.00  0.00     0.167 HD
ATOM     66  C   UNL A   1      42.223  30.424  35.149  1.00  0.00     0.074 A 
ATOM     67  C   UNL A   1      42.560  30.950  36.456  1.00  0.00     0.031 C 
ATOM     68  C   UNL A   1      42.891  29.417  34.533  1.00  0.00     0.037 A 
BRANCH  55  69
ATOM     69  C   UNL A   1      40.537  27.832  29.033  1.00  0.00     0.064 A 
ATOM     70  C   UNL A   1      41.333  28.114  27.912  1.00  0.00     0.173 A 
ATOM     71  C   UNL A   1      39.767  26.659  29.009  1.00  0.00     0.173 A 
ATOM     72  F   UNL A   1      42.081  29.229  27.877  1.00  0.00    -0.203 F 
ATOM     73  C   UNL A   1      41.319  27.285  26.793  1.00  0.00     0.198 A 
ATOM     74  C   UNL A   1      39.783  25.813  27.902  1.00  0.00     0.198 A 
ATOM     75  F   UNL A   1      38.994  26.335  30.056  1.00  0.00    -0.203 F 
ATOM     76  F   UNL A   1      42.032  27.616  25.708  1.00  0.00    -0.200 F 
ATOM     77  C   UNL A   1      40.547  26.134  26.791  1.00  0.00     0.200 A 
ATOM     78  F   UNL A   1      39.046  24.693  27.907  1.00  0.00    -0.200 F 
ATOM     79  F   UNL A   1      40.530  25.340  25.712  1.00  0.00    -0.200 F 
ENDBRANCH  55  69
BRANCH  56  80
ATOM     80  C   UNL A   1      39.662  33.990  36.842  1.00  0.00     0.064 A 
ATOM     81  C   UNL A   1      38.910  33.634  37.970  1.00  0.00     0.173 A 
ATOM     82  C   UNL A   1      40.312  35.232  36.855  1.00  0.00     0.173 A 
ATOM     83  F   UNL A   1      38.254  32.464  37.994  1.00  0.00    -0.203 F 
ATOM     84  C   UNL A   1      38.806  34.489  39.065  1.00  0.00     0.198 A 
ATOM     85  C   UNL A   1      40.227  36.076  37.961  1.00  0.00     0.198 A 
ATOM     86  F   UNL A   1      41.047  35.617  35.801  1.00  0.00    -0.203 F 
ATOM     87  F   UNL A   1      38.055  34.137  40.118  1.00  0.00    -0.200 F 
ATOM     88  C   UNL A   1      39.471  35.705  39.063  1.00  0.00     0.200 A 
ATOM     89  F   UNL A   1      40.883  37.244  37.962  1.00  0.00    -0.200 F 
ATOM     90  F   UNL A   1      39.379  36.523  40.121  1.00  0.00    -0.200 F 
ENDBRANCH  56  80
BRANCH  68  91
ATOM     91  C   UNL A   1      44.077  28.839  35.251  1.00  0.00     0.064 A 
ATOM     92  C   UNL A   1      43.950  27.757  36.135  1.00  0.00     0.173 A 
ATOM     93  C   UNL A   1      45.362  29.353  35.021  1.00  0.00     0.173 A 
ATOM     94  F   UNL A   1      42.741  27.241  36.401  1.00  0.00    -0.203 F 
ATOM     95  C   UNL A   1      45.064  27.228  36.782  1.00  0.00     0.198 A 
ATOM     96  C   UNL A   1      46.477  28.801  35.646  1.00  0.00     0.198 A 
ATOM     97  F   UNL A   1      45.539  30.383  34.182  1.00  0.00    -0.203 F 
ATOM     98  F   UNL A   1      44.913  26.227  37.660  1.00  0.00    -0.200 F 
ATOM     99  C   UNL A   1      46.327  27.744  36.532  1.00  0.00     0.200 A 
ATOM    100  F   UNL A   1      47.697  29.292  35.392  1.00  0.00    -0.200 F 
ATOM    101  F   UNL A   1      47.398  27.228  37.149  1.00  0.00    -0.200 F 
ENDBRANCH  68  91
ENDBRANCH  42  43
ENDBRANCH  34  37
ENDBRANCH  32  33
ENDBRANCH  31  32
ENDBRANCH  30  31
ENDBRANCH   1  30
TORSDOF 17
ENDMDL
MODEL 3
REMARK VINA RESULT:     -11.5      2.989      4.678
REMARK SMILES COc1ccc(-c2nc(NCC(=O)NCCCCNC(=O)c3ccc(-c4c5nc(c(-c6c(F)c(F)c(F)c(F)c6F)c6ccc([nH]6)c(-c6c(F)c(F)c(F)c(F)c6F)c6nc(c(-c7c(F)c(F)c(F)c(F)c7F)c7ccc4[nH]7)C=C6)C=C5)cc3)sc2-c2ccc(OC)cc2)cc1
REMARK SMILES IDX 15 1 14 2 12 3 13 4 11 6 10 7 9 9 7 10 8 11 86 12 85 13 6 14
REMARK SMILES IDX 3 15 4 16 96 17 5 18 95 19 2 20 1 21 87 22 88 23 94 24 89 25
REMARK SMILES IDX 93 26 90 27 91 28 92 29 16 30 17 31 18 32 19 33 20 34 21 36
REMARK SMILES IDX 22 37 23 38 84 39 24 40 83 41 25 42 26 43 27 44 77 45 28 46
REMARK SMILES IDX 82 47 76 48 78 49 29 50 81 51 75 52 74 53 30 55 62 56 42 57
REMARK SMILES IDX 61 58 43 59 46 60 60 61 79 62 44 63 45 64 59 66 80 67 47 68
REMARK SMILES IDX 31 69 32 70 40 71 33 72 34 73 38 74 41 75 35 76 36 77 39 78
REMARK SMILES IDX 37 79 63 80 64 81 72 82 65 83 66 84 70 85 73 86 67 87 68 88
REMARK SMILES IDX 71 89 69 90 48 91 49 92 57 93 50 94 51 95 55 96 58 97 52 98
REMARK SMILES IDX 53 99 56 100 54 101
REMARK H PARENT 14 5 10 8 19 35 78 54 46 65
REMARK Flexibility Score: inf
ROOT
ATOM      1  C   UNL A   1      32.577  28.013  24.562  1.00  0.00     0.116 C 
ENDROOT
BRANCH   1   2
ATOM      2  N   UNL A   1      31.194  27.587  24.504  1.00  0.00    -0.355 N 
ATOM      3  C   UNL A   1      30.526  27.011  23.458  1.00  0.00     0.239 C 
ATOM      4  O   UNL A   1      29.321  26.786  23.590  1.00  0.00    -0.273 OA
ATOM      5  H   UNL A   1      30.667  27.730  25.323  1.00  0.00     0.163 HD
BRANCH   3   6
ATOM      6  C   UNL A   1      31.284  26.617  22.182  1.00  0.00     0.215 C 
BRANCH   6   7
ATOM      7  N   UNL A   1      31.413  25.175  22.058  1.00  0.00    -0.352 N 
ATOM      8  H   UNL A   1      30.875  24.735  21.360  1.00  0.00     0.163 HD
BRANCH   7   9
ATOM      9  C   UNL A   1      32.207  24.387  22.812  1.00  0.00     0.184 A 
ATOM     10  C   UNL A   1      32.946  22.489  23.692  1.00  0.00     0.091 A 
ATOM     11  N   UNL A   1      31.941  23.110  22.968  1.00  0.00    -0.220 NA
ATOM     12  C   UNL A   1      34.031  23.291  24.014  1.00  0.00     0.064 A 
ATOM     13  S   UNL A   1      33.649  24.909  23.602  1.00  0.00    -0.096 S 
BRANCH  10  14
ATOM     14  C   UNL A   1      32.861  21.078  24.041  1.00  0.00     0.002 A 
ATOM     15  C   UNL A   1      32.561  18.373  24.721  1.00  0.00     0.118 A 
ATOM     16  C   UNL A   1      32.395  18.786  23.400  1.00  0.00     0.047 A 
ATOM     17  C   UNL A   1      32.920  19.305  25.697  1.00  0.00     0.047 A 
ATOM     18  C   UNL A   1      32.537  20.132  23.061  1.00  0.00     0.014 A 
ATOM     19  C   UNL A   1      33.077  20.655  25.357  1.00  0.00     0.014 A 
BRANCH  15  20
ATOM     20  O   UNL A   1      32.402  17.033  24.938  1.00  0.00    -0.497 OA
ATOM     21  C   UNL A   1      33.463  16.408  25.651  1.00  0.00     0.278 C 
ENDBRANCH  15  20
ENDBRANCH  10  14
BRANCH  12  22
ATOM     22  C   UNL A   1      35.344  22.955  24.573  1.00  0.00    -0.006 A 
ATOM     23  C   UNL A   1      36.132  21.929  24.041  1.00  0.00     0.013 A 
ATOM     24  C   UNL A   1      35.837  23.681  25.667  1.00  0.00     0.013 A 
ATOM     25  C   UNL A   1      37.391  21.654  24.586  1.00  0.00     0.047 A 
ATOM     26  C   UNL A   1      37.098  23.409  26.206  1.00  0.00     0.047 A 
ATOM     27  C   UNL A   1      37.885  22.398  25.660  1.00  0.00     0.118 A 
BRANCH  27  28
ATOM     28  O   UNL A   1      39.136  22.040  26.082  1.00  0.00    -0.497 OA
ATOM     29  C   UNL A   1      39.512  20.683  25.881  1.00  0.00     0.278 C 
ENDBRANCH  27  28
ENDBRANCH  12  22
ENDBRANCH   7   9
ENDBRANCH   6   7
ENDBRANCH   3   6
ENDBRANCH   1   2
BRANCH   1  30
ATOM     30  C   UNL A   1      32.904  28.682  25.897  1.00  0.00     0.023 C 
BRANCH  30  31
ATOM     31  C   UNL A   1      32.820  30.210  25.862  1.00  0.00     0.023 C 
BRANCH  31  32
ATOM     32  C   UNL A   1      32.604  30.875  27.217  1.00  0.00     0.116 C 
BRANCH  32  33
ATOM     33  N   UNL A   1      32.782  32.319  27.185  1.00  0.00    -0.352 N 
ATOM     34  C   UNL A   1      33.830  33.065  27.667  1.00  0.00     0.251 C 
ATOM     35  H   UNL A   1      32.055  32.828  26.760  1.00  0.00     0.163 HD
ATOM     36  O   UNL A   1      33.771  34.291  27.670  1.00  0.00    -0.269 OA
BRANCH  34  37
ATOM     37  C   UNL A   1      35.017  32.380  28.222  1.00  0.00     0.039 A 
ATOM     38  C   UNL A   1      36.221  33.082  28.313  1.00  0.00     0.014 A 
ATOM     39  C   UNL A   1      34.934  31.060  28.675  1.00  0.00     0.014 A 
ATOM     40  C   UNL A   1      37.323  32.485  28.925  1.00  0.00     0.010 A 
ATOM     41  C   UNL A   1      36.010  30.494  29.350  1.00  0.00     0.010 A 
ATOM     42  C   UNL A   1      37.216  31.201  29.482  1.00  0.00    -0.014 A 
BRANCH  42  43
ATOM     43  C   UNL A   1      38.349  30.580  30.213  1.00  0.00     0.031 A 
ATOM     44  C   UNL A   1      38.601  30.926  31.653  1.00  0.00     0.074 A 
ATOM     45  C   UNL A   1      39.191  29.757  29.560  1.00  0.00     0.049 A 
ATOM     46  N   UNL A   1      39.567  30.530  32.445  1.00  0.00    -0.248 NA
ATOM     47  C   UNL A   1      37.658  31.866  32.277  1.00  0.00     0.031 C 
ATOM     48  C   UNL A   1      39.080  29.379  28.152  1.00  0.00     0.029 A 
ATOM     49  N   UNL A   1      40.312  29.094  29.996  1.00  0.00    -0.354 N 
ATOM     50  C   UNL A   1      39.355  31.182  33.651  1.00  0.00     0.074 A 
ATOM     51  C   UNL A   1      38.207  32.045  33.469  1.00  0.00     0.031 C 
ATOM     52  C   UNL A   1      40.069  28.524  27.848  1.00  0.00     0.029 A 
ATOM     53  C   UNL A   1      40.906  28.325  29.028  1.00  0.00     0.049 A 
ATOM     54  H   UNL A   1      40.655  29.164  30.916  1.00  0.00     0.167 HD
ATOM     55  C   UNL A   1      40.038  31.054  34.814  1.00  0.00     0.037 A 
ATOM     56  C   UNL A   1      42.002  27.546  29.086  1.00  0.00     0.037 A 
ATOM     57  C   UNL A   1      41.170  30.184  34.995  1.00  0.00     0.049 A 
ATOM     58  C   UNL A   1      42.762  27.438  30.379  1.00  0.00     0.074 A 
ATOM     59  C   UNL A   1      41.894  29.936  36.147  1.00  0.00     0.029 A 
ATOM     60  N   UNL A   1      41.750  29.424  33.988  1.00  0.00    -0.354 N 
ATOM     61  N   UNL A   1      42.511  28.001  31.536  1.00  0.00    -0.248 NA
ATOM     62  C   UNL A   1      43.957  26.584  30.374  1.00  0.00     0.031 C 
ATOM     63  C   UNL A   1      42.943  29.066  35.827  1.00  0.00     0.029 A 
ATOM     64  C   UNL A   1      42.841  28.729  34.486  1.00  0.00     0.049 A 
ATOM     65  H   UNL A   1      41.434  29.385  33.057  1.00  0.00     0.167 HD
ATOM     66  C   UNL A   1      43.495  27.547  32.404  1.00  0.00     0.074 A 
ATOM     67  C   UNL A   1      44.342  26.653  31.641  1.00  0.00     0.031 C 
ATOM     68  C   UNL A   1      43.676  27.841  33.716  1.00  0.00     0.037 A 
BRANCH  55  69
ATOM     69  C   UNL A   1      39.575  31.887  35.976  1.00  0.00     0.064 A 
ATOM     70  C   UNL A   1      38.519  31.476  36.805  1.00  0.00     0.173 A 
ATOM     71  C   UNL A   1      40.189  33.117  36.261  1.00  0.00     0.173 A 
ATOM     72  F   UNL A   1      37.889  30.314  36.571  1.00  0.00    -0.203 F 
ATOM     73  C   UNL A   1      38.063  32.285  37.843  1.00  0.00     0.198 A 
ATOM     74  C   UNL A   1      39.754  33.907  37.323  1.00  0.00     0.198 A 
ATOM     75  F   UNL A   1      41.207  33.555  35.508  1.00  0.00    -0.203 F 
ATOM     76  F   UNL A   1      37.007  31.903  38.574  1.00  0.00    -0.200 F 
ATOM     77  C   UNL A   1      38.683  33.497  38.103  1.00  0.00     0.200 A 
ATOM     78  F   UNL A   1      40.363  35.073  37.581  1.00  0.00    -0.200 F 
ATOM     79  F   UNL A   1      38.241  34.278  39.099  1.00  0.00    -0.200 F 
ENDBRANCH  55  69
BRANCH  56  80
ATOM     80  C   UNL A   1      42.415  26.766  27.891  1.00  0.00     0.064 A 
ATOM     81  C   UNL A   1      41.909  25.477  27.673  1.00  0.00     0.173 A 
ATOM     82  C   UNL A   1      43.297  27.293  26.936  1.00  0.00     0.173 A 
ATOM     83  F   UNL A   1      41.079  24.924  28.570  1.00  0.00    -0.203 F 
ATOM     84  C   UNL A   1      42.276  24.740  26.549  1.00  0.00     0.198 A 
ATOM     85  C   UNL A   1      43.644  26.564  25.800  1.00  0.00     0.198 A 
ATOM     86  F   UNL A   1      43.804  28.524  27.098  1.00  0.00    -0.203 F 
ATOM     87  F   UNL A   1      41.803  23.498  26.381  1.00  0.00    -0.200 F 
ATOM     88  C   UNL A   1      43.137  25.288  25.610  1.00  0.00     0.200 A 
ATOM     89  F   UNL A   1      44.465  27.101  24.888  1.00  0.00    -0.200 F 
ATOM     90  F   UNL A   1      43.482  24.583  24.524  1.00  0.00    -0.200 F 
ENDBRANCH  56  80
BRANCH  68  91
ATOM     91  C   UNL A   1      44.817  27.164  34.420  1.00  0.00     0.064 A 
ATOM     92  C   UNL A   1      44.672  25.904  35.018  1.00  0.00     0.173 A 
ATOM     93  C   UNL A   1      46.081  27.772  34.465  1.00  0.00     0.173 A 
ATOM     94  F   UNL A   1      43.480  25.289  35.017  1.00  0.00    -0.203 F 
ATOM     95  C   UNL A   1      45.745  25.288  35.657  1.00  0.00     0.198 A 
ATOM     96  C   UNL A   1      47.159  27.138  35.077  1.00  0.00     0.198 A 
ATOM     97  F   UNL A   1      46.275  28.974  33.905  1.00  0.00    -0.203 F 
ATOM     98  F   UNL A   1      45.571  24.105  36.264  1.00  0.00    -0.200 F 
ATOM     99  C   UNL A   1      46.989  25.900  35.679  1.00  0.00     0.200 A 
ATOM    100  F   UNL A   1      48.363  27.726  35.086  1.00  0.00    -0.200 F 
ATOM    101  F   UNL A   1      48.022  25.302  36.288  1.00  0.00    -0.200 F 
ENDBRANCH  68  91
ENDBRANCH  42  43
ENDBRANCH  34  37
ENDBRANCH  32  33
ENDBRANCH  31  32
ENDBRANCH  30  31
ENDBRANCH   1  30
TORSDOF 17
ENDMDL
