MODEL 1
REMARK VINA RESULT:     -10.3      0.000      0.000
REMARK SMILES C[C@@H](C(=O)NCCCCNC(=O)c1ccc(-c2c3nc(c(-c4c(F)c(F)c(F)c(F)c4F)c4ccc([nH]4)c(-c4c(F)c(F)c(F)c(F)c4F)c4nc(c(-c5c(F)c(F)c(F)c(F)c5F)c5ccc2[nH]5)C=C4)C=C3)cc1)N1C(=O)/C(=C/c2nc3ccccc3[nH]2)SC1=S
REMARK SMILES IDX 7 1 6 2 5 3 3 4 4 5 2 7 1 8 76 9 77 10 91 11 78 12 79 13
REMARK SMILES IDX 90 14 92 15 80 16 81 17 82 18 89 19 83 20 88 21 84 23 87 24
REMARK SMILES IDX 85 25 86 26 8 27 9 28 10 29 11 30 12 32 13 33 14 34 75 35
REMARK SMILES IDX 15 36 74 37 16 38 17 39 18 40 68 41 19 42 73 43 67 44 69 45
REMARK SMILES IDX 20 46 72 47 66 48 65 49 21 51 53 52 33 53 52 54 34 55 37 56
REMARK SMILES IDX 51 57 70 58 35 59 36 60 50 62 71 63 38 64 22 65 23 66 31 67
REMARK SMILES IDX 24 68 25 69 29 70 32 71 26 72 27 73 30 74 28 75 54 76 55 77
REMARK SMILES IDX 63 78 56 79 57 80 61 81 64 82 58 83 59 84 62 85 60 86 39 87
REMARK SMILES IDX 40 88 48 89 41 90 42 91 46 92 49 93 43 94 44 95 47 96 45 97
REMARK H PARENT 5 6 89 22 10 31 69 50 37 61
REMARK Flexibility Score: inf
ROOT
ATOM      1  C   UNL A   1      36.879  33.658  28.871  1.00  0.00     0.023 C 
ENDROOT
BRANCH   1   2
ATOM      2  C   UNL A   1      37.654  33.481  30.182  1.00  0.00     0.116 C 
BRANCH   2   3
ATOM      3  N   UNL A   1      37.306  34.504  31.157  1.00  0.00    -0.354 N 
ATOM      4  C   UNL A   1      36.657  34.379  32.363  1.00  0.00     0.242 C 
ATOM      5  O   UNL A   1      36.191  35.398  32.876  1.00  0.00    -0.273 OA
ATOM      6  H   UNL A   1      37.576  35.421  30.919  1.00  0.00     0.163 HD
BRANCH   4   7
ATOM      7  C   UNL A   1      36.418  32.963  32.942  1.00  0.00     0.178 C 
ATOM      8  C   UNL A   1      35.599  33.233  34.221  1.00  0.00     0.042 C 
BRANCH   7   9
ATOM      9  N   UNL A   1      37.639  32.178  33.247  1.00  0.00    -0.281 N 
ATOM     10  C   UNL A   1      37.699  30.814  32.980  1.00  0.00     0.267 C 
ATOM     11  C   UNL A   1      38.611  32.590  34.139  1.00  0.00     0.149 C 
ATOM     12  O   UNL A   1      36.766  30.085  32.673  1.00  0.00    -0.268 OA
ATOM     13  C   UNL A   1      39.057  30.282  33.291  1.00  0.00     0.084 C 
ATOM     14  S   UNL A   1      39.990  31.527  34.031  1.00  0.00    -0.054 SA
ATOM     15  S   UNL A   1      38.590  33.832  35.255  1.00  0.00    -0.052 S 
ATOM     16  C   UNL A   1      39.446  29.020  33.049  1.00  0.00     0.068 C 
BRANCH  16  17
ATOM     17  C   UNL A   1      40.699  28.559  33.527  1.00  0.00     0.132 A 
ATOM     18  N   UNL A   1      41.906  28.970  33.199  1.00  0.00    -0.229 NA
ATOM     19  N   UNL A   1      40.770  27.479  34.376  1.00  0.00    -0.338 N 
ATOM     20  C   UNL A   1      42.769  28.040  33.703  1.00  0.00     0.089 A 
ATOM     21  C   UNL A   1      42.088  27.089  34.454  1.00  0.00     0.066 A 
ATOM     22  H   UNL A   1      40.013  27.060  34.845  1.00  0.00     0.168 HD
ATOM     23  C   UNL A   1      44.153  27.929  33.523  1.00  0.00     0.030 A 
ATOM     24  C   UNL A   1      42.730  26.011  35.068  1.00  0.00     0.028 A 
ATOM     25  C   UNL A   1      44.817  26.847  34.109  1.00  0.00     0.002 A 
ATOM     26  C   UNL A   1      44.115  25.910  34.871  1.00  0.00     0.002 A 
ENDBRANCH  16  17
ENDBRANCH   7   9
ENDBRANCH   4   7
ENDBRANCH   2   3
ENDBRANCH   1   2
BRANCH   1  27
ATOM     27  C   UNL A   1      35.356  33.613  29.009  1.00  0.00     0.023 C 
BRANCH  27  28
ATOM     28  C   UNL A   1      34.805  32.336  29.633  1.00  0.00     0.116 C 
BRANCH  28  29
ATOM     29  N   UNL A   1      34.160  31.468  28.662  1.00  0.00    -0.352 N 
ATOM     30  C   UNL A   1      34.680  30.423  27.940  1.00  0.00     0.251 C 
ATOM     31  H   UNL A   1      33.208  31.657  28.499  1.00  0.00     0.163 HD
ATOM     32  O   UNL A   1      34.002  29.888  27.068  1.00  0.00    -0.269 OA
BRANCH  30  33
ATOM     33  C   UNL A   1      36.063  29.960  28.182  1.00  0.00     0.039 A 
ATOM     34  C   UNL A   1      37.014  30.147  27.175  1.00  0.00     0.014 A 
ATOM     35  C   UNL A   1      36.426  29.338  29.380  1.00  0.00     0.014 A 
ATOM     36  C   UNL A   1      38.341  29.773  27.394  1.00  0.00     0.010 A 
ATOM     37  C   UNL A   1      37.762  29.023  29.623  1.00  0.00     0.010 A 
ATOM     38  C   UNL A   1      38.731  29.240  28.633  1.00  0.00    -0.014 A 
BRANCH  38  39
ATOM     39  C   UNL A   1      40.152  28.918  28.908  1.00  0.00     0.031 A 
ATOM     40  C   UNL A   1      41.032  29.907  29.618  1.00  0.00     0.074 A 
ATOM     41  C   UNL A   1      40.662  27.751  28.469  1.00  0.00     0.049 A 
ATOM     42  N   UNL A   1      42.306  29.819  29.908  1.00  0.00    -0.248 NA
ATOM     43  C   UNL A   1      40.406  31.170  30.037  1.00  0.00     0.031 C 
ATOM     44  C   UNL A   1      39.923  26.735  27.717  1.00  0.00     0.029 A 
ATOM     45  N   UNL A   1      41.925  27.227  28.582  1.00  0.00    -0.354 N 
ATOM     46  C   UNL A   1      42.634  31.015  30.534  1.00  0.00     0.074 A 
ATOM     47  C   UNL A   1      41.439  31.831  30.539  1.00  0.00     0.031 C 
ATOM     48  C   UNL A   1      40.739  25.701  27.455  1.00  0.00     0.029 A 
ATOM     49  C   UNL A   1      42.064  25.993  27.996  1.00  0.00     0.049 A 
ATOM     50  H   UNL A   1      42.662  27.692  29.041  1.00  0.00     0.167 HD
ATOM     51  C   UNL A   1      43.818  31.388  31.074  1.00  0.00     0.037 A 
ATOM     52  C   UNL A   1      43.139  25.188  27.905  1.00  0.00     0.037 A 
ATOM     53  C   UNL A   1      45.000  30.566  31.091  1.00  0.00     0.049 A 
ATOM     54  C   UNL A   1      44.434  25.619  28.536  1.00  0.00     0.074 A 
ATOM     55  C   UNL A   1      46.233  30.837  31.658  1.00  0.00     0.029 A 
ATOM     56  N   UNL A   1      45.092  29.307  30.518  1.00  0.00    -0.354 N 
ATOM     57  N   UNL A   1      44.714  26.727  29.178  1.00  0.00    -0.248 NA
ATOM     58  C   UNL A   1      45.561  24.680  28.438  1.00  0.00     0.031 C 
ATOM     59  C   UNL A   1      47.080  29.753  31.403  1.00  0.00     0.029 A 
ATOM     60  C   UNL A   1      46.364  28.793  30.709  1.00  0.00     0.049 A 
ATOM     61  H   UNL A   1      44.361  28.847  30.045  1.00  0.00     0.167 HD
ATOM     62  C   UNL A   1      46.038  26.611  29.577  1.00  0.00     0.074 A 
ATOM     63  C   UNL A   1      46.501  25.317  29.123  1.00  0.00     0.031 C 
ATOM     64  C   UNL A   1      46.804  27.501  30.253  1.00  0.00     0.037 A 
BRANCH  51  65
ATOM     65  C   UNL A   1      43.893  32.743  31.710  1.00  0.00     0.064 A 
ATOM     66  C   UNL A   1      44.145  33.894  30.948  1.00  0.00     0.173 A 
ATOM     67  C   UNL A   1      43.662  32.901  33.085  1.00  0.00     0.173 A 
ATOM     68  F   UNL A   1      44.384  33.793  29.632  1.00  0.00    -0.203 F 
ATOM     69  C   UNL A   1      44.180  35.152  31.542  1.00  0.00     0.198 A 
ATOM     70  C   UNL A   1      43.674  34.164  33.671  1.00  0.00     0.198 A 
ATOM     71  F   UNL A   1      43.415  31.833  33.857  1.00  0.00    -0.203 F 
ATOM     72  F   UNL A   1      44.457  36.235  30.801  1.00  0.00    -0.200 F 
ATOM     73  C   UNL A   1      43.938  35.288  32.902  1.00  0.00     0.200 A 
ATOM     74  F   UNL A   1      43.432  34.295  34.983  1.00  0.00    -0.200 F 
ATOM     75  F   UNL A   1      43.963  36.501  33.470  1.00  0.00    -0.200 F 
ENDBRANCH  51  65
BRANCH  52  76
ATOM     76  C   UNL A   1      43.030  23.879  27.213  1.00  0.00     0.064 A 
ATOM     77  C   UNL A   1      42.539  22.751  27.885  1.00  0.00     0.173 A 
ATOM     78  C   UNL A   1      43.427  23.726  25.878  1.00  0.00     0.173 A 
ATOM     79  F   UNL A   1      42.168  22.847  29.170  1.00  0.00    -0.203 F 
ATOM     80  C   UNL A   1      42.470  21.512  27.253  1.00  0.00     0.198 A 
ATOM     81  C   UNL A   1      43.334  22.490  25.240  1.00  0.00     0.198 A 
ATOM     82  F   UNL A   1      43.899  24.776  25.193  1.00  0.00    -0.203 F 
ATOM     83  F   UNL A   1      42.041  20.439  27.931  1.00  0.00    -0.200 F 
ATOM     84  C   UNL A   1      42.865  21.383  25.930  1.00  0.00     0.200 A 
ATOM     85  F   UNL A   1      43.706  22.372  23.958  1.00  0.00    -0.200 F 
ATOM     86  F   UNL A   1      42.800  20.190  25.323  1.00  0.00    -0.200 F 
ENDBRANCH  52  76
BRANCH  64  87
ATOM     87  C   UNL A   1      48.213  27.089  30.561  1.00  0.00     0.064 A 
ATOM     88  C   UNL A   1      48.516  26.305  31.683  1.00  0.00     0.173 A 
ATOM     89  C   UNL A   1      49.264  27.465  29.713  1.00  0.00     0.173 A 
ATOM     90  F   UNL A   1      47.545  25.937  32.533  1.00  0.00    -0.203 F 
ATOM     91  C   UNL A   1      49.829  25.935  31.960  1.00  0.00     0.198 A 
ATOM     92  C   UNL A   1      50.572  27.071  29.980  1.00  0.00     0.198 A 
ATOM     93  F   UNL A   1      49.023  28.209  28.624  1.00  0.00    -0.203 F 
ATOM     94  F   UNL A   1      50.104  25.226  33.064  1.00  0.00    -0.200 F 
ATOM     95  C   UNL A   1      50.855  26.313  31.107  1.00  0.00     0.200 A 
ATOM     96  F   UNL A   1      51.561  27.430  29.150  1.00  0.00    -0.200 F 
ATOM     97  F   UNL A   1      52.118  25.955  31.375  1.00  0.00    -0.200 F 
ENDBRANCH  64  87
ENDBRANCH  38  39
ENDBRANCH  30  33
ENDBRANCH  28  29
ENDBRANCH  27  28
ENDBRANCH   1  27
TORSDOF 13
ENDMDL
MODEL 2
REMARK VINA RESULT:     -10.2      5.422     10.498
REMARK SMILES C[C@@H](C(=O)NCCCCNC(=O)c1ccc(-c2c3nc(c(-c4c(F)c(F)c(F)c(F)c4F)c4ccc([nH]4)c(-c4c(F)c(F)c(F)c(F)c4F)c4nc(c(-c5c(F)c(F)c(F)c(F)c5F)c5ccc2[nH]5)C=C4)C=C3)cc1)N1C(=O)/C(=C/c2nc3ccccc3[nH]2)SC1=S
REMARK SMILES IDX 7 1 6 2 5 3 3 4 4 5 2 7 1 8 76 9 77 10 91 11 78 12 79 13
REMARK SMILES IDX 90 14 92 15 80 16 81 17 82 18 89 19 83 20 88 21 84 23 87 24
REMARK SMILES IDX 85 25 86 26 8 27 9 28 10 29 11 30 12 32 13 33 14 34 75 35
REMARK SMILES IDX 15 36 74 37 16 38 17 39 18 40 68 41 19 42 73 43 67 44 69 45
REMARK SMILES IDX 20 46 72 47 66 48 65 49 21 51 53 52 33 53 52 54 34 55 37 56
REMARK SMILES IDX 51 57 70 58 35 59 36 60 50 62 71 63 38 64 22 65 23 66 31 67
REMARK SMILES IDX 24 68 25 69 29 70 32 71 26 72 27 73 30 74 28 75 54 76 55 77
REMARK SMILES IDX 63 78 56 79 57 80 61 81 64 82 58 83 59 84 62 85 60 86 39 87
REMARK SMILES IDX 40 88 48 89 41 90 42 91 46 92 49 93 43 94 44 95 47 96 45 97
REMARK H PARENT 5 6 89 22 10 31 69 50 37 61
REMARK Flexibility Score: inf
ROOT
ATOM      1  C   UNL A   1      37.036  21.033  24.545  1.00  0.00     0.023 C 
ENDROOT
BRANCH   1   2
ATOM      2  C   UNL A   1      35.825  21.294  25.448  1.00  0.00     0.116 C 
BRANCH   2   3
ATOM      3  N   UNL A   1      34.572  21.186  24.715  1.00  0.00    -0.354 N 
ATOM      4  C   UNL A   1      33.453  21.983  24.774  1.00  0.00     0.242 C 
ATOM      5  O   UNL A   1      32.402  21.538  24.310  1.00  0.00    -0.273 OA
ATOM      6  H   UNL A   1      34.517  20.432  24.084  1.00  0.00     0.163 HD
BRANCH   4   7
ATOM      7  C   UNL A   1      33.530  23.327  25.539  1.00  0.00     0.178 C 
ATOM      8  C   UNL A   1      33.233  22.926  26.999  1.00  0.00     0.042 C 
BRANCH   7   9
ATOM      9  N   UNL A   1      32.597  24.384  25.077  1.00  0.00    -0.281 N 
ATOM     10  C   UNL A   1      33.073  25.602  24.602  1.00  0.00     0.267 C 
ATOM     11  C   UNL A   1      31.261  24.435  25.430  1.00  0.00     0.149 C 
ATOM     12  O   UNL A   1      34.218  26.023  24.681  1.00  0.00    -0.268 OA
ATOM     13  C   UNL A   1      31.944  26.449  24.119  1.00  0.00     0.084 C 
ATOM     14  S   UNL A   1      30.456  25.666  24.492  1.00  0.00    -0.054 SA
ATOM     15  S   UNL A   1      30.424  23.579  26.594  1.00  0.00    -0.052 S 
ATOM     16  C   UNL A   1      32.099  27.641  23.520  1.00  0.00     0.068 C 
BRANCH  16  17
ATOM     17  C   UNL A   1      30.967  28.448  23.242  1.00  0.00     0.132 A 
ATOM     18  N   UNL A   1      30.249  28.506  22.140  1.00  0.00    -0.229 NA
ATOM     19  N   UNL A   1      30.544  29.396  24.145  1.00  0.00    -0.338 N 
ATOM     20  C   UNL A   1      29.465  29.618  22.261  1.00  0.00     0.089 A 
ATOM     21  C   UNL A   1      29.622  30.199  23.513  1.00  0.00     0.066 A 
ATOM     22  H   UNL A   1      30.847  29.484  25.077  1.00  0.00     0.168 HD
ATOM     23  C   UNL A   1      28.618  30.209  21.316  1.00  0.00     0.030 A 
ATOM     24  C   UNL A   1      28.950  31.363  23.894  1.00  0.00     0.028 A 
ATOM     25  C   UNL A   1      27.949  31.387  21.664  1.00  0.00     0.002 A 
ATOM     26  C   UNL A   1      28.111  31.948  22.933  1.00  0.00     0.002 A 
ENDBRANCH  16  17
ENDBRANCH   7   9
ENDBRANCH   4   7
ENDBRANCH   2   3
ENDBRANCH   1   2
BRANCH   1  27
ATOM     27  C   UNL A   1      37.916  19.856  24.969  1.00  0.00     0.023 C 
BRANCH  27  28
ATOM     28  C   UNL A   1      39.091  20.223  25.868  1.00  0.00     0.116 C 
BRANCH  28  29
ATOM     29  N   UNL A   1      40.126  19.202  25.886  1.00  0.00    -0.352 N 
ATOM     30  C   UNL A   1      41.480  19.331  26.065  1.00  0.00     0.251 C 
ATOM     31  H   UNL A   1      39.808  18.281  25.750  1.00  0.00     0.163 HD
ATOM     32  O   UNL A   1      42.210  18.355  25.919  1.00  0.00    -0.269 OA
BRANCH  30  33
ATOM     33  C   UNL A   1      42.070  20.645  26.400  1.00  0.00     0.039 A 
ATOM     34  C   UNL A   1      42.496  21.470  25.355  1.00  0.00     0.014 A 
ATOM     35  C   UNL A   1      42.214  21.064  27.726  1.00  0.00     0.014 A 
ATOM     36  C   UNL A   1      43.004  22.739  25.635  1.00  0.00     0.010 A 
ATOM     37  C   UNL A   1      42.661  22.355  28.002  1.00  0.00     0.010 A 
ATOM     38  C   UNL A   1      43.058  23.205  26.959  1.00  0.00    -0.014 A 
BRANCH  38  39
ATOM     39  C   UNL A   1      43.515  24.582  27.263  1.00  0.00     0.031 A 
ATOM     40  C   UNL A   1      42.552  25.602  27.800  1.00  0.00     0.074 A 
ATOM     41  C   UNL A   1      44.791  24.927  27.002  1.00  0.00     0.049 A 
ATOM     42  N   UNL A   1      42.758  26.864  28.083  1.00  0.00    -0.248 NA
ATOM     43  C   UNL A   1      41.170  25.153  28.026  1.00  0.00     0.031 C 
ATOM     44  C   UNL A   1      45.805  24.042  26.426  1.00  0.00     0.029 A 
ATOM     45  N   UNL A   1      45.450  26.117  27.179  1.00  0.00    -0.354 N 
ATOM     46  C   UNL A   1      41.534  27.359  28.512  1.00  0.00     0.074 A 
ATOM     47  C   UNL A   1      40.578  26.277  28.407  1.00  0.00     0.031 C 
ATOM     48  C   UNL A   1      46.963  24.713  26.316  1.00  0.00     0.029 A 
ATOM     49  C   UNL A   1      46.766  26.081  26.788  1.00  0.00     0.049 A 
ATOM     50  H   UNL A   1      45.020  26.922  27.551  1.00  0.00     0.167 HD
ATOM     51  C   UNL A   1      41.239  28.598  28.973  1.00  0.00     0.037 A 
ATOM     52  C   UNL A   1      47.707  27.043  26.809  1.00  0.00     0.037 A 
ATOM     53  C   UNL A   1      42.194  29.667  29.102  1.00  0.00     0.049 A 
ATOM     54  C   UNL A   1      47.357  28.401  27.349  1.00  0.00     0.074 A 
ATOM     55  C   UNL A   1      42.002  30.942  29.604  1.00  0.00     0.029 A 
ATOM     56  N   UNL A   1      43.526  29.581  28.729  1.00  0.00    -0.354 N 
ATOM     57  N   UNL A   1      46.210  28.839  27.808  1.00  0.00    -0.248 NA
ATOM     58  C   UNL A   1      48.437  29.398  27.383  1.00  0.00     0.031 C 
ATOM     59  C   UNL A   1      43.212  31.637  29.509  1.00  0.00     0.029 A 
ATOM     60  C   UNL A   1      44.166  30.784  28.981  1.00  0.00     0.049 A 
ATOM     61  H   UNL A   1      43.955  28.784  28.342  1.00  0.00     0.167 HD
ATOM     62  C   UNL A   1      46.433  30.151  28.203  1.00  0.00     0.074 A 
ATOM     63  C   UNL A   1      47.830  30.432  27.949  1.00  0.00     0.031 C 
ATOM     64  C   UNL A   1      45.558  31.044  28.724  1.00  0.00     0.037 A 
BRANCH  51  65
ATOM     65  C   UNL A   1      39.824  28.863  29.391  1.00  0.00     0.064 A 
ATOM     66  C   UNL A   1      38.874  29.351  28.482  1.00  0.00     0.173 A 
ATOM     67  C   UNL A   1      39.400  28.580  30.698  1.00  0.00     0.173 A 
ATOM     68  F   UNL A   1      39.234  29.648  27.224  1.00  0.00    -0.203 F 
ATOM     69  C   UNL A   1      37.554  29.563  28.870  1.00  0.00     0.198 A 
ATOM     70  C   UNL A   1      38.074  28.771  31.077  1.00  0.00     0.198 A 
ATOM     71  F   UNL A   1      40.269  28.110  31.605  1.00  0.00    -0.203 F 
ATOM     72  F   UNL A   1      36.671  30.064  27.995  1.00  0.00    -0.200 F 
ATOM     73  C   UNL A   1      37.153  29.266  30.165  1.00  0.00     0.200 A 
ATOM     74  F   UNL A   1      37.685  28.476  32.325  1.00  0.00    -0.200 F 
ATOM     75  F   UNL A   1      35.880  29.462  30.535  1.00  0.00    -0.200 F 
ENDBRANCH  51  65
BRANCH  52  76
ATOM     76  C   UNL A   1      49.081  26.748  26.330  1.00  0.00     0.064 A 
ATOM     77  C   UNL A   1      49.442  26.984  24.996  1.00  0.00     0.173 A 
ATOM     78  C   UNL A   1      50.052  26.213  27.186  1.00  0.00     0.173 A 
ATOM     79  F   UNL A   1      48.538  27.475  24.135  1.00  0.00    -0.203 F 
ATOM     80  C   UNL A   1      50.717  26.674  24.530  1.00  0.00     0.198 A 
ATOM     81  C   UNL A   1      51.336  25.927  26.726  1.00  0.00     0.198 A 
ATOM     82  F   UNL A   1      49.756  25.975  28.472  1.00  0.00    -0.203 F 
ATOM     83  F   UNL A   1      51.023  26.865  23.240  1.00  0.00    -0.200 F 
ATOM     84  C   UNL A   1      51.665  26.149  25.397  1.00  0.00     0.200 A 
ATOM     85  F   UNL A   1      52.252  25.430  27.568  1.00  0.00    -0.200 F 
ATOM     86  F   UNL A   1      52.892  25.849  24.949  1.00  0.00    -0.200 F 
ENDBRANCH  52  76
BRANCH  64  87
ATOM     87  C   UNL A   1      46.096  32.399  29.074  1.00  0.00     0.064 A 
ATOM     88  C   UNL A   1      46.651  32.662  30.335  1.00  0.00     0.173 A 
ATOM     89  C   UNL A   1      46.077  33.437  28.131  1.00  0.00     0.173 A 
ATOM     90  F   UNL A   1      46.676  31.706  31.275  1.00  0.00    -0.203 F 
ATOM     91  C   UNL A   1      47.142  33.926  30.648  1.00  0.00     0.198 A 
ATOM     92  C   UNL A   1      46.592  34.692  28.440  1.00  0.00     0.198 A 
ATOM     93  F   UNL A   1      45.562  33.232  26.910  1.00  0.00    -0.203 F 
ATOM     94  F   UNL A   1      47.624  34.170  31.875  1.00  0.00    -0.200 F 
ATOM     95  C   UNL A   1      47.117  34.938  29.700  1.00  0.00     0.200 A 
ATOM     96  F   UNL A   1      46.575  35.666  27.520  1.00  0.00    -0.200 F 
ATOM     97  F   UNL A   1      47.591  36.155  30.003  1.00  0.00    -0.200 F 
ENDBRANCH  64  87
ENDBRANCH  38  39
ENDBRANCH  30  33
ENDBRANCH  28  29
ENDBRANCH  27  28
ENDBRANCH   1  27
TORSDOF 13
ENDMDL
MODEL 3
REMARK VINA RESULT:     -10.2      5.422     11.163
REMARK SMILES C[C@@H](C(=O)NCCCCNC(=O)c1ccc(-c2c3nc(c(-c4c(F)c(F)c(F)c(F)c4F)c4ccc([nH]4)c(-c4c(F)c(F)c(F)c(F)c4F)c4nc(c(-c5c(F)c(F)c(F)c(F)c5F)c5ccc2[nH]5)C=C4)C=C3)cc1)N1C(=O)/C(=C/c2nc3ccccc3[nH]2)SC1=S
REMARK SMILES IDX 7 1 6 2 5 3 3 4 4 5 2 7 1 8 76 9 77 10 91 11 78 12 79 13
REMARK SMILES IDX 90 14 92 15 80 16 81 17 82 18 89 19 83 20 88 21 84 23 87 24
REMARK SMILES IDX 85 25 86 26 8 27 9 28 10 29 11 30 12 32 13 33 14 34 75 35
REMARK SMILES IDX 15 36 74 37 16 38 17 39 18 40 68 41 19 42 73 43 67 44 69 45
REMARK SMILES IDX 20 46 72 47 66 48 65 49 21 51 53 52 33 53 52 54 34 55 37 56
REMARK SMILES IDX 51 57 70 58 35 59 36 60 50 62 71 63 38 64 22 65 23 66 31 67
REMARK SMILES IDX 24 68 25 69 29 70 32 71 26 72 27 73 30 74 28 75 54 76 55 77
REMARK SMILES IDX 63 78 56 79 57 80 61 81 64 82 58 83 59 84 62 85 60 86 39 87
REMARK SMILES IDX 40 88 48 89 41 90 42 91 46 92 49 93 43 94 44 95 47 96 45 97
REMARK H PARENT 5 6 89 22 10 31 69 50 37 61
REMARK Flexibility Score: inf
ROOT
ATOM      1  C   UNL A   1      31.486  30.576  26.579  1.00  0.00     0.023 C 
ENDROOT
BRANCH   1   2
ATOM      2  C   UNL A   1      32.015  29.936  25.290  1.00  0.00     0.116 C 
BRANCH   2   3
ATOM      3  N   UNL A   1      31.050  29.012  24.711  1.00  0.00    -0.354 N 
ATOM      4  C   UNL A   1      31.258  27.790  24.117  1.00  0.00     0.242 C 
ATOM      5  O   UNL A   1      30.353  27.324  23.422  1.00  0.00    -0.273 OA
ATOM      6  H   UNL A   1      30.111  29.304  24.752  1.00  0.00     0.163 HD
BRANCH   4   7
ATOM      7  C   UNL A   1      32.655  27.131  24.226  1.00  0.00     0.178 C 
ATOM      8  C   UNL A   1      33.452  27.786  23.080  1.00  0.00     0.042 C 
BRANCH   7   9
ATOM      9  N   UNL A   1      32.679  25.652  24.114  1.00  0.00    -0.281 N 
ATOM     10  C   UNL A   1      33.218  24.864  25.126  1.00  0.00     0.267 C 
ATOM     11  C   UNL A   1      32.564  24.973  22.914  1.00  0.00     0.149 C 
ATOM     12  O   UNL A   1      33.880  25.248  26.080  1.00  0.00    -0.268 OA
ATOM     13  C   UNL A   1      33.039  23.417  24.811  1.00  0.00     0.084 C 
ATOM     14  S   UNL A   1      32.384  23.266  23.226  1.00  0.00    -0.054 SA
ATOM     15  S   UNL A   1      32.640  25.541  21.346  1.00  0.00    -0.052 S 
ATOM     16  C   UNL A   1      33.374  22.418  25.643  1.00  0.00     0.068 C 
BRANCH  16  17
ATOM     17  C   UNL A   1      33.320  21.074  25.196  1.00  0.00     0.132 A 
ATOM     18  N   UNL A   1      32.307  20.233  25.237  1.00  0.00    -0.229 NA
ATOM     19  N   UNL A   1      34.451  20.445  24.729  1.00  0.00    -0.338 N 
ATOM     20  C   UNL A   1      32.829  19.002  24.959  1.00  0.00     0.089 A 
ATOM     21  C   UNL A   1      34.175  19.100  24.629  1.00  0.00     0.066 A 
ATOM     22  H   UNL A   1      35.305  20.880  24.506  1.00  0.00     0.168 HD
ATOM     23  C   UNL A   1      32.208  17.748  25.005  1.00  0.00     0.030 A 
ATOM     24  C   UNL A   1      34.958  17.985  24.317  1.00  0.00     0.028 A 
ATOM     25  C   UNL A   1      32.975  16.614  24.719  1.00  0.00     0.002 A 
ATOM     26  C   UNL A   1      34.325  16.736  24.378  1.00  0.00     0.002 A 
ENDBRANCH  16  17
ENDBRANCH   7   9
ENDBRANCH   4   7
ENDBRANCH   2   3
ENDBRANCH   1   2
BRANCH   1  27
ATOM     27  C   UNL A   1      31.456  32.106  26.575  1.00  0.00     0.023 C 
BRANCH  27  28
ATOM     28  C   UNL A   1      32.675  32.774  27.199  1.00  0.00     0.116 C 
BRANCH  28  29
ATOM     29  N   UNL A   1      32.423  34.151  27.591  1.00  0.00    -0.352 N 
ATOM     30  C   UNL A   1      33.024  34.908  28.564  1.00  0.00     0.251 C 
ATOM     31  H   UNL A   1      31.716  34.609  27.082  1.00  0.00     0.163 HD
ATOM     32  O   UNL A   1      32.581  36.022  28.832  1.00  0.00    -0.269 OA
BRANCH  30  33
ATOM     33  C   UNL A   1      34.182  34.380  29.317  1.00  0.00     0.039 A 
ATOM     34  C   UNL A   1      33.946  33.724  30.529  1.00  0.00     0.014 A 
ATOM     35  C   UNL A   1      35.489  34.531  28.846  1.00  0.00     0.014 A 
ATOM     36  C   UNL A   1      35.011  33.165  31.235  1.00  0.00     0.010 A 
ATOM     37  C   UNL A   1      36.545  33.917  29.518  1.00  0.00     0.010 A 
ATOM     38  C   UNL A   1      36.315  33.226  30.717  1.00  0.00    -0.014 A 
BRANCH  38  39
ATOM     39  C   UNL A   1      37.443  32.561  31.413  1.00  0.00     0.031 A 
ATOM     40  C   UNL A   1      38.160  31.408  30.771  1.00  0.00     0.074 A 
ATOM     41  C   UNL A   1      37.784  32.966  32.652  1.00  0.00     0.049 A 
ATOM     42  N   UNL A   1      39.138  30.677  31.244  1.00  0.00    -0.248 NA
ATOM     43  C   UNL A   1      37.705  31.009  29.431  1.00  0.00     0.031 C 
ATOM     44  C   UNL A   1      37.125  34.035  33.404  1.00  0.00     0.029 A 
ATOM     45  N   UNL A   1      38.765  32.518  33.501  1.00  0.00    -0.354 N 
ATOM     46  C   UNL A   1      39.408  29.729  30.266  1.00  0.00     0.074 A 
ATOM     47  C   UNL A   1      38.461  29.946  29.193  1.00  0.00     0.031 C 
ATOM     48  C   UNL A   1      37.732  34.175  34.594  1.00  0.00     0.029 A 
ATOM     49  C   UNL A   1      38.805  33.189  34.698  1.00  0.00     0.049 A 
ATOM     50  H   UNL A   1      39.382  31.785  33.273  1.00  0.00     0.167 HD
ATOM     51  C   UNL A   1      40.372  28.779  30.255  1.00  0.00     0.037 A 
ATOM     52  C   UNL A   1      39.615  33.027  35.761  1.00  0.00     0.037 A 
ATOM     53  C   UNL A   1      41.330  28.580  31.310  1.00  0.00     0.049 A 
ATOM     54  C   UNL A   1      40.692  31.980  35.709  1.00  0.00     0.074 A 
ATOM     55  C   UNL A   1      42.377  27.675  31.368  1.00  0.00     0.029 A 
ATOM     56  N   UNL A   1      41.362  29.302  32.492  1.00  0.00    -0.354 N 
ATOM     57  N   UNL A   1      40.976  31.130  34.753  1.00  0.00    -0.248 NA
ATOM     58  C   UNL A   1      41.571  31.877  36.884  1.00  0.00     0.031 C 
ATOM     59  C   UNL A   1      43.023  27.832  32.599  1.00  0.00     0.029 A 
ATOM     60  C   UNL A   1      42.403  28.858  33.291  1.00  0.00     0.049 A 
ATOM     61  H   UNL A   1      40.736  30.025  32.730  1.00  0.00     0.167 HD
ATOM     62  C   UNL A   1      42.073  30.407  35.198  1.00  0.00     0.074 A 
ATOM     63  C   UNL A   1      42.418  30.931  36.503  1.00  0.00     0.031 C 
ATOM     64  C   UNL A   1      42.732  29.395  34.584  1.00  0.00     0.037 A 
BRANCH  51  65
ATOM     65  C   UNL A   1      40.453  27.888  29.051  1.00  0.00     0.064 A 
ATOM     66  C   UNL A   1      39.709  26.702  28.971  1.00  0.00     0.173 A 
ATOM     67  C   UNL A   1      41.242  28.247  27.948  1.00  0.00     0.173 A 
ATOM     68  F   UNL A   1      38.950  26.310  30.005  1.00  0.00    -0.203 F 
ATOM     69  C   UNL A   1      39.765  25.897  27.836  1.00  0.00     0.198 A 
ATOM     70  C   UNL A   1      41.277  27.452  26.806  1.00  0.00     0.198 A 
ATOM     71  F   UNL A   1      41.971  29.373  27.974  1.00  0.00    -0.203 F 
ATOM     72  F   UNL A   1      39.073  24.750  27.795  1.00  0.00    -0.200 F 
ATOM     73  C   UNL A   1      40.543  26.276  26.752  1.00  0.00     0.200 A 
ATOM     74  F   UNL A   1      42.022  27.823  25.755  1.00  0.00    -0.200 F 
ATOM     75  F   UNL A   1      40.588  25.505  25.657  1.00  0.00    -0.200 F 
ENDBRANCH  51  65
BRANCH  52  76
ATOM     76  C   UNL A   1      39.458  33.896  36.954  1.00  0.00     0.064 A 
ATOM     77  C   UNL A   1      40.062  35.160  37.006  1.00  0.00     0.173 A 
ATOM     78  C   UNL A   1      38.717  33.478  38.068  1.00  0.00     0.173 A 
ATOM     79  F   UNL A   1      40.799  35.592  35.972  1.00  0.00    -0.203 F 
ATOM     80  C   UNL A   1      39.951  35.964  38.138  1.00  0.00     0.198 A 
ATOM     81  C   UNL A   1      38.585  34.294  39.190  1.00  0.00     0.198 A 
ATOM     82  F   UNL A   1      38.117  32.279  38.064  1.00  0.00    -0.203 F 
ATOM     83  F   UNL A   1      40.577  37.148  38.181  1.00  0.00    -0.200 F 
ATOM     84  C   UNL A   1      39.209  35.532  39.228  1.00  0.00     0.200 A 
ATOM     85  F   UNL A   1      37.859  33.878  40.236  1.00  0.00    -0.200 F 
ATOM     86  F   UNL A   1      39.103  36.305  40.317  1.00  0.00    -0.200 F 
ENDBRANCH  52  76
BRANCH  64  87
ATOM     87  C   UNL A   1      43.906  28.809  35.311  1.00  0.00     0.064 A 
ATOM     88  C   UNL A   1      45.204  29.306  35.124  1.00  0.00     0.173 A 
ATOM     89  C   UNL A   1      43.727  27.754  36.217  1.00  0.00     0.173 A 
ATOM     90  F   UNL A   1      45.426  30.303  34.255  1.00  0.00    -0.203 F 
ATOM     91  C   UNL A   1      46.285  28.750  35.801  1.00  0.00     0.198 A 
ATOM     92  C   UNL A   1      44.808  27.216  36.910  1.00  0.00     0.198 A 
ATOM     93  F   UNL A   1      42.504  27.248  36.433  1.00  0.00    -0.203 F 
ATOM     94  F   UNL A   1      47.524  29.209  35.573  1.00  0.00    -0.200 F 
ATOM     95  C   UNL A   1      46.087  27.709  36.696  1.00  0.00     0.200 A 
ATOM     96  F   UNL A   1      44.613  26.217  37.781  1.00  0.00    -0.200 F 
ATOM     97  F   UNL A   1      47.129  27.174  37.347  1.00  0.00    -0.200 F 
ENDBRANCH  64  87
ENDBRANCH  38  39
ENDBRANCH  30  33
ENDBRANCH  28  29
ENDBRANCH  27  28
ENDBRANCH   1  27
TORSDOF 13
ENDMDL
