MODEL 1
REMARK VINA RESULT:     -12.6      0.000      0.000
REMARK SMILES Cc1oc2c(c1C(=O)NCCCCNC(=O)c1ccc(-c3c4nc(c(-c5c(F)c(F)c(F)c(F)c5F)c5ccc([nH]5)c(-c5c(F)c(F)c(F)c(F)c5F)c5nc(c(-c6c(F)c(F)c(F)c(F)c6F)c6ccc3[nH]6)C=C5)C=C4)cc1)C(=O)C[C@H](c1ccco1)C2
REMARK SMILES IDX 12 1 11 2 10 3 9 4 7 5 8 6 6 8 1 9 2 10 3 11 4 12 5 13 89 14
REMARK SMILES IDX 80 15 83 16 81 17 82 18 84 19 85 20 88 21 86 22 87 23 13 24
REMARK SMILES IDX 14 25 15 26 16 28 17 29 18 30 79 31 19 32 78 33 20 34 21 35
REMARK SMILES IDX 22 36 72 37 23 38 77 39 71 40 73 41 24 42 76 43 70 44 69 45
REMARK SMILES IDX 25 47 57 48 37 49 56 50 38 51 41 52 55 53 74 54 39 55 40 56
REMARK SMILES IDX 54 58 75 59 42 60 26 61 27 62 35 63 28 64 29 65 33 66 36 67
REMARK SMILES IDX 30 68 31 69 34 70 32 71 58 72 59 73 67 74 60 75 61 76 65 77
REMARK SMILES IDX 68 78 62 79 63 80 66 81 64 82 43 83 44 84 52 85 45 86 46 87
REMARK SMILES IDX 50 88 53 89 47 90 48 91 51 92 49 93
REMARK H PARENT 9 7 14 27 73 46 41 57
REMARK Flexibility Score: inf
ROOT
ATOM      1  C   UNL A   1      33.709  29.196  26.409  1.00  0.00     0.023 C 
ENDROOT
BRANCH   1   2
ATOM      2  C   UNL A   1      32.262  29.113  26.921  1.00  0.00     0.023 C 
BRANCH   2   3
ATOM      3  C   UNL A   1      31.776  27.700  27.258  1.00  0.00     0.116 C 
BRANCH   3   4
ATOM      4  N   UNL A   1      30.981  27.132  26.199  1.00  0.00    -0.352 N 
ATOM      5  C   UNL A   1      30.787  25.892  25.656  1.00  0.00     0.255 C 
ATOM      6  O   UNL A   1      29.909  25.904  24.791  1.00  0.00    -0.269 OA
ATOM      7  H   UNL A   1      30.433  27.817  25.748  1.00  0.00     0.163 HD
BRANCH   5   8
ATOM      8  C   UNL A   1      31.489  24.646  26.004  1.00  0.00     0.092 A 
ATOM      9  C   UNL A   1      29.852  22.861  27.201  1.00  0.00     0.088 C 
ATOM     10  C   UNL A   1      31.073  23.455  26.620  1.00  0.00     0.114 A 
ATOM     11  O   UNL A   1      32.110  22.576  26.730  1.00  0.00    -0.465 OA
ATOM     12  C   UNL A   1      33.195  23.166  26.226  1.00  0.00     0.116 A 
ATOM     13  C   UNL A   1      32.915  24.423  25.756  1.00  0.00     0.072 A 
ATOM     14  C   UNL A   1      34.472  22.427  26.252  1.00  0.00     0.088 C 
ATOM     15  C   UNL A   1      34.023  25.190  25.180  1.00  0.00     0.167 C 
ATOM     16  C   UNL A   1      35.629  23.439  26.105  1.00  0.00     0.071 C 
ATOM     17  O   UNL A   1      33.954  26.368  24.843  1.00  0.00    -0.294 OA
ATOM     18  C   UNL A   1      35.333  24.420  24.954  1.00  0.00     0.093 C 
BRANCH  16  19
ATOM     19  C   UNL A   1      36.949  22.750  25.938  1.00  0.00     0.107 A 
ATOM     20  C   UNL A   1      38.249  23.097  26.246  1.00  0.00     0.046 A 
ATOM     21  O   UNL A   1      36.926  21.484  25.426  1.00  0.00    -0.469 OA
ATOM     22  C   UNL A   1      39.056  21.985  25.901  1.00  0.00     0.042 A 
ATOM     23  C   UNL A   1      38.202  21.029  25.408  1.00  0.00     0.195 A 
ENDBRANCH  16  19
ENDBRANCH   5   8
ENDBRANCH   3   4
ENDBRANCH   2   3
ENDBRANCH   1   2
BRANCH   1  24
ATOM     24  C   UNL A   1      34.777  28.948  27.472  1.00  0.00     0.116 C 
BRANCH  24  25
ATOM     25  N   UNL A   1      35.002  30.102  28.340  1.00  0.00    -0.352 N 
ATOM     26  C   UNL A   1      36.055  30.308  29.215  1.00  0.00     0.251 C 
ATOM     27  H   UNL A   1      34.327  30.816  28.298  1.00  0.00     0.163 HD
ATOM     28  O   UNL A   1      35.968  31.078  30.153  1.00  0.00    -0.269 OA
BRANCH  26  29
ATOM     29  C   UNL A   1      37.308  29.575  28.966  1.00  0.00     0.039 A 
ATOM     30  C   UNL A   1      38.091  29.843  27.840  1.00  0.00     0.014 A 
ATOM     31  C   UNL A   1      37.715  28.658  29.931  1.00  0.00     0.014 A 
ATOM     32  C   UNL A   1      39.344  29.246  27.739  1.00  0.00     0.010 A 
ATOM     33  C   UNL A   1      38.994  28.162  29.888  1.00  0.00     0.010 A 
ATOM     34  C   UNL A   1      39.804  28.427  28.781  1.00  0.00    -0.014 A 
BRANCH  34  35
ATOM     35  C   UNL A   1      41.197  27.976  28.818  1.00  0.00     0.031 A 
ATOM     36  C   UNL A   1      41.453  26.689  28.100  1.00  0.00     0.074 A 
ATOM     37  C   UNL A   1      42.195  28.796  29.217  1.00  0.00     0.049 A 
ATOM     38  N   UNL A   1      41.981  25.605  28.564  1.00  0.00    -0.248 NA
ATOM     39  C   UNL A   1      40.968  26.554  26.712  1.00  0.00     0.031 C 
ATOM     40  C   UNL A   1      42.068  30.198  29.641  1.00  0.00     0.029 A 
ATOM     41  N   UNL A   1      43.548  28.616  29.193  1.00  0.00    -0.354 N 
ATOM     42  C   UNL A   1      42.074  24.721  27.486  1.00  0.00     0.074 A 
ATOM     43  C   UNL A   1      41.288  25.290  26.427  1.00  0.00     0.031 C 
ATOM     44  C   UNL A   1      43.272  30.803  29.575  1.00  0.00     0.029 A 
ATOM     45  C   UNL A   1      44.276  29.798  29.284  1.00  0.00     0.049 A 
ATOM     46  H   UNL A   1      43.970  27.730  29.119  1.00  0.00     0.167 HD
ATOM     47  C   UNL A   1      43.020  23.741  27.469  1.00  0.00     0.037 A 
ATOM     48  C   UNL A   1      45.609  29.957  29.108  1.00  0.00     0.037 A 
ATOM     49  C   UNL A   1      43.579  23.559  28.783  1.00  0.00     0.049 A 
ATOM     50  C   UNL A   1      46.237  28.630  29.287  1.00  0.00     0.074 A 
ATOM     51  C   UNL A   1      43.176  23.012  29.979  1.00  0.00     0.029 A 
ATOM     52  N   UNL A   1      44.652  24.367  29.040  1.00  0.00    -0.354 N 
ATOM     53  N   UNL A   1      46.260  27.991  30.424  1.00  0.00    -0.248 NA
ATOM     54  C   UNL A   1      46.550  27.827  28.112  1.00  0.00     0.031 C 
ATOM     55  C   UNL A   1      43.904  23.707  30.990  1.00  0.00     0.029 A 
ATOM     56  C   UNL A   1      44.758  24.625  30.377  1.00  0.00     0.049 A 
ATOM     57  H   UNL A   1      45.267  24.715  28.354  1.00  0.00     0.167 HD
ATOM     58  C   UNL A   1      46.153  26.662  30.069  1.00  0.00     0.074 A 
ATOM     59  C   UNL A   1      46.525  26.610  28.661  1.00  0.00     0.031 C 
ATOM     60  C   UNL A   1      45.459  25.793  30.860  1.00  0.00     0.037 A 
BRANCH  47  61
ATOM     61  C   UNL A   1      43.811  23.306  26.245  1.00  0.00     0.064 A 
ATOM     62  C   UNL A   1      43.826  21.935  25.896  1.00  0.00     0.173 A 
ATOM     63  C   UNL A   1      44.813  24.090  25.634  1.00  0.00     0.173 A 
ATOM     64  F   UNL A   1      42.930  21.086  26.424  1.00  0.00    -0.203 F 
ATOM     65  C   UNL A   1      44.821  21.385  25.080  1.00  0.00     0.198 A 
ATOM     66  C   UNL A   1      45.773  23.545  24.780  1.00  0.00     0.198 A 
ATOM     67  F   UNL A   1      44.982  25.384  25.922  1.00  0.00    -0.203 F 
ATOM     68  F   UNL A   1      44.870  20.060  24.888  1.00  0.00    -0.200 F 
ATOM     69  C   UNL A   1      45.800  22.191  24.530  1.00  0.00     0.200 A 
ATOM     70  F   UNL A   1      46.728  24.339  24.274  1.00  0.00    -0.200 F 
ATOM     71  F   UNL A   1      46.792  21.659  23.804  1.00  0.00    -0.200 F 
ENDBRANCH  47  61
BRANCH  48  72
ATOM     72  C   UNL A   1      46.356  31.125  28.586  1.00  0.00     0.064 A 
ATOM     73  C   UNL A   1      46.007  31.726  27.366  1.00  0.00     0.173 A 
ATOM     74  C   UNL A   1      47.246  31.844  29.408  1.00  0.00     0.173 A 
ATOM     75  F   UNL A   1      45.138  31.123  26.541  1.00  0.00    -0.203 F 
ATOM     76  C   UNL A   1      46.488  32.990  27.007  1.00  0.00     0.198 A 
ATOM     77  C   UNL A   1      47.730  33.101  29.045  1.00  0.00     0.198 A 
ATOM     78  F   UNL A   1      47.587  31.382  30.620  1.00  0.00    -0.203 F 
ATOM     79  F   UNL A   1      46.079  33.561  25.865  1.00  0.00    -0.200 F 
ATOM     80  C   UNL A   1      47.338  33.682  27.853  1.00  0.00     0.200 A 
ATOM     81  F   UNL A   1      48.527  33.775  29.888  1.00  0.00    -0.200 F 
ATOM     82  F   UNL A   1      47.745  34.920  27.541  1.00  0.00    -0.200 F 
ENDBRANCH  48  72
BRANCH  60  83
ATOM     83  C   UNL A   1      45.262  26.177  32.294  1.00  0.00     0.064 A 
ATOM     84  C   UNL A   1      44.124  26.829  32.796  1.00  0.00     0.173 A 
ATOM     85  C   UNL A   1      46.241  25.780  33.214  1.00  0.00     0.173 A 
ATOM     86  F   UNL A   1      43.109  27.164  31.993  1.00  0.00    -0.203 F 
ATOM     87  C   UNL A   1      43.997  27.106  34.156  1.00  0.00     0.198 A 
ATOM     88  C   UNL A   1      46.094  26.023  34.574  1.00  0.00     0.198 A 
ATOM     89  F   UNL A   1      47.327  25.114  32.792  1.00  0.00    -0.203 F 
ATOM     90  F   UNL A   1      42.910  27.748  34.611  1.00  0.00    -0.200 F 
ATOM     91  C   UNL A   1      44.977  26.696  35.043  1.00  0.00     0.200 A 
ATOM     92  F   UNL A   1      47.024  25.584  35.432  1.00  0.00    -0.200 F 
ATOM     93  F   UNL A   1      44.838  26.930  36.356  1.00  0.00    -0.200 F 
ENDBRANCH  60  83
ENDBRANCH  34  35
ENDBRANCH  26  29
ENDBRANCH  24  25
ENDBRANCH   1  24
TORSDOF 12
ENDMDL
MODEL 2
REMARK VINA RESULT:     -12.6      1.739      2.484
REMARK SMILES Cc1oc2c(c1C(=O)NCCCCNC(=O)c1ccc(-c3c4nc(c(-c5c(F)c(F)c(F)c(F)c5F)c5ccc([nH]5)c(-c5c(F)c(F)c(F)c(F)c5F)c5nc(c(-c6c(F)c(F)c(F)c(F)c6F)c6ccc3[nH]6)C=C5)C=C4)cc1)C(=O)C[C@H](c1ccco1)C2
REMARK SMILES IDX 12 1 11 2 10 3 9 4 7 5 8 6 6 8 1 9 2 10 3 11 4 12 5 13 89 14
REMARK SMILES IDX 80 15 83 16 81 17 82 18 84 19 85 20 88 21 86 22 87 23 13 24
REMARK SMILES IDX 14 25 15 26 16 28 17 29 18 30 79 31 19 32 78 33 20 34 21 35
REMARK SMILES IDX 22 36 72 37 23 38 77 39 71 40 73 41 24 42 76 43 70 44 69 45
REMARK SMILES IDX 25 47 57 48 37 49 56 50 38 51 41 52 55 53 74 54 39 55 40 56
REMARK SMILES IDX 54 58 75 59 42 60 26 61 27 62 35 63 28 64 29 65 33 66 36 67
REMARK SMILES IDX 30 68 31 69 34 70 32 71 58 72 59 73 67 74 60 75 61 76 65 77
REMARK SMILES IDX 68 78 62 79 63 80 66 81 64 82 43 83 44 84 52 85 45 86 46 87
REMARK SMILES IDX 50 88 53 89 47 90 48 91 51 92 49 93
REMARK H PARENT 9 7 14 27 73 46 41 57
REMARK Flexibility Score: inf
ROOT
ATOM      1  C   UNL A   1      33.590  28.954  26.201  1.00  0.00     0.023 C 
ENDROOT
BRANCH   1   2
ATOM      2  C   UNL A   1      32.780  27.673  25.948  1.00  0.00     0.023 C 
BRANCH   2   3
ATOM      3  C   UNL A   1      33.611  26.389  25.864  1.00  0.00     0.116 C 
BRANCH   3   4
ATOM      4  N   UNL A   1      33.829  25.972  24.502  1.00  0.00    -0.352 N 
ATOM      5  C   UNL A   1      34.279  24.847  23.866  1.00  0.00     0.255 C 
ATOM      6  O   UNL A   1      34.200  24.953  22.641  1.00  0.00    -0.269 OA
ATOM      7  H   UNL A   1      33.593  26.683  23.862  1.00  0.00     0.163 HD
BRANCH   5   8
ATOM      8  C   UNL A   1      34.801  23.620  24.487  1.00  0.00     0.092 A 
ATOM      9  C   UNL A   1      37.153  24.043  25.749  1.00  0.00     0.088 C 
ATOM     10  C   UNL A   1      35.956  23.345  25.235  1.00  0.00     0.114 A 
ATOM     11  O   UNL A   1      36.003  22.029  25.594  1.00  0.00    -0.465 OA
ATOM     12  C   UNL A   1      34.925  21.433  25.082  1.00  0.00     0.116 A 
ATOM     13  C   UNL A   1      34.134  22.319  24.398  1.00  0.00     0.072 A 
ATOM     14  C   UNL A   1      34.752  19.984  25.304  1.00  0.00     0.088 C 
ATOM     15  C   UNL A   1      32.915  21.794  23.775  1.00  0.00     0.167 C 
ATOM     16  C   UNL A   1      33.770  19.438  24.245  1.00  0.00     0.071 C 
ATOM     17  O   UNL A   1      32.184  22.435  23.026  1.00  0.00    -0.294 OA
ATOM     18  C   UNL A   1      32.533  20.353  24.146  1.00  0.00     0.093 C 
BRANCH  16  19
ATOM     19  C   UNL A   1      33.400  18.012  24.517  1.00  0.00     0.107 A 
ATOM     20  C   UNL A   1      33.564  16.835  23.813  1.00  0.00     0.046 A 
ATOM     21  O   UNL A   1      32.820  17.743  25.724  1.00  0.00    -0.469 OA
ATOM     22  C   UNL A   1      33.057  15.800  24.636  1.00  0.00     0.042 A 
ATOM     23  C   UNL A   1      32.618  16.404  25.789  1.00  0.00     0.195 A 
ENDBRANCH  16  19
ENDBRANCH   5   8
ENDBRANCH   3   4
ENDBRANCH   2   3
ENDBRANCH   1   2
BRANCH   1  24
ATOM     24  C   UNL A   1      34.727  28.799  27.210  1.00  0.00     0.116 C 
BRANCH  24  25
ATOM     25  N   UNL A   1      34.944  29.997  28.019  1.00  0.00    -0.352 N 
ATOM     26  C   UNL A   1      35.992  30.251  28.888  1.00  0.00     0.251 C 
ATOM     27  H   UNL A   1      34.267  30.706  27.936  1.00  0.00     0.163 HD
ATOM     28  O   UNL A   1      35.897  31.067  29.785  1.00  0.00    -0.269 OA
BRANCH  26  29
ATOM     29  C   UNL A   1      37.248  29.511  28.684  1.00  0.00     0.039 A 
ATOM     30  C   UNL A   1      38.054  29.748  27.567  1.00  0.00     0.014 A 
ATOM     31  C   UNL A   1      37.633  28.618  29.680  1.00  0.00     0.014 A 
ATOM     32  C   UNL A   1      39.309  29.147  27.507  1.00  0.00     0.010 A 
ATOM     33  C   UNL A   1      38.912  28.120  29.676  1.00  0.00     0.010 A 
ATOM     34  C   UNL A   1      39.745  28.354  28.579  1.00  0.00    -0.014 A 
BRANCH  34  35
ATOM     35  C   UNL A   1      41.136  27.903  28.656  1.00  0.00     0.031 A 
ATOM     36  C   UNL A   1      41.408  26.605  27.965  1.00  0.00     0.074 A 
ATOM     37  C   UNL A   1      42.126  28.729  29.066  1.00  0.00     0.049 A 
ATOM     38  N   UNL A   1      41.923  25.528  28.458  1.00  0.00    -0.248 NA
ATOM     39  C   UNL A   1      40.956  26.449  26.569  1.00  0.00     0.031 C 
ATOM     40  C   UNL A   1      41.991  30.137  29.465  1.00  0.00     0.029 A 
ATOM     41  N   UNL A   1      43.479  28.547  29.078  1.00  0.00    -0.354 N 
ATOM     42  C   UNL A   1      42.041  24.628  27.397  1.00  0.00     0.074 A 
ATOM     43  C   UNL A   1      41.281  25.181  26.311  1.00  0.00     0.031 C 
ATOM     44  C   UNL A   1      43.196  30.740  29.419  1.00  0.00     0.029 A 
ATOM     45  C   UNL A   1      44.206  29.730  29.168  1.00  0.00     0.049 A 
ATOM     46  H   UNL A   1      43.901  27.660  29.028  1.00  0.00     0.167 HD
ATOM     47  C   UNL A   1      42.986  23.646  27.418  1.00  0.00     0.037 A 
ATOM     48  C   UNL A   1      45.543  29.885  29.022  1.00  0.00     0.037 A 
ATOM     49  C   UNL A   1      43.513  23.484  28.747  1.00  0.00     0.049 A 
ATOM     50  C   UNL A   1      46.165  28.560  29.236  1.00  0.00     0.074 A 
ATOM     51  C   UNL A   1      43.082  22.956  29.941  1.00  0.00     0.029 A 
ATOM     52  N   UNL A   1      44.581  24.295  29.017  1.00  0.00    -0.354 N 
ATOM     53  N   UNL A   1      46.160  27.939  30.382  1.00  0.00    -0.248 NA
ATOM     54  C   UNL A   1      46.505  27.739  28.081  1.00  0.00     0.031 C 
ATOM     55  C   UNL A   1      43.786  23.667  30.959  1.00  0.00     0.029 A 
ATOM     56  C   UNL A   1      44.655  24.574  30.352  1.00  0.00     0.049 A 
ATOM     57  H   UNL A   1      45.212  24.633  28.340  1.00  0.00     0.167 HD
ATOM     58  C   UNL A   1      46.059  26.605  30.046  1.00  0.00     0.074 A 
ATOM     59  C   UNL A   1      46.465  26.530  28.648  1.00  0.00     0.031 C 
ATOM     60  C   UNL A   1      45.346  25.749  30.833  1.00  0.00     0.037 A 
BRANCH  47  61
ATOM     61  C   UNL A   1      43.806  23.192  26.219  1.00  0.00     0.064 A 
ATOM     62  C   UNL A   1      43.822  21.817  25.888  1.00  0.00     0.173 A 
ATOM     63  C   UNL A   1      44.827  23.963  25.624  1.00  0.00     0.173 A 
ATOM     64  F   UNL A   1      42.908  20.979  26.403  1.00  0.00    -0.203 F 
ATOM     65  C   UNL A   1      44.834  21.251  25.105  1.00  0.00     0.198 A 
ATOM     66  C   UNL A   1      45.805  23.402  24.802  1.00  0.00     0.198 A 
ATOM     67  F   UNL A   1      44.996  25.260  25.901  1.00  0.00    -0.203 F 
ATOM     68  F   UNL A   1      44.880  19.924  24.931  1.00  0.00    -0.200 F 
ATOM     69  C   UNL A   1      45.831  22.044  24.570  1.00  0.00     0.200 A 
ATOM     70  F   UNL A   1      46.778  24.185  24.311  1.00  0.00    -0.200 F 
ATOM     71  F   UNL A   1      46.839  21.499  23.876  1.00  0.00    -0.200 F 
ENDBRANCH  47  61
BRANCH  48  72
ATOM     72  C   UNL A   1      46.303  31.044  28.499  1.00  0.00     0.064 A 
ATOM     73  C   UNL A   1      45.974  31.636  27.269  1.00  0.00     0.173 A 
ATOM     74  C   UNL A   1      47.186  31.765  29.327  1.00  0.00     0.173 A 
ATOM     75  F   UNL A   1      45.114  31.030  26.438  1.00  0.00    -0.203 F 
ATOM     76  C   UNL A   1      46.467  32.894  26.905  1.00  0.00     0.198 A 
ATOM     77  C   UNL A   1      47.682  33.017  28.960  1.00  0.00     0.198 A 
ATOM     78  F   UNL A   1      47.507  31.313  30.547  1.00  0.00    -0.203 F 
ATOM     79  F   UNL A   1      46.077  33.457  25.753  1.00  0.00    -0.200 F 
ATOM     80  C   UNL A   1      47.310  33.589  27.757  1.00  0.00     0.200 A 
ATOM     81  F   UNL A   1      48.471  33.694  29.807  1.00  0.00    -0.200 F 
ATOM     82  F   UNL A   1      47.728  34.822  27.439  1.00  0.00    -0.200 F 
ENDBRANCH  48  72
BRANCH  60  83
ATOM     83  C   UNL A   1      45.116  26.155  32.256  1.00  0.00     0.064 A 
ATOM     84  C   UNL A   1      43.980  26.842  32.716  1.00  0.00     0.173 A 
ATOM     85  C   UNL A   1      46.055  25.745  33.210  1.00  0.00     0.173 A 
ATOM     86  F   UNL A   1      42.999  27.194  31.877  1.00  0.00    -0.203 F 
ATOM     87  C   UNL A   1      43.819  27.139  34.067  1.00  0.00     0.198 A 
ATOM     88  C   UNL A   1      45.873  26.008  34.562  1.00  0.00     0.198 A 
ATOM     89  F   UNL A   1      47.136  25.045  32.829  1.00  0.00    -0.203 F 
ATOM     90  F   UNL A   1      42.736  27.814  34.482  1.00  0.00    -0.200 F 
ATOM     91  C   UNL A   1      44.760  26.715  34.989  1.00  0.00     0.200 A 
ATOM     92  F   UNL A   1      46.764  25.555  35.453  1.00  0.00    -0.200 F 
ATOM     93  F   UNL A   1      44.587  26.968  36.294  1.00  0.00    -0.200 F 
ENDBRANCH  60  83
ENDBRANCH  34  35
ENDBRANCH  26  29
ENDBRANCH  24  25
ENDBRANCH   1  24
TORSDOF 12
ENDMDL
MODEL 3
REMARK VINA RESULT:     -12.6      3.645      7.809
REMARK SMILES Cc1oc2c(c1C(=O)NCCCCNC(=O)c1ccc(-c3c4nc(c(-c5c(F)c(F)c(F)c(F)c5F)c5ccc([nH]5)c(-c5c(F)c(F)c(F)c(F)c5F)c5nc(c(-c6c(F)c(F)c(F)c(F)c6F)c6ccc3[nH]6)C=C5)C=C4)cc1)C(=O)C[C@H](c1ccco1)C2
REMARK SMILES IDX 12 1 11 2 10 3 9 4 7 5 8 6 6 8 1 9 2 10 3 11 4 12 5 13 89 14
REMARK SMILES IDX 80 15 83 16 81 17 82 18 84 19 85 20 88 21 86 22 87 23 13 24
REMARK SMILES IDX 14 25 15 26 16 28 17 29 18 30 79 31 19 32 78 33 20 34 21 35
REMARK SMILES IDX 22 36 72 37 23 38 77 39 71 40 73 41 24 42 76 43 70 44 69 45
REMARK SMILES IDX 25 47 57 48 37 49 56 50 38 51 41 52 55 53 74 54 39 55 40 56
REMARK SMILES IDX 54 58 75 59 42 60 26 61 27 62 35 63 28 64 29 65 33 66 36 67
REMARK SMILES IDX 30 68 31 69 34 70 32 71 58 72 59 73 67 74 60 75 61 76 65 77
REMARK SMILES IDX 68 78 62 79 63 80 66 81 64 82 43 83 44 84 52 85 45 86 46 87
REMARK SMILES IDX 50 88 53 89 47 90 48 91 51 92 49 93
REMARK H PARENT 9 7 14 27 73 46 41 57
REMARK Flexibility Score: inf
ROOT
ATOM      1  C   UNL A   1      36.805  22.411  25.638  1.00  0.00     0.023 C 
ENDROOT
BRANCH   1   2
ATOM      2  C   UNL A   1      36.865  22.139  24.127  1.00  0.00     0.023 C 
BRANCH   2   3
ATOM      3  C   UNL A   1      36.091  23.138  23.260  1.00  0.00     0.116 C 
BRANCH   3   4
ATOM      4  N   UNL A   1      34.746  22.696  22.992  1.00  0.00    -0.352 N 
ATOM      5  C   UNL A   1      33.549  23.283  22.690  1.00  0.00     0.255 C 
ATOM      6  O   UNL A   1      32.675  22.445  22.458  1.00  0.00    -0.269 OA
ATOM      7  H   UNL A   1      34.670  21.715  23.038  1.00  0.00     0.163 HD
BRANCH   5   8
ATOM      8  C   UNL A   1      33.253  24.723  22.621  1.00  0.00     0.092 A 
ATOM      9  C   UNL A   1      32.604  25.507  20.118  1.00  0.00     0.088 C 
ATOM     10  C   UNL A   1      32.875  25.572  21.569  1.00  0.00     0.114 A 
ATOM     11  O   UNL A   1      32.717  26.853  22.009  1.00  0.00    -0.465 OA
ATOM     12  C   UNL A   1      33.004  26.871  23.311  1.00  0.00     0.116 A 
ATOM     13  C   UNL A   1      33.336  25.623  23.773  1.00  0.00     0.072 A 
ATOM     14  C   UNL A   1      32.938  28.160  24.028  1.00  0.00     0.088 C 
ATOM     15  C   UNL A   1      33.683  25.499  25.192  1.00  0.00     0.167 C 
ATOM     16  C   UNL A   1      33.766  28.044  25.325  1.00  0.00     0.071 C 
ATOM     17  O   UNL A   1      34.124  24.480  25.714  1.00  0.00    -0.294 OA
ATOM     18  C   UNL A   1      33.418  26.736  26.063  1.00  0.00     0.093 C 
BRANCH  16  19
ATOM     19  C   UNL A   1      33.597  29.250  26.198  1.00  0.00     0.107 A 
ATOM     20  C   UNL A   1      34.387  29.846  27.162  1.00  0.00     0.046 A 
ATOM     21  O   UNL A   1      32.465  29.992  26.016  1.00  0.00    -0.469 OA
ATOM     22  C   UNL A   1      33.698  31.008  27.585  1.00  0.00     0.042 A 
ATOM     23  C   UNL A   1      32.535  31.053  26.857  1.00  0.00     0.195 A 
ENDBRANCH  16  19
ENDBRANCH   5   8
ENDBRANCH   3   4
ENDBRANCH   2   3
ENDBRANCH   1   2
BRANCH   1  24
ATOM     24  C   UNL A   1      38.058  23.064  26.218  1.00  0.00     0.116 C 
BRANCH  24  25
ATOM     25  N   UNL A   1      39.159  22.123  26.413  1.00  0.00    -0.352 N 
ATOM     26  C   UNL A   1      40.511  22.411  26.503  1.00  0.00     0.251 C 
ATOM     27  H   UNL A   1      38.912  21.174  26.490  1.00  0.00     0.163 HD
ATOM     28  O   UNL A   1      41.361  21.571  26.276  1.00  0.00    -0.269 OA
BRANCH  26  29
ATOM     29  C   UNL A   1      40.897  23.774  26.904  1.00  0.00     0.039 A 
ATOM     30  C   UNL A   1      40.310  24.896  26.313  1.00  0.00     0.014 A 
ATOM     31  C   UNL A   1      41.815  23.898  27.943  1.00  0.00     0.014 A 
ATOM     32  C   UNL A   1      40.584  26.153  26.844  1.00  0.00     0.010 A 
ATOM     33  C   UNL A   1      41.994  25.123  28.537  1.00  0.00     0.010 A 
ATOM     34  C   UNL A   1      41.406  26.259  27.976  1.00  0.00    -0.014 A 
BRANCH  34  35
ATOM     35  C   UNL A   1      41.526  27.528  28.696  1.00  0.00     0.031 A 
ATOM     36  C   UNL A   1      42.701  28.362  28.296  1.00  0.00     0.074 A 
ATOM     37  C   UNL A   1      40.508  28.018  29.440  1.00  0.00     0.049 A 
ATOM     38  N   UNL A   1      43.646  28.825  29.046  1.00  0.00    -0.248 NA
ATOM     39  C   UNL A   1      42.910  28.632  26.860  1.00  0.00     0.031 C 
ATOM     40  C   UNL A   1      39.183  27.410  29.631  1.00  0.00     0.029 A 
ATOM     41  N   UNL A   1      40.372  29.224  30.065  1.00  0.00    -0.354 N 
ATOM     42  C   UNL A   1      44.458  29.604  28.218  1.00  0.00     0.074 A 
ATOM     43  C   UNL A   1      44.059  29.310  26.869  1.00  0.00     0.031 C 
ATOM     44  C   UNL A   1      38.316  28.340  30.080  1.00  0.00     0.029 A 
ATOM     45  C   UNL A   1      39.056  29.551  30.379  1.00  0.00     0.049 A 
ATOM     46  H   UNL A   1      41.135  29.809  30.273  1.00  0.00     0.167 HD
ATOM     47  C   UNL A   1      45.195  30.630  28.729  1.00  0.00     0.037 A 
ATOM     48  C   UNL A   1      38.591  30.740  30.831  1.00  0.00     0.037 A 
ATOM     49  C   UNL A   1      45.275  30.525  30.162  1.00  0.00     0.049 A 
ATOM     50  C   UNL A   1      39.742  31.476  31.397  1.00  0.00     0.074 A 
ATOM     51  C   UNL A   1      45.928  29.732  31.077  1.00  0.00     0.029 A 
ATOM     52  N   UNL A   1      44.248  31.149  30.817  1.00  0.00    -0.354 N 
ATOM     53  N   UNL A   1      40.386  31.094  32.465  1.00  0.00    -0.248 NA
ATOM     54  C   UNL A   1      40.423  32.471  30.578  1.00  0.00     0.031 C 
ATOM     55  C   UNL A   1      45.109  29.728  32.245  1.00  0.00     0.029 A 
ATOM     56  C   UNL A   1      44.006  30.551  32.021  1.00  0.00     0.049 A 
ATOM     57  H   UNL A   1      43.751  31.924  30.468  1.00  0.00     0.167 HD
ATOM     58  C   UNL A   1      41.695  31.454  32.220  1.00  0.00     0.074 A 
ATOM     59  C   UNL A   1      41.627  32.449  31.157  1.00  0.00     0.031 C 
ATOM     60  C   UNL A   1      42.719  30.673  32.669  1.00  0.00     0.037 A 
BRANCH  47  61
ATOM     61  C   UNL A   1      45.406  31.978  28.057  1.00  0.00     0.064 A 
ATOM     62  C   UNL A   1      44.272  32.742  27.694  1.00  0.00     0.173 A 
ATOM     63  C   UNL A   1      46.615  32.374  27.447  1.00  0.00     0.173 A 
ATOM     64  F   UNL A   1      43.063  32.452  28.199  1.00  0.00    -0.203 F 
ATOM     65  C   UNL A   1      44.333  33.753  26.729  1.00  0.00     0.198 A 
ATOM     66  C   UNL A   1      46.680  33.417  26.522  1.00  0.00     0.198 A 
ATOM     67  F   UNL A   1      47.758  31.703  27.623  1.00  0.00    -0.203 F 
ATOM     68  F   UNL A   1      43.208  34.356  26.322  1.00  0.00    -0.200 F 
ATOM     69  C   UNL A   1      45.537  34.083  26.136  1.00  0.00     0.200 A 
ATOM     70  F   UNL A   1      47.853  33.708  25.941  1.00  0.00    -0.200 F 
ATOM     71  F   UNL A   1      45.589  35.003  25.164  1.00  0.00    -0.200 F 
ENDBRANCH  47  61
BRANCH  48  72
ATOM     72  C   UNL A   1      37.271  31.375  30.615  1.00  0.00     0.064 A 
ATOM     73  C   UNL A   1      36.335  31.483  31.657  1.00  0.00     0.173 A 
ATOM     74  C   UNL A   1      37.012  32.137  29.458  1.00  0.00     0.173 A 
ATOM     75  F   UNL A   1      36.526  30.818  32.805  1.00  0.00    -0.203 F 
ATOM     76  C   UNL A   1      35.228  32.333  31.563  1.00  0.00     0.198 A 
ATOM     77  C   UNL A   1      35.903  32.979  29.364  1.00  0.00     0.198 A 
ATOM     78  F   UNL A   1      37.881  32.150  28.437  1.00  0.00    -0.203 F 
ATOM     79  F   UNL A   1      34.393  32.461  32.604  1.00  0.00    -0.200 F 
ATOM     80  C   UNL A   1      35.020  33.090  30.422  1.00  0.00     0.200 A 
ATOM     81  F   UNL A   1      35.732  33.731  28.267  1.00  0.00    -0.200 F 
ATOM     82  F   UNL A   1      33.998  33.955  30.359  1.00  0.00    -0.200 F 
ENDBRANCH  48  72
BRANCH  60  83
ATOM     83  C   UNL A   1      42.426  29.745  33.807  1.00  0.00     0.064 A 
ATOM     84  C   UNL A   1      41.950  28.431  33.663  1.00  0.00     0.173 A 
ATOM     85  C   UNL A   1      42.730  30.185  35.102  1.00  0.00     0.173 A 
ATOM     86  F   UNL A   1      41.715  27.910  32.454  1.00  0.00    -0.203 F 
ATOM     87  C   UNL A   1      41.750  27.614  34.774  1.00  0.00     0.198 A 
ATOM     88  C   UNL A   1      42.567  29.354  36.204  1.00  0.00     0.198 A 
ATOM     89  F   UNL A   1      43.232  31.416  35.290  1.00  0.00    -0.203 F 
ATOM     90  F   UNL A   1      41.275  26.369  34.614  1.00  0.00    -0.200 F 
ATOM     91  C   UNL A   1      42.065  28.073  36.041  1.00  0.00     0.200 A 
ATOM     92  F   UNL A   1      42.918  29.789  37.421  1.00  0.00    -0.200 F 
ATOM     93  F   UNL A   1      41.908  27.274  37.106  1.00  0.00    -0.200 F 
ENDBRANCH  60  83
ENDBRANCH  34  35
ENDBRANCH  26  29
ENDBRANCH  24  25
ENDBRANCH   1  24
TORSDOF 12
ENDMDL
