MODEL 1
REMARK VINA RESULT:     -12.4      0.000      0.000
REMARK SMILES CC[C@](C)(NC(=O)c1cccc2ncccc12)C(=O)NCCCCNC(=O)c1ccc(-c2c3nc(c(-c4c(F)c(F)c(F)c(F)c4F)c4ccc([nH]4)c(-c4c(F)c(F)c(F)c(F)c4F)c4nc(c(-c5c(F)c(F)c(F)c(F)c5F)c5ccc2[nH]5)C=C4)C=C3)cc1
REMARK SMILES IDX 22 1 21 2 20 3 18 4 19 5 3 7 4 8 2 9 1 10 5 11 6 12 7 14
REMARK SMILES IDX 8 15 9 16 17 17 10 18 12 19 16 20 11 21 13 22 15 23 14 24
REMARK SMILES IDX 23 25 24 26 25 27 26 28 27 30 28 31 29 32 90 33 30 34 89 35
REMARK SMILES IDX 31 36 32 37 33 38 83 39 34 40 88 41 82 42 84 43 35 44 87 45
REMARK SMILES IDX 81 46 80 47 36 49 68 50 48 51 67 52 49 53 52 54 66 55 85 56
REMARK SMILES IDX 50 57 51 58 65 60 86 61 53 62 37 63 38 64 46 65 39 66 40 67
REMARK SMILES IDX 44 68 47 69 41 70 42 71 45 72 43 73 69 74 70 75 78 76 71 77
REMARK SMILES IDX 72 78 76 79 79 80 73 81 74 82 77 83 75 84 54 85 55 86 63 87
REMARK SMILES IDX 56 88 57 89 61 90 64 91 58 92 59 93 62 94 60 95
REMARK H PARENT 20 6 5 13 25 29 84 48 52 59
REMARK Flexibility Score: inf
ROOT
ATOM      1  C   UNL A   1      31.263  30.676  25.538  1.00  0.00     0.023 C 
ENDROOT
BRANCH   1   2
ATOM      2  C   UNL A   1      32.523  29.805  25.572  1.00  0.00     0.116 C 
BRANCH   2   3
ATOM      3  N   UNL A   1      33.262  29.617  24.333  1.00  0.00    -0.354 N 
ATOM      4  C   UNL A   1      33.405  28.562  23.466  1.00  0.00     0.245 C 
ATOM      5  O   UNL A   1      34.004  28.810  22.413  1.00  0.00    -0.272 OA
ATOM      6  H   UNL A   1      33.766  30.417  24.056  1.00  0.00     0.163 HD
BRANCH   4   7
ATOM      7  C   UNL A   1      32.803  27.155  23.742  1.00  0.00     0.116 C 
ATOM      8  C   UNL A   1      31.375  27.203  24.325  1.00  0.00     0.045 C 
BRANCH   7   9
ATOM      9  C   UNL A   1      33.731  26.548  24.858  1.00  0.00     0.035 C 
ATOM     10  C   UNL A   1      33.003  26.171  26.156  1.00  0.00     0.007 C 
ENDBRANCH   7   9
BRANCH   7  11
ATOM     11  N   UNL A   1      32.774  26.258  22.544  1.00  0.00    -0.338 N 
ATOM     12  C   UNL A   1      33.059  24.915  22.297  1.00  0.00     0.252 C 
ATOM     13  H   UNL A   1      32.481  26.732  21.732  1.00  0.00     0.164 HD
ATOM     14  O   UNL A   1      33.279  24.657  21.110  1.00  0.00    -0.269 OA
BRANCH  12  15
ATOM     15  C   UNL A   1      33.029  23.775  23.301  1.00  0.00     0.049 A 
ATOM     16  C   UNL A   1      31.806  23.224  23.667  1.00  0.00     0.014 A 
ATOM     17  C   UNL A   1      34.196  23.068  23.748  1.00  0.00     0.013 A 
ATOM     18  C   UNL A   1      31.656  22.128  24.503  1.00  0.00     0.003 A 
ATOM     19  C   UNL A   1      34.036  21.915  24.577  1.00  0.00     0.071 A 
ATOM     20  C   UNL A   1      35.539  23.360  23.414  1.00  0.00     0.013 A 
ATOM     21  C   UNL A   1      32.784  21.490  24.962  1.00  0.00     0.029 A 
ATOM     22  N   UNL A   1      35.039  21.141  25.007  1.00  0.00    -0.256 NA
ATOM     23  C   UNL A   1      36.587  22.541  23.839  1.00  0.00     0.021 A 
ATOM     24  C   UNL A   1      36.288  21.451  24.623  1.00  0.00     0.112 A 
ENDBRANCH  12  15
ENDBRANCH   7  11
ENDBRANCH   4   7
ENDBRANCH   2   3
ENDBRANCH   1   2
BRANCH   1  25
ATOM     25  C   UNL A   1      31.178  31.882  26.470  1.00  0.00     0.023 C 
BRANCH  25  26
ATOM     26  C   UNL A   1      32.499  32.441  26.957  1.00  0.00     0.116 C 
BRANCH  26  27
ATOM     27  N   UNL A   1      32.385  33.827  27.371  1.00  0.00    -0.352 N 
ATOM     28  C   UNL A   1      33.055  34.484  28.372  1.00  0.00     0.251 C 
ATOM     29  H   UNL A   1      31.738  34.369  26.865  1.00  0.00     0.163 HD
ATOM     30  O   UNL A   1      32.692  35.600  28.724  1.00  0.00    -0.269 OA
BRANCH  28  31
ATOM     31  C   UNL A   1      34.209  33.836  29.040  1.00  0.00     0.039 A 
ATOM     32  C   UNL A   1      35.493  34.322  28.785  1.00  0.00     0.014 A 
ATOM     33  C   UNL A   1      34.029  32.745  29.895  1.00  0.00     0.014 A 
ATOM     34  C   UNL A   1      36.593  33.737  29.416  1.00  0.00     0.010 A 
ATOM     35  C   UNL A   1      35.115  32.218  30.587  1.00  0.00     0.010 A 
ATOM     36  C   UNL A   1      36.410  32.695  30.339  1.00  0.00    -0.014 A 
BRANCH  36  37
ATOM     37  C   UNL A   1      37.565  32.066  31.028  1.00  0.00     0.031 A 
ATOM     38  C   UNL A   1      38.360  30.994  30.333  1.00  0.00     0.074 A 
ATOM     39  C   UNL A   1      37.863  32.418  32.293  1.00  0.00     0.049 A 
ATOM     40  N   UNL A   1      39.357  30.276  30.783  1.00  0.00    -0.248 NA
ATOM     41  C   UNL A   1      37.961  30.665  28.955  1.00  0.00     0.031 C 
ATOM     42  C   UNL A   1      37.138  33.408  33.088  1.00  0.00     0.029 A 
ATOM     43  N   UNL A   1      38.850  31.973  33.135  1.00  0.00    -0.354 N 
ATOM     44  C   UNL A   1      39.692  29.407  29.754  1.00  0.00     0.074 A 
ATOM     45  C   UNL A   1      38.755  29.642  28.678  1.00  0.00     0.031 C 
ATOM     46  C   UNL A   1      37.714  33.511  34.296  1.00  0.00     0.029 A 
ATOM     47  C   UNL A   1      38.826  32.568  34.374  1.00  0.00     0.049 A 
ATOM     48  H   UNL A   1      39.512  31.292  32.879  1.00  0.00     0.167 HD
ATOM     49  C   UNL A   1      40.708  28.512  29.700  1.00  0.00     0.037 A 
ATOM     50  C   UNL A   1      39.607  32.367  35.452  1.00  0.00     0.037 A 
ATOM     51  C   UNL A   1      41.652  28.298  30.764  1.00  0.00     0.049 A 
ATOM     52  C   UNL A   1      40.726  31.363  35.368  1.00  0.00     0.074 A 
ATOM     53  C   UNL A   1      42.747  27.454  30.791  1.00  0.00     0.029 A 
ATOM     54  N   UNL A   1      41.609  28.937  31.995  1.00  0.00    -0.354 N 
ATOM     55  N   UNL A   1      41.075  30.594  34.365  1.00  0.00    -0.248 NA
ATOM     56  C   UNL A   1      41.565  31.206  36.564  1.00  0.00     0.031 C 
ATOM     57  C   UNL A   1      43.339  27.546  32.054  1.00  0.00     0.029 A 
ATOM     58  C   UNL A   1      42.647  28.489  32.796  1.00  0.00     0.049 A 
ATOM     59  H   UNL A   1      40.939  29.608  32.260  1.00  0.00     0.167 HD
ATOM     60  C   UNL A   1      42.188  29.884  34.797  1.00  0.00     0.074 A 
ATOM     61  C   UNL A   1      42.466  30.327  36.147  1.00  0.00     0.031 C 
ATOM     62  C   UNL A   1      42.913  28.949  34.136  1.00  0.00     0.037 A 
BRANCH  49  63
ATOM     63  C   UNL A   1      40.854  27.702  28.443  1.00  0.00     0.064 A 
ATOM     64  C   UNL A   1      41.643  28.144  27.370  1.00  0.00     0.173 A 
ATOM     65  C   UNL A   1      40.224  26.455  28.320  1.00  0.00     0.173 A 
ATOM     66  F   UNL A   1      42.258  29.336  27.429  1.00  0.00    -0.203 F 
ATOM     67  C   UNL A   1      41.771  27.383  26.210  1.00  0.00     0.198 A 
ATOM     68  C   UNL A   1      40.381  25.681  27.172  1.00  0.00     0.198 A 
ATOM     69  F   UNL A   1      39.462  25.979  29.316  1.00  0.00    -0.203 F 
ATOM     70  F   UNL A   1      42.486  27.852  25.178  1.00  0.00    -0.200 F 
ATOM     71  C   UNL A   1      41.146  26.149  26.115  1.00  0.00     0.200 A 
ATOM     72  F   UNL A   1      39.788  24.482  27.088  1.00  0.00    -0.200 F 
ATOM     73  F   UNL A   1      41.276  25.414  25.002  1.00  0.00    -0.200 F 
ENDBRANCH  49  63
BRANCH  50  74
ATOM     74  C   UNL A   1      39.372  33.147  36.695  1.00  0.00     0.064 A 
ATOM     75  C   UNL A   1      38.466  32.699  37.667  1.00  0.00     0.173 A 
ATOM     76  C   UNL A   1      40.041  34.355  36.938  1.00  0.00     0.173 A 
ATOM     77  F   UNL A   1      37.785  31.560  37.473  1.00  0.00    -0.203 F 
ATOM     78  C   UNL A   1      38.222  33.440  38.821  1.00  0.00     0.198 A 
ATOM     79  C   UNL A   1      39.820  35.080  38.106  1.00  0.00     0.198 A 
ATOM     80  F   UNL A   1      40.922  34.825  36.042  1.00  0.00    -0.203 F 
ATOM     81  F   UNL A   1      37.313  33.014  39.709  1.00  0.00    -0.200 F 
ATOM     82  C   UNL A   1      38.903  34.628  39.042  1.00  0.00     0.200 A 
ATOM     83  F   UNL A   1      40.491  36.219  38.323  1.00  0.00    -0.200 F 
ATOM     84  F   UNL A   1      38.670  35.339  40.153  1.00  0.00    -0.200 F 
ENDBRANCH  50  74
BRANCH  62  85
ATOM     85  C   UNL A   1      44.100  28.368  34.849  1.00  0.00     0.064 A 
ATOM     86  C   UNL A   1      44.009  27.177  35.584  1.00  0.00     0.173 A 
ATOM     87  C   UNL A   1      45.355  28.990  34.758  1.00  0.00     0.173 A 
ATOM     88  F   UNL A   1      42.829  26.551  35.712  1.00  0.00    -0.203 F 
ATOM     89  C   UNL A   1      45.124  26.646  36.226  1.00  0.00     0.198 A 
ATOM     90  C   UNL A   1      46.474  28.439  35.374  1.00  0.00     0.198 A 
ATOM     91  F   UNL A   1      45.497  30.127  34.060  1.00  0.00    -0.203 F 
ATOM     92  F   UNL A   1      45.003  25.535  36.965  1.00  0.00    -0.200 F 
ATOM     93  C   UNL A   1      46.356  27.272  36.114  1.00  0.00     0.200 A 
ATOM     94  F   UNL A   1      47.668  29.037  35.251  1.00  0.00    -0.200 F 
ATOM     95  F   UNL A   1      47.431  26.754  36.725  1.00  0.00    -0.200 F 
ENDBRANCH  62  85
ENDBRANCH  36  37
ENDBRANCH  28  31
ENDBRANCH  26  27
ENDBRANCH  25  26
ENDBRANCH   1  25
TORSDOF 14
ENDMDL
MODEL 2
REMARK VINA RESULT:     -12.3      0.119      2.008
REMARK SMILES CC[C@](C)(NC(=O)c1cccc2ncccc12)C(=O)NCCCCNC(=O)c1ccc(-c2c3nc(c(-c4c(F)c(F)c(F)c(F)c4F)c4ccc([nH]4)c(-c4c(F)c(F)c(F)c(F)c4F)c4nc(c(-c5c(F)c(F)c(F)c(F)c5F)c5ccc2[nH]5)C=C4)C=C3)cc1
REMARK SMILES IDX 22 1 21 2 20 3 18 4 19 5 3 7 4 8 2 9 1 10 5 11 6 12 7 14
REMARK SMILES IDX 8 15 9 16 17 17 10 18 12 19 16 20 11 21 13 22 15 23 14 24
REMARK SMILES IDX 23 25 24 26 25 27 26 28 27 30 28 31 29 32 90 33 30 34 89 35
REMARK SMILES IDX 31 36 32 37 33 38 83 39 34 40 88 41 82 42 84 43 35 44 87 45
REMARK SMILES IDX 81 46 80 47 36 49 68 50 48 51 67 52 49 53 52 54 66 55 85 56
REMARK SMILES IDX 50 57 51 58 65 60 86 61 53 62 37 63 38 64 46 65 39 66 40 67
REMARK SMILES IDX 44 68 47 69 41 70 42 71 45 72 43 73 69 74 70 75 78 76 71 77
REMARK SMILES IDX 72 78 76 79 79 80 73 81 74 82 77 83 75 84 54 85 55 86 63 87
REMARK SMILES IDX 56 88 57 89 61 90 64 91 58 92 59 93 62 94 60 95
REMARK H PARENT 20 6 5 13 25 29 84 48 52 59
REMARK Flexibility Score: inf
ROOT
ATOM      1  C   UNL A   1      31.418  30.593  25.585  1.00  0.00     0.023 C 
ENDROOT
BRANCH   1   2
ATOM      2  C   UNL A   1      32.670  29.710  25.584  1.00  0.00     0.116 C 
BRANCH   2   3
ATOM      3  N   UNL A   1      33.367  29.507  24.324  1.00  0.00    -0.354 N 
ATOM      4  C   UNL A   1      33.462  28.450  23.453  1.00  0.00     0.245 C 
ATOM      5  O   UNL A   1      34.035  28.686  22.383  1.00  0.00    -0.272 OA
ATOM      6  H   UNL A   1      33.880  30.296  24.033  1.00  0.00     0.163 HD
BRANCH   4   7
ATOM      7  C   UNL A   1      32.839  27.056  23.746  1.00  0.00     0.116 C 
ATOM      8  C   UNL A   1      31.413  27.134  24.333  1.00  0.00     0.045 C 
BRANCH   7   9
ATOM      9  C   UNL A   1      33.760  26.446  24.866  1.00  0.00     0.035 C 
ATOM     10  C   UNL A   1      33.012  25.981  26.124  1.00  0.00     0.007 C 
ENDBRANCH   7   9
BRANCH   7  11
ATOM     11  N   UNL A   1      32.791  26.147  22.559  1.00  0.00    -0.338 N 
ATOM     12  C   UNL A   1      33.087  24.805  22.318  1.00  0.00     0.252 C 
ATOM     13  H   UNL A   1      32.471  26.608  21.750  1.00  0.00     0.164 HD
ATOM     14  O   UNL A   1      33.280  24.538  21.128  1.00  0.00    -0.269 OA
BRANCH  12  15
ATOM     15  C   UNL A   1      33.097  23.675  23.334  1.00  0.00     0.049 A 
ATOM     16  C   UNL A   1      31.892  23.100  23.723  1.00  0.00     0.014 A 
ATOM     17  C   UNL A   1      34.286  22.999  23.770  1.00  0.00     0.013 A 
ATOM     18  C   UNL A   1      31.779  22.010  24.572  1.00  0.00     0.003 A 
ATOM     19  C   UNL A   1      34.165  21.851  24.613  1.00  0.00     0.071 A 
ATOM     20  C   UNL A   1      35.618  23.318  23.414  1.00  0.00     0.013 A 
ATOM     21  C   UNL A   1      32.928  21.402  25.020  1.00  0.00     0.029 A 
ATOM     22  N   UNL A   1      35.191  21.105  25.036  1.00  0.00    -0.256 NA
ATOM     23  C   UNL A   1      36.690  22.527  23.831  1.00  0.00     0.021 A 
ATOM     24  C   UNL A   1      36.427  21.438  24.631  1.00  0.00     0.112 A 
ENDBRANCH  12  15
ENDBRANCH   7  11
ENDBRANCH   4   7
ENDBRANCH   2   3
ENDBRANCH   1   2
BRANCH   1  25
ATOM     25  C   UNL A   1      31.328  31.741  26.587  1.00  0.00     0.023 C 
BRANCH  25  26
ATOM     26  C   UNL A   1      32.642  32.378  26.989  1.00  0.00     0.116 C 
BRANCH  26  27
ATOM     27  N   UNL A   1      32.480  33.769  27.364  1.00  0.00    -0.352 N 
ATOM     28  C   UNL A   1      33.110  34.470  28.363  1.00  0.00     0.251 C 
ATOM     29  H   UNL A   1      31.830  34.281  26.831  1.00  0.00     0.163 HD
ATOM     30  O   UNL A   1      32.708  35.584  28.678  1.00  0.00    -0.269 OA
BRANCH  28  31
ATOM     31  C   UNL A   1      34.266  33.872  29.071  1.00  0.00     0.039 A 
ATOM     32  C   UNL A   1      34.028  32.926  30.070  1.00  0.00     0.014 A 
ATOM     33  C   UNL A   1      35.576  34.256  28.768  1.00  0.00     0.014 A 
ATOM     34  C   UNL A   1      35.103  32.337  30.739  1.00  0.00     0.010 A 
ATOM     35  C   UNL A   1      36.648  33.609  29.374  1.00  0.00     0.010 A 
ATOM     36  C   UNL A   1      36.422  32.658  30.380  1.00  0.00    -0.014 A 
BRANCH  36  37
ATOM     37  C   UNL A   1      37.580  32.037  31.073  1.00  0.00     0.031 A 
ATOM     38  C   UNL A   1      38.381  30.967  30.382  1.00  0.00     0.074 A 
ATOM     39  C   UNL A   1      37.875  32.395  32.336  1.00  0.00     0.049 A 
ATOM     40  N   UNL A   1      39.381  30.256  30.836  1.00  0.00    -0.248 NA
ATOM     41  C   UNL A   1      37.985  30.631  29.004  1.00  0.00     0.031 C 
ATOM     42  C   UNL A   1      37.143  33.384  33.127  1.00  0.00     0.029 A 
ATOM     43  N   UNL A   1      38.863  31.958  33.182  1.00  0.00    -0.354 N 
ATOM     44  C   UNL A   1      39.722  29.385  29.809  1.00  0.00     0.074 A 
ATOM     45  C   UNL A   1      38.785  29.612  28.731  1.00  0.00     0.031 C 
ATOM     46  C   UNL A   1      37.718  33.494  34.336  1.00  0.00     0.029 A 
ATOM     47  C   UNL A   1      38.835  32.557  34.418  1.00  0.00     0.049 A 
ATOM     48  H   UNL A   1      39.529  31.280  32.928  1.00  0.00     0.167 HD
ATOM     49  C   UNL A   1      40.742  28.496  29.759  1.00  0.00     0.037 A 
ATOM     50  C   UNL A   1      39.616  32.364  35.498  1.00  0.00     0.037 A 
ATOM     51  C   UNL A   1      41.687  28.290  30.825  1.00  0.00     0.049 A 
ATOM     52  C   UNL A   1      40.740  31.366  35.418  1.00  0.00     0.074 A 
ATOM     53  C   UNL A   1      42.786  27.452  30.856  1.00  0.00     0.029 A 
ATOM     54  N   UNL A   1      41.639  28.933  32.054  1.00  0.00    -0.354 N 
ATOM     55  N   UNL A   1      41.094  30.595  34.418  1.00  0.00    -0.248 NA
ATOM     56  C   UNL A   1      41.579  31.217  36.615  1.00  0.00     0.031 C 
ATOM     57  C   UNL A   1      43.376  27.551  32.119  1.00  0.00     0.029 A 
ATOM     58  C   UNL A   1      42.678  28.493  32.857  1.00  0.00     0.049 A 
ATOM     59  H   UNL A   1      40.965  29.601  32.316  1.00  0.00     0.167 HD
ATOM     60  C   UNL A   1      42.210  29.892  34.853  1.00  0.00     0.074 A 
ATOM     61  C   UNL A   1      42.485  30.342  36.202  1.00  0.00     0.031 C 
ATOM     62  C   UNL A   1      42.941  28.959  34.196  1.00  0.00     0.037 A 
BRANCH  49  63
ATOM     63  C   UNL A   1      40.894  27.683  28.505  1.00  0.00     0.064 A 
ATOM     64  C   UNL A   1      40.211  26.469  28.327  1.00  0.00     0.173 A 
ATOM     65  C   UNL A   1      41.704  28.137  27.454  1.00  0.00     0.173 A 
ATOM     66  F   UNL A   1      39.433  25.983  29.306  1.00  0.00    -0.203 F 
ATOM     67  C   UNL A   1      40.359  25.726  27.159  1.00  0.00     0.198 A 
ATOM     68  C   UNL A   1      41.824  27.407  26.273  1.00  0.00     0.198 A 
ATOM     69  F   UNL A   1      42.376  29.292  27.566  1.00  0.00    -0.203 F 
ATOM     70  F   UNL A   1      39.740  24.543  27.036  1.00  0.00    -0.200 F 
ATOM     71  C   UNL A   1      41.160  26.199  26.130  1.00  0.00     0.200 A 
ATOM     72  F   UNL A   1      42.587  27.873  25.274  1.00  0.00    -0.200 F 
ATOM     73  F   UNL A   1      41.295  25.486  25.003  1.00  0.00    -0.200 F 
ENDBRANCH  49  63
BRANCH  50  74
ATOM     74  C   UNL A   1      39.375  33.147  36.738  1.00  0.00     0.064 A 
ATOM     75  C   UNL A   1      40.046  34.357  36.969  1.00  0.00     0.173 A 
ATOM     76  C   UNL A   1      38.476  32.703  37.719  1.00  0.00     0.173 A 
ATOM     77  F   UNL A   1      40.930  34.814  36.071  1.00  0.00    -0.203 F 
ATOM     78  C   UNL A   1      39.843  35.079  38.143  1.00  0.00     0.198 A 
ATOM     79  C   UNL A   1      38.252  33.441  38.878  1.00  0.00     0.198 A 
ATOM     80  F   UNL A   1      37.806  31.555  37.544  1.00  0.00    -0.203 F 
ATOM     81  F   UNL A   1      40.536  36.206  38.361  1.00  0.00    -0.200 F 
ATOM     82  C   UNL A   1      38.942  34.623  39.094  1.00  0.00     0.200 A 
ATOM     83  F   UNL A   1      37.370  33.006  39.788  1.00  0.00    -0.200 F 
ATOM     84  F   UNL A   1      38.747  35.320  40.222  1.00  0.00    -0.200 F 
ENDBRANCH  50  74
BRANCH  62  85
ATOM     85  C   UNL A   1      44.130  28.387  34.912  1.00  0.00     0.064 A 
ATOM     86  C   UNL A   1      45.395  28.988  34.840  1.00  0.00     0.173 A 
ATOM     87  C   UNL A   1      43.990  27.245  35.717  1.00  0.00     0.173 A 
ATOM     88  F   UNL A   1      45.584  30.073  34.074  1.00  0.00    -0.203 F 
ATOM     89  C   UNL A   1      46.482  28.451  35.524  1.00  0.00     0.198 A 
ATOM     90  C   UNL A   1      45.072  26.731  36.425  1.00  0.00     0.198 A 
ATOM     91  F   UNL A   1      42.799  26.637  35.827  1.00  0.00    -0.203 F 
ATOM     92  F   UNL A   1      47.692  29.013  35.399  1.00  0.00    -0.200 F 
ATOM     93  C   UNL A   1      46.318  27.329  36.322  1.00  0.00     0.200 A 
ATOM     94  F   UNL A   1      44.908  25.655  37.209  1.00  0.00    -0.200 F 
ATOM     95  F   UNL A   1      47.364  26.819  36.986  1.00  0.00    -0.200 F 
ENDBRANCH  62  85
ENDBRANCH  36  37
ENDBRANCH  28  31
ENDBRANCH  26  27
ENDBRANCH  25  26
ENDBRANCH   1  25
TORSDOF 14
ENDMDL
MODEL 3
REMARK VINA RESULT:     -12.3      0.424      7.303
REMARK SMILES CC[C@](C)(NC(=O)c1cccc2ncccc12)C(=O)NCCCCNC(=O)c1ccc(-c2c3nc(c(-c4c(F)c(F)c(F)c(F)c4F)c4ccc([nH]4)c(-c4c(F)c(F)c(F)c(F)c4F)c4nc(c(-c5c(F)c(F)c(F)c(F)c5F)c5ccc2[nH]5)C=C4)C=C3)cc1
REMARK SMILES IDX 22 1 21 2 20 3 18 4 19 5 3 7 4 8 2 9 1 10 5 11 6 12 7 14
REMARK SMILES IDX 8 15 9 16 17 17 10 18 12 19 16 20 11 21 13 22 15 23 14 24
REMARK SMILES IDX 23 25 24 26 25 27 26 28 27 30 28 31 29 32 90 33 30 34 89 35
REMARK SMILES IDX 31 36 32 37 33 38 83 39 34 40 88 41 82 42 84 43 35 44 87 45
REMARK SMILES IDX 81 46 80 47 36 49 68 50 48 51 67 52 49 53 52 54 66 55 85 56
REMARK SMILES IDX 50 57 51 58 65 60 86 61 53 62 37 63 38 64 46 65 39 66 40 67
REMARK SMILES IDX 44 68 47 69 41 70 42 71 45 72 43 73 69 74 70 75 78 76 71 77
REMARK SMILES IDX 72 78 76 79 79 80 73 81 74 82 77 83 75 84 54 85 55 86 63 87
REMARK SMILES IDX 56 88 57 89 61 90 64 91 58 92 59 93 62 94 60 95
REMARK H PARENT 20 6 5 13 25 29 84 48 52 59
REMARK Flexibility Score: inf
ROOT
ATOM      1  C   UNL A   1      31.377  30.498  25.731  1.00  0.00     0.023 C 
ENDROOT
BRANCH   1   2
ATOM      2  C   UNL A   1      32.731  29.779  25.697  1.00  0.00     0.116 C 
BRANCH   2   3
ATOM      3  N   UNL A   1      33.383  29.603  24.409  1.00  0.00    -0.354 N 
ATOM      4  C   UNL A   1      33.471  28.555  23.527  1.00  0.00     0.245 C 
ATOM      5  O   UNL A   1      33.995  28.813  22.437  1.00  0.00    -0.272 OA
ATOM      6  H   UNL A   1      33.864  30.407  24.105  1.00  0.00     0.163 HD
BRANCH   4   7
ATOM      7  C   UNL A   1      32.894  27.144  23.833  1.00  0.00     0.116 C 
ATOM      8  C   UNL A   1      31.464  27.178  24.415  1.00  0.00     0.045 C 
BRANCH   7   9
ATOM      9  C   UNL A   1      33.832  26.577  24.961  1.00  0.00     0.035 C 
ATOM     10  C   UNL A   1      33.095  26.072  26.209  1.00  0.00     0.007 C 
ENDBRANCH   7   9
BRANCH   7  11
ATOM     11  N   UNL A   1      32.881  26.221  22.655  1.00  0.00    -0.338 N 
ATOM     12  C   UNL A   1      33.181  24.876  22.438  1.00  0.00     0.252 C 
ATOM     13  H   UNL A   1      32.587  26.674  21.831  1.00  0.00     0.164 HD
ATOM     14  O   UNL A   1      33.410  24.595  21.258  1.00  0.00    -0.269 OA
BRANCH  12  15
ATOM     15  C   UNL A   1      33.157  23.757  23.466  1.00  0.00     0.049 A 
ATOM     16  C   UNL A   1      31.933  23.265  23.906  1.00  0.00     0.014 A 
ATOM     17  C   UNL A   1      34.316  23.011  23.867  1.00  0.00     0.013 A 
ATOM     18  C   UNL A   1      31.783  22.192  24.771  1.00  0.00     0.003 A 
ATOM     19  C   UNL A   1      34.154  21.882  24.728  1.00  0.00     0.071 A 
ATOM     20  C   UNL A   1      35.651  23.241  23.459  1.00  0.00     0.013 A 
ATOM     21  C   UNL A   1      32.907  21.517  25.185  1.00  0.00     0.029 A 
ATOM     22  N   UNL A   1      35.145  21.076  25.122  1.00  0.00    -0.256 NA
ATOM     23  C   UNL A   1      36.686  22.387  23.846  1.00  0.00     0.021 A 
ATOM     24  C   UNL A   1      36.384  21.325  24.668  1.00  0.00     0.112 A 
ENDBRANCH  12  15
ENDBRANCH   7  11
ENDBRANCH   4   7
ENDBRANCH   2   3
ENDBRANCH   1   2
BRANCH   1  25
ATOM     25  C   UNL A   1      31.290  31.870  26.391  1.00  0.00     0.023 C 
BRANCH  25  26
ATOM     26  C   UNL A   1      32.560  32.377  27.044  1.00  0.00     0.116 C 
BRANCH  26  27
ATOM     27  N   UNL A   1      32.446  33.764  27.453  1.00  0.00    -0.352 N 
ATOM     28  C   UNL A   1      33.139  34.432  28.432  1.00  0.00     0.251 C 
ATOM     29  H   UNL A   1      31.780  34.299  26.962  1.00  0.00     0.163 HD
ATOM     30  O   UNL A   1      32.776  35.547  28.788  1.00  0.00    -0.269 OA
BRANCH  28  31
ATOM     31  C   UNL A   1      34.315  33.797  29.070  1.00  0.00     0.039 A 
ATOM     32  C   UNL A   1      34.107  32.837  30.062  1.00  0.00     0.014 A 
ATOM     33  C   UNL A   1      35.616  34.160  28.709  1.00  0.00     0.014 A 
ATOM     34  C   UNL A   1      35.201  32.214  30.666  1.00  0.00     0.010 A 
ATOM     35  C   UNL A   1      36.703  33.480  29.249  1.00  0.00     0.010 A 
ATOM     36  C   UNL A   1      36.507  32.514  30.248  1.00  0.00    -0.014 A 
BRANCH  36  37
ATOM     37  C   UNL A   1      37.684  31.857  30.870  1.00  0.00     0.031 A 
ATOM     38  C   UNL A   1      38.137  32.273  32.243  1.00  0.00     0.074 A 
ATOM     39  C   UNL A   1      38.375  30.929  30.180  1.00  0.00     0.049 A 
ATOM     40  N   UNL A   1      39.176  31.872  32.930  1.00  0.00    -0.248 NA
ATOM     41  C   UNL A   1      37.330  33.299  32.922  1.00  0.00     0.031 C 
ATOM     42  C   UNL A   1      38.062  30.477  28.825  1.00  0.00     0.029 A 
ATOM     43  N   UNL A   1      39.490  30.207  30.523  1.00  0.00    -0.354 N 
ATOM     44  C   UNL A   1      39.153  32.604  34.110  1.00  0.00     0.074 A 
ATOM     45  C   UNL A   1      38.035  33.517  34.022  1.00  0.00     0.031 C 
ATOM     46  C   UNL A   1      38.951  29.542  28.456  1.00  0.00     0.029 A 
ATOM     47  C   UNL A   1      39.919  29.354  29.534  1.00  0.00     0.049 A 
ATOM     48  H   UNL A   1      39.941  30.292  31.393  1.00  0.00     0.167 HD
ATOM     49  C   UNL A   1      39.973  32.504  35.184  1.00  0.00     0.037 A 
ATOM     50  C   UNL A   1      40.977  28.523  29.499  1.00  0.00     0.037 A 
ATOM     51  C   UNL A   1      41.071  31.577  35.277  1.00  0.00     0.049 A 
ATOM     52  C   UNL A   1      41.877  28.434  30.703  1.00  0.00     0.074 A 
ATOM     53  C   UNL A   1      41.929  31.359  36.338  1.00  0.00     0.029 A 
ATOM     54  N   UNL A   1      41.459  30.712  34.263  1.00  0.00    -0.354 N 
ATOM     55  N   UNL A   1      41.806  29.083  31.840  1.00  0.00    -0.248 NA
ATOM     56  C   UNL A   1      43.000  27.490  30.621  1.00  0.00     0.031 C 
ATOM     57  C   UNL A   1      42.868  30.398  35.951  1.00  0.00     0.029 A 
ATOM     58  C   UNL A   1      42.559  29.975  34.668  1.00  0.00     0.049 A 
ATOM     59  H   UNL A   1      41.019  30.636  33.386  1.00  0.00     0.167 HD
ATOM     60  C   UNL A   1      42.854  28.608  32.618  1.00  0.00     0.074 A 
ATOM     61  C   UNL A   1      43.535  27.602  31.829  1.00  0.00     0.031 C 
ATOM     62  C   UNL A   1      43.219  28.971  33.872  1.00  0.00     0.037 A 
BRANCH  49  63
ATOM     63  C   UNL A   1      39.709  33.416  36.347  1.00  0.00     0.064 A 
ATOM     64  C   UNL A   1      40.306  34.683  36.440  1.00  0.00     0.173 A 
ATOM     65  C   UNL A   1      38.823  33.035  37.366  1.00  0.00     0.173 A 
ATOM     66  F   UNL A   1      41.172  35.092  35.500  1.00  0.00    -0.203 F 
ATOM     67  C   UNL A   1      40.052  35.520  37.524  1.00  0.00     0.198 A 
ATOM     68  C   UNL A   1      38.545  33.889  38.432  1.00  0.00     0.198 A 
ATOM     69  F   UNL A   1      38.219  31.839  37.327  1.00  0.00    -0.203 F 
ATOM     70  F   UNL A   1      40.677  36.702  37.617  1.00  0.00    -0.200 F 
ATOM     71  C   UNL A   1      39.166  35.125  38.515  1.00  0.00     0.200 A 
ATOM     72  F   UNL A   1      37.677  33.512  39.381  1.00  0.00    -0.200 F 
ATOM     73  F   UNL A   1      38.916  35.935  39.553  1.00  0.00    -0.200 F 
ENDBRANCH  49  63
BRANCH  50  74
ATOM     74  C   UNL A   1      41.232  27.694  28.292  1.00  0.00     0.064 A 
ATOM     75  C   UNL A   1      40.621  26.442  28.135  1.00  0.00     0.173 A 
ATOM     76  C   UNL A   1      42.091  28.132  27.274  1.00  0.00     0.173 A 
ATOM     77  F   UNL A   1      39.807  25.970  29.090  1.00  0.00    -0.203 F 
ATOM     78  C   UNL A   1      40.879  25.650  27.017  1.00  0.00     0.198 A 
ATOM     79  C   UNL A   1      42.324  27.353  26.143  1.00  0.00     0.198 A 
ATOM     80  F   UNL A   1      42.696  29.325  27.373  1.00  0.00    -0.203 F 
ATOM     81  F   UNL A   1      40.322  24.435  26.917  1.00  0.00    -0.200 F 
ATOM     82  C   UNL A   1      41.726  26.109  26.020  1.00  0.00     0.200 A 
ATOM     83  F   UNL A   1      43.131  27.806  25.174  1.00  0.00    -0.200 F 
ATOM     84  F   UNL A   1      41.971  25.348  24.945  1.00  0.00    -0.200 F 
ENDBRANCH  50  74
BRANCH  62  85
ATOM     85  C   UNL A   1      44.387  28.252  34.483  1.00  0.00     0.064 A 
ATOM     86  C   UNL A   1      45.695  28.748  34.380  1.00  0.00     0.173 A 
ATOM     87  C   UNL A   1      44.187  27.074  35.220  1.00  0.00     0.173 A 
ATOM     88  F   UNL A   1      45.941  29.863  33.676  1.00  0.00    -0.203 F 
ATOM     89  C   UNL A   1      46.763  28.075  34.967  1.00  0.00     0.198 A 
ATOM     90  C   UNL A   1      45.252  26.423  35.832  1.00  0.00     0.198 A 
ATOM     91  F   UNL A   1      42.954  26.564  35.356  1.00  0.00    -0.203 F 
ATOM     92  F   UNL A   1      48.011  28.538  34.812  1.00  0.00    -0.200 F 
ATOM     93  C   UNL A   1      46.540  26.918  35.699  1.00  0.00     0.200 A 
ATOM     94  F   UNL A   1      45.033  25.313  36.553  1.00  0.00    -0.200 F 
ATOM     95  F   UNL A   1      47.568  26.277  36.271  1.00  0.00    -0.200 F 
ENDBRANCH  62  85
ENDBRANCH  36  37
ENDBRANCH  28  31
ENDBRANCH  26  27
ENDBRANCH  25  26
ENDBRANCH   1  25
TORSDOF 14
ENDMDL
