MODEL 1
REMARK VINA RESULT:     -14.3      0.000      0.000
REMARK SMILES O=C(NCCCCNC(=O)c1nnn(-c2cccc(Br)c2)c1[C@@H]1COc2ccccc2O1)c1ccc(-c2c3nc(c(-c4c(F)c(F)c(F)c(F)c4F)c4ccc([nH]4)c(-c4c(F)c(F)c(F)c(F)c4F)c4nc(c(-c5c(F)c(F)c(F)c(F)c5F)c5ccc2[nH]5)C=C4)C=C3)cc1
REMARK SMILES IDX 5 1 4 2 3 3 1 4 2 5 33 7 34 8 95 9 35 10 94 11 36 12 37 13
REMARK SMILES IDX 38 14 88 15 39 16 93 17 87 18 89 19 40 20 92 21 86 22 85 23
REMARK SMILES IDX 41 25 73 26 53 27 72 28 54 29 57 30 71 31 90 32 55 33 56 34
REMARK SMILES IDX 70 36 91 37 58 38 42 39 43 40 51 41 44 42 45 43 49 44 52 45
REMARK SMILES IDX 46 46 47 47 50 48 48 49 74 50 75 51 83 52 76 53 77 54 81 55
REMARK SMILES IDX 84 56 78 57 79 58 82 59 80 60 59 61 60 62 68 63 61 64 62 65
REMARK SMILES IDX 66 66 69 67 63 68 64 69 67 70 65 71 6 72 7 73 8 74 9 75
REMARK SMILES IDX 10 77 11 78 12 79 22 80 13 81 14 82 23 83 24 84 32 85 25 86
REMARK SMILES IDX 31 87 26 88 30 89 27 90 29 91 28 92 15 93 16 94 21 95 17 96
REMARK SMILES IDX 19 97 18 98 20 99
REMARK H PARENT 3 6 89 24 57 35 8 76
REMARK Flexibility Score: inf
ROOT
ATOM      1  C   UNL A   1      36.139  23.068  24.830  1.00  0.00     0.023 C 
ENDROOT
BRANCH   1   2
ATOM      2  C   UNL A   1      37.054  22.173  25.682  1.00  0.00     0.116 C 
BRANCH   2   3
ATOM      3  N   UNL A   1      38.433  22.026  25.304  1.00  0.00    -0.352 N 
ATOM      4  O   UNL A   1      40.407  21.249  26.076  1.00  0.00    -0.269 OA
ATOM      5  C   UNL A   1      39.505  22.075  26.163  1.00  0.00     0.251 C 
ATOM      6  H   UNL A   1      38.626  21.878  24.350  1.00  0.00     0.163 HD
BRANCH   5   7
ATOM      7  C   UNL A   1      39.689  23.286  26.981  1.00  0.00     0.039 A 
ATOM      8  C   UNL A   1      38.892  24.427  26.889  1.00  0.00     0.014 A 
ATOM      9  C   UNL A   1      40.838  23.282  27.779  1.00  0.00     0.014 A 
ATOM     10  C   UNL A   1      39.352  25.615  27.414  1.00  0.00     0.010 A 
ATOM     11  C   UNL A   1      41.263  24.454  28.371  1.00  0.00     0.010 A 
ATOM     12  C   UNL A   1      40.557  25.630  28.121  1.00  0.00    -0.014 A 
BRANCH  12  13
ATOM     13  C   UNL A   1      40.941  26.888  28.742  1.00  0.00     0.031 A 
ATOM     14  C   UNL A   1      42.201  27.468  28.189  1.00  0.00     0.074 A 
ATOM     15  C   UNL A   1      40.148  27.524  29.625  1.00  0.00     0.049 A 
ATOM     16  N   UNL A   1      43.261  27.853  28.821  1.00  0.00    -0.248 NA
ATOM     17  C   UNL A   1      42.340  27.496  26.720  1.00  0.00     0.031 C 
ATOM     18  C   UNL A   1      38.782  27.175  30.022  1.00  0.00     0.029 A 
ATOM     19  N   UNL A   1      40.358  28.705  30.262  1.00  0.00    -0.354 N 
ATOM     20  C   UNL A   1      44.138  28.327  27.843  1.00  0.00     0.074 A 
ATOM     21  C   UNL A   1      43.584  27.946  26.574  1.00  0.00     0.031 C 
ATOM     22  C   UNL A   1      38.207  28.245  30.615  1.00  0.00     0.029 A 
ATOM     23  C   UNL A   1      39.201  29.295  30.749  1.00  0.00     0.049 A 
ATOM     24  H   UNL A   1      41.250  29.107  30.370  1.00  0.00     0.167 HD
ATOM     25  C   UNL A   1      45.134  29.203  28.149  1.00  0.00     0.037 A 
ATOM     26  C   UNL A   1      39.059  30.586  31.137  1.00  0.00     0.037 A 
ATOM     27  C   UNL A   1      45.494  29.110  29.540  1.00  0.00     0.049 A 
ATOM     28  C   UNL A   1      40.419  31.137  31.372  1.00  0.00     0.074 A 
ATOM     29  C   UNL A   1      46.004  28.111  30.347  1.00  0.00     0.029 A 
ATOM     30  N   UNL A   1      45.031  30.074  30.401  1.00  0.00    -0.354 N 
ATOM     31  N   UNL A   1      41.198  30.763  32.348  1.00  0.00    -0.248 NA
ATOM     32  C   UNL A   1      41.087  31.784  30.253  1.00  0.00     0.031 C 
ATOM     33  C   UNL A   1      45.378  28.302  31.614  1.00  0.00     0.029 A 
ATOM     34  C   UNL A   1      44.566  29.431  31.516  1.00  0.00     0.049 A 
ATOM     35  H   UNL A   1      45.033  31.046  30.244  1.00  0.00     0.167 HD
ATOM     36  C   UNL A   1      42.468  30.733  31.793  1.00  0.00     0.074 A 
ATOM     37  C   UNL A   1      42.351  31.456  30.530  1.00  0.00     0.031 C 
ATOM     38  C   UNL A   1      43.423  29.883  32.271  1.00  0.00     0.037 A 
BRANCH  25  39
ATOM     39  C   UNL A   1      45.464  30.416  27.302  1.00  0.00     0.064 A 
ATOM     40  C   UNL A   1      46.822  30.731  27.077  1.00  0.00     0.173 A 
ATOM     41  C   UNL A   1      44.550  31.450  26.997  1.00  0.00     0.173 A 
ATOM     42  F   UNL A   1      47.782  29.825  27.312  1.00  0.00    -0.203 F 
ATOM     43  C   UNL A   1      47.233  32.017  26.718  1.00  0.00     0.198 A 
ATOM     44  C   UNL A   1      44.962  32.717  26.591  1.00  0.00     0.198 A 
ATOM     45  F   UNL A   1      43.231  31.323  27.173  1.00  0.00    -0.203 F 
ATOM     46  F   UNL A   1      48.541  32.305  26.670  1.00  0.00    -0.200 F 
ATOM     47  C   UNL A   1      46.304  33.014  26.495  1.00  0.00     0.200 A 
ATOM     48  F   UNL A   1      44.044  33.671  26.384  1.00  0.00    -0.200 F 
ATOM     49  F   UNL A   1      46.697  34.268  26.234  1.00  0.00    -0.200 F 
ENDBRANCH  25  39
BRANCH  26  50
ATOM     50  C   UNL A   1      37.869  31.454  30.976  1.00  0.00     0.064 A 
ATOM     51  C   UNL A   1      37.435  31.860  29.704  1.00  0.00     0.173 A 
ATOM     52  C   UNL A   1      36.980  31.687  32.045  1.00  0.00     0.173 A 
ATOM     53  F   UNL A   1      38.197  31.627  28.627  1.00  0.00    -0.203 F 
ATOM     54  C   UNL A   1      36.179  32.448  29.512  1.00  0.00     0.198 A 
ATOM     55  C   UNL A   1      35.734  32.283  31.854  1.00  0.00     0.198 A 
ATOM     56  F   UNL A   1      37.260  31.253  33.282  1.00  0.00    -0.203 F 
ATOM     57  F   UNL A   1      35.774  32.767  28.275  1.00  0.00    -0.200 F 
ATOM     58  C   UNL A   1      35.328  32.652  30.585  1.00  0.00     0.200 A 
ATOM     59  F   UNL A   1      34.905  32.440  32.896  1.00  0.00    -0.200 F 
ATOM     60  F   UNL A   1      34.104  33.164  30.394  1.00  0.00    -0.200 F 
ENDBRANCH  26  50
BRANCH  38  61
ATOM     61  C   UNL A   1      43.145  29.175  33.565  1.00  0.00     0.064 A 
ATOM     62  C   UNL A   1      42.414  27.978  33.663  1.00  0.00     0.173 A 
ATOM     63  C   UNL A   1      43.763  29.652  34.729  1.00  0.00     0.173 A 
ATOM     64  F   UNL A   1      41.886  27.403  32.576  1.00  0.00    -0.203 F 
ATOM     65  C   UNL A   1      42.271  27.317  34.880  1.00  0.00     0.198 A 
ATOM     66  C   UNL A   1      43.650  28.968  35.936  1.00  0.00     0.198 A 
ATOM     67  F   UNL A   1      44.523  30.757  34.683  1.00  0.00    -0.203 F 
ATOM     68  F   UNL A   1      41.559  26.182  34.949  1.00  0.00    -0.200 F 
ATOM     69  C   UNL A   1      42.894  27.809  36.014  1.00  0.00     0.200 A 
ATOM     70  F   UNL A   1      44.298  29.419  37.018  1.00  0.00    -0.200 F 
ATOM     71  F   UNL A   1      42.794  27.150  37.177  1.00  0.00    -0.200 F 
ENDBRANCH  38  61
ENDBRANCH  12  13
ENDBRANCH   5   7
ENDBRANCH   2   3
ENDBRANCH   1   2
BRANCH   1  72
ATOM     72  C   UNL A   1      35.530  24.370  25.388  1.00  0.00     0.023 C 
BRANCH  72  73
ATOM     73  C   UNL A   1      34.484  25.182  24.595  1.00  0.00     0.116 C 
BRANCH  73  74
ATOM     74  N   UNL A   1      34.028  24.592  23.345  1.00  0.00    -0.351 N 
ATOM     75  C   UNL A   1      33.106  25.108  22.436  1.00  0.00     0.273 C 
ATOM     76  H   UNL A   1      34.420  23.719  23.114  1.00  0.00     0.163 HD
ATOM     77  O   UNL A   1      32.884  24.505  21.404  1.00  0.00    -0.267 OA
BRANCH  75  78
ATOM     78  C   UNL A   1      32.360  26.309  22.812  1.00  0.00     0.178 A 
ATOM     79  N   UNL A   1      32.943  27.519  22.562  1.00  0.00    -0.124 NA
ATOM     80  C   UNL A   1      31.097  26.502  23.390  1.00  0.00     0.122 A 
ATOM     81  N   UNL A   1      32.067  28.461  22.830  1.00  0.00    -0.061 NA
ATOM     82  N   UNL A   1      30.917  27.883  23.243  1.00  0.00    -0.213 N 
BRANCH  80  83
ATOM     83  C   UNL A   1      30.016  25.553  23.841  1.00  0.00     0.262 C 
ATOM     84  C   UNL A   1      29.493  25.686  25.281  1.00  0.00     0.281 C 
ATOM     85  O   UNL A   1      30.430  24.218  23.567  1.00  0.00    -0.477 OA
ATOM     86  O   UNL A   1      30.383  25.215  26.300  1.00  0.00    -0.485 OA
ATOM     87  C   UNL A   1      31.054  23.628  24.627  1.00  0.00     0.162 A 
ATOM     88  C   UNL A   1      31.048  24.083  25.926  1.00  0.00     0.161 A 
ATOM     89  C   UNL A   1      31.889  22.581  24.290  1.00  0.00     0.050 A 
ATOM     90  C   UNL A   1      31.850  23.437  26.872  1.00  0.00     0.050 A 
ATOM     91  C   UNL A   1      32.703  21.929  25.195  1.00  0.00     0.004 A 
ATOM     92  C   UNL A   1      32.675  22.359  26.507  1.00  0.00     0.004 A 
ENDBRANCH  80  83
BRANCH  82  93
ATOM     93  C   UNL A   1      29.739  28.679  23.244  1.00  0.00     0.068 A 
ATOM     94  C   UNL A   1      28.453  28.145  23.137  1.00  0.00     0.028 A 
ATOM     95  C   UNL A   1      29.906  30.076  23.305  1.00  0.00     0.044 A 
ATOM     96  C   UNL A   1      27.352  29.003  23.035  1.00  0.00     0.003 A 
ATOM     97  C   UNL A   1      28.807  30.919  23.178  1.00  0.00     0.020 A 
ATOM     98  C   UNL A   1      27.528  30.388  23.035  1.00  0.00     0.016 A 
ATOM     99  Br  UNL A   1      29.061  32.792  23.155  1.00  0.00    -0.051 Br
ENDBRANCH  82  93
ENDBRANCH  75  78
ENDBRANCH  73  74
ENDBRANCH  72  73
ENDBRANCH   1  72
TORSDOF 13
ENDMDL
MODEL 2
REMARK VINA RESULT:     -14.3      3.335      8.460
REMARK SMILES O=C(NCCCCNC(=O)c1nnn(-c2cccc(Br)c2)c1[C@@H]1COc2ccccc2O1)c1ccc(-c2c3nc(c(-c4c(F)c(F)c(F)c(F)c4F)c4ccc([nH]4)c(-c4c(F)c(F)c(F)c(F)c4F)c4nc(c(-c5c(F)c(F)c(F)c(F)c5F)c5ccc2[nH]5)C=C4)C=C3)cc1
REMARK SMILES IDX 5 1 4 2 3 3 1 4 2 5 33 7 34 8 95 9 35 10 94 11 36 12 37 13
REMARK SMILES IDX 38 14 88 15 39 16 93 17 87 18 89 19 40 20 92 21 86 22 85 23
REMARK SMILES IDX 41 25 73 26 53 27 72 28 54 29 57 30 71 31 90 32 55 33 56 34
REMARK SMILES IDX 70 36 91 37 58 38 42 39 43 40 51 41 44 42 45 43 49 44 52 45
REMARK SMILES IDX 46 46 47 47 50 48 48 49 74 50 75 51 83 52 76 53 77 54 81 55
REMARK SMILES IDX 84 56 78 57 79 58 82 59 80 60 59 61 60 62 68 63 61 64 62 65
REMARK SMILES IDX 66 66 69 67 63 68 64 69 67 70 65 71 6 72 7 73 8 74 9 75
REMARK SMILES IDX 10 77 11 78 12 79 22 80 13 81 14 82 23 83 24 84 32 85 25 86
REMARK SMILES IDX 31 87 26 88 30 89 27 90 29 91 28 92 15 93 16 94 21 95 17 96
REMARK SMILES IDX 19 97 18 98 20 99
REMARK H PARENT 3 6 89 24 57 35 8 76
REMARK Flexibility Score: inf
ROOT
ATOM      1  C   UNL A   1      33.501  29.693  26.639  1.00  0.00     0.023 C 
ENDROOT
BRANCH   1   2
ATOM      2  C   UNL A   1      33.810  31.114  27.136  1.00  0.00     0.116 C 
BRANCH   2   3
ATOM      3  N   UNL A   1      33.909  31.352  28.550  1.00  0.00    -0.352 N 
ATOM      4  O   UNL A   1      34.925  32.696  30.052  1.00  0.00    -0.269 OA
ATOM      5  C   UNL A   1      35.025  31.815  29.205  1.00  0.00     0.251 C 
ATOM      6  H   UNL A   1      33.110  31.168  29.096  1.00  0.00     0.163 HD
BRANCH   5   7
ATOM      7  C   UNL A   1      36.276  31.048  29.082  1.00  0.00     0.039 A 
ATOM      8  C   UNL A   1      36.345  29.655  29.046  1.00  0.00     0.014 A 
ATOM      9  C   UNL A   1      37.442  31.817  29.153  1.00  0.00     0.014 A 
ATOM     10  C   UNL A   1      37.548  29.032  29.297  1.00  0.00     0.010 A 
ATOM     11  C   UNL A   1      38.662  31.194  29.328  1.00  0.00     0.010 A 
ATOM     12  C   UNL A   1      38.696  29.808  29.475  1.00  0.00    -0.014 A 
BRANCH  12  13
ATOM     13  C   UNL A   1      39.954  29.096  29.632  1.00  0.00     0.031 A 
ATOM     14  C   UNL A   1      40.391  28.960  31.053  1.00  0.00     0.074 A 
ATOM     15  C   UNL A   1      40.575  28.500  28.596  1.00  0.00     0.049 A 
ATOM     16  N   UNL A   1      41.526  29.278  31.587  1.00  0.00    -0.248 NA
ATOM     17  C   UNL A   1      39.373  28.530  32.031  1.00  0.00     0.031 C 
ATOM     18  C   UNL A   1      40.090  28.347  27.223  1.00  0.00     0.029 A 
ATOM     19  N   UNL A   1      41.731  27.786  28.593  1.00  0.00    -0.354 N 
ATOM     20  C   UNL A   1      41.423  28.936  32.936  1.00  0.00     0.074 A 
ATOM     21  C   UNL A   1      40.041  28.626  33.178  1.00  0.00     0.031 C 
ATOM     22  C   UNL A   1      40.808  27.383  26.606  1.00  0.00     0.029 A 
ATOM     23  C   UNL A   1      41.872  26.950  27.494  1.00  0.00     0.049 A 
ATOM     24  H   UNL A   1      42.408  27.854  29.304  1.00  0.00     0.167 HD
ATOM     25  C   UNL A   1      42.529  28.707  33.695  1.00  0.00     0.037 A 
ATOM     26  C   UNL A   1      42.740  25.915  27.379  1.00  0.00     0.037 A 
ATOM     27  C   UNL A   1      43.680  29.377  33.147  1.00  0.00     0.049 A 
ATOM     28  C   UNL A   1      43.794  26.094  28.410  1.00  0.00     0.074 A 
ATOM     29  C   UNL A   1      44.011  30.695  32.902  1.00  0.00     0.029 A 
ATOM     30  N   UNL A   1      44.594  28.634  32.442  1.00  0.00    -0.354 N 
ATOM     31  N   UNL A   1      44.681  27.049  28.388  1.00  0.00    -0.248 NA
ATOM     32  C   UNL A   1      43.579  25.472  29.708  1.00  0.00     0.031 C 
ATOM     33  C   UNL A   1      44.771  30.669  31.696  1.00  0.00     0.029 A 
ATOM     34  C   UNL A   1      44.898  29.337  31.308  1.00  0.00     0.049 A 
ATOM     35  H   UNL A   1      44.961  27.759  32.704  1.00  0.00     0.167 HD
ATOM     36  C   UNL A   1      44.818  27.434  29.713  1.00  0.00     0.074 A 
ATOM     37  C   UNL A   1      44.185  26.371  30.488  1.00  0.00     0.031 C 
ATOM     38  C   UNL A   1      45.176  28.710  30.039  1.00  0.00     0.037 A 
BRANCH  25  39
ATOM     39  C   UNL A   1      42.648  27.547  34.665  1.00  0.00     0.064 A 
ATOM     40  C   UNL A   1      43.099  26.303  34.174  1.00  0.00     0.173 A 
ATOM     41  C   UNL A   1      42.033  27.504  35.936  1.00  0.00     0.173 A 
ATOM     42  F   UNL A   1      43.715  26.218  32.985  1.00  0.00    -0.203 F 
ATOM     43  C   UNL A   1      42.825  25.103  34.836  1.00  0.00     0.198 A 
ATOM     44  C   UNL A   1      41.806  26.310  36.616  1.00  0.00     0.198 A 
ATOM     45  F   UNL A   1      41.532  28.589  36.534  1.00  0.00    -0.203 F 
ATOM     46  F   UNL A   1      43.135  23.938  34.253  1.00  0.00    -0.200 F 
ATOM     47  C   UNL A   1      42.161  25.106  36.047  1.00  0.00     0.200 A 
ATOM     48  F   UNL A   1      41.155  26.335  37.788  1.00  0.00    -0.200 F 
ATOM     49  F   UNL A   1      41.821  23.956  36.643  1.00  0.00    -0.200 F 
ENDBRANCH  25  39
BRANCH  26  50
ATOM     50  C   UNL A   1      42.522  24.626  26.683  1.00  0.00     0.064 A 
ATOM     51  C   UNL A   1      43.418  24.171  25.702  1.00  0.00     0.173 A 
ATOM     52  C   UNL A   1      41.577  23.689  27.149  1.00  0.00     0.173 A 
ATOM     53  F   UNL A   1      44.381  24.982  25.243  1.00  0.00    -0.203 F 
ATOM     54  C   UNL A   1      43.381  22.854  25.230  1.00  0.00     0.198 A 
ATOM     55  C   UNL A   1      41.534  22.381  26.670  1.00  0.00     0.198 A 
ATOM     56  F   UNL A   1      40.738  23.996  28.149  1.00  0.00    -0.203 F 
ATOM     57  F   UNL A   1      44.291  22.439  24.338  1.00  0.00    -0.200 F 
ATOM     58  C   UNL A   1      42.444  21.959  25.719  1.00  0.00     0.200 A 
ATOM     59  F   UNL A   1      40.646  21.514  27.179  1.00  0.00    -0.200 F 
ATOM     60  F   UNL A   1      42.444  20.683  25.308  1.00  0.00    -0.200 F 
ENDBRANCH  26  50
BRANCH  38  61
ATOM     61  C   UNL A   1      45.665  29.603  28.936  1.00  0.00     0.064 A 
ATOM     62  C   UNL A   1      44.820  30.374  28.120  1.00  0.00     0.173 A 
ATOM     63  C   UNL A   1      47.047  29.792  28.797  1.00  0.00     0.173 A 
ATOM     64  F   UNL A   1      43.491  30.330  28.267  1.00  0.00    -0.203 F 
ATOM     65  C   UNL A   1      45.338  31.258  27.176  1.00  0.00     0.198 A 
ATOM     66  C   UNL A   1      47.560  30.703  27.880  1.00  0.00     0.198 A 
ATOM     67  F   UNL A   1      47.900  29.126  29.592  1.00  0.00    -0.203 F 
ATOM     68  F   UNL A   1      44.510  31.975  26.401  1.00  0.00    -0.200 F 
ATOM     69  C   UNL A   1      46.707  31.427  27.061  1.00  0.00     0.200 A 
ATOM     70  F   UNL A   1      48.883  30.902  27.810  1.00  0.00    -0.200 F 
ATOM     71  F   UNL A   1      47.206  32.309  26.184  1.00  0.00    -0.200 F 
ENDBRANCH  38  61
ENDBRANCH  12  13
ENDBRANCH   5   7
ENDBRANCH   2   3
ENDBRANCH   1   2
BRANCH   1  72
ATOM     72  C   UNL A   1      32.153  29.005  26.934  1.00  0.00     0.023 C 
BRANCH  72  73
ATOM     73  C   UNL A   1      31.974  27.478  26.803  1.00  0.00     0.116 C 
BRANCH  73  74
ATOM     74  N   UNL A   1      30.672  27.022  26.341  1.00  0.00    -0.351 N 
ATOM     75  C   UNL A   1      30.270  25.719  26.047  1.00  0.00     0.273 C 
ATOM     76  H   UNL A   1      29.990  27.721  26.219  1.00  0.00     0.163 HD
ATOM     77  O   UNL A   1      29.117  25.509  25.727  1.00  0.00    -0.267 OA
BRANCH  75  78
ATOM     78  C   UNL A   1      31.286  24.667  26.035  1.00  0.00     0.178 A 
ATOM     79  N   UNL A   1      31.727  24.201  27.242  1.00  0.00    -0.124 NA
ATOM     80  C   UNL A   1      31.931  23.980  24.997  1.00  0.00     0.122 A 
ATOM     81  N   UNL A   1      32.515  23.173  27.022  1.00  0.00    -0.061 NA
ATOM     82  N   UNL A   1      32.588  22.955  25.689  1.00  0.00    -0.213 N 
BRANCH  80  83
ATOM     83  C   UNL A   1      31.825  24.051  23.495  1.00  0.00     0.262 C 
ATOM     84  C   UNL A   1      33.123  23.963  22.675  1.00  0.00     0.281 C 
ATOM     85  O   UNL A   1      31.070  25.204  23.140  1.00  0.00    -0.477 OA
ATOM     86  O   UNL A   1      33.946  25.135  22.709  1.00  0.00    -0.485 OA
ATOM     87  C   UNL A   1      31.851  26.295  22.893  1.00  0.00     0.162 A 
ATOM     88  C   UNL A   1      33.213  26.286  22.690  1.00  0.00     0.161 A 
ATOM     89  C   UNL A   1      31.206  27.507  23.036  1.00  0.00     0.050 A 
ATOM     90  C   UNL A   1      33.888  27.507  22.585  1.00  0.00     0.050 A 
ATOM     91  C   UNL A   1      31.843  28.729  22.951  1.00  0.00     0.004 A 
ATOM     92  C   UNL A   1      33.203  28.727  22.713  1.00  0.00     0.004 A 
ENDBRANCH  80  83
BRANCH  82  93
ATOM     93  C   UNL A   1      33.087  21.699  25.250  1.00  0.00     0.068 A 
ATOM     94  C   UNL A   1      32.266  20.608  24.956  1.00  0.00     0.028 A 
ATOM     95  C   UNL A   1      34.486  21.556  25.164  1.00  0.00     0.044 A 
ATOM     96  C   UNL A   1      32.841  19.373  24.636  1.00  0.00     0.003 A 
ATOM     97  C   UNL A   1      35.046  20.317  24.869  1.00  0.00     0.020 A 
ATOM     98  C   UNL A   1      34.229  19.221  24.611  1.00  0.00     0.016 A 
ATOM     99  Br  UNL A   1      36.926  20.118  24.862  1.00  0.00    -0.051 Br
ENDBRANCH  82  93
ENDBRANCH  75  78
ENDBRANCH  73  74
ENDBRANCH  72  73
ENDBRANCH   1  72
TORSDOF 13
ENDMDL
MODEL 3
REMARK VINA RESULT:     -14.0      3.231      8.376
REMARK SMILES O=C(NCCCCNC(=O)c1nnn(-c2cccc(Br)c2)c1[C@@H]1COc2ccccc2O1)c1ccc(-c2c3nc(c(-c4c(F)c(F)c(F)c(F)c4F)c4ccc([nH]4)c(-c4c(F)c(F)c(F)c(F)c4F)c4nc(c(-c5c(F)c(F)c(F)c(F)c5F)c5ccc2[nH]5)C=C4)C=C3)cc1
REMARK SMILES IDX 5 1 4 2 3 3 1 4 2 5 33 7 34 8 95 9 35 10 94 11 36 12 37 13
REMARK SMILES IDX 38 14 88 15 39 16 93 17 87 18 89 19 40 20 92 21 86 22 85 23
REMARK SMILES IDX 41 25 73 26 53 27 72 28 54 29 57 30 71 31 90 32 55 33 56 34
REMARK SMILES IDX 70 36 91 37 58 38 42 39 43 40 51 41 44 42 45 43 49 44 52 45
REMARK SMILES IDX 46 46 47 47 50 48 48 49 74 50 75 51 83 52 76 53 77 54 81 55
REMARK SMILES IDX 84 56 78 57 79 58 82 59 80 60 59 61 60 62 68 63 61 64 62 65
REMARK SMILES IDX 66 66 69 67 63 68 64 69 67 70 65 71 6 72 7 73 8 74 9 75
REMARK SMILES IDX 10 77 11 78 12 79 22 80 13 81 14 82 23 83 24 84 32 85 25 86
REMARK SMILES IDX 31 87 26 88 30 89 27 90 29 91 28 92 15 93 16 94 21 95 17 96
REMARK SMILES IDX 19 97 18 98 20 99
REMARK H PARENT 3 6 89 24 57 35 8 76
REMARK Flexibility Score: inf
ROOT
ATOM      1  C   UNL A   1      33.113  29.806  26.322  1.00  0.00     0.023 C 
ENDROOT
BRANCH   1   2
ATOM      2  C   UNL A   1      34.291  30.355  27.141  1.00  0.00     0.116 C 
BRANCH   2   3
ATOM      3  N   UNL A   1      34.025  31.012  28.392  1.00  0.00    -0.352 N 
ATOM      4  O   UNL A   1      34.497  32.900  29.535  1.00  0.00    -0.269 OA
ATOM      5  C   UNL A   1      34.894  31.843  29.057  1.00  0.00     0.251 C 
ATOM      6  H   UNL A   1      33.146  30.854  28.806  1.00  0.00     0.163 HD
BRANCH   5   7
ATOM      7  C   UNL A   1      36.217  31.315  29.430  1.00  0.00     0.039 A 
ATOM      8  C   UNL A   1      37.372  32.090  29.537  1.00  0.00     0.014 A 
ATOM      9  C   UNL A   1      36.283  29.921  29.531  1.00  0.00     0.014 A 
ATOM     10  C   UNL A   1      38.603  31.471  29.528  1.00  0.00     0.010 A 
ATOM     11  C   UNL A   1      37.513  29.298  29.599  1.00  0.00     0.010 A 
ATOM     12  C   UNL A   1      38.667  30.076  29.521  1.00  0.00    -0.014 A 
BRANCH  12  13
ATOM     13  C   UNL A   1      39.989  29.477  29.618  1.00  0.00     0.031 A 
ATOM     14  C   UNL A   1      40.506  29.388  31.016  1.00  0.00     0.074 A 
ATOM     15  C   UNL A   1      40.608  28.931  28.554  1.00  0.00     0.049 A 
ATOM     16  N   UNL A   1      41.633  29.808  31.492  1.00  0.00    -0.248 NA
ATOM     17  C   UNL A   1      39.578  28.877  32.044  1.00  0.00     0.031 C 
ATOM     18  C   UNL A   1      40.072  28.728  27.206  1.00  0.00     0.029 A 
ATOM     19  N   UNL A   1      41.821  28.320  28.495  1.00  0.00    -0.354 N 
ATOM     20  C   UNL A   1      41.626  29.466  32.846  1.00  0.00     0.074 A 
ATOM     21  C   UNL A   1      40.291  29.038  33.156  1.00  0.00     0.031 C 
ATOM     22  C   UNL A   1      40.840  27.826  26.557  1.00  0.00     0.029 A 
ATOM     23  C   UNL A   1      41.980  27.493  27.392  1.00  0.00     0.049 A 
ATOM     24  H   UNL A   1      42.523  28.452  29.172  1.00  0.00     0.167 HD
ATOM     25  C   UNL A   1      42.784  29.339  33.550  1.00  0.00     0.037 A 
ATOM     26  C   UNL A   1      42.928  26.538  27.236  1.00  0.00     0.037 A 
ATOM     27  C   UNL A   1      43.844  30.103  32.943  1.00  0.00     0.049 A 
ATOM     28  C   UNL A   1      44.012  26.814  28.213  1.00  0.00     0.074 A 
ATOM     29  C   UNL A   1      44.046  31.445  32.681  1.00  0.00     0.029 A 
ATOM     30  N   UNL A   1      44.783  29.439  32.196  1.00  0.00    -0.354 N 
ATOM     31  N   UNL A   1      44.810  27.842  28.145  1.00  0.00    -0.248 NA
ATOM     32  C   UNL A   1      43.916  26.184  29.522  1.00  0.00     0.031 C 
ATOM     33  C   UNL A   1      44.746  31.478  31.438  1.00  0.00     0.029 A 
ATOM     34  C   UNL A   1      44.969  30.159  31.047  1.00  0.00     0.049 A 
ATOM     35  H   UNL A   1      45.239  28.601  32.442  1.00  0.00     0.167 HD
ATOM     36  C   UNL A   1      44.978  28.246  29.462  1.00  0.00     0.074 A 
ATOM     37  C   UNL A   1      44.479  27.137  30.269  1.00  0.00     0.031 C 
ATOM     38  C   UNL A   1      45.239  29.550  29.767  1.00  0.00     0.037 A 
BRANCH  25  39
ATOM     39  C   UNL A   1      43.051  28.200  34.514  1.00  0.00     0.064 A 
ATOM     40  C   UNL A   1      43.387  28.513  35.849  1.00  0.00     0.173 A 
ATOM     41  C   UNL A   1      43.324  26.870  34.123  1.00  0.00     0.173 A 
ATOM     42  F   UNL A   1      43.158  29.739  36.343  1.00  0.00    -0.203 F 
ATOM     43  C   UNL A   1      44.069  27.613  36.671  1.00  0.00     0.198 A 
ATOM     44  C   UNL A   1      43.961  25.960  34.962  1.00  0.00     0.198 A 
ATOM     45  F   UNL A   1      43.087  26.418  32.888  1.00  0.00    -0.203 F 
ATOM     46  F   UNL A   1      44.504  28.011  37.874  1.00  0.00    -0.200 F 
ATOM     47  C   UNL A   1      44.374  26.343  36.220  1.00  0.00     0.200 A 
ATOM     48  F   UNL A   1      44.252  24.734  34.503  1.00  0.00    -0.200 F 
ATOM     49  F   UNL A   1      45.102  25.507  36.971  1.00  0.00    -0.200 F 
ENDBRANCH  25  39
BRANCH  26  50
ATOM     50  C   UNL A   1      42.790  25.229  26.554  1.00  0.00     0.064 A 
ATOM     51  C   UNL A   1      43.577  24.908  25.436  1.00  0.00     0.173 A 
ATOM     52  C   UNL A   1      42.073  24.167  27.141  1.00  0.00     0.173 A 
ATOM     53  F   UNL A   1      44.331  25.849  24.851  1.00  0.00    -0.203 F 
ATOM     54  C   UNL A   1      43.655  23.599  24.947  1.00  0.00     0.198 A 
ATOM     55  C   UNL A   1      42.143  22.865  26.645  1.00  0.00     0.198 A 
ATOM     56  F   UNL A   1      41.367  24.350  28.265  1.00  0.00    -0.203 F 
ATOM     57  F   UNL A   1      44.464  23.319  23.915  1.00  0.00    -0.200 F 
ATOM     58  C   UNL A   1      42.943  22.578  25.556  1.00  0.00     0.200 A 
ATOM     59  F   UNL A   1      41.479  21.880  27.267  1.00  0.00    -0.200 F 
ATOM     60  F   UNL A   1      43.060  21.316  25.121  1.00  0.00    -0.200 F 
ENDBRANCH  26  50
BRANCH  38  61
ATOM     61  C   UNL A   1      45.593  30.476  28.640  1.00  0.00     0.064 A 
ATOM     62  C   UNL A   1      44.644  31.154  27.855  1.00  0.00     0.173 A 
ATOM     63  C   UNL A   1      46.943  30.796  28.442  1.00  0.00     0.173 A 
ATOM     64  F   UNL A   1      43.333  30.983  28.058  1.00  0.00    -0.203 F 
ATOM     65  C   UNL A   1      45.035  32.074  26.886  1.00  0.00     0.198 A 
ATOM     66  C   UNL A   1      47.327  31.744  27.499  1.00  0.00     0.198 A 
ATOM     67  F   UNL A   1      47.888  30.224  29.204  1.00  0.00    -0.203 F 
ATOM     68  F   UNL A   1      44.110  32.700  26.142  1.00  0.00    -0.200 F 
ATOM     69  C   UNL A   1      46.375  32.374  26.713  1.00  0.00     0.200 A 
ATOM     70  F   UNL A   1      48.621  32.069  27.373  1.00  0.00    -0.200 F 
ATOM     71  F   UNL A   1      46.749  33.291  25.810  1.00  0.00    -0.200 F 
ENDBRANCH  38  61
ENDBRANCH  12  13
ENDBRANCH   5   7
ENDBRANCH   2   3
ENDBRANCH   1   2
BRANCH   1  72
ATOM     72  C   UNL A   1      32.017  28.930  26.961  1.00  0.00     0.023 C 
BRANCH  72  73
ATOM     73  C   UNL A   1      31.935  27.411  26.697  1.00  0.00     0.116 C 
BRANCH  73  74
ATOM     74  N   UNL A   1      30.634  26.901  26.294  1.00  0.00    -0.351 N 
ATOM     75  C   UNL A   1      30.266  25.578  26.049  1.00  0.00     0.273 C 
ATOM     76  H   UNL A   1      29.925  27.574  26.177  1.00  0.00     0.163 HD
ATOM     77  O   UNL A   1      29.110  25.321  25.775  1.00  0.00    -0.267 OA
BRANCH  75  78
ATOM     78  C   UNL A   1      31.316  24.559  26.030  1.00  0.00     0.178 A 
ATOM     79  N   UNL A   1      31.777  24.105  27.233  1.00  0.00    -0.124 NA
ATOM     80  C   UNL A   1      31.978  23.896  24.987  1.00  0.00     0.122 A 
ATOM     81  N   UNL A   1      32.597  23.103  27.007  1.00  0.00    -0.061 NA
ATOM     82  N   UNL A   1      32.671  22.892  25.674  1.00  0.00    -0.213 N 
BRANCH  80  83
ATOM     83  C   UNL A   1      31.864  23.968  23.485  1.00  0.00     0.262 C 
ATOM     84  C   UNL A   1      33.162  23.953  22.661  1.00  0.00     0.281 C 
ATOM     85  O   UNL A   1      31.047  25.082  23.138  1.00  0.00    -0.477 OA
ATOM     86  O   UNL A   1      33.922  25.167  22.698  1.00  0.00    -0.485 OA
ATOM     87  C   UNL A   1      31.770  26.214  22.894  1.00  0.00     0.162 A 
ATOM     88  C   UNL A   1      33.130  26.277  22.687  1.00  0.00     0.161 A 
ATOM     89  C   UNL A   1      31.062  27.389  23.044  1.00  0.00     0.050 A 
ATOM     90  C   UNL A   1      33.739  27.532  22.585  1.00  0.00     0.050 A 
ATOM     91  C   UNL A   1      31.633  28.643  22.963  1.00  0.00     0.004 A 
ATOM     92  C   UNL A   1      32.990  28.714  22.720  1.00  0.00     0.004 A 
ENDBRANCH  80  83
BRANCH  82  93
ATOM     93  C   UNL A   1      33.209  21.653  25.229  1.00  0.00     0.068 A 
ATOM     94  C   UNL A   1      32.420  20.551  24.892  1.00  0.00     0.028 A 
ATOM     95  C   UNL A   1      34.612  21.540  25.182  1.00  0.00     0.044 A 
ATOM     96  C   UNL A   1      33.030  19.334  24.569  1.00  0.00     0.003 A 
ATOM     97  C   UNL A   1      35.206  20.319  24.883  1.00  0.00     0.020 A 
ATOM     98  C   UNL A   1      34.420  19.211  24.583  1.00  0.00     0.016 A 
ATOM     99  Br  UNL A   1      37.089  20.158  24.929  1.00  0.00    -0.051 Br
ENDBRANCH  82  93
ENDBRANCH  75  78
ENDBRANCH  73  74
ENDBRANCH  72  73
ENDBRANCH   1  72
TORSDOF 13
ENDMDL
