MODEL 1
REMARK VINA RESULT:     -13.2      0.000      0.000
REMARK SMILES Cc1cc(Br)cc2c1O[C@H](C(F)(F)F)C(C(=O)NCCCCNC(=O)c1ccc(-c3c4nc(c(-c5c(F)c(F)c(F)c(F)c5F)c5ccc([nH]5)c(-c5c(F)c(F)c(F)c(F)c5F)c5nc(c(-c6c(F)c(F)c(F)c(F)c6F)c6ccc3[nH]6)C=C5)C=C4)cc1)=C2
REMARK SMILES IDX 21 1 20 2 19 3 18 4 16 5 17 6 15 8 1 9 2 10 3 11 8 12 4 13
REMARK SMILES IDX 7 14 9 15 5 16 6 17 89 18 10 19 11 20 12 21 13 22 14 23
REMARK SMILES IDX 22 24 23 25 24 26 25 28 26 29 27 30 88 31 28 32 87 33 29 34
REMARK SMILES IDX 30 35 31 36 81 37 32 38 86 39 80 40 82 41 33 42 85 43 79 44
REMARK SMILES IDX 78 45 34 47 66 48 46 49 65 50 47 51 50 52 64 53 83 54 48 55
REMARK SMILES IDX 49 56 63 58 84 59 51 60 35 61 36 62 44 63 37 64 38 65 42 66
REMARK SMILES IDX 45 67 39 68 40 69 43 70 41 71 67 72 68 73 76 74 69 75 70 76
REMARK SMILES IDX 74 77 77 78 71 79 72 80 75 81 73 82 52 83 53 84 61 85 54 86
REMARK SMILES IDX 55 87 59 88 62 89 56 90 57 91 60 92 58 93
REMARK H PARENT 18 7 23 27 82 46 50 57
REMARK Flexibility Score: inf
ROOT
ATOM      1  C   UNL A   1      31.536  32.007  26.751  1.00  0.00     0.023 C 
ENDROOT
BRANCH   1   2
ATOM      2  C   UNL A   1      31.724  30.489  26.789  1.00  0.00     0.023 C 
BRANCH   2   3
ATOM      3  C   UNL A   1      33.184  30.044  26.787  1.00  0.00     0.116 C 
BRANCH   3   4
ATOM      4  N   UNL A   1      33.641  29.692  25.455  1.00  0.00    -0.352 N 
ATOM      5  C   UNL A   1      33.630  28.592  24.666  1.00  0.00     0.251 C 
ATOM      6  O   UNL A   1      34.158  28.738  23.559  1.00  0.00    -0.270 OA
ATOM      7  H   UNL A   1      34.073  30.455  25.007  1.00  0.00     0.163 HD
BRANCH   5   8
ATOM      8  C   UNL A   1      33.046  27.269  25.036  1.00  0.00     0.067 C 
ATOM      9  C   UNL A   1      30.280  23.344  26.876  1.00  0.00     0.048 C 
ATOM     10  C   UNL A   1      31.635  23.489  26.243  1.00  0.00    -0.007 A 
ATOM     11  C   UNL A   1      32.409  22.355  25.966  1.00  0.00     0.023 A 
ATOM     12  C   UNL A   1      32.128  24.750  25.876  1.00  0.00     0.130 A 
ATOM     13  C   UNL A   1      33.659  22.492  25.360  1.00  0.00     0.019 A 
ATOM     14  C   UNL A   1      33.383  24.888  25.276  1.00  0.00     0.019 A 
ATOM     15  O   UNL A   1      31.352  25.835  26.177  1.00  0.00    -0.475 OA
ATOM     16  Br  UNL A   1      34.697  20.951  25.007  1.00  0.00    -0.051 Br
ATOM     17  C   UNL A   1      34.152  23.749  25.018  1.00  0.00     0.027 A 
ATOM     18  C   UNL A   1      33.886  26.220  24.960  1.00  0.00     0.025 C 
ATOM     19  C   UNL A   1      31.612  27.051  25.427  1.00  0.00     0.314 C 
BRANCH  19  20
ATOM     20  C   UNL A   1      30.648  27.124  24.229  1.00  0.00     0.429 C 
ATOM     21  F   UNL A   1      30.260  28.406  24.011  1.00  0.00    -0.167 F 
ATOM     22  F   UNL A   1      31.221  26.700  23.077  1.00  0.00    -0.167 F 
ATOM     23  F   UNL A   1      29.531  26.386  24.408  1.00  0.00    -0.167 F 
ENDBRANCH  19  20
ENDBRANCH   5   8
ENDBRANCH   3   4
ENDBRANCH   2   3
ENDBRANCH   1   2
BRANCH   1  24
ATOM     24  C   UNL A   1      32.720  32.827  27.260  1.00  0.00     0.116 C 
BRANCH  24  25
ATOM     25  N   UNL A   1      32.377  34.195  27.626  1.00  0.00    -0.352 N 
ATOM     26  C   UNL A   1      32.973  34.992  28.572  1.00  0.00     0.251 C 
ATOM     27  H   UNL A   1      31.625  34.598  27.135  1.00  0.00     0.163 HD
ATOM     28  O   UNL A   1      32.532  36.107  28.829  1.00  0.00    -0.269 OA
BRANCH  26  29
ATOM     29  C   UNL A   1      34.130  34.461  29.313  1.00  0.00     0.039 A 
ATOM     30  C   UNL A   1      33.904  33.752  30.495  1.00  0.00     0.014 A 
ATOM     31  C   UNL A   1      35.422  34.597  28.796  1.00  0.00     0.014 A 
ATOM     32  C   UNL A   1      34.971  33.113  31.124  1.00  0.00     0.010 A 
ATOM     33  C   UNL A   1      36.473  33.911  29.391  1.00  0.00     0.010 A 
ATOM     34  C   UNL A   1      36.254  33.157  30.554  1.00  0.00    -0.014 A 
BRANCH  34  35
ATOM     35  C   UNL A   1      37.384  32.421  31.165  1.00  0.00     0.031 A 
ATOM     36  C   UNL A   1      37.857  32.786  32.541  1.00  0.00     0.074 A 
ATOM     37  C   UNL A   1      38.014  31.463  30.459  1.00  0.00     0.049 A 
ATOM     38  N   UNL A   1      38.863  32.306  33.225  1.00  0.00    -0.248 NA
ATOM     39  C   UNL A   1      37.113  33.851  33.233  1.00  0.00     0.031 C 
ATOM     40  C   UNL A   1      37.668  31.049  29.099  1.00  0.00     0.029 A 
ATOM     41  N   UNL A   1      39.082  30.666  30.788  1.00  0.00    -0.354 N 
ATOM     42  C   UNL A   1      38.878  33.013  34.418  1.00  0.00     0.074 A 
ATOM     43  C   UNL A   1      37.815  33.992  34.347  1.00  0.00     0.031 C 
ATOM     44  C   UNL A   1      38.487  30.054  28.720  1.00  0.00     0.029 A 
ATOM     45  C   UNL A   1      39.433  29.782  29.798  1.00  0.00     0.049 A 
ATOM     46  H   UNL A   1      39.550  30.722  31.653  1.00  0.00     0.167 HD
ATOM     47  C   UNL A   1      39.690  32.842  35.487  1.00  0.00     0.037 A 
ATOM     48  C   UNL A   1      40.409  28.854  29.768  1.00  0.00     0.037 A 
ATOM     49  C   UNL A   1      40.726  31.849  35.564  1.00  0.00     0.049 A 
ATOM     50  C   UNL A   1      41.301  28.689  30.968  1.00  0.00     0.074 A 
ATOM     51  C   UNL A   1      41.572  31.566  36.622  1.00  0.00     0.029 A 
ATOM     52  N   UNL A   1      41.053  30.970  34.542  1.00  0.00    -0.354 N 
ATOM     53  N   UNL A   1      41.279  29.335  32.108  1.00  0.00    -0.248 NA
ATOM     54  C   UNL A   1      42.355  27.668  30.876  1.00  0.00     0.031 C 
ATOM     55  C   UNL A   1      42.430  30.535  36.229  1.00  0.00     0.029 A 
ATOM     56  C   UNL A   1      42.097  30.152  34.940  1.00  0.00     0.049 A 
ATOM     57  H   UNL A   1      40.608  30.934  33.665  1.00  0.00     0.167 HD
ATOM     58  C   UNL A   1      42.298  28.788  32.876  1.00  0.00     0.074 A 
ATOM     59  C   UNL A   1      42.912  27.748  32.077  1.00  0.00     0.031 C 
ATOM     60  C   UNL A   1      42.689  29.120  34.129  1.00  0.00     0.037 A 
BRANCH  47  61
ATOM     61  C   UNL A   1      39.472  33.738  36.668  1.00  0.00     0.064 A 
ATOM     62  C   UNL A   1      38.716  33.315  37.773  1.00  0.00     0.173 A 
ATOM     63  C   UNL A   1      40.053  35.013  36.716  1.00  0.00     0.173 A 
ATOM     64  F   UNL A   1      38.128  32.110  37.766  1.00  0.00    -0.203 F 
ATOM     65  C   UNL A   1      38.532  34.147  38.873  1.00  0.00     0.198 A 
ATOM     66  C   UNL A   1      39.888  35.832  37.829  1.00  0.00     0.198 A 
ATOM     67  F   UNL A   1      40.786  35.461  35.686  1.00  0.00    -0.203 F 
ATOM     68  F   UNL A   1      37.773  33.739  39.900  1.00  0.00    -0.200 F 
ATOM     69  C   UNL A   1      39.124  35.400  38.904  1.00  0.00     0.200 A 
ATOM     70  F   UNL A   1      40.468  37.040  37.862  1.00  0.00    -0.200 F 
ATOM     71  F   UNL A   1      38.953  36.197  39.968  1.00  0.00    -0.200 F 
ENDBRANCH  47  61
BRANCH  48  72
ATOM     72  C   UNL A   1      40.560  27.980  28.578  1.00  0.00     0.064 A 
ATOM     73  C   UNL A   1      39.917  26.737  28.520  1.00  0.00     0.173 A 
ATOM     74  C   UNL A   1      41.330  28.372  27.473  1.00  0.00     0.173 A 
ATOM     75  F   UNL A   1      39.186  26.313  29.561  1.00  0.00    -0.203 F 
ATOM     76  C   UNL A   1      40.044  25.912  27.404  1.00  0.00     0.198 A 
ATOM     77  C   UNL A   1      41.440  27.556  26.349  1.00  0.00     0.198 A 
ATOM     78  F   UNL A   1      41.961  29.555  27.481  1.00  0.00    -0.203 F 
ATOM     79  F   UNL A   1      39.442  24.716  27.386  1.00  0.00    -0.200 F 
ATOM     80  C   UNL A   1      40.800  26.326  26.317  1.00  0.00     0.200 A 
ATOM     81  F   UNL A   1      42.161  27.962  25.296  1.00  0.00    -0.200 F 
ATOM     82  F   UNL A   1      40.916  25.536  25.241  1.00  0.00    -0.200 F 
ENDBRANCH  48  72
BRANCH  60  83
ATOM     83  C   UNL A   1      43.825  28.345  34.727  1.00  0.00     0.064 A 
ATOM     84  C   UNL A   1      45.143  28.813  34.654  1.00  0.00     0.173 A 
ATOM     85  C   UNL A   1      43.579  27.164  35.444  1.00  0.00     0.173 A 
ATOM     86  F   UNL A   1      45.426  29.930  33.966  1.00  0.00    -0.203 F 
ATOM     87  C   UNL A   1      46.180  28.121  35.271  1.00  0.00     0.198 A 
ATOM     88  C   UNL A   1      44.616  26.488  36.080  1.00  0.00     0.198 A 
ATOM     89  F   UNL A   1      42.332  26.681  35.547  1.00  0.00    -0.203 F 
ATOM     90  F   UNL A   1      47.439  28.571  35.169  1.00  0.00    -0.200 F 
ATOM     91  C   UNL A   1      45.915  26.965  35.992  1.00  0.00     0.200 A 
ATOM     92  F   UNL A   1      44.356  25.378  36.785  1.00  0.00    -0.200 F 
ATOM     93  F   UNL A   1      46.914  26.309  36.599  1.00  0.00    -0.200 F 
ENDBRANCH  60  83
ENDBRANCH  34  35
ENDBRANCH  26  29
ENDBRANCH  24  25
ENDBRANCH   1  24
TORSDOF 12
ENDMDL
MODEL 2
REMARK VINA RESULT:     -13.2      0.155      1.203
REMARK SMILES Cc1cc(Br)cc2c1O[C@H](C(F)(F)F)C(C(=O)NCCCCNC(=O)c1ccc(-c3c4nc(c(-c5c(F)c(F)c(F)c(F)c5F)c5ccc([nH]5)c(-c5c(F)c(F)c(F)c(F)c5F)c5nc(c(-c6c(F)c(F)c(F)c(F)c6F)c6ccc3[nH]6)C=C5)C=C4)cc1)=C2
REMARK SMILES IDX 21 1 20 2 19 3 18 4 16 5 17 6 15 8 1 9 2 10 3 11 8 12 4 13
REMARK SMILES IDX 7 14 9 15 5 16 6 17 89 18 10 19 11 20 12 21 13 22 14 23
REMARK SMILES IDX 22 24 23 25 24 26 25 28 26 29 27 30 88 31 28 32 87 33 29 34
REMARK SMILES IDX 30 35 31 36 81 37 32 38 86 39 80 40 82 41 33 42 85 43 79 44
REMARK SMILES IDX 78 45 34 47 66 48 46 49 65 50 47 51 50 52 64 53 83 54 48 55
REMARK SMILES IDX 49 56 63 58 84 59 51 60 35 61 36 62 44 63 37 64 38 65 42 66
REMARK SMILES IDX 45 67 39 68 40 69 43 70 41 71 67 72 68 73 76 74 69 75 70 76
REMARK SMILES IDX 74 77 77 78 71 79 72 80 75 81 73 82 52 83 53 84 61 85 54 86
REMARK SMILES IDX 55 87 59 88 62 89 56 90 57 91 60 92 58 93
REMARK H PARENT 18 7 23 27 82 46 50 57
REMARK Flexibility Score: inf
ROOT
ATOM      1  C   UNL A   1      31.595  32.024  26.652  1.00  0.00     0.023 C 
ENDROOT
BRANCH   1   2
ATOM      2  C   UNL A   1      31.736  30.500  26.664  1.00  0.00     0.023 C 
BRANCH   2   3
ATOM      3  C   UNL A   1      33.181  30.009  26.681  1.00  0.00     0.116 C 
BRANCH   3   4
ATOM      4  N   UNL A   1      33.642  29.636  25.357  1.00  0.00    -0.352 N 
ATOM      5  C   UNL A   1      33.640  28.521  24.589  1.00  0.00     0.251 C 
ATOM      6  O   UNL A   1      34.169  28.650  23.480  1.00  0.00    -0.270 OA
ATOM      7  H   UNL A   1      34.070  30.393  24.895  1.00  0.00     0.163 HD
BRANCH   5   8
ATOM      8  C   UNL A   1      33.064  27.201  24.983  1.00  0.00     0.067 C 
ATOM      9  C   UNL A   1      30.310  23.293  26.875  1.00  0.00     0.048 C 
ATOM     10  C   UNL A   1      31.675  23.438  26.265  1.00  0.00    -0.007 A 
ATOM     11  C   UNL A   1      32.468  22.307  26.035  1.00  0.00     0.023 A 
ATOM     12  C   UNL A   1      32.160  24.695  25.874  1.00  0.00     0.130 A 
ATOM     13  C   UNL A   1      33.729  22.443  25.450  1.00  0.00     0.019 A 
ATOM     14  C   UNL A   1      33.426  24.832  25.295  1.00  0.00     0.019 A 
ATOM     15  O   UNL A   1      31.366  25.777  26.129  1.00  0.00    -0.475 OA
ATOM     16  Br  UNL A   1      34.792  20.906  25.159  1.00  0.00    -0.051 Br
ATOM     17  C   UNL A   1      34.214  23.697  25.084  1.00  0.00     0.027 A 
ATOM     18  C   UNL A   1      33.919  26.161  24.953  1.00  0.00     0.025 C 
ATOM     19  C   UNL A   1      31.626  26.976  25.352  1.00  0.00     0.314 C 
BRANCH  19  20
ATOM     20  C   UNL A   1      30.686  27.004  24.134  1.00  0.00     0.429 C 
ATOM     21  F   UNL A   1      31.334  26.565  23.025  1.00  0.00    -0.167 F 
ATOM     22  F   UNL A   1      29.610  26.196  24.290  1.00  0.00    -0.167 F 
ATOM     23  F   UNL A   1      30.213  28.241  23.864  1.00  0.00    -0.167 F 
ENDBRANCH  19  20
ENDBRANCH   5   8
ENDBRANCH   3   4
ENDBRANCH   2   3
ENDBRANCH   1   2
BRANCH   1  24
ATOM     24  C   UNL A   1      32.740  32.793  27.308  1.00  0.00     0.116 C 
BRANCH  24  25
ATOM     25  N   UNL A   1      32.397  34.158  27.681  1.00  0.00    -0.352 N 
ATOM     26  C   UNL A   1      33.003  34.956  28.621  1.00  0.00     0.251 C 
ATOM     27  H   UNL A   1      31.637  34.559  27.201  1.00  0.00     0.163 HD
ATOM     28  O   UNL A   1      32.561  36.068  28.886  1.00  0.00    -0.269 OA
BRANCH  26  29
ATOM     29  C   UNL A   1      34.172  34.428  29.346  1.00  0.00     0.039 A 
ATOM     30  C   UNL A   1      33.962  33.690  30.512  1.00  0.00     0.014 A 
ATOM     31  C   UNL A   1      35.458  34.598  28.826  1.00  0.00     0.014 A 
ATOM     32  C   UNL A   1      35.043  33.054  31.122  1.00  0.00     0.010 A 
ATOM     33  C   UNL A   1      36.523  33.916  29.402  1.00  0.00     0.010 A 
ATOM     34  C   UNL A   1      36.322  33.133  30.549  1.00  0.00    -0.014 A 
BRANCH  34  35
ATOM     35  C   UNL A   1      37.467  32.402  31.138  1.00  0.00     0.031 A 
ATOM     36  C   UNL A   1      37.962  32.769  32.506  1.00  0.00     0.074 A 
ATOM     37  C   UNL A   1      38.089  31.448  30.420  1.00  0.00     0.049 A 
ATOM     38  N   UNL A   1      38.984  32.294  33.171  1.00  0.00    -0.248 NA
ATOM     39  C   UNL A   1      37.225  33.830  33.212  1.00  0.00     0.031 C 
ATOM     40  C   UNL A   1      37.721  31.033  29.066  1.00  0.00     0.029 A 
ATOM     41  N   UNL A   1      39.167  30.656  30.730  1.00  0.00    -0.354 N 
ATOM     42  C   UNL A   1      39.016  33.000  34.364  1.00  0.00     0.074 A 
ATOM     43  C   UNL A   1      37.947  33.973  34.313  1.00  0.00     0.031 C 
ATOM     44  C   UNL A   1      38.538  30.043  28.673  1.00  0.00     0.029 A 
ATOM     45  C   UNL A   1      39.505  29.775  29.733  1.00  0.00     0.049 A 
ATOM     46  H   UNL A   1      39.650  30.715  31.585  1.00  0.00     0.167 HD
ATOM     47  C   UNL A   1      39.848  32.833  35.419  1.00  0.00     0.037 A 
ATOM     48  C   UNL A   1      40.485  28.852  29.685  1.00  0.00     0.037 A 
ATOM     49  C   UNL A   1      40.891  31.845  35.476  1.00  0.00     0.049 A 
ATOM     50  C   UNL A   1      41.399  28.691  30.868  1.00  0.00     0.074 A 
ATOM     51  C   UNL A   1      41.757  31.566  36.518  1.00  0.00     0.029 A 
ATOM     52  N   UNL A   1      41.203  30.969  34.448  1.00  0.00    -0.354 N 
ATOM     53  N   UNL A   1      41.395  29.336  32.009  1.00  0.00    -0.248 NA
ATOM     54  C   UNL A   1      42.457  27.676  30.756  1.00  0.00     0.031 C 
ATOM     55  C   UNL A   1      42.614  30.540  36.109  1.00  0.00     0.029 A 
ATOM     56  C   UNL A   1      42.259  30.156  34.826  1.00  0.00     0.049 A 
ATOM     57  H   UNL A   1      40.743  30.931  33.578  1.00  0.00     0.167 HD
ATOM     58  C   UNL A   1      42.430  28.794  32.757  1.00  0.00     0.074 A 
ATOM     59  C   UNL A   1      43.035  27.758  31.947  1.00  0.00     0.031 C 
ATOM     60  C   UNL A   1      42.842  29.127  34.004  1.00  0.00     0.037 A 
BRANCH  47  61
ATOM     61  C   UNL A   1      39.647  33.727  36.604  1.00  0.00     0.064 A 
ATOM     62  C   UNL A   1      40.242  34.996  36.667  1.00  0.00     0.173 A 
ATOM     63  C   UNL A   1      38.822  33.333  37.666  1.00  0.00     0.173 A 
ATOM     64  F   UNL A   1      41.051  35.411  35.681  1.00  0.00    -0.203 F 
ATOM     65  C   UNL A   1      40.037  35.828  37.763  1.00  0.00     0.198 A 
ATOM     66  C   UNL A   1      38.598  34.178  38.749  1.00  0.00     0.198 A 
ATOM     67  F   UNL A   1      38.228  32.129  37.651  1.00  0.00    -0.203 F 
ATOM     68  F   UNL A   1      40.648  37.020  37.822  1.00  0.00    -0.200 F 
ATOM     69  C   UNL A   1      39.209  35.422  38.799  1.00  0.00     0.200 A 
ATOM     70  F   UNL A   1      37.792  33.788  39.746  1.00  0.00    -0.200 F 
ATOM     71  F   UNL A   1      39.006  36.228  39.851  1.00  0.00    -0.200 F 
ENDBRANCH  47  61
BRANCH  48  72
ATOM     72  C   UNL A   1      40.620  27.980  28.491  1.00  0.00     0.064 A 
ATOM     73  C   UNL A   1      39.980  26.734  28.443  1.00  0.00     0.173 A 
ATOM     74  C   UNL A   1      41.368  28.376  27.374  1.00  0.00     0.173 A 
ATOM     75  F   UNL A   1      39.268  26.306  29.496  1.00  0.00    -0.203 F 
ATOM     76  C   UNL A   1      40.092  25.911  27.324  1.00  0.00     0.198 A 
ATOM     77  C   UNL A   1      41.462  27.561  26.248  1.00  0.00     0.198 A 
ATOM     78  F   UNL A   1      41.995  29.561  27.371  1.00  0.00    -0.203 F 
ATOM     79  F   UNL A   1      39.493  24.713  27.316  1.00  0.00    -0.200 F 
ATOM     80  C   UNL A   1      40.827  26.328  26.225  1.00  0.00     0.200 A 
ATOM     81  F   UNL A   1      42.164  27.971  25.182  1.00  0.00    -0.200 F 
ATOM     82  F   UNL A   1      40.927  25.539  25.146  1.00  0.00    -0.200 F 
ENDBRANCH  48  72
BRANCH  60  83
ATOM     83  C   UNL A   1      43.992  28.358  34.581  1.00  0.00     0.064 A 
ATOM     84  C   UNL A   1      45.309  28.822  34.466  1.00  0.00     0.173 A 
ATOM     85  C   UNL A   1      43.765  27.187  35.319  1.00  0.00     0.173 A 
ATOM     86  F   UNL A   1      45.575  29.930  33.756  1.00  0.00    -0.203 F 
ATOM     87  C   UNL A   1      46.362  28.137  35.063  1.00  0.00     0.198 A 
ATOM     88  C   UNL A   1      44.817  26.517  35.935  1.00  0.00     0.198 A 
ATOM     89  F   UNL A   1      42.520  26.708  35.462  1.00  0.00    -0.203 F 
ATOM     90  F   UNL A   1      47.618  28.583  34.921  1.00  0.00    -0.200 F 
ATOM     91  C   UNL A   1      46.114  26.991  35.806  1.00  0.00     0.200 A 
ATOM     92  F   UNL A   1      44.575  25.417  36.661  1.00  0.00    -0.200 F 
ATOM     93  F   UNL A   1      47.128  26.341  36.394  1.00  0.00    -0.200 F 
ENDBRANCH  60  83
ENDBRANCH  34  35
ENDBRANCH  26  29
ENDBRANCH  24  25
ENDBRANCH   1  24
TORSDOF 12
ENDMDL
MODEL 3
REMARK VINA RESULT:     -13.2      0.470      7.324
REMARK SMILES Cc1cc(Br)cc2c1O[C@H](C(F)(F)F)C(C(=O)NCCCCNC(=O)c1ccc(-c3c4nc(c(-c5c(F)c(F)c(F)c(F)c5F)c5ccc([nH]5)c(-c5c(F)c(F)c(F)c(F)c5F)c5nc(c(-c6c(F)c(F)c(F)c(F)c6F)c6ccc3[nH]6)C=C5)C=C4)cc1)=C2
REMARK SMILES IDX 21 1 20 2 19 3 18 4 16 5 17 6 15 8 1 9 2 10 3 11 8 12 4 13
REMARK SMILES IDX 7 14 9 15 5 16 6 17 89 18 10 19 11 20 12 21 13 22 14 23
REMARK SMILES IDX 22 24 23 25 24 26 25 28 26 29 27 30 88 31 28 32 87 33 29 34
REMARK SMILES IDX 30 35 31 36 81 37 32 38 86 39 80 40 82 41 33 42 85 43 79 44
REMARK SMILES IDX 78 45 34 47 66 48 46 49 65 50 47 51 50 52 64 53 83 54 48 55
REMARK SMILES IDX 49 56 63 58 84 59 51 60 35 61 36 62 44 63 37 64 38 65 42 66
REMARK SMILES IDX 45 67 39 68 40 69 43 70 41 71 67 72 68 73 76 74 69 75 70 76
REMARK SMILES IDX 74 77 77 78 71 79 72 80 75 81 73 82 52 83 53 84 61 85 54 86
REMARK SMILES IDX 55 87 59 88 62 89 56 90 57 91 60 92 58 93
REMARK H PARENT 18 7 23 27 82 46 50 57
REMARK Flexibility Score: inf
ROOT
ATOM      1  C   UNL A   1      31.656  31.920  26.851  1.00  0.00     0.023 C 
ENDROOT
BRANCH   1   2
ATOM      2  C   UNL A   1      31.904  30.411  26.888  1.00  0.00     0.023 C 
BRANCH   2   3
ATOM      3  C   UNL A   1      33.362  30.014  26.672  1.00  0.00     0.116 C 
BRANCH   3   4
ATOM      4  N   UNL A   1      33.636  29.693  25.284  1.00  0.00    -0.352 N 
ATOM      5  C   UNL A   1      33.542  28.604  24.485  1.00  0.00     0.251 C 
ATOM      6  O   UNL A   1      33.906  28.779  23.318  1.00  0.00    -0.270 OA
ATOM      7  H   UNL A   1      33.982  30.473  24.793  1.00  0.00     0.163 HD
BRANCH   5   8
ATOM      8  C   UNL A   1      33.048  27.261  24.910  1.00  0.00     0.067 C 
ATOM      9  C   UNL A   1      30.544  23.236  26.903  1.00  0.00     0.048 C 
ATOM     10  C   UNL A   1      31.894  23.449  26.279  1.00  0.00    -0.007 A 
ATOM     11  C   UNL A   1      32.751  22.362  26.065  1.00  0.00     0.023 A 
ATOM     12  C   UNL A   1      32.301  24.724  25.859  1.00  0.00     0.130 A 
ATOM     13  C   UNL A   1      33.997  22.561  25.467  1.00  0.00     0.019 A 
ATOM     14  C   UNL A   1      33.552  24.924  25.267  1.00  0.00     0.019 A 
ATOM     15  O   UNL A   1      31.445  25.763  26.099  1.00  0.00    -0.475 OA
ATOM     16  Br  UNL A   1      35.147  21.084  25.199  1.00  0.00    -0.051 Br
ATOM     17  C   UNL A   1      34.404  23.833  25.072  1.00  0.00     0.027 A 
ATOM     18  C   UNL A   1      33.963  26.273  24.894  1.00  0.00     0.025 C 
ATOM     19  C   UNL A   1      31.628  26.959  25.296  1.00  0.00     0.314 C 
BRANCH  19  20
ATOM     20  C   UNL A   1      30.680  26.906  24.084  1.00  0.00     0.429 C 
ATOM     21  F   UNL A   1      30.308  28.160  23.719  1.00  0.00    -0.167 F 
ATOM     22  F   UNL A   1      31.261  26.350  22.995  1.00  0.00    -0.167 F 
ATOM     23  F   UNL A   1      29.553  26.204  24.331  1.00  0.00    -0.167 F 
ENDBRANCH  19  20
ENDBRANCH   5   8
ENDBRANCH   3   4
ENDBRANCH   2   3
ENDBRANCH   1   2
BRANCH   1  24
ATOM     24  C   UNL A   1      32.795  32.784  27.391  1.00  0.00     0.116 C 
BRANCH  24  25
ATOM     25  N   UNL A   1      32.409  34.160  27.673  1.00  0.00    -0.352 N 
ATOM     26  C   UNL A   1      32.965  35.025  28.584  1.00  0.00     0.251 C 
ATOM     27  H   UNL A   1      31.656  34.514  27.147  1.00  0.00     0.163 HD
ATOM     28  O   UNL A   1      32.491  36.140  28.769  1.00  0.00    -0.269 OA
BRANCH  26  29
ATOM     29  C   UNL A   1      34.122  34.568  29.374  1.00  0.00     0.039 A 
ATOM     30  C   UNL A   1      33.897  34.020  30.639  1.00  0.00     0.014 A 
ATOM     31  C   UNL A   1      35.408  34.610  28.829  1.00  0.00     0.014 A 
ATOM     32  C   UNL A   1      34.960  33.444  31.332  1.00  0.00     0.010 A 
ATOM     33  C   UNL A   1      36.454  33.983  29.496  1.00  0.00     0.010 A 
ATOM     34  C   UNL A   1      36.236  33.388  30.748  1.00  0.00    -0.014 A 
BRANCH  34  35
ATOM     35  C   UNL A   1      37.359  32.711  31.435  1.00  0.00     0.031 A 
ATOM     36  C   UNL A   1      38.057  31.562  30.770  1.00  0.00     0.074 A 
ATOM     37  C   UNL A   1      37.711  33.098  32.676  1.00  0.00     0.049 A 
ATOM     38  N   UNL A   1      39.018  30.801  31.227  1.00  0.00    -0.248 NA
ATOM     39  C   UNL A   1      37.598  31.204  29.418  1.00  0.00     0.031 C 
ATOM     40  C   UNL A   1      37.079  34.175  33.437  1.00  0.00     0.029 A 
ATOM     41  N   UNL A   1      38.687  32.623  33.517  1.00  0.00    -0.354 N 
ATOM     42  C   UNL A   1      39.271  29.874  30.226  1.00  0.00     0.074 A 
ATOM     43  C   UNL A   1      38.329  30.131  29.159  1.00  0.00     0.031 C 
ATOM     44  C   UNL A   1      37.702  34.301  34.620  1.00  0.00     0.029 A 
ATOM     45  C   UNL A   1      38.755  33.295  34.712  1.00  0.00     0.049 A 
ATOM     46  H   UNL A   1      39.281  31.874  33.284  1.00  0.00     0.167 HD
ATOM     47  C   UNL A   1      40.223  28.912  30.192  1.00  0.00     0.037 A 
ATOM     48  C   UNL A   1      39.580  33.117  35.762  1.00  0.00     0.037 A 
ATOM     49  C   UNL A   1      41.175  28.679  31.244  1.00  0.00     0.049 A 
ATOM     50  C   UNL A   1      40.624  32.037  35.701  1.00  0.00     0.074 A 
ATOM     51  C   UNL A   1      42.207  27.758  31.284  1.00  0.00     0.029 A 
ATOM     52  N   UNL A   1      41.214  29.380  32.440  1.00  0.00    -0.354 N 
ATOM     53  N   UNL A   1      40.882  31.193  34.732  1.00  0.00    -0.248 NA
ATOM     54  C   UNL A   1      41.490  31.882  36.879  1.00  0.00     0.031 C 
ATOM     55  C   UNL A   1      42.853  27.882  32.517  1.00  0.00     0.029 A 
ATOM     56  C   UNL A   1      42.246  28.903  33.231  1.00  0.00     0.049 A 
ATOM     57  H   UNL A   1      40.600  30.108  32.689  1.00  0.00     0.167 HD
ATOM     58  C   UNL A   1      41.949  30.422  35.172  1.00  0.00     0.074 A 
ATOM     59  C   UNL A   1      42.299  30.906  36.491  1.00  0.00     0.031 C 
ATOM     60  C   UNL A   1      42.580  29.404  34.539  1.00  0.00     0.037 A 
BRANCH  47  61
ATOM     61  C   UNL A   1      40.290  28.053  28.966  1.00  0.00     0.064 A 
ATOM     62  C   UNL A   1      41.050  28.437  27.851  1.00  0.00     0.173 A 
ATOM     63  C   UNL A   1      39.625  26.821  28.918  1.00  0.00     0.173 A 
ATOM     64  F   UNL A   1      41.692  29.615  27.844  1.00  0.00    -0.203 F 
ATOM     65  C   UNL A   1      41.122  27.626  26.722  1.00  0.00     0.198 A 
ATOM     66  C   UNL A   1      39.720  26.001  27.797  1.00  0.00     0.198 A 
ATOM     67  F   UNL A   1      38.888  26.409  29.961  1.00  0.00    -0.203 F 
ATOM     68  F   UNL A   1      41.820  28.031  25.651  1.00  0.00    -0.200 F 
ATOM     69  C   UNL A   1      40.464  26.406  26.699  1.00  0.00     0.200 A 
ATOM     70  F   UNL A   1      39.090  24.817  27.779  1.00  0.00    -0.200 F 
ATOM     71  F   UNL A   1      40.540  25.623  25.614  1.00  0.00    -0.200 F 
ENDBRANCH  47  61
BRANCH  48  72
ATOM     72  C   UNL A   1      39.479  34.015  36.940  1.00  0.00     0.064 A 
ATOM     73  C   UNL A   1      38.740  33.633  38.067  1.00  0.00     0.173 A 
ATOM     74  C   UNL A   1      40.129  35.257  36.973  1.00  0.00     0.173 A 
ATOM     75  F   UNL A   1      38.087  32.461  38.073  1.00  0.00    -0.203 F 
ATOM     76  C   UNL A   1      38.646  34.463  39.182  1.00  0.00     0.198 A 
ATOM     77  C   UNL A   1      40.051  36.078  38.097  1.00  0.00     0.198 A 
ATOM     78  F   UNL A   1      40.851  35.666  35.920  1.00  0.00    -0.203 F 
ATOM     79  F   UNL A   1      37.910  34.086  40.235  1.00  0.00    -0.200 F 
ATOM     80  C   UNL A   1      39.307  35.682  39.198  1.00  0.00     0.200 A 
ATOM     81  F   UNL A   1      40.700  37.251  38.114  1.00  0.00    -0.200 F 
ATOM     82  F   UNL A   1      39.223  36.477  40.274  1.00  0.00    -0.200 F 
ENDBRANCH  48  72
BRANCH  60  83
ATOM     83  C   UNL A   1      43.724  28.749  35.253  1.00  0.00     0.064 A 
ATOM     84  C   UNL A   1      45.040  29.203  35.090  1.00  0.00     0.173 A 
ATOM     85  C   UNL A   1      43.490  27.710  36.165  1.00  0.00     0.173 A 
ATOM     86  F   UNL A   1      45.311  30.185  34.216  1.00  0.00    -0.203 F 
ATOM     87  C   UNL A   1      46.085  28.633  35.810  1.00  0.00     0.198 A 
ATOM     88  C   UNL A   1      44.535  27.158  36.901  1.00  0.00     0.198 A 
ATOM     89  F   UNL A   1      42.246  27.247  36.360  1.00  0.00    -0.203 F 
ATOM     90  F   UNL A   1      47.340  29.063  35.621  1.00  0.00    -0.200 F 
ATOM     91  C   UNL A   1      45.830  27.618  36.722  1.00  0.00     0.200 A 
ATOM     92  F   UNL A   1      44.286  26.186  37.790  1.00  0.00    -0.200 F 
ATOM     93  F   UNL A   1      46.837  27.082  37.425  1.00  0.00    -0.200 F 
ENDBRANCH  60  83
ENDBRANCH  34  35
ENDBRANCH  26  29
ENDBRANCH  24  25
ENDBRANCH   1  24
TORSDOF 12
ENDMDL
