MODEL 1
REMARK VINA RESULT:     -11.9      0.000      0.000
REMARK SMILES O=C(COCC(=O)N1CCC([NH+]2CCN(c3ccc(F)cc3)CC2)CC1)NCCCCNC(=O)c1ccc(-c2c3nc(c(-c4c(F)c(F)c(F)c(F)c4F)c4ccc([nH]4)c(-c4c(F)c(F)c(F)c(F)c4F)c4nc(c(-c5c(F)c(F)c(F)c(F)c5F)c5ccc2[nH]5)C=C4)C=C3)cc1
REMARK SMILES IDX 28 1 27 2 1 3 2 4 3 6 4 7 5 8 6 9 7 10 8 11 9 12 26 13 10 14
REMARK SMILES IDX 25 15 11 16 12 17 13 18 24 19 14 21 23 22 15 23 16 24 17 25
REMARK SMILES IDX 22 26 18 27 21 28 19 29 20 30 29 31 30 32 31 33 32 34 33 35
REMARK SMILES IDX 34 37 35 38 36 39 97 40 37 41 96 42 38 43 39 44 40 45 90 46
REMARK SMILES IDX 41 47 95 48 89 49 91 50 42 51 94 52 88 53 87 54 43 56 75 57
REMARK SMILES IDX 55 58 74 59 56 60 59 61 73 62 92 63 57 64 58 65 72 67 93 68
REMARK SMILES IDX 60 69 44 70 45 71 53 72 46 73 47 74 51 75 54 76 48 77 49 78
REMARK SMILES IDX 52 79 50 80 76 81 77 82 85 83 78 84 79 85 83 86 86 87 80 88
REMARK SMILES IDX 81 89 84 90 82 91 61 92 62 93 70 94 63 95 64 96 68 97 71 98
REMARK SMILES IDX 65 99 66 100 69 101 67 102
REMARK H PARENT 27 5 12 20 32 36 91 55 59 66
REMARK Flexibility Score: inf
ROOT
ATOM      1  C   UNL A   1      34.584  32.092  28.466  1.00  0.00     0.116 C 
ENDROOT
BRANCH   1   2
ATOM      2  N   UNL A   1      33.420  31.887  27.631  1.00  0.00    -0.354 N 
ATOM      3  O   UNL A   1      33.825  29.665  27.189  1.00  0.00    -0.272 OA
ATOM      4  C   UNL A   1      33.121  30.662  27.073  1.00  0.00     0.246 C 
ATOM      5  H   UNL A   1      32.822  32.648  27.454  1.00  0.00     0.163 HD
BRANCH   4   6
ATOM      6  C   UNL A   1      31.841  30.664  26.230  1.00  0.00     0.260 C 
BRANCH   6   7
ATOM      7  O   UNL A   1      31.425  29.401  25.729  1.00  0.00    -0.362 OA
BRANCH   7   8
ATOM      8  C   UNL A   1      31.155  29.403  24.341  1.00  0.00     0.260 C 
BRANCH   8   9
ATOM      9  C   UNL A   1      31.426  28.190  23.421  1.00  0.00     0.248 C 
ATOM     10  O   UNL A   1      30.512  27.735  22.727  1.00  0.00    -0.272 OA
ATOM     11  N   UNL A   1      32.735  27.750  23.285  1.00  0.00    -0.340 N 
ATOM     12  C   UNL A   1      33.105  26.986  22.106  1.00  0.00     0.125 C 
ATOM     13  C   UNL A   1      33.699  27.662  24.373  1.00  0.00     0.125 C 
ATOM     14  C   UNL A   1      33.258  25.507  22.428  1.00  0.00     0.086 C 
ATOM     15  C   UNL A   1      33.779  26.204  24.835  1.00  0.00     0.086 C 
ATOM     16  C   UNL A   1      34.141  25.251  23.665  1.00  0.00     0.187 C 
BRANCH  16  17
ATOM     17  N   UNL A   1      34.258  23.848  24.110  1.00  0.00    -0.329 N 
ATOM     18  C   UNL A   1      35.175  22.956  23.368  1.00  0.00     0.284 C 
ATOM     19  C   UNL A   1      34.486  23.670  25.562  1.00  0.00     0.284 C 
ATOM     20  H   UNL A   1      33.316  23.539  23.870  1.00  0.00     0.348 HD
ATOM     21  C   UNL A   1      36.669  23.015  23.752  1.00  0.00     0.178 C 
ATOM     22  C   UNL A   1      35.956  23.686  26.058  1.00  0.00     0.178 C 
ATOM     23  N   UNL A   1      36.825  22.871  25.201  1.00  0.00    -0.360 N 
BRANCH  23  24
ATOM     24  C   UNL A   1      38.049  22.480  25.719  1.00  0.00     0.037 A 
ATOM     25  C   UNL A   1      38.782  23.394  26.491  1.00  0.00     0.029 A 
ATOM     26  C   UNL A   1      38.580  21.196  25.533  1.00  0.00     0.029 A 
ATOM     27  C   UNL A   1      39.990  23.033  27.087  1.00  0.00     0.041 A 
ATOM     28  C   UNL A   1      39.799  20.832  26.113  1.00  0.00     0.041 A 
ATOM     29  C   UNL A   1      40.487  21.752  26.893  1.00  0.00     0.123 A 
ATOM     30  F   UNL A   1      41.643  21.399  27.471  1.00  0.00    -0.207 F 
ENDBRANCH  23  24
ENDBRANCH  16  17
ENDBRANCH   8   9
ENDBRANCH   7   8
ENDBRANCH   6   7
ENDBRANCH   4   6
ENDBRANCH   1   2
BRANCH   1  31
ATOM     31  C   UNL A   1      34.633  33.498  29.062  1.00  0.00     0.023 C 
BRANCH  31  32
ATOM     32  C   UNL A   1      33.340  34.304  28.919  1.00  0.00     0.023 C 
BRANCH  32  33
ATOM     33  C   UNL A   1      33.409  35.749  29.402  1.00  0.00     0.116 C 
BRANCH  33  34
ATOM     34  N   UNL A   1      32.495  36.028  30.500  1.00  0.00    -0.352 N 
ATOM     35  C   UNL A   1      32.585  35.676  31.824  1.00  0.00     0.251 C 
ATOM     36  H   UNL A   1      31.694  36.547  30.258  1.00  0.00     0.163 HD
ATOM     37  O   UNL A   1      31.638  35.886  32.581  1.00  0.00    -0.269 OA
BRANCH  35  38
ATOM     38  C   UNL A   1      33.802  35.015  32.346  1.00  0.00     0.039 A 
ATOM     39  C   UNL A   1      33.690  33.732  32.889  1.00  0.00     0.014 A 
ATOM     40  C   UNL A   1      35.046  35.650  32.306  1.00  0.00     0.014 A 
ATOM     41  C   UNL A   1      34.835  33.059  33.324  1.00  0.00     0.010 A 
ATOM     42  C   UNL A   1      36.195  34.950  32.669  1.00  0.00     0.010 A 
ATOM     43  C   UNL A   1      36.103  33.645  33.178  1.00  0.00    -0.014 A 
BRANCH  43  44
ATOM     44  C   UNL A   1      37.340  32.902  33.535  1.00  0.00     0.031 A 
ATOM     45  C   UNL A   1      38.070  33.206  34.814  1.00  0.00     0.074 A 
ATOM     46  C   UNL A   1      37.842  31.992  32.677  1.00  0.00     0.049 A 
ATOM     47  N   UNL A   1      39.197  32.710  35.261  1.00  0.00    -0.248 NA
ATOM     48  C   UNL A   1      37.468  34.217  35.698  1.00  0.00     0.031 C 
ATOM     49  C   UNL A   1      37.248  31.632  31.388  1.00  0.00     0.029 A 
ATOM     50  N   UNL A   1      38.965  31.206  32.755  1.00  0.00    -0.354 N 
ATOM     51  C   UNL A   1      39.440  33.352  36.467  1.00  0.00     0.074 A 
ATOM     52  C   UNL A   1      38.376  34.313  36.658  1.00  0.00     0.031 C 
ATOM     53  C   UNL A   1      37.994  30.677  30.812  1.00  0.00     0.029 A 
ATOM     54  C   UNL A   1      39.142  30.387  31.665  1.00  0.00     0.049 A 
ATOM     55  H   UNL A   1      39.586  31.228  33.519  1.00  0.00     0.167 HD
ATOM     56  C   UNL A   1      40.448  33.140  37.347  1.00  0.00     0.037 A 
ATOM     57  C   UNL A   1      40.121  29.507  31.381  1.00  0.00     0.037 A 
ATOM     58  C   UNL A   1      41.491  32.165  37.166  1.00  0.00     0.049 A 
ATOM     59  C   UNL A   1      41.244  29.309  32.362  1.00  0.00     0.074 A 
ATOM     60  C   UNL A   1      42.522  31.839  38.030  1.00  0.00     0.029 A 
ATOM     61  N   UNL A   1      41.640  31.361  36.045  1.00  0.00    -0.354 N 
ATOM     62  N   UNL A   1      41.434  29.883  33.525  1.00  0.00    -0.248 NA
ATOM     63  C   UNL A   1      42.288  28.342  31.994  1.00  0.00     0.031 C 
ATOM     64  C   UNL A   1      43.328  30.883  37.408  1.00  0.00     0.029 A 
ATOM     65  C   UNL A   1      42.764  30.562  36.184  1.00  0.00     0.049 A 
ATOM     66  H   UNL A   1      41.037  31.359  35.267  1.00  0.00     0.167 HD
ATOM     67  C   UNL A   1      42.600  29.330  34.039  1.00  0.00     0.074 A 
ATOM     68  C   UNL A   1      43.068  28.365  33.066  1.00  0.00     0.031 C 
ATOM     69  C   UNL A   1      43.221  29.601  35.213  1.00  0.00     0.037 A 
BRANCH  56  70
ATOM     70  C   UNL A   1      40.474  33.969  38.599  1.00  0.00     0.064 A 
ATOM     71  C   UNL A   1      41.222  35.156  38.653  1.00  0.00     0.173 A 
ATOM     72  C   UNL A   1      39.825  33.551  39.772  1.00  0.00     0.173 A 
ATOM     73  F   UNL A   1      41.867  35.598  37.563  1.00  0.00    -0.203 F 
ATOM     74  C   UNL A   1      41.331  35.882  39.836  1.00  0.00     0.198 A 
ATOM     75  C   UNL A   1      39.909  34.298  40.943  1.00  0.00     0.198 A 
ATOM     76  F   UNL A   1      39.089  32.429  39.773  1.00  0.00    -0.203 F 
ATOM     77  F   UNL A   1      42.081  36.993  39.870  1.00  0.00    -0.200 F 
ATOM     78  C   UNL A   1      40.671  35.456  40.977  1.00  0.00     0.200 A 
ATOM     79  F   UNL A   1      39.251  33.898  42.040  1.00  0.00    -0.200 F 
ATOM     80  F   UNL A   1      40.768  36.163  42.112  1.00  0.00    -0.200 F 
ENDBRANCH  56  70
BRANCH  57  81
ATOM     81  C   UNL A   1      40.056  28.722  30.120  1.00  0.00     0.064 A 
ATOM     82  C   UNL A   1      39.431  27.467  30.068  1.00  0.00     0.173 A 
ATOM     83  C   UNL A   1      40.656  29.199  28.946  1.00  0.00     0.173 A 
ATOM     84  F   UNL A   1      38.846  26.964  31.165  1.00  0.00    -0.203 F 
ATOM     85  C   UNL A   1      39.431  26.711  28.899  1.00  0.00     0.198 A 
ATOM     86  C   UNL A   1      40.630  28.454  27.769  1.00  0.00     0.198 A 
ATOM     87  F   UNL A   1      41.247  30.404  28.939  1.00  0.00    -0.203 F 
ATOM     88  F   UNL A   1      38.862  25.497  28.889  1.00  0.00    -0.200 F 
ATOM     89  C   UNL A   1      40.027  27.206  27.749  1.00  0.00     0.200 A 
ATOM     90  F   UNL A   1      41.185  28.948  26.653  1.00  0.00    -0.200 F 
ATOM     91  F   UNL A   1      40.018  26.482  26.621  1.00  0.00    -0.200 F 
ENDBRANCH  57  81
BRANCH  69  92
ATOM     92  C   UNL A   1      44.469  28.832  35.540  1.00  0.00     0.064 A 
ATOM     93  C   UNL A   1      45.720  29.284  35.090  1.00  0.00     0.173 A 
ATOM     94  C   UNL A   1      44.419  27.603  36.214  1.00  0.00     0.173 A 
ATOM     95  F   UNL A   1      45.821  30.449  34.432  1.00  0.00    -0.203 F 
ATOM     96  C   UNL A   1      46.870  28.525  35.283  1.00  0.00     0.198 A 
ATOM     97  C   UNL A   1      45.577  26.860  36.433  1.00  0.00     0.198 A 
ATOM     98  F   UNL A   1      43.251  27.132  36.674  1.00  0.00    -0.203 F 
ATOM     99  F   UNL A   1      48.045  28.957  34.805  1.00  0.00    -0.200 F 
ATOM    100  C   UNL A   1      46.798  27.315  35.957  1.00  0.00     0.200 A 
ATOM    101  F   UNL A   1      45.511  25.704  37.106  1.00  0.00    -0.200 F 
ATOM    102  F   UNL A   1      47.907  26.587  36.149  1.00  0.00    -0.200 F 
ENDBRANCH  69  92
ENDBRANCH  43  44
ENDBRANCH  35  38
ENDBRANCH  33  34
ENDBRANCH  32  33
ENDBRANCH  31  32
ENDBRANCH   1  31
TORSDOF 16
ENDMDL
MODEL 2
REMARK VINA RESULT:     -11.7      5.803     11.503
REMARK SMILES O=C(COCC(=O)N1CCC([NH+]2CCN(c3ccc(F)cc3)CC2)CC1)NCCCCNC(=O)c1ccc(-c2c3nc(c(-c4c(F)c(F)c(F)c(F)c4F)c4ccc([nH]4)c(-c4c(F)c(F)c(F)c(F)c4F)c4nc(c(-c5c(F)c(F)c(F)c(F)c5F)c5ccc2[nH]5)C=C4)C=C3)cc1
REMARK SMILES IDX 28 1 27 2 1 3 2 4 3 6 4 7 5 8 6 9 7 10 8 11 9 12 26 13 10 14
REMARK SMILES IDX 25 15 11 16 12 17 13 18 24 19 14 21 23 22 15 23 16 24 17 25
REMARK SMILES IDX 22 26 18 27 21 28 19 29 20 30 29 31 30 32 31 33 32 34 33 35
REMARK SMILES IDX 34 37 35 38 36 39 97 40 37 41 96 42 38 43 39 44 40 45 90 46
REMARK SMILES IDX 41 47 95 48 89 49 91 50 42 51 94 52 88 53 87 54 43 56 75 57
REMARK SMILES IDX 55 58 74 59 56 60 59 61 73 62 92 63 57 64 58 65 72 67 93 68
REMARK SMILES IDX 60 69 44 70 45 71 53 72 46 73 47 74 51 75 54 76 48 77 49 78
REMARK SMILES IDX 52 79 50 80 76 81 77 82 85 83 78 84 79 85 83 86 86 87 80 88
REMARK SMILES IDX 81 89 84 90 82 91 61 92 62 93 70 94 63 95 64 96 68 97 71 98
REMARK SMILES IDX 65 99 66 100 69 101 67 102
REMARK H PARENT 27 5 12 20 32 36 91 55 59 66
REMARK Flexibility Score: inf
ROOT
ATOM      1  C   UNL A   1      38.024  22.984  26.063  1.00  0.00     0.116 C 
ENDROOT
BRANCH   1   2
ATOM      2  N   UNL A   1      36.966  22.000  26.004  1.00  0.00    -0.354 N 
ATOM      3  O   UNL A   1      36.543  22.230  23.753  1.00  0.00    -0.272 OA
ATOM      4  C   UNL A   1      36.320  21.682  24.827  1.00  0.00     0.246 C 
ATOM      5  H   UNL A   1      36.697  21.540  26.832  1.00  0.00     0.163 HD
BRANCH   4   6
ATOM      6  C   UNL A   1      35.237  20.610  24.987  1.00  0.00     0.260 C 
BRANCH   6   7
ATOM      7  O   UNL A   1      33.982  20.900  24.388  1.00  0.00    -0.362 OA
BRANCH   7   8
ATOM      8  C   UNL A   1      32.957  21.170  25.324  1.00  0.00     0.260 C 
BRANCH   8   9
ATOM      9  C   UNL A   1      32.163  22.497  25.354  1.00  0.00     0.248 C 
ATOM     10  O   UNL A   1      31.100  22.586  24.732  1.00  0.00    -0.272 OA
ATOM     11  N   UNL A   1      32.592  23.498  26.214  1.00  0.00    -0.340 N 
ATOM     12  C   UNL A   1      31.647  24.514  26.643  1.00  0.00     0.125 C 
ATOM     13  C   UNL A   1      33.985  23.850  26.449  1.00  0.00     0.125 C 
ATOM     14  C   UNL A   1      31.886  25.835  25.926  1.00  0.00     0.086 C 
ATOM     15  C   UNL A   1      34.318  25.097  25.625  1.00  0.00     0.086 C 
ATOM     16  C   UNL A   1      33.363  26.274  25.956  1.00  0.00     0.187 C 
BRANCH  16  17
ATOM     17  N   UNL A   1      33.701  27.493  25.193  1.00  0.00    -0.329 N 
ATOM     18  C   UNL A   1      33.441  27.499  23.738  1.00  0.00     0.284 C 
ATOM     19  C   UNL A   1      33.194  28.756  25.777  1.00  0.00     0.284 C 
ATOM     20  H   UNL A   1      34.715  27.451  25.293  1.00  0.00     0.348 HD
ATOM     21  C   UNL A   1      32.002  27.832  23.288  1.00  0.00     0.178 C 
ATOM     22  C   UNL A   1      31.765  29.202  25.371  1.00  0.00     0.178 C 
ATOM     23  N   UNL A   1      31.545  29.068  23.927  1.00  0.00    -0.360 N 
BRANCH  23  24
ATOM     24  C   UNL A   1      30.488  29.772  23.372  1.00  0.00     0.037 A 
ATOM     25  C   UNL A   1      29.794  30.693  24.171  1.00  0.00     0.029 A 
ATOM     26  C   UNL A   1      30.095  29.628  22.034  1.00  0.00     0.029 A 
ATOM     27  C   UNL A   1      28.763  31.472  23.647  1.00  0.00     0.041 A 
ATOM     28  C   UNL A   1      29.050  30.393  21.507  1.00  0.00     0.041 A 
ATOM     29  C   UNL A   1      28.401  31.316  22.317  1.00  0.00     0.123 A 
ATOM     30  F   UNL A   1      27.417  32.067  21.808  1.00  0.00    -0.207 F 
ENDBRANCH  23  24
ENDBRANCH  16  17
ENDBRANCH   8   9
ENDBRANCH   7   8
ENDBRANCH   6   7
ENDBRANCH   4   6
ENDBRANCH   1   2
BRANCH   1  31
ATOM     31  C   UNL A   1      39.384  22.360  26.375  1.00  0.00     0.023 C 
BRANCH  31  32
ATOM     32  C   UNL A   1      39.708  21.092  25.583  1.00  0.00     0.023 C 
BRANCH  32  33
ATOM     33  C   UNL A   1      39.950  19.838  26.417  1.00  0.00     0.116 C 
BRANCH  33  34
ATOM     34  N   UNL A   1      41.107  19.074  25.977  1.00  0.00    -0.352 N 
ATOM     35  C   UNL A   1      42.418  19.463  25.851  1.00  0.00     0.251 C 
ATOM     36  H   UNL A   1      40.923  18.138  25.733  1.00  0.00     0.163 HD
ATOM     37  O   UNL A   1      43.235  18.708  25.327  1.00  0.00    -0.269 OA
BRANCH  35  38
ATOM     38  C   UNL A   1      42.852  20.800  26.314  1.00  0.00     0.039 A 
ATOM     39  C   UNL A   1      43.358  21.704  25.376  1.00  0.00     0.014 A 
ATOM     40  C   UNL A   1      42.769  21.164  27.660  1.00  0.00     0.014 A 
ATOM     41  C   UNL A   1      43.710  22.996  25.776  1.00  0.00     0.010 A 
ATOM     42  C   UNL A   1      43.047  22.475  28.044  1.00  0.00     0.010 A 
ATOM     43  C   UNL A   1      43.517  23.407  27.106  1.00  0.00    -0.014 A 
BRANCH  43  44
ATOM     44  C   UNL A   1      43.784  24.808  27.525  1.00  0.00     0.031 A 
ATOM     45  C   UNL A   1      45.195  25.303  27.675  1.00  0.00     0.074 A 
ATOM     46  C   UNL A   1      42.752  25.620  27.831  1.00  0.00     0.049 A 
ATOM     47  N   UNL A   1      45.623  26.469  28.093  1.00  0.00    -0.248 NA
ATOM     48  C   UNL A   1      46.271  24.359  27.332  1.00  0.00     0.031 C 
ATOM     49  C   UNL A   1      41.338  25.248  27.762  1.00  0.00     0.029 A 
ATOM     50  N   UNL A   1      42.731  26.923  28.265  1.00  0.00    -0.354 N 
ATOM     51  C   UNL A   1      47.009  26.393  28.071  1.00  0.00     0.074 A 
ATOM     52  C   UNL A   1      47.353  25.052  27.652  1.00  0.00     0.031 C 
ATOM     53  C   UNL A   1      40.588  26.305  28.108  1.00  0.00     0.029 A 
ATOM     54  C   UNL A   1      41.465  27.416  28.469  1.00  0.00     0.049 A 
ATOM     55  H   UNL A   1      43.547  27.453  28.415  1.00  0.00     0.167 HD
ATOM     56  C   UNL A   1      47.911  27.364  28.351  1.00  0.00     0.037 A 
ATOM     57  C   UNL A   1      41.054  28.623  28.903  1.00  0.00     0.037 A 
ATOM     58  C   UNL A   1      47.564  28.704  28.743  1.00  0.00     0.049 A 
ATOM     59  C   UNL A   1      42.076  29.676  29.233  1.00  0.00     0.074 A 
ATOM     60  C   UNL A   1      48.408  29.773  28.992  1.00  0.00     0.029 A 
ATOM     61  N   UNL A   1      46.270  29.162  28.946  1.00  0.00    -0.354 N 
ATOM     62  N   UNL A   1      43.383  29.610  29.156  1.00  0.00    -0.248 NA
ATOM     63  C   UNL A   1      41.570  30.970  29.710  1.00  0.00     0.031 C 
ATOM     64  C   UNL A   1      47.632  30.858  29.403  1.00  0.00     0.029 A 
ATOM     65  C   UNL A   1      46.297  30.489  29.348  1.00  0.00     0.049 A 
ATOM     66  H   UNL A   1      45.455  28.624  28.825  1.00  0.00     0.167 HD
ATOM     67  C   UNL A   1      43.853  30.856  29.547  1.00  0.00     0.074 A 
ATOM     68  C   UNL A   1      42.691  31.665  29.850  1.00  0.00     0.031 C 
ATOM     69  C   UNL A   1      45.134  31.288  29.643  1.00  0.00     0.037 A 
BRANCH  56  70
ATOM     70  C   UNL A   1      49.369  27.023  28.235  1.00  0.00     0.064 A 
ATOM     71  C   UNL A   1      50.022  27.098  26.995  1.00  0.00     0.173 A 
ATOM     72  C   UNL A   1      50.102  26.546  29.333  1.00  0.00     0.173 A 
ATOM     73  F   UNL A   1      49.366  27.540  25.911  1.00  0.00    -0.203 F 
ATOM     74  C   UNL A   1      51.347  26.694  26.856  1.00  0.00     0.198 A 
ATOM     75  C   UNL A   1      51.437  26.176  29.197  1.00  0.00     0.198 A 
ATOM     76  F   UNL A   1      49.529  26.464  30.543  1.00  0.00    -0.203 F 
ATOM     77  F   UNL A   1      51.937  26.741  25.653  1.00  0.00    -0.200 F 
ATOM     78  C   UNL A   1      52.055  26.239  27.957  1.00  0.00     0.200 A 
ATOM     79  F   UNL A   1      52.128  25.758  30.267  1.00  0.00    -0.200 F 
ATOM     80  F   UNL A   1      53.334  25.861  27.824  1.00  0.00    -0.200 F 
ENDBRANCH  56  70
BRANCH  57  81
ATOM     81  C   UNL A   1      39.598  28.904  29.014  1.00  0.00     0.064 A 
ATOM     82  C   UNL A   1      38.846  29.328  27.908  1.00  0.00     0.173 A 
ATOM     83  C   UNL A   1      38.938  28.791  30.245  1.00  0.00     0.173 A 
ATOM     84  F   UNL A   1      39.432  29.456  26.708  1.00  0.00    -0.203 F 
ATOM     85  C   UNL A   1      37.497  29.651  28.036  1.00  0.00     0.198 A 
ATOM     86  C   UNL A   1      37.582  29.087  30.366  1.00  0.00     0.198 A 
ATOM     87  F   UNL A   1      39.609  28.368  31.328  1.00  0.00    -0.203 F 
ATOM     88  F   UNL A   1      36.813  30.092  26.971  1.00  0.00    -0.200 F 
ATOM     89  C   UNL A   1      36.865  29.527  29.264  1.00  0.00     0.200 A 
ATOM     90  F   UNL A   1      36.969  28.941  31.549  1.00  0.00    -0.200 F 
ATOM     91  F   UNL A   1      35.565  29.828  29.384  1.00  0.00    -0.200 F 
ENDBRANCH  57  81
BRANCH  69  92
ATOM     92  C   UNL A   1      45.366  32.709  30.071  1.00  0.00     0.064 A 
ATOM     93  C   UNL A   1      45.494  33.027  31.433  1.00  0.00     0.173 A 
ATOM     94  C   UNL A   1      45.368  33.763  29.147  1.00  0.00     0.173 A 
ATOM     95  F   UNL A   1      45.489  32.056  32.358  1.00  0.00    -0.203 F 
ATOM     96  C   UNL A   1      45.592  34.350  31.854  1.00  0.00     0.198 A 
ATOM     97  C   UNL A   1      45.498  35.084  29.570  1.00  0.00     0.198 A 
ATOM     98  F   UNL A   1      45.261  33.511  27.835  1.00  0.00    -0.203 F 
ATOM     99  F   UNL A   1      45.667  34.632  33.162  1.00  0.00    -0.200 F 
ATOM    100  C   UNL A   1      45.597  35.377  30.923  1.00  0.00     0.200 A 
ATOM    101  F   UNL A   1      45.528  36.074  28.668  1.00  0.00    -0.200 F 
ATOM    102  F   UNL A   1      45.698  36.651  31.328  1.00  0.00    -0.200 F 
ENDBRANCH  69  92
ENDBRANCH  43  44
ENDBRANCH  35  38
ENDBRANCH  33  34
ENDBRANCH  32  33
ENDBRANCH  31  32
ENDBRANCH   1  31
TORSDOF 16
ENDMDL
MODEL 3
REMARK VINA RESULT:     -11.6      2.136      2.868
REMARK SMILES O=C(COCC(=O)N1CCC([NH+]2CCN(c3ccc(F)cc3)CC2)CC1)NCCCCNC(=O)c1ccc(-c2c3nc(c(-c4c(F)c(F)c(F)c(F)c4F)c4ccc([nH]4)c(-c4c(F)c(F)c(F)c(F)c4F)c4nc(c(-c5c(F)c(F)c(F)c(F)c5F)c5ccc2[nH]5)C=C4)C=C3)cc1
REMARK SMILES IDX 28 1 27 2 1 3 2 4 3 6 4 7 5 8 6 9 7 10 8 11 9 12 26 13 10 14
REMARK SMILES IDX 25 15 11 16 12 17 13 18 24 19 14 21 23 22 15 23 16 24 17 25
REMARK SMILES IDX 22 26 18 27 21 28 19 29 20 30 29 31 30 32 31 33 32 34 33 35
REMARK SMILES IDX 34 37 35 38 36 39 97 40 37 41 96 42 38 43 39 44 40 45 90 46
REMARK SMILES IDX 41 47 95 48 89 49 91 50 42 51 94 52 88 53 87 54 43 56 75 57
REMARK SMILES IDX 55 58 74 59 56 60 59 61 73 62 92 63 57 64 58 65 72 67 93 68
REMARK SMILES IDX 60 69 44 70 45 71 53 72 46 73 47 74 51 75 54 76 48 77 49 78
REMARK SMILES IDX 52 79 50 80 76 81 77 82 85 83 78 84 79 85 83 86 86 87 80 88
REMARK SMILES IDX 81 89 84 90 82 91 61 92 62 93 70 94 63 95 64 96 68 97 71 98
REMARK SMILES IDX 65 99 66 100 69 101 67 102
REMARK H PARENT 27 5 12 20 32 36 91 55 59 66
REMARK Flexibility Score: inf
ROOT
ATOM      1  C   UNL A   1      35.354  33.125  28.192  1.00  0.00     0.116 C 
ENDROOT
BRANCH   1   2
ATOM      2  N   UNL A   1      34.187  32.403  27.734  1.00  0.00    -0.354 N 
ATOM      3  O   UNL A   1      35.083  30.299  27.998  1.00  0.00    -0.272 OA
ATOM      4  C   UNL A   1      34.141  31.024  27.699  1.00  0.00     0.246 C 
ATOM      5  H   UNL A   1      33.399  32.912  27.437  1.00  0.00     0.163 HD
BRANCH   4   6
ATOM      6  C   UNL A   1      32.809  30.465  27.187  1.00  0.00     0.260 C 
BRANCH   6   7
ATOM      7  O   UNL A   1      32.872  29.196  26.550  1.00  0.00    -0.362 OA
BRANCH   7   8
ATOM      8  C   UNL A   1      33.456  29.236  25.263  1.00  0.00     0.260 C 
BRANCH   8   9
ATOM      9  C   UNL A   1      33.052  28.280  24.117  1.00  0.00     0.248 C 
ATOM     10  O   UNL A   1      32.380  28.707  23.174  1.00  0.00    -0.272 OA
ATOM     11  N   UNL A   1      33.598  27.004  24.106  1.00  0.00    -0.340 N 
ATOM     12  C   UNL A   1      33.661  26.273  22.852  1.00  0.00     0.125 C 
ATOM     13  C   UNL A   1      33.789  26.172  25.285  1.00  0.00     0.125 C 
ATOM     14  C   UNL A   1      32.598  25.185  22.790  1.00  0.00     0.086 C 
ATOM     15  C   UNL A   1      32.651  25.149  25.348  1.00  0.00     0.086 C 
ATOM     16  C   UNL A   1      32.570  24.301  24.051  1.00  0.00     0.187 C 
BRANCH  16  17
ATOM     17  N   UNL A   1      31.500  23.286  24.119  1.00  0.00    -0.329 N 
ATOM     18  C   UNL A   1      31.358  22.346  22.986  1.00  0.00     0.284 C 
ATOM     19  C   UNL A   1      31.442  22.522  25.386  1.00  0.00     0.284 C 
ATOM     20  H   UNL A   1      30.699  23.914  24.059  1.00  0.00     0.348 HD
ATOM     21  C   UNL A   1      32.284  21.111  22.984  1.00  0.00     0.178 C 
ATOM     22  C   UNL A   1      32.315  21.243  25.485  1.00  0.00     0.178 C 
ATOM     23  N   UNL A   1      32.211  20.421  24.274  1.00  0.00    -0.360 N 
BRANCH  23  24
ATOM     24  C   UNL A   1      32.610  19.098  24.363  1.00  0.00     0.037 A 
ATOM     25  C   UNL A   1      32.617  18.475  25.620  1.00  0.00     0.029 A 
ATOM     26  C   UNL A   1      32.982  18.337  23.245  1.00  0.00     0.029 A 
ATOM     27  C   UNL A   1      32.950  17.128  25.759  1.00  0.00     0.041 A 
ATOM     28  C   UNL A   1      33.334  16.990  23.380  1.00  0.00     0.041 A 
ATOM     29  C   UNL A   1      33.305  16.397  24.635  1.00  0.00     0.123 A 
ATOM     30  F   UNL A   1      33.618  15.101  24.762  1.00  0.00    -0.207 F 
ENDBRANCH  23  24
ENDBRANCH  16  17
ENDBRANCH   8   9
ENDBRANCH   7   8
ENDBRANCH   6   7
ENDBRANCH   4   6
ENDBRANCH   1   2
BRANCH   1  31
ATOM     31  C   UNL A   1      35.042  34.582  28.529  1.00  0.00     0.023 C 
BRANCH  31  32
ATOM     32  C   UNL A   1      33.574  34.868  28.855  1.00  0.00     0.023 C 
BRANCH  32  33
ATOM     33  C   UNL A   1      33.270  36.283  29.337  1.00  0.00     0.116 C 
BRANCH  33  34
ATOM     34  N   UNL A   1      32.488  36.313  30.564  1.00  0.00    -0.352 N 
ATOM     35  C   UNL A   1      32.702  35.663  31.754  1.00  0.00     0.251 C 
ATOM     36  H   UNL A   1      31.687  36.885  30.536  1.00  0.00     0.163 HD
ATOM     37  O   UNL A   1      31.848  35.706  32.639  1.00  0.00    -0.269 OA
BRANCH  35  38
ATOM     38  C   UNL A   1      33.940  34.883  31.973  1.00  0.00     0.039 A 
ATOM     39  C   UNL A   1      35.143  35.569  32.158  1.00  0.00     0.014 A 
ATOM     40  C   UNL A   1      33.923  33.486  31.992  1.00  0.00     0.014 A 
ATOM     41  C   UNL A   1      36.314  34.858  32.436  1.00  0.00     0.010 A 
ATOM     42  C   UNL A   1      35.074  32.782  32.345  1.00  0.00     0.010 A 
ATOM     43  C   UNL A   1      36.281  33.461  32.574  1.00  0.00    -0.014 A 
BRANCH  43  44
ATOM     44  C   UNL A   1      37.492  32.698  32.974  1.00  0.00     0.031 A 
ATOM     45  C   UNL A   1      38.186  32.996  34.275  1.00  0.00     0.074 A 
ATOM     46  C   UNL A   1      38.006  31.776  32.136  1.00  0.00     0.049 A 
ATOM     47  N   UNL A   1      39.289  32.482  34.760  1.00  0.00    -0.248 NA
ATOM     48  C   UNL A   1      37.574  34.020  35.135  1.00  0.00     0.031 C 
ATOM     49  C   UNL A   1      37.448  31.421  30.830  1.00  0.00     0.029 A 
ATOM     50  N   UNL A   1      39.113  30.971  32.253  1.00  0.00    -0.354 N 
ATOM     51  C   UNL A   1      39.504  33.125  35.971  1.00  0.00     0.074 A 
ATOM     52  C   UNL A   1      38.452  34.105  36.124  1.00  0.00     0.031 C 
ATOM     53  C   UNL A   1      38.196  30.450  30.282  1.00  0.00     0.029 A 
ATOM     54  C   UNL A   1      39.311  30.145  31.173  1.00  0.00     0.049 A 
ATOM     55  H   UNL A   1      39.709  30.986  33.037  1.00  0.00     0.167 HD
ATOM     56  C   UNL A   1      40.480  32.900  36.884  1.00  0.00     0.037 A 
ATOM     57  C   UNL A   1      40.284  29.247  30.923  1.00  0.00     0.037 A 
ATOM     58  C   UNL A   1      41.511  31.907  36.740  1.00  0.00     0.049 A 
ATOM     59  C   UNL A   1      41.371  29.034  31.942  1.00  0.00     0.074 A 
ATOM     60  C   UNL A   1      42.508  31.567  37.638  1.00  0.00     0.029 A 
ATOM     61  N   UNL A   1      41.682  31.095  35.627  1.00  0.00    -0.354 N 
ATOM     62  N   UNL A   1      41.533  29.610  33.107  1.00  0.00    -0.248 NA
ATOM     63  C   UNL A   1      42.409  28.048  31.611  1.00  0.00     0.031 C 
ATOM     64  C   UNL A   1      43.318  30.594  37.047  1.00  0.00     0.029 A 
ATOM     65  C   UNL A   1      42.788  30.278  35.805  1.00  0.00     0.049 A 
ATOM     66  H   UNL A   1      41.105  31.100  34.830  1.00  0.00     0.167 HD
ATOM     67  C   UNL A   1      42.672  29.040  33.661  1.00  0.00     0.074 A 
ATOM     68  C   UNL A   1      43.155  28.063  32.708  1.00  0.00     0.031 C 
ATOM     69  C   UNL A   1      43.259  29.305  34.853  1.00  0.00     0.037 A 
BRANCH  56  70
ATOM     70  C   UNL A   1      40.479  33.734  38.133  1.00  0.00     0.064 A 
ATOM     71  C   UNL A   1      39.625  33.417  39.201  1.00  0.00     0.173 A 
ATOM     72  C   UNL A   1      41.265  34.891  38.245  1.00  0.00     0.173 A 
ATOM     73  F   UNL A   1      38.847  32.325  39.143  1.00  0.00    -0.203 F 
ATOM     74  C   UNL A   1      39.546  34.235  40.324  1.00  0.00     0.198 A 
ATOM     75  C   UNL A   1      41.208  35.689  39.385  1.00  0.00     0.198 A 
ATOM     76  F   UNL A   1      42.106  35.234  37.258  1.00  0.00    -0.203 F 
ATOM     77  F   UNL A   1      38.695  33.931  41.314  1.00  0.00    -0.200 F 
ATOM     78  C   UNL A   1      40.341  35.367  40.417  1.00  0.00     0.200 A 
ATOM     79  F   UNL A   1      41.995  36.769  39.484  1.00  0.00    -0.200 F 
ATOM     80  F   UNL A   1      40.273  36.148  41.505  1.00  0.00    -0.200 F 
ENDBRANCH  56  70
BRANCH  57  81
ATOM     81  C   UNL A   1      40.246  28.458  29.664  1.00  0.00     0.064 A 
ATOM     82  C   UNL A   1      39.549  27.244  29.580  1.00  0.00     0.173 A 
ATOM     83  C   UNL A   1      40.943  28.888  28.527  1.00  0.00     0.173 A 
ATOM     84  F   UNL A   1      38.868  26.786  30.641  1.00  0.00    -0.203 F 
ATOM     85  C   UNL A   1      39.572  26.480  28.415  1.00  0.00     0.198 A 
ATOM     86  C   UNL A   1      40.943  28.137  27.353  1.00  0.00     0.198 A 
ATOM     87  F   UNL A   1      41.608  30.054  28.551  1.00  0.00    -0.203 F 
ATOM     88  F   UNL A   1      38.929  25.303  28.376  1.00  0.00    -0.200 F 
ATOM     89  C   UNL A   1      40.265  26.928  27.302  1.00  0.00     0.200 A 
ATOM     90  F   UNL A   1      41.593  28.587  26.272  1.00  0.00    -0.200 F 
ATOM     91  F   UNL A   1      40.279  26.197  26.179  1.00  0.00    -0.200 F 
ENDBRANCH  57  81
BRANCH  69  92
ATOM     92  C   UNL A   1      44.483  28.516  35.223  1.00  0.00     0.064 A 
ATOM     93  C   UNL A   1      45.757  28.958  34.832  1.00  0.00     0.173 A 
ATOM     94  C   UNL A   1      44.389  27.280  35.880  1.00  0.00     0.173 A 
ATOM     95  F   UNL A   1      45.900  30.129  34.194  1.00  0.00    -0.203 F 
ATOM     96  C   UNL A   1      46.888  28.181  35.065  1.00  0.00     0.198 A 
ATOM     97  C   UNL A   1      45.527  26.520  36.139  1.00  0.00     0.198 A 
ATOM     98  F   UNL A   1      43.197  26.819  36.285  1.00  0.00    -0.203 F 
ATOM     99  F   UNL A   1      48.088  28.604  34.642  1.00  0.00    -0.200 F 
ATOM    100  C   UNL A   1      46.773  26.965  35.720  1.00  0.00     0.200 A 
ATOM    101  F   UNL A   1      45.419  25.357  36.795  1.00  0.00    -0.200 F 
ATOM    102  F   UNL A   1      47.864  26.220  35.950  1.00  0.00    -0.200 F 
ENDBRANCH  69  92
ENDBRANCH  43  44
ENDBRANCH  35  38
ENDBRANCH  33  34
ENDBRANCH  32  33
ENDBRANCH  31  32
ENDBRANCH   1  31
TORSDOF 16
ENDMDL
