MODEL 1
REMARK VINA RESULT:     -12.7      0.000      0.000
REMARK SMILES O=C(NCCCCNC(=O)[C@H](Cc1cccc(O)c1)Cc1cccc(F)c1)c1ccc(-c2c3nc(c(-c4c(F)c(F)c(F)c(F)c4F)c4ccc([nH]4)c(-c4c(F)c(F)c(F)c(F)c4F)c4nc(c(-c5c(F)c(F)c(F)c(F)c5F)c5ccc2[nH]5)C=C4)C=C3)cc1
REMARK SMILES IDX 6 1 5 2 4 3 3 4 1 5 2 6 28 8 29 9 90 10 30 11 89 12 31 13
REMARK SMILES IDX 32 14 33 15 83 16 34 17 88 18 82 19 84 20 35 21 87 22 81 23
REMARK SMILES IDX 80 24 36 26 68 27 48 28 67 29 49 30 52 31 66 32 85 33 50 34
REMARK SMILES IDX 51 35 65 37 86 38 53 39 37 40 38 41 46 42 39 43 40 44 44 45
REMARK SMILES IDX 47 46 41 47 42 48 45 49 43 50 69 51 70 52 78 53 71 54 72 55
REMARK SMILES IDX 76 56 79 57 73 58 74 59 77 60 75 61 54 62 55 63 63 64 56 65
REMARK SMILES IDX 57 66 61 67 64 68 58 69 59 70 62 71 60 72 7 73 8 74 9 75
REMARK SMILES IDX 10 77 11 78 20 79 21 80 22 81 27 82 23 83 25 84 24 85 26 86
REMARK SMILES IDX 12 87 13 88 14 89 19 90 15 91 17 92 16 93 18 94
REMARK H PARENT 3 7 84 25 52 36 8 76 18 95
REMARK Flexibility Score: inf
ROOT
ATOM      1  C   UNL A   1      31.411  27.434  26.537  1.00  0.00     0.023 C 
ENDROOT
BRANCH   1   2
ATOM      2  C   UNL A   1      31.580  28.713  25.728  1.00  0.00     0.023 C 
BRANCH   2   3
ATOM      3  C   UNL A   1      32.777  29.558  26.126  1.00  0.00     0.116 C 
BRANCH   3   4
ATOM      4  N   UNL A   1      32.442  30.898  26.594  1.00  0.00    -0.352 N 
ATOM      5  O   UNL A   1      32.796  32.849  27.697  1.00  0.00    -0.269 OA
ATOM      6  C   UNL A   1      33.230  31.767  27.316  1.00  0.00     0.251 C 
ATOM      7  H   UNL A   1      31.540  31.222  26.367  1.00  0.00     0.163 HD
BRANCH   6   8
ATOM      8  C   UNL A   1      34.594  31.337  27.683  1.00  0.00     0.039 A 
ATOM      9  C   UNL A   1      34.834  30.009  28.034  1.00  0.00     0.014 A 
ATOM     10  C   UNL A   1      35.602  32.298  27.803  1.00  0.00     0.014 A 
ATOM     11  C   UNL A   1      36.004  29.688  28.706  1.00  0.00     0.010 A 
ATOM     12  C   UNL A   1      36.822  31.945  28.388  1.00  0.00     0.010 A 
ATOM     13  C   UNL A   1      37.004  30.654  28.905  1.00  0.00    -0.014 A 
BRANCH  13  14
ATOM     14  C   UNL A   1      38.216  30.280  29.678  1.00  0.00     0.031 A 
ATOM     15  C   UNL A   1      38.394  30.723  31.106  1.00  0.00     0.074 A 
ATOM     16  C   UNL A   1      39.114  29.452  29.112  1.00  0.00     0.049 A 
ATOM     17  N   UNL A   1      39.365  30.443  31.939  1.00  0.00    -0.248 NA
ATOM     18  C   UNL A   1      37.356  31.597  31.673  1.00  0.00     0.031 C 
ATOM     19  C   UNL A   1      39.041  28.950  27.738  1.00  0.00     0.029 A 
ATOM     20  N   UNL A   1      40.231  28.848  29.628  1.00  0.00    -0.354 N 
ATOM     21  C   UNL A   1      39.074  31.130  33.110  1.00  0.00     0.074 A 
ATOM     22  C   UNL A   1      37.841  31.852  32.881  1.00  0.00     0.031 C 
ATOM     23  C   UNL A   1      40.016  28.051  27.547  1.00  0.00     0.029 A 
ATOM     24  C   UNL A   1      40.822  27.963  28.761  1.00  0.00     0.049 A 
ATOM     25  H   UNL A   1      40.576  29.031  30.533  1.00  0.00     0.167 HD
ATOM     26  C   UNL A   1      39.774  31.153  34.270  1.00  0.00     0.037 A 
ATOM     27  C   UNL A   1      41.893  27.165  28.923  1.00  0.00     0.037 A 
ATOM     28  C   UNL A   1      40.979  30.403  34.509  1.00  0.00     0.049 A 
ATOM     29  C   UNL A   1      42.631  27.186  30.228  1.00  0.00     0.074 A 
ATOM     30  C   UNL A   1      41.762  30.365  35.650  1.00  0.00     0.029 A 
ATOM     31  N   UNL A   1      41.565  29.542  33.592  1.00  0.00    -0.354 N 
ATOM     32  N   UNL A   1      42.365  27.871  31.312  1.00  0.00    -0.248 NA
ATOM     33  C   UNL A   1      43.823  26.335  30.328  1.00  0.00     0.031 C 
ATOM     34  C   UNL A   1      42.835  29.498  35.417  1.00  0.00     0.029 A 
ATOM     35  C   UNL A   1      42.701  28.969  34.143  1.00  0.00     0.049 A 
ATOM     36  H   UNL A   1      41.225  29.363  32.686  1.00  0.00     0.167 HD
ATOM     37  C   UNL A   1      43.356  27.540  32.223  1.00  0.00     0.074 A 
ATOM     38  C   UNL A   1      44.214  26.569  31.573  1.00  0.00     0.031 C 
ATOM     39  C   UNL A   1      43.544  28.009  33.480  1.00  0.00     0.037 A 
BRANCH  26  40
ATOM     40  C   UNL A   1      39.267  32.033  35.376  1.00  0.00     0.064 A 
ATOM     41  C   UNL A   1      39.621  33.391  35.419  1.00  0.00     0.173 A 
ATOM     42  C   UNL A   1      38.490  31.523  36.425  1.00  0.00     0.173 A 
ATOM     43  F   UNL A   1      40.369  33.926  34.441  1.00  0.00    -0.203 F 
ATOM     44  C   UNL A   1      39.223  34.202  36.478  1.00  0.00     0.198 A 
ATOM     45  C   UNL A   1      38.075  32.342  37.471  1.00  0.00     0.198 A 
ATOM     46  F   UNL A   1      38.115  30.235  36.422  1.00  0.00    -0.203 F 
ATOM     47  F   UNL A   1      39.594  35.489  36.511  1.00  0.00    -0.200 F 
ATOM     48  C   UNL A   1      38.448  33.679  37.501  1.00  0.00     0.200 A 
ATOM     49  F   UNL A   1      37.309  31.841  38.450  1.00  0.00    -0.200 F 
ATOM     50  F   UNL A   1      38.058  34.462  38.516  1.00  0.00    -0.200 F 
ENDBRANCH  26  40
BRANCH  27  51
ATOM     51  C   UNL A   1      42.302  26.271  27.813  1.00  0.00     0.064 A 
ATOM     52  C   UNL A   1      43.260  26.672  26.871  1.00  0.00     0.173 A 
ATOM     53  C   UNL A   1      41.688  25.025  27.634  1.00  0.00     0.173 A 
ATOM     54  F   UNL A   1      43.866  27.861  26.997  1.00  0.00    -0.203 F 
ATOM     55  C   UNL A   1      43.566  25.872  25.773  1.00  0.00     0.198 A 
ATOM     56  C   UNL A   1      42.012  24.215  26.549  1.00  0.00     0.198 A 
ATOM     57  F   UNL A   1      40.776  24.595  28.518  1.00  0.00    -0.203 F 
ATOM     58  F   UNL A   1      44.451  26.299  24.863  1.00  0.00    -0.200 F 
ATOM     59  C   UNL A   1      42.944  24.644  25.614  1.00  0.00     0.200 A 
ATOM     60  F   UNL A   1      41.422  23.020  26.406  1.00  0.00    -0.200 F 
ATOM     61  F   UNL A   1      43.238  23.874  24.557  1.00  0.00    -0.200 F 
ENDBRANCH  27  51
BRANCH  39  62
ATOM     62  C   UNL A   1      44.720  27.477  34.238  1.00  0.00     0.064 A 
ATOM     63  C   UNL A   1      45.968  28.110  34.155  1.00  0.00     0.173 A 
ATOM     64  C   UNL A   1      44.621  26.308  35.007  1.00  0.00     0.173 A 
ATOM     65  F   UNL A   1      46.111  29.227  33.426  1.00  0.00    -0.203 F 
ATOM     66  C   UNL A   1      47.078  27.588  34.811  1.00  0.00     0.198 A 
ATOM     67  C   UNL A   1      45.729  25.800  35.679  1.00  0.00     0.198 A 
ATOM     68  F   UNL A   1      43.443  25.677  35.126  1.00  0.00    -0.203 F 
ATOM     69  F   UNL A   1      48.266  28.199  34.705  1.00  0.00    -0.200 F 
ATOM     70  C   UNL A   1      46.958  26.436  35.574  1.00  0.00     0.200 A 
ATOM     71  F   UNL A   1      45.606  24.700  36.433  1.00  0.00    -0.200 F 
ATOM     72  F   UNL A   1      48.024  25.943  36.218  1.00  0.00    -0.200 F 
ENDBRANCH  39  62
ENDBRANCH  13  14
ENDBRANCH   6   8
ENDBRANCH   3   4
ENDBRANCH   2   3
ENDBRANCH   1   2
BRANCH   1  73
ATOM     73  C   UNL A   1      30.680  26.296  25.829  1.00  0.00     0.116 C 
BRANCH  73  74
ATOM     74  N   UNL A   1      30.581  25.140  26.692  1.00  0.00    -0.356 N 
ATOM     75  C   UNL A   1      31.418  24.075  26.822  1.00  0.00     0.223 C 
ATOM     76  H   UNL A   1      29.788  25.121  27.275  1.00  0.00     0.163 HD
ATOM     77  O   UNL A   1      31.027  23.150  27.539  1.00  0.00    -0.275 OA
BRANCH  75  78
ATOM     78  C   UNL A   1      32.783  24.035  26.117  1.00  0.00     0.087 C 
BRANCH  78  79
ATOM     79  C   UNL A   1      33.587  22.888  26.789  1.00  0.00     0.049 C 
BRANCH  79  80
ATOM     80  C   UNL A   1      34.947  22.606  26.198  1.00  0.00    -0.044 A 
ATOM     81  C   UNL A   1      35.220  21.335  25.661  1.00  0.00     0.004 A 
ATOM     82  C   UNL A   1      35.949  23.581  26.166  1.00  0.00     0.043 A 
ATOM     83  C   UNL A   1      36.460  21.051  25.086  1.00  0.00     0.003 A 
ATOM     84  C   UNL A   1      37.183  23.287  25.590  1.00  0.00     0.123 A 
ATOM     85  C   UNL A   1      37.446  22.033  25.049  1.00  0.00     0.039 A 
ATOM     86  F   UNL A   1      38.133  24.229  25.557  1.00  0.00    -0.207 F 
ENDBRANCH  79  80
ENDBRANCH  78  79
BRANCH  78  87
ATOM     87  C   UNL A   1      32.614  23.780  24.597  1.00  0.00     0.049 C 
BRANCH  87  88
ATOM     88  C   UNL A   1      32.856  24.935  23.643  1.00  0.00    -0.044 A 
ATOM     89  C   UNL A   1      33.694  26.020  23.941  1.00  0.00     0.004 A 
ATOM     90  C   UNL A   1      32.251  24.897  22.374  1.00  0.00     0.049 A 
ATOM     91  C   UNL A   1      33.838  27.082  23.039  1.00  0.00     0.004 A 
ATOM     92  C   UNL A   1      32.405  25.953  21.480  1.00  0.00     0.115 A 
ATOM     93  C   UNL A   1      33.182  27.057  21.808  1.00  0.00     0.046 A 
BRANCH  92  94
ATOM     94  O   UNL A   1      31.753  25.873  20.285  1.00  0.00    -0.508 OA
ATOM     95  H   UNL A   1      31.760  26.602  19.697  1.00  0.00     0.293 HD
ENDBRANCH  92  94
ENDBRANCH  87  88
ENDBRANCH  78  87
ENDBRANCH  75  78
ENDBRANCH  73  74
ENDBRANCH   1  73
TORSDOF 16
ENDMDL
MODEL 2
REMARK VINA RESULT:     -12.5      1.690      2.557
REMARK SMILES O=C(NCCCCNC(=O)[C@H](Cc1cccc(O)c1)Cc1cccc(F)c1)c1ccc(-c2c3nc(c(-c4c(F)c(F)c(F)c(F)c4F)c4ccc([nH]4)c(-c4c(F)c(F)c(F)c(F)c4F)c4nc(c(-c5c(F)c(F)c(F)c(F)c5F)c5ccc2[nH]5)C=C4)C=C3)cc1
REMARK SMILES IDX 6 1 5 2 4 3 3 4 1 5 2 6 28 8 29 9 90 10 30 11 89 12 31 13
REMARK SMILES IDX 32 14 33 15 83 16 34 17 88 18 82 19 84 20 35 21 87 22 81 23
REMARK SMILES IDX 80 24 36 26 68 27 48 28 67 29 49 30 52 31 66 32 85 33 50 34
REMARK SMILES IDX 51 35 65 37 86 38 53 39 37 40 38 41 46 42 39 43 40 44 44 45
REMARK SMILES IDX 47 46 41 47 42 48 45 49 43 50 69 51 70 52 78 53 71 54 72 55
REMARK SMILES IDX 76 56 79 57 73 58 74 59 77 60 75 61 54 62 55 63 63 64 56 65
REMARK SMILES IDX 57 66 61 67 64 68 58 69 59 70 62 71 60 72 7 73 8 74 9 75
REMARK SMILES IDX 10 77 11 78 20 79 21 80 22 81 27 82 23 83 25 84 24 85 26 86
REMARK SMILES IDX 12 87 13 88 14 89 19 90 15 91 17 92 16 93 18 94
REMARK H PARENT 3 7 84 25 52 36 8 76 18 95
REMARK Flexibility Score: inf
ROOT
ATOM      1  C   UNL A   1      31.843  28.948  27.177  1.00  0.00     0.023 C 
ENDROOT
BRANCH   1   2
ATOM      2  C   UNL A   1      31.418  30.321  26.673  1.00  0.00     0.023 C 
BRANCH   2   3
ATOM      3  C   UNL A   1      32.565  31.287  26.432  1.00  0.00     0.116 C 
BRANCH   3   4
ATOM      4  N   UNL A   1      32.394  32.596  27.052  1.00  0.00    -0.352 N 
ATOM      5  O   UNL A   1      32.968  34.344  28.379  1.00  0.00    -0.269 OA
ATOM      6  C   UNL A   1      33.270  33.266  27.876  1.00  0.00     0.251 C 
ATOM      7  H   UNL A   1      31.546  33.058  26.857  1.00  0.00     0.163 HD
BRANCH   6   8
ATOM      8  C   UNL A   1      34.559  32.623  28.201  1.00  0.00     0.039 A 
ATOM      9  C   UNL A   1      34.586  31.298  28.635  1.00  0.00     0.014 A 
ATOM     10  C   UNL A   1      35.724  33.394  28.197  1.00  0.00     0.014 A 
ATOM     11  C   UNL A   1      35.723  30.816  29.266  1.00  0.00     0.010 A 
ATOM     12  C   UNL A   1      36.899  32.867  28.740  1.00  0.00     0.010 A 
ATOM     13  C   UNL A   1      36.887  31.599  29.339  1.00  0.00    -0.014 A 
BRANCH  13  14
ATOM     14  C   UNL A   1      38.063  31.063  30.073  1.00  0.00     0.031 A 
ATOM     15  C   UNL A   1      38.261  31.349  31.538  1.00  0.00     0.074 A 
ATOM     16  C   UNL A   1      38.904  30.233  29.428  1.00  0.00     0.049 A 
ATOM     17  N   UNL A   1      39.202  30.918  32.340  1.00  0.00    -0.248 NA
ATOM     18  C   UNL A   1      37.284  32.235  32.189  1.00  0.00     0.031 C 
ATOM     19  C   UNL A   1      38.805  29.876  28.011  1.00  0.00     0.029 A 
ATOM     20  N   UNL A   1      39.971  29.502  29.883  1.00  0.00    -0.354 N 
ATOM     21  C   UNL A   1      38.952  31.505  33.573  1.00  0.00     0.074 A 
ATOM     22  C   UNL A   1      37.776  32.333  33.416  1.00  0.00     0.031 C 
ATOM     23  C   UNL A   1      39.715  28.933  27.733  1.00  0.00     0.029 A 
ATOM     24  C   UNL A   1      40.503  28.667  28.932  1.00  0.00     0.049 A 
ATOM     25  H   UNL A   1      40.320  29.569  30.801  1.00  0.00     0.167 HD
ATOM     26  C   UNL A   1      39.643  31.363  34.730  1.00  0.00     0.037 A 
ATOM     27  C   UNL A   1      41.513  27.782  29.014  1.00  0.00     0.037 A 
ATOM     28  C   UNL A   1      40.789  30.508  34.894  1.00  0.00     0.049 A 
ATOM     29  C   UNL A   1      42.240  27.620  30.316  1.00  0.00     0.074 A 
ATOM     30  C   UNL A   1      41.558  30.301  36.026  1.00  0.00     0.029 A 
ATOM     31  N   UNL A   1      41.320  29.702  33.897  1.00  0.00    -0.354 N 
ATOM     32  N   UNL A   1      42.016  28.212  31.463  1.00  0.00    -0.248 NA
ATOM     33  C   UNL A   1      43.367  26.680  30.331  1.00  0.00     0.031 C 
ATOM     34  C   UNL A   1      42.569  29.386  35.709  1.00  0.00     0.029 A 
ATOM     35  C   UNL A   1      42.407  28.997  34.389  1.00  0.00     0.049 A 
ATOM     36  H   UNL A   1      40.975  29.639  32.977  1.00  0.00     0.167 HD
ATOM     37  C   UNL A   1      42.973  27.722  32.337  1.00  0.00     0.074 A 
ATOM     38  C   UNL A   1      43.765  26.761  31.595  1.00  0.00     0.031 C 
ATOM     39  C   UNL A   1      43.184  28.049  33.635  1.00  0.00     0.037 A 
BRANCH  26  40
ATOM     40  C   UNL A   1      39.192  32.163  35.917  1.00  0.00     0.064 A 
ATOM     41  C   UNL A   1      39.706  33.449  36.141  1.00  0.00     0.173 A 
ATOM     42  C   UNL A   1      38.305  31.636  36.866  1.00  0.00     0.173 A 
ATOM     43  F   UNL A   1      40.563  33.997  35.265  1.00  0.00    -0.203 F 
ATOM     44  C   UNL A   1      39.357  34.174  37.278  1.00  0.00     0.198 A 
ATOM     45  C   UNL A   1      37.940  32.372  37.991  1.00  0.00     0.198 A 
ATOM     46  F   UNL A   1      37.775  30.416  36.690  1.00  0.00    -0.203 F 
ATOM     47  F   UNL A   1      39.881  35.390  37.483  1.00  0.00    -0.200 F 
ATOM     48  C   UNL A   1      38.473  33.636  38.200  1.00  0.00     0.200 A 
ATOM     49  F   UNL A   1      37.069  31.860  38.871  1.00  0.00    -0.200 F 
ATOM     50  F   UNL A   1      38.130  34.337  39.289  1.00  0.00    -0.200 F 
ENDBRANCH  26  40
BRANCH  27  51
ATOM     51  C   UNL A   1      41.865  26.975  27.821  1.00  0.00     0.064 A 
ATOM     52  C   UNL A   1      41.298  25.710  27.606  1.00  0.00     0.173 A 
ATOM     53  C   UNL A   1      42.830  27.425  26.912  1.00  0.00     0.173 A 
ATOM     54  F   UNL A   1      40.378  25.235  28.456  1.00  0.00    -0.203 F 
ATOM     55  C   UNL A   1      41.707  24.913  26.540  1.00  0.00     0.198 A 
ATOM     56  C   UNL A   1      43.221  26.637  25.832  1.00  0.00     0.198 A 
ATOM     57  F   UNL A   1      43.388  28.634  27.071  1.00  0.00    -0.203 F 
ATOM     58  F   UNL A   1      41.184  23.690  26.383  1.00  0.00    -0.200 F 
ATOM     59  C   UNL A   1      42.666  25.378  25.653  1.00  0.00     0.200 A 
ATOM     60  F   UNL A   1      44.136  27.095  24.967  1.00  0.00    -0.200 F 
ATOM     61  F   UNL A   1      43.061  24.610  24.628  1.00  0.00    -0.200 F 
ENDBRANCH  27  51
BRANCH  39  62
ATOM     62  C   UNL A   1      44.313  27.361  34.337  1.00  0.00     0.064 A 
ATOM     63  C   UNL A   1      45.611  27.889  34.288  1.00  0.00     0.173 A 
ATOM     64  C   UNL A   1      44.116  26.149  35.015  1.00  0.00     0.173 A 
ATOM     65  F   UNL A   1      45.847  29.042  33.645  1.00  0.00    -0.203 F 
ATOM     66  C   UNL A   1      46.674  27.225  34.890  1.00  0.00     0.198 A 
ATOM     67  C   UNL A   1      45.179  25.498  35.634  1.00  0.00     0.198 A 
ATOM     68  F   UNL A   1      42.889  25.615  35.099  1.00  0.00    -0.203 F 
ATOM     69  F   UNL A   1      47.911  27.738  34.818  1.00  0.00    -0.200 F 
ATOM     70  C   UNL A   1      46.458  26.033  35.565  1.00  0.00     0.200 A 
ATOM     71  F   UNL A   1      44.965  24.358  36.305  1.00  0.00    -0.200 F 
ATOM     72  F   UNL A   1      47.480  25.401  36.157  1.00  0.00    -0.200 F 
ENDBRANCH  39  62
ENDBRANCH  13  14
ENDBRANCH   6   8
ENDBRANCH   3   4
ENDBRANCH   2   3
ENDBRANCH   1   2
BRANCH   1  73
ATOM     73  C   UNL A   1      31.880  27.842  26.126  1.00  0.00     0.116 C 
BRANCH  73  74
ATOM     74  N   UNL A   1      31.133  26.688  26.575  1.00  0.00    -0.356 N 
ATOM     75  C   UNL A   1      30.317  25.853  25.878  1.00  0.00     0.223 C 
ATOM     76  H   UNL A   1      31.228  26.475  27.532  1.00  0.00     0.163 HD
ATOM     77  O   UNL A   1      29.686  25.020  26.535  1.00  0.00    -0.275 OA
BRANCH  75  78
ATOM     78  C   UNL A   1      30.196  25.939  24.348  1.00  0.00     0.087 C 
BRANCH  78  79
ATOM     79  C   UNL A   1      30.376  24.491  23.814  1.00  0.00     0.049 C 
BRANCH  79  80
ATOM     80  C   UNL A   1      31.790  23.961  23.818  1.00  0.00    -0.044 A 
ATOM     81  C   UNL A   1      32.868  24.862  23.793  1.00  0.00     0.004 A 
ATOM     82  C   UNL A   1      32.057  22.589  23.850  1.00  0.00     0.043 A 
ATOM     83  C   UNL A   1      34.187  24.404  23.819  1.00  0.00     0.003 A 
ATOM     84  C   UNL A   1      33.377  22.142  23.876  1.00  0.00     0.123 A 
ATOM     85  C   UNL A   1      34.442  23.036  23.863  1.00  0.00     0.039 A 
ATOM     86  F   UNL A   1      33.624  20.827  23.913  1.00  0.00    -0.207 F 
ENDBRANCH  79  80
ENDBRANCH  78  79
BRANCH  78  87
ATOM     87  C   UNL A   1      28.819  26.518  23.933  1.00  0.00     0.049 C 
BRANCH  87  88
ATOM     88  C   UNL A   1      28.785  27.875  23.253  1.00  0.00    -0.044 A 
ATOM     89  C   UNL A   1      27.619  28.645  23.124  1.00  0.00     0.004 A 
ATOM     90  C   UNL A   1      29.989  28.416  22.771  1.00  0.00     0.049 A 
ATOM     91  C   UNL A   1      27.641  29.868  22.441  1.00  0.00     0.004 A 
ATOM     92  C   UNL A   1      30.004  29.635  22.100  1.00  0.00     0.115 A 
ATOM     93  C   UNL A   1      28.835  30.361  21.915  1.00  0.00     0.046 A 
BRANCH  92  94
ATOM     94  O   UNL A   1      31.200  30.079  21.617  1.00  0.00    -0.508 OA
ATOM     95  H   UNL A   1      31.680  30.734  22.083  1.00  0.00     0.293 HD
ENDBRANCH  92  94
ENDBRANCH  87  88
ENDBRANCH  78  87
ENDBRANCH  75  78
ENDBRANCH  73  74
ENDBRANCH   1  73
TORSDOF 16
ENDMDL
MODEL 3
REMARK VINA RESULT:     -12.5      0.320      1.610
REMARK SMILES O=C(NCCCCNC(=O)[C@H](Cc1cccc(O)c1)Cc1cccc(F)c1)c1ccc(-c2c3nc(c(-c4c(F)c(F)c(F)c(F)c4F)c4ccc([nH]4)c(-c4c(F)c(F)c(F)c(F)c4F)c4nc(c(-c5c(F)c(F)c(F)c(F)c5F)c5ccc2[nH]5)C=C4)C=C3)cc1
REMARK SMILES IDX 6 1 5 2 4 3 3 4 1 5 2 6 28 8 29 9 90 10 30 11 89 12 31 13
REMARK SMILES IDX 32 14 33 15 83 16 34 17 88 18 82 19 84 20 35 21 87 22 81 23
REMARK SMILES IDX 80 24 36 26 68 27 48 28 67 29 49 30 52 31 66 32 85 33 50 34
REMARK SMILES IDX 51 35 65 37 86 38 53 39 37 40 38 41 46 42 39 43 40 44 44 45
REMARK SMILES IDX 47 46 41 47 42 48 45 49 43 50 69 51 70 52 78 53 71 54 72 55
REMARK SMILES IDX 76 56 79 57 73 58 74 59 77 60 75 61 54 62 55 63 63 64 56 65
REMARK SMILES IDX 57 66 61 67 64 68 58 69 59 70 62 71 60 72 7 73 8 74 9 75
REMARK SMILES IDX 10 77 11 78 20 79 21 80 22 81 27 82 23 83 25 84 24 85 26 86
REMARK SMILES IDX 12 87 13 88 14 89 19 90 15 91 17 92 16 93 18 94
REMARK H PARENT 3 7 84 25 52 36 8 76 18 95
REMARK Flexibility Score: inf
ROOT
ATOM      1  C   UNL A   1      31.608  27.689  26.763  1.00  0.00     0.023 C 
ENDROOT
BRANCH   1   2
ATOM      2  C   UNL A   1      31.594  29.046  26.073  1.00  0.00     0.023 C 
BRANCH   2   3
ATOM      3  C   UNL A   1      32.837  29.886  26.309  1.00  0.00     0.116 C 
BRANCH   3   4
ATOM      4  N   UNL A   1      32.572  31.237  26.790  1.00  0.00    -0.352 N 
ATOM      5  O   UNL A   1      33.039  33.169  27.884  1.00  0.00    -0.269 OA
ATOM      6  C   UNL A   1      33.417  32.072  27.487  1.00  0.00     0.251 C 
ATOM      7  H   UNL A   1      31.677  31.598  26.592  1.00  0.00     0.163 HD
BRANCH   6   8
ATOM      8  C   UNL A   1      34.774  31.586  27.808  1.00  0.00     0.039 A 
ATOM      9  C   UNL A   1      34.976  30.243  28.127  1.00  0.00     0.014 A 
ATOM     10  C   UNL A   1      35.819  32.508  27.920  1.00  0.00     0.014 A 
ATOM     11  C   UNL A   1      36.150  29.867  28.760  1.00  0.00     0.010 A 
ATOM     12  C   UNL A   1      37.040  32.100  28.465  1.00  0.00     0.010 A 
ATOM     13  C   UNL A   1      37.190  30.793  28.951  1.00  0.00    -0.014 A 
BRANCH  13  14
ATOM     14  C   UNL A   1      38.407  30.359  29.684  1.00  0.00     0.031 A 
ATOM     15  C   UNL A   1      38.634  30.759  31.117  1.00  0.00     0.074 A 
ATOM     16  C   UNL A   1      39.264  29.519  29.074  1.00  0.00     0.049 A 
ATOM     17  N   UNL A   1      39.615  30.426  31.918  1.00  0.00    -0.248 NA
ATOM     18  C   UNL A   1      37.639  31.651  31.733  1.00  0.00     0.031 C 
ATOM     19  C   UNL A   1      39.140  29.055  27.690  1.00  0.00     0.029 A 
ATOM     20  N   UNL A   1      40.373  28.866  29.546  1.00  0.00    -0.354 N 
ATOM     21  C   UNL A   1      39.376  31.092  33.113  1.00  0.00     0.074 A 
ATOM     22  C   UNL A   1      38.162  31.858  32.934  1.00  0.00     0.031 C 
ATOM     23  C   UNL A   1      40.081  28.131  27.452  1.00  0.00     0.029 A 
ATOM     24  C   UNL A   1      40.912  27.986  28.642  1.00  0.00     0.049 A 
ATOM     25  H   UNL A   1      40.745  29.014  30.446  1.00  0.00     0.167 HD
ATOM     26  C   UNL A   1      40.104  31.062  34.255  1.00  0.00     0.037 A 
ATOM     27  C   UNL A   1      41.961  27.150  28.756  1.00  0.00     0.037 A 
ATOM     28  C   UNL A   1      41.290  30.268  34.444  1.00  0.00     0.049 A 
ATOM     29  C   UNL A   1      42.730  27.113  30.043  1.00  0.00     0.074 A 
ATOM     30  C   UNL A   1      42.099  30.175  35.564  1.00  0.00     0.029 A 
ATOM     31  N   UNL A   1      41.825  29.412  33.492  1.00  0.00    -0.354 N 
ATOM     32  N   UNL A   1      42.514  27.778  31.150  1.00  0.00    -0.248 NA
ATOM     33  C   UNL A   1      43.896  26.222  30.091  1.00  0.00     0.031 C 
ATOM     34  C   UNL A   1      43.137  29.280  35.282  1.00  0.00     0.029 A 
ATOM     35  C   UNL A   1      42.955  28.790  33.999  1.00  0.00     0.049 A 
ATOM     36  H   UNL A   1      41.457  29.269  32.590  1.00  0.00     0.167 HD
ATOM     37  C   UNL A   1      43.515  27.391  32.027  1.00  0.00     0.074 A 
ATOM     38  C   UNL A   1      44.325  26.411  31.332  1.00  0.00     0.031 C 
ATOM     39  C   UNL A   1      43.749  27.821  33.291  1.00  0.00     0.037 A 
BRANCH  26  40
ATOM     40  C   UNL A   1      39.654  31.928  35.396  1.00  0.00     0.064 A 
ATOM     41  C   UNL A   1      38.700  31.456  36.310  1.00  0.00     0.173 A 
ATOM     42  C   UNL A   1      40.114  33.244  35.547  1.00  0.00     0.173 A 
ATOM     43  F   UNL A   1      38.224  30.205  36.204  1.00  0.00    -0.203 F 
ATOM     44  C   UNL A   1      38.215  32.273  37.327  1.00  0.00     0.198 A 
ATOM     45  C   UNL A   1      39.643  34.051  36.579  1.00  0.00     0.198 A 
ATOM     46  F   UNL A   1      41.036  33.737  34.707  1.00  0.00    -0.203 F 
ATOM     47  F   UNL A   1      37.286  31.808  38.173  1.00  0.00    -0.200 F 
ATOM     48  C   UNL A   1      38.689  33.568  37.463  1.00  0.00     0.200 A 
ATOM     49  F   UNL A   1      40.116  35.297  36.723  1.00  0.00    -0.200 F 
ATOM     50  F   UNL A   1      38.228  34.352  38.448  1.00  0.00    -0.200 F 
ENDBRANCH  26  40
BRANCH  27  51
ATOM     51  C   UNL A   1      42.313  26.272  27.614  1.00  0.00     0.064 A 
ATOM     52  C   UNL A   1      41.678  25.036  27.424  1.00  0.00     0.173 A 
ATOM     53  C   UNL A   1      43.342  26.624  26.731  1.00  0.00     0.173 A 
ATOM     54  F   UNL A   1      40.695  24.654  28.251  1.00  0.00    -0.203 F 
ATOM     55  C   UNL A   1      42.082  24.171  26.411  1.00  0.00     0.198 A 
ATOM     56  C   UNL A   1      43.728  25.768  25.703  1.00  0.00     0.198 A 
ATOM     57  F   UNL A   1      43.966  27.803  26.867  1.00  0.00    -0.203 F 
ATOM     58  F   UNL A   1      41.491  22.976  26.280  1.00  0.00    -0.200 F 
ATOM     59  C   UNL A   1      43.105  24.538  25.550  1.00  0.00     0.200 A 
ATOM     60  F   UNL A   1      44.706  26.133  24.862  1.00  0.00    -0.200 F 
ATOM     61  F   UNL A   1      43.494  23.705  24.575  1.00  0.00    -0.200 F 
ENDBRANCH  27  51
BRANCH  39  62
ATOM     62  C   UNL A   1      44.926  27.231  34.005  1.00  0.00     0.064 A 
ATOM     63  C   UNL A   1      46.189  27.832  33.914  1.00  0.00     0.173 A 
ATOM     64  C   UNL A   1      44.809  26.041  34.738  1.00  0.00     0.173 A 
ATOM     65  F   UNL A   1      46.348  28.968  33.219  1.00  0.00    -0.203 F 
ATOM     66  C   UNL A   1      47.297  27.258  34.529  1.00  0.00     0.198 A 
ATOM     67  C   UNL A   1      45.916  25.481  35.368  1.00  0.00     0.198 A 
ATOM     68  F   UNL A   1      43.617  25.440  34.863  1.00  0.00    -0.203 F 
ATOM     69  F   UNL A   1      48.500  27.839  34.416  1.00  0.00    -0.200 F 
ATOM     70  C   UNL A   1      47.161  26.086  35.257  1.00  0.00     0.200 A 
ATOM     71  F   UNL A   1      45.779  24.360  36.090  1.00  0.00    -0.200 F 
ATOM     72  F   UNL A   1      48.226  25.542  35.860  1.00  0.00    -0.200 F 
ENDBRANCH  39  62
ENDBRANCH  13  14
ENDBRANCH   6   8
ENDBRANCH   3   4
ENDBRANCH   2   3
ENDBRANCH   1   2
BRANCH   1  73
ATOM     73  C   UNL A   1      31.057  26.526  25.942  1.00  0.00     0.116 C 
BRANCH  73  74
ATOM     74  N   UNL A   1      30.894  25.351  26.770  1.00  0.00    -0.356 N 
ATOM     75  C   UNL A   1      31.638  24.214  26.824  1.00  0.00     0.223 C 
ATOM     76  H   UNL A   1      30.129  25.379  27.388  1.00  0.00     0.163 HD
ATOM     77  O   UNL A   1      31.199  23.300  27.527  1.00  0.00    -0.275 OA
BRANCH  75  78
ATOM     78  C   UNL A   1      32.961  24.081  26.054  1.00  0.00     0.087 C 
BRANCH  78  79
ATOM     79  C   UNL A   1      33.723  22.890  26.699  1.00  0.00     0.049 C 
BRANCH  79  80
ATOM     80  C   UNL A   1      35.111  22.632  26.163  1.00  0.00    -0.044 A 
ATOM     81  C   UNL A   1      35.419  21.374  25.614  1.00  0.00     0.004 A 
ATOM     82  C   UNL A   1      36.104  23.616  26.195  1.00  0.00     0.043 A 
ATOM     83  C   UNL A   1      36.686  21.112  25.090  1.00  0.00     0.003 A 
ATOM     84  C   UNL A   1      37.364  23.343  25.668  1.00  0.00     0.123 A 
ATOM     85  C   UNL A   1      37.663  22.103  25.115  1.00  0.00     0.039 A 
ATOM     86  F   UNL A   1      38.307  24.294  25.696  1.00  0.00    -0.207 F 
ENDBRANCH  79  80
ENDBRANCH  78  79
BRANCH  78  87
ATOM     87  C   UNL A   1      32.702  23.825  24.547  1.00  0.00     0.049 C 
BRANCH  87  88
ATOM     88  C   UNL A   1      32.896  24.977  23.578  1.00  0.00    -0.044 A 
ATOM     89  C   UNL A   1      33.702  26.092  23.855  1.00  0.00     0.004 A 
ATOM     90  C   UNL A   1      32.278  24.907  22.317  1.00  0.00     0.049 A 
ATOM     91  C   UNL A   1      33.801  27.148  22.941  1.00  0.00     0.004 A 
ATOM     92  C   UNL A   1      32.388  25.958  21.411  1.00  0.00     0.115 A 
ATOM     93  C   UNL A   1      33.132  27.089  21.719  1.00  0.00     0.046 A 
BRANCH  92  94
ATOM     94  O   UNL A   1      31.724  25.844  20.224  1.00  0.00    -0.508 OA
ATOM     95  H   UNL A   1      32.084  26.226  19.449  1.00  0.00     0.293 HD
ENDBRANCH  92  94
ENDBRANCH  87  88
ENDBRANCH  78  87
ENDBRANCH  75  78
ENDBRANCH  73  74
ENDBRANCH   1  73
TORSDOF 16
ENDMDL
