MODEL 1
REMARK VINA RESULT:     -12.4      0.000      0.000
REMARK SMILES C[C@@H](CCC(=O)NCCCCNC(=O)c1ccc(-c2c3nc(c(-c4c(F)c(F)c(F)c(F)c4F)c4ccc([nH]4)c(-c4c(F)c(F)c(F)c(F)c4F)c4nc(c(-c5c(F)c(F)c(F)c(F)c5F)c5ccc2[nH]5)C=C4)C=C3)cc1)NC(=O)Nc1ccc(Cl)c(Br)c1
REMARK SMILES IDX 8 1 7 2 5 3 6 4 4 6 3 7 2 8 1 9 78 10 79 11 80 13 81 14
REMARK SMILES IDX 82 16 83 17 89 18 84 19 87 20 85 21 88 22 86 23 9 24 10 25
REMARK SMILES IDX 11 26 12 27 13 28 14 30 15 31 16 32 77 33 17 34 76 35 18 36
REMARK SMILES IDX 19 37 20 38 70 39 21 40 75 41 69 42 71 43 22 44 74 45 68 46
REMARK SMILES IDX 67 47 23 49 55 50 35 51 54 52 36 53 39 54 53 55 72 56 37 57
REMARK SMILES IDX 38 58 52 60 73 61 40 62 24 63 25 64 33 65 26 66 27 67 31 68
REMARK SMILES IDX 34 69 28 70 29 71 32 72 30 73 56 74 57 75 65 76 58 77 59 78
REMARK SMILES IDX 63 79 66 80 60 81 61 82 64 83 62 84 41 85 42 86 50 87 43 88
REMARK SMILES IDX 44 89 48 90 51 91 45 92 46 93 49 94 47 95
REMARK H PARENT 7 5 78 12 81 15 12 29 71 48 39 59
REMARK Flexibility Score: inf
ROOT
ATOM      1  C   UNL A   1      33.446  29.986  26.586  1.00  0.00     0.116 C 
ENDROOT
BRANCH   1   2
ATOM      2  N   UNL A   1      33.618  29.349  25.292  1.00  0.00    -0.356 N 
ATOM      3  C   UNL A   1      33.518  28.045  24.922  1.00  0.00     0.220 C 
ATOM      4  O   UNL A   1      33.682  27.766  23.733  1.00  0.00    -0.275 OA
ATOM      5  H   UNL A   1      33.845  29.967  24.560  1.00  0.00     0.163 HD
BRANCH   3   6
ATOM      6  C   UNL A   1      33.305  26.954  25.946  1.00  0.00     0.102 C 
BRANCH   6   7
ATOM      7  C   UNL A   1      31.818  26.680  26.198  1.00  0.00     0.034 C 
BRANCH   7   8
ATOM      8  C   UNL A   1      31.212  25.408  25.567  1.00  0.00     0.081 C 
ATOM      9  C   UNL A   1      30.441  25.733  24.280  1.00  0.00     0.031 C 
BRANCH   8  10
ATOM     10  N   UNL A   1      30.499  24.603  26.577  1.00  0.00    -0.335 N 
ATOM     11  C   UNL A   1      30.337  23.296  26.864  1.00  0.00     0.319 C 
ATOM     12  H   UNL A   1      30.009  25.174  27.211  1.00  0.00     0.165 HD
ATOM     13  O   UNL A   1      29.472  22.998  27.693  1.00  0.00    -0.248 OA
ATOM     14  N   UNL A   1      30.959  22.299  26.205  1.00  0.00    -0.308 N 
ATOM     15  H   UNL A   1      30.484  21.437  26.231  1.00  0.00     0.171 HD
BRANCH  14  16
ATOM     16  C   UNL A   1      32.155  22.276  25.493  1.00  0.00     0.044 A 
ATOM     17  C   UNL A   1      32.102  21.984  24.133  1.00  0.00     0.028 A 
ATOM     18  C   UNL A   1      33.376  22.568  26.097  1.00  0.00     0.043 A 
ATOM     19  C   UNL A   1      33.236  22.186  23.344  1.00  0.00     0.024 A 
ATOM     20  C   UNL A   1      34.507  22.789  25.310  1.00  0.00     0.038 A 
ATOM     21  C   UNL A   1      34.428  22.631  23.924  1.00  0.00     0.055 A 
ATOM     22  Br  UNL A   1      36.073  23.394  26.197  1.00  0.00    -0.049 Br
ATOM     23  Cl  UNL A   1      35.741  23.003  22.868  1.00  0.00    -0.083 Cl
ENDBRANCH  14  16
ENDBRANCH   8  10
ENDBRANCH   7   8
ENDBRANCH   6   7
ENDBRANCH   3   6
ENDBRANCH   1   2
BRANCH   1  24
ATOM     24  C   UNL A   1      32.006  30.416  26.856  1.00  0.00     0.023 C 
BRANCH  24  25
ATOM     25  C   UNL A   1      31.742  31.914  26.785  1.00  0.00     0.023 C 
BRANCH  25  26
ATOM     26  C   UNL A   1      32.873  32.718  27.381  1.00  0.00     0.116 C 
BRANCH  26  27
ATOM     27  N   UNL A   1      32.489  34.099  27.661  1.00  0.00    -0.352 N 
ATOM     28  C   UNL A   1      33.006  34.946  28.609  1.00  0.00     0.251 C 
ATOM     29  H   UNL A   1      31.769  34.468  27.099  1.00  0.00     0.163 HD
ATOM     30  O   UNL A   1      32.506  36.047  28.813  1.00  0.00    -0.269 OA
BRANCH  28  31
ATOM     31  C   UNL A   1      34.144  34.474  29.420  1.00  0.00     0.039 A 
ATOM     32  C   UNL A   1      33.891  33.820  30.625  1.00  0.00     0.014 A 
ATOM     33  C   UNL A   1      35.447  34.594  28.931  1.00  0.00     0.014 A 
ATOM     34  C   UNL A   1      34.950  33.227  31.312  1.00  0.00     0.010 A 
ATOM     35  C   UNL A   1      36.474  33.901  29.548  1.00  0.00     0.010 A 
ATOM     36  C   UNL A   1      36.239  33.234  30.758  1.00  0.00    -0.014 A 
BRANCH  36  37
ATOM     37  C   UNL A   1      37.381  32.597  31.450  1.00  0.00     0.031 A 
ATOM     38  C   UNL A   1      38.096  31.454  30.784  1.00  0.00     0.074 A 
ATOM     39  C   UNL A   1      37.720  32.997  32.691  1.00  0.00     0.049 A 
ATOM     40  N   UNL A   1      39.066  30.705  31.238  1.00  0.00    -0.248 NA
ATOM     41  C   UNL A   1      37.627  31.074  29.440  1.00  0.00     0.031 C 
ATOM     42  C   UNL A   1      37.048  34.049  33.455  1.00  0.00     0.029 A 
ATOM     43  N   UNL A   1      38.714  32.561  33.528  1.00  0.00    -0.354 N 
ATOM     44  C   UNL A   1      39.298  29.755  30.252  1.00  0.00     0.074 A 
ATOM     45  C   UNL A   1      38.323  29.973  29.209  1.00  0.00     0.031 C 
ATOM     46  C   UNL A   1      37.673  34.204  34.634  1.00  0.00     0.029 A 
ATOM     47  C   UNL A   1      38.764  33.238  34.722  1.00  0.00     0.049 A 
ATOM     48  H   UNL A   1      39.333  31.832  33.295  1.00  0.00     0.167 HD
ATOM     49  C   UNL A   1      40.264  28.809  30.205  1.00  0.00     0.037 A 
ATOM     50  C   UNL A   1      39.602  33.091  35.764  1.00  0.00     0.037 A 
ATOM     51  C   UNL A   1      41.258  28.638  31.229  1.00  0.00     0.049 A 
ATOM     52  C   UNL A   1      40.685  32.049  35.676  1.00  0.00     0.074 A 
ATOM     53  C   UNL A   1      42.330  27.766  31.255  1.00  0.00     0.029 A 
ATOM     54  N   UNL A   1      41.299  29.367  32.410  1.00  0.00    -0.354 N 
ATOM     55  N   UNL A   1      40.948  31.208  34.704  1.00  0.00    -0.248 NA
ATOM     56  C   UNL A   1      41.593  31.941  36.825  1.00  0.00     0.031 C 
ATOM     57  C   UNL A   1      42.995  27.936  32.474  1.00  0.00     0.029 A 
ATOM     58  C   UNL A   1      42.370  28.949  33.183  1.00  0.00     0.049 A 
ATOM     59  H   UNL A   1      40.662  30.074  32.662  1.00  0.00     0.167 HD
ATOM     60  C   UNL A   1      42.066  30.492  35.110  1.00  0.00     0.074 A 
ATOM     61  C   UNL A   1      42.441  31.011  36.410  1.00  0.00     0.031 C 
ATOM     62  C   UNL A   1      42.723  29.494  34.468  1.00  0.00     0.037 A 
BRANCH  49  63
ATOM     63  C   UNL A   1      40.292  27.904  29.008  1.00  0.00     0.064 A 
ATOM     64  C   UNL A   1      41.031  28.224  27.858  1.00  0.00     0.173 A 
ATOM     65  C   UNL A   1      39.583  26.694  29.014  1.00  0.00     0.173 A 
ATOM     66  F   UNL A   1      41.713  29.377  27.791  1.00  0.00    -0.203 F 
ATOM     67  C   UNL A   1      41.027  27.385  26.746  1.00  0.00     0.198 A 
ATOM     68  C   UNL A   1      39.610  25.841  27.914  1.00  0.00     0.198 A 
ATOM     69  F   UNL A   1      38.861  26.338  30.087  1.00  0.00    -0.203 F 
ATOM     70  F   UNL A   1      41.689  27.743  25.637  1.00  0.00    -0.200 F 
ATOM     71  C   UNL A   1      40.324  26.191  26.777  1.00  0.00     0.200 A 
ATOM     72  F   UNL A   1      38.938  24.681  27.950  1.00  0.00    -0.200 F 
ATOM     73  F   UNL A   1      40.325  25.383  25.709  1.00  0.00    -0.200 F 
ENDBRANCH  49  63
BRANCH  50  74
ATOM     74  C   UNL A   1      39.480  33.975  36.952  1.00  0.00     0.064 A 
ATOM     75  C   UNL A   1      40.086  35.240  36.972  1.00  0.00     0.173 A 
ATOM     76  C   UNL A   1      38.758  33.582  38.088  1.00  0.00     0.173 A 
ATOM     77  F   UNL A   1      40.801  35.655  35.916  1.00  0.00    -0.203 F 
ATOM     78  C   UNL A   1      39.994  36.066  38.091  1.00  0.00     0.198 A 
ATOM     79  C   UNL A   1      38.642  34.421  39.196  1.00  0.00     0.198 A 
ATOM     80  F   UNL A   1      38.152  32.386  38.119  1.00  0.00    -0.203 F 
ATOM     81  F   UNL A   1      40.622  37.251  38.099  1.00  0.00    -0.200 F 
ATOM     82  C   UNL A   1      39.268  35.659  39.200  1.00  0.00     0.200 A 
ATOM     83  F   UNL A   1      37.928  34.031  40.259  1.00  0.00    -0.200 F 
ATOM     84  F   UNL A   1      39.177  36.456  40.273  1.00  0.00    -0.200 F 
ENDBRANCH  50  74
BRANCH  62  85
ATOM     85  C   UNL A   1      43.935  28.927  35.147  1.00  0.00     0.064 A 
ATOM     86  C   UNL A   1      45.212  29.469  34.944  1.00  0.00     0.173 A 
ATOM     87  C   UNL A   1      43.805  27.861  36.050  1.00  0.00     0.173 A 
ATOM     88  F   UNL A   1      45.388  30.480  34.080  1.00  0.00    -0.203 F 
ATOM     89  C   UNL A   1      46.321  28.945  35.602  1.00  0.00     0.198 A 
ATOM     90  C   UNL A   1      44.911  27.363  36.730  1.00  0.00     0.198 A 
ATOM     91  F   UNL A   1      42.602  27.316  36.285  1.00  0.00    -0.203 F 
ATOM     92  F   UNL A   1      47.540  29.446  35.357  1.00  0.00    -0.200 F 
ATOM     93  C   UNL A   1      46.169  27.899  36.500  1.00  0.00     0.200 A 
ATOM     94  F   UNL A   1      44.760  26.363  37.610  1.00  0.00    -0.200 F 
ATOM     95  F   UNL A   1      47.236  27.403  37.140  1.00  0.00    -0.200 F 
ENDBRANCH  62  85
ENDBRANCH  36  37
ENDBRANCH  28  31
ENDBRANCH  26  27
ENDBRANCH  25  26
ENDBRANCH  24  25
ENDBRANCH   1  24
TORSDOF 15
ENDMDL
MODEL 2
REMARK VINA RESULT:     -12.4      0.693      7.447
REMARK SMILES C[C@@H](CCC(=O)NCCCCNC(=O)c1ccc(-c2c3nc(c(-c4c(F)c(F)c(F)c(F)c4F)c4ccc([nH]4)c(-c4c(F)c(F)c(F)c(F)c4F)c4nc(c(-c5c(F)c(F)c(F)c(F)c5F)c5ccc2[nH]5)C=C4)C=C3)cc1)NC(=O)Nc1ccc(Cl)c(Br)c1
REMARK SMILES IDX 8 1 7 2 5 3 6 4 4 6 3 7 2 8 1 9 78 10 79 11 80 13 81 14
REMARK SMILES IDX 82 16 83 17 89 18 84 19 87 20 85 21 88 22 86 23 9 24 10 25
REMARK SMILES IDX 11 26 12 27 13 28 14 30 15 31 16 32 77 33 17 34 76 35 18 36
REMARK SMILES IDX 19 37 20 38 70 39 21 40 75 41 69 42 71 43 22 44 74 45 68 46
REMARK SMILES IDX 67 47 23 49 55 50 35 51 54 52 36 53 39 54 53 55 72 56 37 57
REMARK SMILES IDX 38 58 52 60 73 61 40 62 24 63 25 64 33 65 26 66 27 67 31 68
REMARK SMILES IDX 34 69 28 70 29 71 32 72 30 73 56 74 57 75 65 76 58 77 59 78
REMARK SMILES IDX 63 79 66 80 60 81 61 82 64 83 62 84 41 85 42 86 50 87 43 88
REMARK SMILES IDX 44 89 48 90 51 91 45 92 46 93 49 94 47 95
REMARK H PARENT 7 5 78 12 81 15 12 29 71 48 39 59
REMARK Flexibility Score: inf
ROOT
ATOM      1  C   UNL A   1      33.307  30.103  26.641  1.00  0.00     0.116 C 
ENDROOT
BRANCH   1   2
ATOM      2  N   UNL A   1      33.620  29.409  25.405  1.00  0.00    -0.356 N 
ATOM      3  C   UNL A   1      33.500  28.097  25.066  1.00  0.00     0.220 C 
ATOM      4  O   UNL A   1      33.810  27.763  23.921  1.00  0.00    -0.275 OA
ATOM      5  H   UNL A   1      33.977  29.985  24.692  1.00  0.00     0.163 HD
BRANCH   3   6
ATOM      6  C   UNL A   1      33.092  27.059  26.086  1.00  0.00     0.102 C 
BRANCH   6   7
ATOM      7  C   UNL A   1      31.593  26.744  26.022  1.00  0.00     0.034 C 
BRANCH   7   8
ATOM      8  C   UNL A   1      31.181  25.353  25.494  1.00  0.00     0.081 C 
ATOM      9  C   UNL A   1      30.480  25.455  24.132  1.00  0.00     0.031 C 
BRANCH   8  10
ATOM     10  N   UNL A   1      30.484  24.575  26.537  1.00  0.00    -0.335 N 
ATOM     11  C   UNL A   1      30.344  23.278  26.873  1.00  0.00     0.319 C 
ATOM     12  H   UNL A   1      29.987  25.163  27.151  1.00  0.00     0.165 HD
ATOM     13  O   UNL A   1      29.487  22.998  27.716  1.00  0.00    -0.248 OA
ATOM     14  N   UNL A   1      30.980  22.267  26.250  1.00  0.00    -0.308 N 
ATOM     15  H   UNL A   1      30.519  21.399  26.311  1.00  0.00     0.171 HD
BRANCH  14  16
ATOM     16  C   UNL A   1      32.174  22.236  25.535  1.00  0.00     0.044 A 
ATOM     17  C   UNL A   1      32.116  21.938  24.176  1.00  0.00     0.028 A 
ATOM     18  C   UNL A   1      33.397  22.527  26.133  1.00  0.00     0.043 A 
ATOM     19  C   UNL A   1      33.247  22.132  23.383  1.00  0.00     0.024 A 
ATOM     20  C   UNL A   1      34.527  22.739  25.343  1.00  0.00     0.038 A 
ATOM     21  C   UNL A   1      34.443  22.575  23.958  1.00  0.00     0.055 A 
ATOM     22  Br  UNL A   1      36.098  23.343  26.222  1.00  0.00    -0.049 Br
ATOM     23  Cl  UNL A   1      35.755  22.938  22.896  1.00  0.00    -0.083 Cl
ENDBRANCH  14  16
ENDBRANCH   8  10
ENDBRANCH   7   8
ENDBRANCH   6   7
ENDBRANCH   3   6
ENDBRANCH   1   2
BRANCH   1  24
ATOM     24  C   UNL A   1      31.843  30.522  26.741  1.00  0.00     0.023 C 
BRANCH  24  25
ATOM     25  C   UNL A   1      31.587  32.023  26.773  1.00  0.00     0.023 C 
BRANCH  25  26
ATOM     26  C   UNL A   1      32.800  32.794  27.240  1.00  0.00     0.116 C 
BRANCH  26  27
ATOM     27  N   UNL A   1      32.470  34.154  27.656  1.00  0.00    -0.352 N 
ATOM     28  C   UNL A   1      33.042  34.895  28.661  1.00  0.00     0.251 C 
ATOM     29  H   UNL A   1      31.747  34.595  27.153  1.00  0.00     0.163 HD
ATOM     30  O   UNL A   1      32.585  35.986  28.980  1.00  0.00    -0.269 OA
BRANCH  28  31
ATOM     31  C   UNL A   1      34.186  34.315  29.389  1.00  0.00     0.039 A 
ATOM     32  C   UNL A   1      33.943  33.395  30.409  1.00  0.00     0.014 A 
ATOM     33  C   UNL A   1      35.491  34.612  28.989  1.00  0.00     0.014 A 
ATOM     34  C   UNL A   1      35.019  32.722  30.987  1.00  0.00     0.010 A 
ATOM     35  C   UNL A   1      36.542  33.856  29.476  1.00  0.00     0.010 A 
ATOM     36  C   UNL A   1      36.319  32.923  30.498  1.00  0.00    -0.014 A 
BRANCH  36  37
ATOM     37  C   UNL A   1      37.480  32.210  31.074  1.00  0.00     0.031 A 
ATOM     38  C   UNL A   1      37.956  32.580  32.452  1.00  0.00     0.074 A 
ATOM     39  C   UNL A   1      38.137  31.294  30.337  1.00  0.00     0.049 A 
ATOM     40  N   UNL A   1      38.994  32.142  33.116  1.00  0.00    -0.248 NA
ATOM     41  C   UNL A   1      37.187  33.616  33.161  1.00  0.00     0.031 C 
ATOM     42  C   UNL A   1      37.799  30.910  28.965  1.00  0.00     0.029 A 
ATOM     43  N   UNL A   1      39.229  30.523  30.640  1.00  0.00    -0.354 N 
ATOM     44  C   UNL A   1      39.013  32.867  34.300  1.00  0.00     0.074 A 
ATOM     45  C   UNL A   1      37.932  33.823  34.235  1.00  0.00     0.031 C 
ATOM     46  C   UNL A   1      38.643  29.948  28.557  1.00  0.00     0.029 A 
ATOM     47  C   UNL A   1      39.601  29.675  29.624  1.00  0.00     0.049 A 
ATOM     48  H   UNL A   1      39.701  30.571  31.501  1.00  0.00     0.167 HD
ATOM     49  C   UNL A   1      39.837  32.721  35.363  1.00  0.00     0.037 A 
ATOM     50  C   UNL A   1      40.603  28.779  29.571  1.00  0.00     0.037 A 
ATOM     51  C   UNL A   1      40.876  31.730  35.432  1.00  0.00     0.049 A 
ATOM     52  C   UNL A   1      41.490  28.617  30.777  1.00  0.00     0.074 A 
ATOM     53  C   UNL A   1      41.722  31.438  36.485  1.00  0.00     0.029 A 
ATOM     54  N   UNL A   1      41.202  30.864  34.397  1.00  0.00    -0.354 N 
ATOM     55  N   UNL A   1      41.450  29.252  31.925  1.00  0.00    -0.248 NA
ATOM     56  C   UNL A   1      42.554  27.609  30.685  1.00  0.00     0.031 C 
ATOM     57  C   UNL A   1      42.591  30.423  36.072  1.00  0.00     0.029 A 
ATOM     58  C   UNL A   1      42.253  30.048  34.781  1.00  0.00     0.049 A 
ATOM     59  H   UNL A   1      40.754  30.834  33.521  1.00  0.00     0.167 HD
ATOM     60  C   UNL A   1      42.463  28.702  32.701  1.00  0.00     0.074 A 
ATOM     61  C   UNL A   1      43.086  27.669  31.897  1.00  0.00     0.031 C 
ATOM     62  C   UNL A   1      42.844  29.022  33.962  1.00  0.00     0.037 A 
BRANCH  49  63
ATOM     63  C   UNL A   1      39.636  33.645  36.529  1.00  0.00     0.064 A 
ATOM     64  C   UNL A   1      38.833  33.287  37.624  1.00  0.00     0.173 A 
ATOM     65  C   UNL A   1      40.264  34.899  36.560  1.00  0.00     0.173 A 
ATOM     66  F   UNL A   1      38.195  32.107  37.638  1.00  0.00    -0.203 F 
ATOM     67  C   UNL A   1      38.637  34.165  38.688  1.00  0.00     0.198 A 
ATOM     68  C   UNL A   1      40.094  35.759  37.642  1.00  0.00     0.198 A 
ATOM     69  F   UNL A   1      41.042  35.291  35.541  1.00  0.00    -0.203 F 
ATOM     70  F   UNL A   1      37.817  33.826  39.692  1.00  0.00    -0.200 F 
ATOM     71  C   UNL A   1      39.274  35.396  38.700  1.00  0.00     0.200 A 
ATOM     72  F   UNL A   1      40.719  36.946  37.657  1.00  0.00    -0.200 F 
ATOM     73  F   UNL A   1      39.088  36.238  39.726  1.00  0.00    -0.200 F 
ENDBRANCH  49  63
BRANCH  50  74
ATOM     74  C   UNL A   1      40.792  27.940  28.359  1.00  0.00     0.064 A 
ATOM     75  C   UNL A   1      41.580  28.390  27.290  1.00  0.00     0.173 A 
ATOM     76  C   UNL A   1      40.197  26.676  28.241  1.00  0.00     0.173 A 
ATOM     77  F   UNL A   1      42.157  29.599  27.347  1.00  0.00    -0.203 F 
ATOM     78  C   UNL A   1      41.745  27.618  26.141  1.00  0.00     0.198 A 
ATOM     79  C   UNL A   1      40.386  25.893  27.104  1.00  0.00     0.198 A 
ATOM     80  F   UNL A   1      39.440  26.194  29.239  1.00  0.00    -0.203 F 
ATOM     81  F   UNL A   1      42.465  28.094  25.115  1.00  0.00    -0.200 F 
ATOM     82  C   UNL A   1      41.152  26.368  26.050  1.00  0.00     0.200 A 
ATOM     83  F   UNL A   1      39.824  24.679  27.026  1.00  0.00    -0.200 F 
ATOM     84  F   UNL A   1      41.315  25.626  24.947  1.00  0.00    -0.200 F 
ENDBRANCH  50  74
BRANCH  62  85
ATOM     85  C   UNL A   1      43.962  28.221  34.561  1.00  0.00     0.064 A 
ATOM     86  C   UNL A   1      43.725  27.012  35.231  1.00  0.00     0.173 A 
ATOM     87  C   UNL A   1      45.292  28.646  34.416  1.00  0.00     0.173 A 
ATOM     88  F   UNL A   1      42.469  26.572  35.405  1.00  0.00    -0.203 F 
ATOM     89  C   UNL A   1      44.778  26.272  35.759  1.00  0.00     0.198 A 
ATOM     90  C   UNL A   1      46.343  27.886  34.917  1.00  0.00     0.198 A 
ATOM     91  F   UNL A   1      45.571  29.791  33.775  1.00  0.00    -0.203 F 
ATOM     92  F   UNL A   1      44.525  25.144  36.437  1.00  0.00    -0.200 F 
ATOM     93  C   UNL A   1      46.086  26.704  35.594  1.00  0.00     0.200 A 
ATOM     94  F   UNL A   1      47.607  28.296  34.742  1.00  0.00    -0.200 F 
ATOM     95  F   UNL A   1      47.099  25.983  36.094  1.00  0.00    -0.200 F 
ENDBRANCH  62  85
ENDBRANCH  36  37
ENDBRANCH  28  31
ENDBRANCH  26  27
ENDBRANCH  25  26
ENDBRANCH  24  25
ENDBRANCH   1  24
TORSDOF 15
ENDMDL
MODEL 3
REMARK VINA RESULT:     -12.4      0.635      7.271
REMARK SMILES C[C@@H](CCC(=O)NCCCCNC(=O)c1ccc(-c2c3nc(c(-c4c(F)c(F)c(F)c(F)c4F)c4ccc([nH]4)c(-c4c(F)c(F)c(F)c(F)c4F)c4nc(c(-c5c(F)c(F)c(F)c(F)c5F)c5ccc2[nH]5)C=C4)C=C3)cc1)NC(=O)Nc1ccc(Cl)c(Br)c1
REMARK SMILES IDX 8 1 7 2 5 3 6 4 4 6 3 7 2 8 1 9 78 10 79 11 80 13 81 14
REMARK SMILES IDX 82 16 83 17 89 18 84 19 87 20 85 21 88 22 86 23 9 24 10 25
REMARK SMILES IDX 11 26 12 27 13 28 14 30 15 31 16 32 77 33 17 34 76 35 18 36
REMARK SMILES IDX 19 37 20 38 70 39 21 40 75 41 69 42 71 43 22 44 74 45 68 46
REMARK SMILES IDX 67 47 23 49 55 50 35 51 54 52 36 53 39 54 53 55 72 56 37 57
REMARK SMILES IDX 38 58 52 60 73 61 40 62 24 63 25 64 33 65 26 66 27 67 31 68
REMARK SMILES IDX 34 69 28 70 29 71 32 72 30 73 56 74 57 75 65 76 58 77 59 78
REMARK SMILES IDX 63 79 66 80 60 81 61 82 64 83 62 84 41 85 42 86 50 87 43 88
REMARK SMILES IDX 44 89 48 90 51 91 45 92 46 93 49 94 47 95
REMARK H PARENT 7 5 78 12 81 15 12 29 71 48 39 59
REMARK Flexibility Score: inf
ROOT
ATOM      1  C   UNL A   1      33.296  30.113  26.720  1.00  0.00     0.116 C 
ENDROOT
BRANCH   1   2
ATOM      2  N   UNL A   1      33.606  29.376  25.508  1.00  0.00    -0.356 N 
ATOM      3  C   UNL A   1      33.432  28.064  25.196  1.00  0.00     0.220 C 
ATOM      4  O   UNL A   1      33.753  27.689  24.067  1.00  0.00    -0.275 OA
ATOM      5  H   UNL A   1      34.008  29.918  24.791  1.00  0.00     0.163 HD
BRANCH   3   6
ATOM      6  C   UNL A   1      32.949  27.071  26.227  1.00  0.00     0.102 C 
BRANCH   6   7
ATOM      7  C   UNL A   1      31.456  26.756  26.073  1.00  0.00     0.034 C 
BRANCH   7   8
ATOM      8  C   UNL A   1      31.076  25.360  25.537  1.00  0.00     0.081 C 
ATOM      9  C   UNL A   1      30.352  25.455  24.187  1.00  0.00     0.031 C 
BRANCH   8  10
ATOM     10  N   UNL A   1      30.417  24.551  26.582  1.00  0.00    -0.335 N 
ATOM     11  C   UNL A   1      30.316  23.247  26.903  1.00  0.00     0.319 C 
ATOM     12  H   UNL A   1      29.917  25.118  27.212  1.00  0.00     0.165 HD
ATOM     13  O   UNL A   1      29.481  22.935  27.758  1.00  0.00    -0.248 OA
ATOM     14  N   UNL A   1      30.965  22.260  26.257  1.00  0.00    -0.308 N 
ATOM     15  H   UNL A   1      30.528  21.380  26.314  1.00  0.00     0.171 HD
BRANCH  14  16
ATOM     16  C   UNL A   1      32.147  22.269  25.520  1.00  0.00     0.044 A 
ATOM     17  C   UNL A   1      32.070  22.004  24.155  1.00  0.00     0.028 A 
ATOM     18  C   UNL A   1      33.376  22.564  26.105  1.00  0.00     0.043 A 
ATOM     19  C   UNL A   1      33.184  22.238  23.348  1.00  0.00     0.024 A 
ATOM     20  C   UNL A   1      34.488  22.816  25.300  1.00  0.00     0.038 A 
ATOM     21  C   UNL A   1      34.382  22.687  23.913  1.00  0.00     0.055 A 
ATOM     22  Br  UNL A   1      36.064  23.424  26.168  1.00  0.00    -0.049 Br
ATOM     23  Cl  UNL A   1      35.668  23.099  22.839  1.00  0.00    -0.083 Cl
ENDBRANCH  14  16
ENDBRANCH   8  10
ENDBRANCH   7   8
ENDBRANCH   6   7
ENDBRANCH   3   6
ENDBRANCH   1   2
BRANCH   1  24
ATOM     24  C   UNL A   1      31.841  30.569  26.790  1.00  0.00     0.023 C 
BRANCH  24  25
ATOM     25  C   UNL A   1      31.621  32.076  26.758  1.00  0.00     0.023 C 
BRANCH  25  26
ATOM     26  C   UNL A   1      32.819  32.835  27.278  1.00  0.00     0.116 C 
BRANCH  26  27
ATOM     27  N   UNL A   1      32.480  34.192  27.698  1.00  0.00    -0.352 N 
ATOM     28  C   UNL A   1      33.051  34.935  28.702  1.00  0.00     0.251 C 
ATOM     29  H   UNL A   1      31.752  34.628  27.199  1.00  0.00     0.163 HD
ATOM     30  O   UNL A   1      32.587  36.022  29.025  1.00  0.00    -0.269 OA
BRANCH  28  31
ATOM     31  C   UNL A   1      34.203  34.363  29.424  1.00  0.00     0.039 A 
ATOM     32  C   UNL A   1      33.970  33.523  30.513  1.00  0.00     0.014 A 
ATOM     33  C   UNL A   1      35.500  34.583  28.955  1.00  0.00     0.014 A 
ATOM     34  C   UNL A   1      35.044  32.850  31.094  1.00  0.00     0.010 A 
ATOM     35  C   UNL A   1      36.543  33.822  29.451  1.00  0.00     0.010 A 
ATOM     36  C   UNL A   1      36.330  32.969  30.543  1.00  0.00    -0.014 A 
BRANCH  36  37
ATOM     37  C   UNL A   1      37.488  32.253  31.121  1.00  0.00     0.031 A 
ATOM     38  C   UNL A   1      37.968  32.628  32.496  1.00  0.00     0.074 A 
ATOM     39  C   UNL A   1      38.139  31.329  30.388  1.00  0.00     0.049 A 
ATOM     40  N   UNL A   1      39.004  32.188  33.161  1.00  0.00    -0.248 NA
ATOM     41  C   UNL A   1      37.205  33.672  33.201  1.00  0.00     0.031 C 
ATOM     42  C   UNL A   1      37.798  30.940  29.019  1.00  0.00     0.029 A 
ATOM     43  N   UNL A   1      39.227  30.554  30.694  1.00  0.00    -0.354 N 
ATOM     44  C   UNL A   1      39.028  32.920  34.341  1.00  0.00     0.074 A 
ATOM     45  C   UNL A   1      37.953  33.881  34.273  1.00  0.00     0.031 C 
ATOM     46  C   UNL A   1      38.636  29.971  28.615  1.00  0.00     0.029 A 
ATOM     47  C   UNL A   1      39.594  29.699  29.682  1.00  0.00     0.049 A 
ATOM     48  H   UNL A   1      39.700  30.605  31.555  1.00  0.00     0.167 HD
ATOM     49  C   UNL A   1      39.853  32.776  35.404  1.00  0.00     0.037 A 
ATOM     50  C   UNL A   1      40.591  28.797  29.633  1.00  0.00     0.037 A 
ATOM     51  C   UNL A   1      40.887  31.780  35.477  1.00  0.00     0.049 A 
ATOM     52  C   UNL A   1      41.478  28.638  30.839  1.00  0.00     0.074 A 
ATOM     53  C   UNL A   1      41.733  31.489  36.530  1.00  0.00     0.029 A 
ATOM     54  N   UNL A   1      41.207  30.906  34.447  1.00  0.00    -0.354 N 
ATOM     55  N   UNL A   1      41.444  29.278  31.983  1.00  0.00    -0.248 NA
ATOM     56  C   UNL A   1      42.537  27.624  30.751  1.00  0.00     0.031 C 
ATOM     57  C   UNL A   1      42.596  30.467  36.122  1.00  0.00     0.029 A 
ATOM     58  C   UNL A   1      42.254  30.087  34.834  1.00  0.00     0.049 A 
ATOM     59  H   UNL A   1      40.758  30.874  33.572  1.00  0.00     0.167 HD
ATOM     60  C   UNL A   1      42.454  28.728  32.760  1.00  0.00     0.074 A 
ATOM     61  C   UNL A   1      43.071  27.688  31.962  1.00  0.00     0.031 C 
ATOM     62  C   UNL A   1      42.838  29.053  34.019  1.00  0.00     0.037 A 
BRANCH  49  63
ATOM     63  C   UNL A   1      39.658  33.707  36.565  1.00  0.00     0.064 A 
ATOM     64  C   UNL A   1      40.268  34.971  36.609  1.00  0.00     0.173 A 
ATOM     65  C   UNL A   1      38.840  33.338  37.643  1.00  0.00     0.173 A 
ATOM     66  F   UNL A   1      41.075  35.367  35.613  1.00  0.00    -0.203 F 
ATOM     67  C   UNL A   1      40.096  35.813  37.704  1.00  0.00     0.198 A 
ATOM     68  C   UNL A   1      38.642  34.198  38.720  1.00  0.00     0.198 A 
ATOM     69  F   UNL A   1      38.232  32.143  37.653  1.00  0.00    -0.203 F 
ATOM     70  F   UNL A   1      40.740  36.988  37.751  1.00  0.00    -0.200 F 
ATOM     71  C   UNL A   1      39.278  35.430  38.755  1.00  0.00     0.200 A 
ATOM     72  F   UNL A   1      37.842  33.830  39.732  1.00  0.00    -0.200 F 
ATOM     73  F   UNL A   1      39.110  36.244  39.806  1.00  0.00    -0.200 F 
ENDBRANCH  49  63
BRANCH  50  74
ATOM     74  C   UNL A   1      40.774  27.951  28.425  1.00  0.00     0.064 A 
ATOM     75  C   UNL A   1      41.570  28.387  27.356  1.00  0.00     0.173 A 
ATOM     76  C   UNL A   1      40.164  26.693  28.312  1.00  0.00     0.173 A 
ATOM     77  F   UNL A   1      42.161  29.589  27.410  1.00  0.00    -0.203 F 
ATOM     78  C   UNL A   1      41.729  27.608  26.211  1.00  0.00     0.198 A 
ATOM     79  C   UNL A   1      40.347  25.903  27.178  1.00  0.00     0.198 A 
ATOM     80  F   UNL A   1      39.399  26.224  29.309  1.00  0.00    -0.203 F 
ATOM     81  F   UNL A   1      42.459  28.070  25.186  1.00  0.00    -0.200 F 
ATOM     82  C   UNL A   1      41.122  26.364  26.125  1.00  0.00     0.200 A 
ATOM     83  F   UNL A   1      39.772  24.695  27.104  1.00  0.00    -0.200 F 
ATOM     84  F   UNL A   1      41.280  25.615  25.025  1.00  0.00    -0.200 F 
ENDBRANCH  50  74
BRANCH  62  85
ATOM     85  C   UNL A   1      43.954  28.250  34.621  1.00  0.00     0.064 A 
ATOM     86  C   UNL A   1      45.290  28.666  34.534  1.00  0.00     0.173 A 
ATOM     87  C   UNL A   1      43.673  27.075  35.336  1.00  0.00     0.173 A 
ATOM     88  F   UNL A   1      45.608  29.776  33.850  1.00  0.00    -0.203 F 
ATOM     89  C   UNL A   1      46.308  27.920  35.120  1.00  0.00     0.198 A 
ATOM     90  C   UNL A   1      44.691  26.351  35.948  1.00  0.00     0.198 A 
ATOM     91  F   UNL A   1      42.409  26.640  35.455  1.00  0.00    -0.203 F 
ATOM     92  F   UNL A   1      47.583  28.311  34.984  1.00  0.00    -0.200 F 
ATOM     93  C   UNL A   1      46.008  26.769  35.833  1.00  0.00     0.200 A 
ATOM     94  F   UNL A   1      44.397  25.248  36.650  1.00  0.00    -0.200 F 
ATOM     95  F   UNL A   1      46.989  26.058  36.405  1.00  0.00    -0.200 F 
ENDBRANCH  62  85
ENDBRANCH  36  37
ENDBRANCH  28  31
ENDBRANCH  26  27
ENDBRANCH  25  26
ENDBRANCH  24  25
ENDBRANCH   1  24
TORSDOF 15
ENDMDL
