MODEL 1
REMARK VINA RESULT:     -12.5      0.000      0.000
REMARK SMILES O=C(NCCCCNC(=O)c1ccc(OC[C@H]2C[C@H]3CC[C@@H]2C3)c(Cl)c1)c1ccc(-c2c3nc(c(-c4c(F)c(F)c(F)c(F)c4F)c4ccc([nH]4)c(-c4c(F)c(F)c(F)c(F)c4F)c4nc(c(-c5c(F)c(F)c(F)c(F)c5F)c5ccc2[nH]5)C=C4)C=C3)cc1
REMARK SMILES IDX 6 1 5 2 4 3 3 4 1 5 2 6 27 8 28 9 89 10 29 11 88 12 30 13
REMARK SMILES IDX 31 14 32 15 82 16 33 17 87 18 81 19 83 20 34 21 86 22 80 23
REMARK SMILES IDX 79 24 35 26 67 27 47 28 66 29 48 30 51 31 65 32 84 33 49 34
REMARK SMILES IDX 50 35 64 37 85 38 52 39 36 40 37 41 45 42 38 43 39 44 43 45
REMARK SMILES IDX 46 46 40 47 41 48 44 49 42 50 68 51 69 52 77 53 70 54 71 55
REMARK SMILES IDX 75 56 78 57 72 58 73 59 76 60 74 61 53 62 54 63 62 64 55 65
REMARK SMILES IDX 56 66 60 67 63 68 57 69 58 70 61 71 59 72 7 73 8 74 9 75
REMARK SMILES IDX 10 77 11 78 12 79 26 80 13 81 24 82 14 83 25 84 15 85 16 86
REMARK SMILES IDX 17 87 18 88 22 89 19 90 21 91 23 92 20 93
REMARK H PARENT 3 7 83 25 51 36 8 76
REMARK Flexibility Score: inf
ROOT
ATOM      1  C   UNL A   1      31.677  30.349  26.595  1.00  0.00     0.023 C 
ENDROOT
BRANCH   1   2
ATOM      2  C   UNL A   1      31.518  31.864  26.667  1.00  0.00     0.023 C 
BRANCH   2   3
ATOM      3  C   UNL A   1      32.737  32.612  27.187  1.00  0.00     0.116 C 
BRANCH   3   4
ATOM      4  N   UNL A   1      32.444  33.983  27.584  1.00  0.00    -0.352 N 
ATOM      5  O   UNL A   1      32.621  35.855  28.838  1.00  0.00    -0.269 OA
ATOM      6  C   UNL A   1      33.054  34.745  28.549  1.00  0.00     0.251 C 
ATOM      7  H   UNL A   1      31.709  34.419  27.096  1.00  0.00     0.163 HD
BRANCH   6   8
ATOM      8  C   UNL A   1      34.221  34.194  29.262  1.00  0.00     0.039 A 
ATOM      9  C   UNL A   1      35.517  34.500  28.839  1.00  0.00     0.014 A 
ATOM     10  C   UNL A   1      34.009  33.324  30.336  1.00  0.00     0.014 A 
ATOM     11  C   UNL A   1      36.594  33.823  29.392  1.00  0.00     0.010 A 
ATOM     12  C   UNL A   1      35.102  32.707  30.946  1.00  0.00     0.010 A 
ATOM     13  C   UNL A   1      36.399  32.926  30.456  1.00  0.00    -0.014 A 
BRANCH  13  14
ATOM     14  C   UNL A   1      37.574  32.268  31.075  1.00  0.00     0.031 A 
ATOM     15  C   UNL A   1      38.025  32.627  32.460  1.00  0.00     0.074 A 
ATOM     16  C   UNL A   1      38.219  31.317  30.373  1.00  0.00     0.049 A 
ATOM     17  N   UNL A   1      39.032  32.149  33.148  1.00  0.00    -0.248 NA
ATOM     18  C   UNL A   1      37.253  33.660  33.167  1.00  0.00     0.031 C 
ATOM     19  C   UNL A   1      37.870  30.896  29.014  1.00  0.00     0.029 A 
ATOM     20  N   UNL A   1      39.286  30.526  30.703  1.00  0.00    -0.354 N 
ATOM     21  C   UNL A   1      39.029  32.835  34.355  1.00  0.00     0.074 A 
ATOM     22  C   UNL A   1      37.932  33.778  34.301  1.00  0.00     0.031 C 
ATOM     23  C   UNL A   1      38.681  29.895  28.643  1.00  0.00     0.029 A 
ATOM     24  C   UNL A   1      39.642  29.647  29.711  1.00  0.00     0.049 A 
ATOM     25  H   UNL A   1      39.754  30.582  31.568  1.00  0.00     0.167 HD
ATOM     26  C   UNL A   1      39.864  32.683  35.412  1.00  0.00     0.037 A 
ATOM     27  C   UNL A   1      40.643  28.751  29.659  1.00  0.00     0.037 A 
ATOM     28  C   UNL A   1      40.940  31.726  35.464  1.00  0.00     0.049 A 
ATOM     29  C   UNL A   1      41.561  28.616  30.839  1.00  0.00     0.074 A 
ATOM     30  C   UNL A   1      41.818  31.470  36.503  1.00  0.00     0.029 A 
ATOM     31  N   UNL A   1      41.287  30.869  34.429  1.00  0.00    -0.354 N 
ATOM     32  N   UNL A   1      41.532  29.252  31.983  1.00  0.00    -0.248 NA
ATOM     33  C   UNL A   1      42.651  27.640  30.717  1.00  0.00     0.031 C 
ATOM     34  C   UNL A   1      42.720  30.486  36.083  1.00  0.00     0.029 A 
ATOM     35  C   UNL A   1      42.377  30.097  34.798  1.00  0.00     0.049 A 
ATOM     36  H   UNL A   1      40.824  30.816  33.562  1.00  0.00     0.167 HD
ATOM     37  C   UNL A   1      42.590  28.751  32.724  1.00  0.00     0.074 A 
ATOM     38  C   UNL A   1      43.230  27.739  31.905  1.00  0.00     0.031 C 
ATOM     39  C   UNL A   1      43.001  29.098  33.967  1.00  0.00     0.037 A 
BRANCH  26  40
ATOM     40  C   UNL A   1      39.662  33.582  36.596  1.00  0.00     0.064 A 
ATOM     41  C   UNL A   1      40.246  34.855  36.664  1.00  0.00     0.173 A 
ATOM     42  C   UNL A   1      38.831  33.184  37.656  1.00  0.00     0.173 A 
ATOM     43  F   UNL A   1      41.058  35.278  35.683  1.00  0.00    -0.203 F 
ATOM     44  C   UNL A   1      40.021  35.689  37.757  1.00  0.00     0.198 A 
ATOM     45  C   UNL A   1      38.589  34.031  38.735  1.00  0.00     0.198 A 
ATOM     46  F   UNL A   1      38.243  31.978  37.638  1.00  0.00    -0.203 F 
ATOM     47  F   UNL A   1      40.619  36.888  37.817  1.00  0.00    -0.200 F 
ATOM     48  C   UNL A   1      39.188  35.279  38.787  1.00  0.00     0.200 A 
ATOM     49  F   UNL A   1      37.775  33.637  39.723  1.00  0.00    -0.200 F 
ATOM     50  F   UNL A   1      38.967  36.088  39.834  1.00  0.00    -0.200 F 
ENDBRANCH  26  40
BRANCH  27  51
ATOM     51  C   UNL A   1      40.819  27.920  28.442  1.00  0.00     0.064 A 
ATOM     52  C   UNL A   1      40.211  26.664  28.333  1.00  0.00     0.173 A 
ATOM     53  C   UNL A   1      41.572  28.381  27.352  1.00  0.00     0.173 A 
ATOM     54  F   UNL A   1      39.494  26.176  29.357  1.00  0.00    -0.203 F 
ATOM     55  C   UNL A   1      40.357  25.894  27.181  1.00  0.00     0.198 A 
ATOM     56  C   UNL A   1      41.694  27.623  26.191  1.00  0.00     0.198 A 
ATOM     57  F   UNL A   1      42.167  29.582  27.406  1.00  0.00    -0.203 F 
ATOM     58  F   UNL A   1      39.790  24.681  27.115  1.00  0.00    -0.200 F 
ATOM     59  C   UNL A   1      41.090  26.376  26.109  1.00  0.00     0.200 A 
ATOM     60  F   UNL A   1      42.389  28.101  25.150  1.00  0.00    -0.200 F 
ATOM     61  F   UNL A   1      41.219  25.641  24.996  1.00  0.00    -0.200 F 
ENDBRANCH  27  51
BRANCH  39  62
ATOM     62  C   UNL A   1      44.185  28.365  34.522  1.00  0.00     0.064 A 
ATOM     63  C   UNL A   1      45.487  28.859  34.370  1.00  0.00     0.173 A 
ATOM     64  C   UNL A   1      44.010  27.168  35.231  1.00  0.00     0.173 A 
ATOM     65  F   UNL A   1      45.704  29.991  33.683  1.00  0.00    -0.203 F 
ATOM     66  C   UNL A   1      46.579  28.167  34.888  1.00  0.00     0.198 A 
ATOM     67  C   UNL A   1      45.101  26.492  35.770  1.00  0.00     0.198 A 
ATOM     68  F   UNL A   1      42.783  26.657  35.405  1.00  0.00    -0.203 F 
ATOM     69  F   UNL A   1      47.820  28.633  34.692  1.00  0.00    -0.200 F 
ATOM     70  C   UNL A   1      46.384  26.989  35.592  1.00  0.00     0.200 A 
ATOM     71  F   UNL A   1      44.911  25.358  36.459  1.00  0.00    -0.200 F 
ATOM     72  F   UNL A   1      47.435  26.325  36.093  1.00  0.00    -0.200 F 
ENDBRANCH  39  62
ENDBRANCH  13  14
ENDBRANCH   6   8
ENDBRANCH   3   4
ENDBRANCH   2   3
ENDBRANCH   1   2
BRANCH   1  73
ATOM     73  C   UNL A   1      31.799  29.799  25.178  1.00  0.00     0.116 C 
BRANCH  73  74
ATOM     74  N   UNL A   1      30.671  30.193  24.350  1.00  0.00    -0.352 N 
ATOM     75  C   UNL A   1      30.023  29.451  23.394  1.00  0.00     0.251 C 
ATOM     76  H   UNL A   1      30.329  31.105  24.492  1.00  0.00     0.163 HD
ATOM     77  O   UNL A   1      29.225  29.960  22.623  1.00  0.00    -0.269 OA
BRANCH  75  78
ATOM     78  C   UNL A   1      30.313  28.010  23.317  1.00  0.00     0.041 A 
ATOM     79  C   UNL A   1      29.609  27.127  24.133  1.00  0.00     0.018 A 
ATOM     80  C   UNL A   1      31.306  27.553  22.451  1.00  0.00     0.038 A 
ATOM     81  C   UNL A   1      29.938  25.781  24.111  1.00  0.00     0.049 A 
ATOM     82  C   UNL A   1      31.607  26.187  22.402  1.00  0.00     0.083 A 
ATOM     83  C   UNL A   1      30.887  25.289  23.202  1.00  0.00     0.137 A 
ATOM     84  Cl  UNL A   1      32.903  25.719  21.365  1.00  0.00    -0.080 Cl
BRANCH  83  85
ATOM     85  O   UNL A   1      30.940  23.929  23.223  1.00  0.00    -0.492 OA
BRANCH  85  86
ATOM     86  C   UNL A   1      31.149  23.233  24.447  1.00  0.00     0.233 C 
BRANCH  86  87
ATOM     87  C   UNL A   1      32.564  23.143  25.057  1.00  0.00     0.030 C 
ATOM     88  C   UNL A   1      33.698  23.458  24.046  1.00  0.00     0.011 C 
ATOM     89  C   UNL A   1      33.018  23.961  26.287  1.00  0.00    -0.004 C 
ATOM     90  C   UNL A   1      34.739  24.218  24.897  1.00  0.00    -0.010 C 
ATOM     91  C   UNL A   1      33.037  25.475  26.007  1.00  0.00     0.004 C 
ATOM     92  C   UNL A   1      34.519  23.640  26.291  1.00  0.00     0.007 C 
ATOM     93  C   UNL A   1      34.253  25.659  25.097  1.00  0.00     0.004 C 
ENDBRANCH  86  87
ENDBRANCH  85  86
ENDBRANCH  83  85
ENDBRANCH  75  78
ENDBRANCH  73  74
ENDBRANCH   1  73
TORSDOF 14
ENDMDL
MODEL 2
REMARK VINA RESULT:     -12.4      5.431     10.799
REMARK SMILES O=C(NCCCCNC(=O)c1ccc(OC[C@H]2C[C@H]3CC[C@@H]2C3)c(Cl)c1)c1ccc(-c2c3nc(c(-c4c(F)c(F)c(F)c(F)c4F)c4ccc([nH]4)c(-c4c(F)c(F)c(F)c(F)c4F)c4nc(c(-c5c(F)c(F)c(F)c(F)c5F)c5ccc2[nH]5)C=C4)C=C3)cc1
REMARK SMILES IDX 6 1 5 2 4 3 3 4 1 5 2 6 27 8 28 9 89 10 29 11 88 12 30 13
REMARK SMILES IDX 31 14 32 15 82 16 33 17 87 18 81 19 83 20 34 21 86 22 80 23
REMARK SMILES IDX 79 24 35 26 67 27 47 28 66 29 48 30 51 31 65 32 84 33 49 34
REMARK SMILES IDX 50 35 64 37 85 38 52 39 36 40 37 41 45 42 38 43 39 44 43 45
REMARK SMILES IDX 46 46 40 47 41 48 44 49 42 50 68 51 69 52 77 53 70 54 71 55
REMARK SMILES IDX 75 56 78 57 72 58 73 59 76 60 74 61 53 62 54 63 62 64 55 65
REMARK SMILES IDX 56 66 60 67 63 68 57 69 58 70 61 71 59 72 7 73 8 74 9 75
REMARK SMILES IDX 10 77 11 78 12 79 26 80 13 81 24 82 14 83 25 84 15 85 16 86
REMARK SMILES IDX 17 87 18 88 22 89 19 90 21 91 23 92 20 93
REMARK H PARENT 3 7 83 25 51 36 8 76
REMARK Flexibility Score: inf
ROOT
ATOM      1  C   UNL A   1      37.165  21.099  24.625  1.00  0.00     0.023 C 
ENDROOT
BRANCH   1   2
ATOM      2  C   UNL A   1      38.042  19.903  24.982  1.00  0.00     0.023 C 
BRANCH   2   3
ATOM      3  C   UNL A   1      39.200  20.215  25.919  1.00  0.00     0.116 C 
BRANCH   3   4
ATOM      4  N   UNL A   1      40.234  19.190  25.915  1.00  0.00    -0.352 N 
ATOM      5  O   UNL A   1      42.345  18.383  25.954  1.00  0.00    -0.269 OA
ATOM      6  C   UNL A   1      41.588  19.337  26.089  1.00  0.00     0.251 C 
ATOM      7  H   UNL A   1      39.921  18.269  25.767  1.00  0.00     0.163 HD
BRANCH   6   8
ATOM      8  C   UNL A   1      42.126  20.674  26.406  1.00  0.00     0.039 A 
ATOM      9  C   UNL A   1      42.301  21.068  27.734  1.00  0.00     0.014 A 
ATOM     10  C   UNL A   1      42.410  21.554  25.358  1.00  0.00     0.014 A 
ATOM     11  C   UNL A   1      42.618  22.388  28.019  1.00  0.00     0.010 A 
ATOM     12  C   UNL A   1      42.812  22.859  25.648  1.00  0.00     0.010 A 
ATOM     13  C   UNL A   1      42.885  23.295  26.979  1.00  0.00    -0.014 A 
BRANCH  13  14
ATOM     14  C   UNL A   1      43.290  24.681  27.313  1.00  0.00     0.031 A 
ATOM     15  C   UNL A   1      44.683  25.169  27.045  1.00  0.00     0.074 A 
ATOM     16  C   UNL A   1      42.368  25.508  27.841  1.00  0.00     0.049 A 
ATOM     17  N   UNL A   1      45.202  26.349  27.276  1.00  0.00    -0.248 NA
ATOM     18  C   UNL A   1      45.623  24.209  26.446  1.00  0.00     0.031 C 
ATOM     19  C   UNL A   1      40.985  25.136  28.150  1.00  0.00     0.029 A 
ATOM     20  N   UNL A   1      42.445  26.828  28.198  1.00  0.00    -0.354 N 
ATOM     21  C   UNL A   1      46.528  26.269  26.874  1.00  0.00     0.074 A 
ATOM     22  C   UNL A   1      46.744  24.918  26.401  1.00  0.00     0.031 C 
ATOM     23  C   UNL A   1      40.333  26.212  28.610  1.00  0.00     0.029 A 
ATOM     24  C   UNL A   1      41.265  27.331  28.685  1.00  0.00     0.049 A 
ATOM     25  H   UNL A   1      43.267  27.364  28.113  1.00  0.00     0.167 HD
ATOM     26  C   UNL A   1      47.474  27.239  26.893  1.00  0.00     0.037 A 
ATOM     27  C   UNL A   1      40.970  28.554  29.158  1.00  0.00     0.037 A 
ATOM     28  C   UNL A   1      47.243  28.587  27.346  1.00  0.00     0.049 A 
ATOM     29  C   UNL A   1      42.041  29.604  29.181  1.00  0.00     0.074 A 
ATOM     30  C   UNL A   1      48.126  29.654  27.371  1.00  0.00     0.029 A 
ATOM     31  N   UNL A   1      46.040  29.055  27.858  1.00  0.00    -0.354 N 
ATOM     32  N   UNL A   1      43.284  29.523  28.775  1.00  0.00    -0.248 NA
ATOM     33  C   UNL A   1      41.670  30.914  29.732  1.00  0.00     0.031 C 
ATOM     34  C   UNL A   1      47.470  30.754  27.933  1.00  0.00     0.029 A 
ATOM     35  C   UNL A   1      46.164  30.387  28.219  1.00  0.00     0.049 A 
ATOM     36  H   UNL A   1      45.220  28.519  27.949  1.00  0.00     0.167 HD
ATOM     37  C   UNL A   1      43.843  30.770  29.009  1.00  0.00     0.074 A 
ATOM     38  C   UNL A   1      42.795  31.597  29.574  1.00  0.00     0.031 C 
ATOM     39  C   UNL A   1      45.110  31.191  28.783  1.00  0.00     0.037 A 
BRANCH  26  40
ATOM     40  C   UNL A   1      48.854  26.879  26.427  1.00  0.00     0.064 A 
ATOM     41  C   UNL A   1      49.810  26.341  27.301  1.00  0.00     0.173 A 
ATOM     42  C   UNL A   1      49.208  27.026  25.077  1.00  0.00     0.173 A 
ATOM     43  F   UNL A   1      49.526  26.191  28.604  1.00  0.00    -0.203 F 
ATOM     44  C   UNL A   1      51.076  25.982  26.844  1.00  0.00     0.198 A 
ATOM     45  C   UNL A   1      50.466  26.643  24.619  1.00  0.00     0.198 A 
ATOM     46  F   UNL A   1      48.328  27.531  24.199  1.00  0.00    -0.203 F 
ATOM     47  F   UNL A   1      51.987  25.504  27.704  1.00  0.00    -0.200 F 
ATOM     48  C   UNL A   1      51.400  26.126  25.503  1.00  0.00     0.200 A 
ATOM     49  F   UNL A   1      50.773  26.773  23.321  1.00  0.00    -0.200 F 
ATOM     50  F   UNL A   1      52.617  25.772  25.064  1.00  0.00    -0.200 F 
ENDBRANCH  26  40
BRANCH  27  51
ATOM     51  C   UNL A   1      39.597  28.838  29.646  1.00  0.00     0.064 A 
ATOM     52  C   UNL A   1      39.236  28.578  30.973  1.00  0.00     0.173 A 
ATOM     53  C   UNL A   1      38.630  29.403  28.802  1.00  0.00     0.173 A 
ATOM     54  F   UNL A   1      40.123  28.023  31.812  1.00  0.00    -0.203 F 
ATOM     55  C   UNL A   1      37.954  28.866  31.437  1.00  0.00     0.198 A 
ATOM     56  C   UNL A   1      37.359  29.716  29.274  1.00  0.00     0.198 A 
ATOM     57  F   UNL A   1      38.932  29.678  27.524  1.00  0.00    -0.203 F 
ATOM     58  F   UNL A   1      37.624  28.579  32.704  1.00  0.00    -0.200 F 
ATOM     59  C   UNL A   1      37.019  29.441  30.590  1.00  0.00     0.200 A 
ATOM     60  F   UNL A   1      36.464  30.288  28.456  1.00  0.00    -0.200 F 
ATOM     61  F   UNL A   1      35.791  29.730  31.040  1.00  0.00    -0.200 F 
ENDBRANCH  27  51
BRANCH  39  62
ATOM     62  C   UNL A   1      45.424  32.616  29.129  1.00  0.00     0.064 A 
ATOM     63  C   UNL A   1      45.212  33.655  28.213  1.00  0.00     0.173 A 
ATOM     64  C   UNL A   1      45.921  32.945  30.399  1.00  0.00     0.173 A 
ATOM     65  F   UNL A   1      44.756  33.386  26.981  1.00  0.00    -0.203 F 
ATOM     66  C   UNL A   1      45.510  34.973  28.548  1.00  0.00     0.198 A 
ATOM     67  C   UNL A   1      46.192  34.267  30.738  1.00  0.00     0.198 A 
ATOM     68  F   UNL A   1      46.137  31.985  31.311  1.00  0.00    -0.203 F 
ATOM     69  F   UNL A   1      45.343  35.946  27.641  1.00  0.00    -0.200 F 
ATOM     70  C   UNL A   1      45.993  35.279  29.811  1.00  0.00     0.200 A 
ATOM     71  F   UNL A   1      46.651  34.562  31.963  1.00  0.00    -0.200 F 
ATOM     72  F   UNL A   1      46.276  36.548  30.132  1.00  0.00    -0.200 F 
ENDBRANCH  39  62
ENDBRANCH  13  14
ENDBRANCH   6   8
ENDBRANCH   3   4
ENDBRANCH   2   3
ENDBRANCH   1   2
BRANCH   1  73
ATOM     73  C   UNL A   1      35.785  21.078  25.275  1.00  0.00     0.116 C 
BRANCH  73  74
ATOM     74  N   UNL A   1      35.086  19.831  25.012  1.00  0.00    -0.352 N 
ATOM     75  C   UNL A   1      33.745  19.644  24.782  1.00  0.00     0.251 C 
ATOM     76  H   UNL A   1      35.643  19.019  24.996  1.00  0.00     0.163 HD
ATOM     77  O   UNL A   1      33.248  18.529  24.778  1.00  0.00    -0.269 OA
BRANCH  75  78
ATOM     78  C   UNL A   1      32.910  20.831  24.535  1.00  0.00     0.041 A 
ATOM     79  C   UNL A   1      32.839  21.362  23.250  1.00  0.00     0.018 A 
ATOM     80  C   UNL A   1      32.225  21.423  25.597  1.00  0.00     0.038 A 
ATOM     81  C   UNL A   1      32.112  22.522  23.039  1.00  0.00     0.049 A 
ATOM     82  C   UNL A   1      31.458  22.571  25.371  1.00  0.00     0.083 A 
ATOM     83  C   UNL A   1      31.363  23.098  24.076  1.00  0.00     0.137 A 
ATOM     84  Cl  UNL A   1      30.712  23.284  26.753  1.00  0.00    -0.080 Cl
BRANCH  83  85
ATOM     85  O   UNL A   1      30.591  24.124  23.623  1.00  0.00    -0.492 OA
BRANCH  85  86
ATOM     86  C   UNL A   1      31.173  25.199  22.895  1.00  0.00     0.233 C 
BRANCH  86  87
ATOM     87  C   UNL A   1      31.949  26.309  23.635  1.00  0.00     0.030 C 
ATOM     88  C   UNL A   1      31.631  26.384  25.152  1.00  0.00     0.011 C 
ATOM     89  C   UNL A   1      33.491  26.414  23.643  1.00  0.00    -0.004 C 
ATOM     90  C   UNL A   1      32.992  26.740  25.788  1.00  0.00    -0.010 C 
ATOM     91  C   UNL A   1      34.153  25.221  24.357  1.00  0.00     0.004 C 
ATOM     92  C   UNL A   1      33.685  27.528  24.681  1.00  0.00     0.007 C 
ATOM     93  C   UNL A   1      33.858  25.475  25.836  1.00  0.00     0.004 C 
ENDBRANCH  86  87
ENDBRANCH  85  86
ENDBRANCH  83  85
ENDBRANCH  75  78
ENDBRANCH  73  74
ENDBRANCH   1  73
TORSDOF 14
ENDMDL
MODEL 3
REMARK VINA RESULT:     -12.3      5.546      9.636
REMARK SMILES O=C(NCCCCNC(=O)c1ccc(OC[C@H]2C[C@H]3CC[C@@H]2C3)c(Cl)c1)c1ccc(-c2c3nc(c(-c4c(F)c(F)c(F)c(F)c4F)c4ccc([nH]4)c(-c4c(F)c(F)c(F)c(F)c4F)c4nc(c(-c5c(F)c(F)c(F)c(F)c5F)c5ccc2[nH]5)C=C4)C=C3)cc1
REMARK SMILES IDX 6 1 5 2 4 3 3 4 1 5 2 6 27 8 28 9 89 10 29 11 88 12 30 13
REMARK SMILES IDX 31 14 32 15 82 16 33 17 87 18 81 19 83 20 34 21 86 22 80 23
REMARK SMILES IDX 79 24 35 26 67 27 47 28 66 29 48 30 51 31 65 32 84 33 49 34
REMARK SMILES IDX 50 35 64 37 85 38 52 39 36 40 37 41 45 42 38 43 39 44 43 45
REMARK SMILES IDX 46 46 40 47 41 48 44 49 42 50 68 51 69 52 77 53 70 54 71 55
REMARK SMILES IDX 75 56 78 57 72 58 73 59 76 60 74 61 53 62 54 63 62 64 55 65
REMARK SMILES IDX 56 66 60 67 63 68 57 69 58 70 61 71 59 72 7 73 8 74 9 75
REMARK SMILES IDX 10 77 11 78 12 79 26 80 13 81 24 82 14 83 25 84 15 85 16 86
REMARK SMILES IDX 17 87 18 88 22 89 19 90 21 91 23 92 20 93
REMARK H PARENT 3 7 83 25 51 36 8 76
REMARK Flexibility Score: inf
ROOT
ATOM      1  C   UNL A   1      37.198  21.124  24.630  1.00  0.00     0.023 C 
ENDROOT
BRANCH   1   2
ATOM      2  C   UNL A   1      38.063  19.924  25.001  1.00  0.00     0.023 C 
BRANCH   2   3
ATOM      3  C   UNL A   1      39.238  20.240  25.916  1.00  0.00     0.116 C 
BRANCH   3   4
ATOM      4  N   UNL A   1      40.259  19.202  25.920  1.00  0.00    -0.352 N 
ATOM      5  O   UNL A   1      42.360  18.368  25.973  1.00  0.00    -0.269 OA
ATOM      6  C   UNL A   1      41.613  19.332  26.103  1.00  0.00     0.251 C 
ATOM      7  H   UNL A   1      39.936  18.285  25.769  1.00  0.00     0.163 HD
BRANCH   6   8
ATOM      8  C   UNL A   1      42.166  20.662  26.423  1.00  0.00     0.039 A 
ATOM      9  C   UNL A   1      42.307  21.066  27.753  1.00  0.00     0.014 A 
ATOM     10  C   UNL A   1      42.499  21.526  25.377  1.00  0.00     0.014 A 
ATOM     11  C   UNL A   1      42.640  22.383  28.035  1.00  0.00     0.010 A 
ATOM     12  C   UNL A   1      42.915  22.827  25.666  1.00  0.00     0.010 A 
ATOM     13  C   UNL A   1      42.955  23.274  26.995  1.00  0.00    -0.014 A 
BRANCH  13  14
ATOM     14  C   UNL A   1      43.375  24.657  27.328  1.00  0.00     0.031 A 
ATOM     15  C   UNL A   1      42.378  25.685  27.775  1.00  0.00     0.074 A 
ATOM     16  C   UNL A   1      44.682  24.966  27.245  1.00  0.00     0.049 A 
ATOM     17  N   UNL A   1      42.577  26.937  28.103  1.00  0.00    -0.248 NA
ATOM     18  C   UNL A   1      40.972  25.259  27.861  1.00  0.00     0.031 C 
ATOM     19  C   UNL A   1      45.737  24.045  26.813  1.00  0.00     0.029 A 
ATOM     20  N   UNL A   1      45.350  26.127  27.529  1.00  0.00    -0.354 N 
ATOM     21  C   UNL A   1      41.325  27.454  28.411  1.00  0.00     0.074 A 
ATOM     22  C   UNL A   1      40.368  26.386  28.213  1.00  0.00     0.031 C 
ATOM     23  C   UNL A   1      46.923  24.664  26.902  1.00  0.00     0.029 A 
ATOM     24  C   UNL A   1      46.706  26.038  27.336  1.00  0.00     0.049 A 
ATOM     25  H   UNL A   1      44.901  26.946  27.841  1.00  0.00     0.167 HD
ATOM     26  C   UNL A   1      41.011  28.704  28.828  1.00  0.00     0.037 A 
ATOM     27  C   UNL A   1      47.668  26.967  27.477  1.00  0.00     0.037 A 
ATOM     28  C   UNL A   1      41.974  29.754  29.043  1.00  0.00     0.049 A 
ATOM     29  C   UNL A   1      47.287  28.347  27.925  1.00  0.00     0.074 A 
ATOM     30  C   UNL A   1      41.760  31.043  29.499  1.00  0.00     0.029 A 
ATOM     31  N   UNL A   1      43.338  29.635  28.813  1.00  0.00    -0.354 N 
ATOM     32  N   UNL A   1      46.105  28.816  28.238  1.00  0.00    -0.248 NA
ATOM     33  C   UNL A   1      48.375  29.327  28.037  1.00  0.00     0.031 C 
ATOM     34  C   UNL A   1      42.986  31.716  29.508  1.00  0.00     0.029 A 
ATOM     35  C   UNL A   1      43.973  30.833  29.098  1.00  0.00     0.049 A 
ATOM     36  H   UNL A   1      43.787  28.819  28.495  1.00  0.00     0.167 HD
ATOM     37  C   UNL A   1      46.303  30.141  28.593  1.00  0.00     0.074 A 
ATOM     38  C   UNL A   1      47.725  30.396  28.478  1.00  0.00     0.031 C 
ATOM     39  C   UNL A   1      45.390  31.066  28.975  1.00  0.00     0.037 A 
BRANCH  26  40
ATOM     40  C   UNL A   1      39.562  29.018  29.065  1.00  0.00     0.064 A 
ATOM     41  C   UNL A   1      38.716  29.424  28.022  1.00  0.00     0.173 A 
ATOM     42  C   UNL A   1      39.002  28.861  30.342  1.00  0.00     0.173 A 
ATOM     43  F   UNL A   1      39.205  29.600  26.786  1.00  0.00    -0.203 F 
ATOM     44  C   UNL A   1      37.366  29.679  28.255  1.00  0.00     0.198 A 
ATOM     45  C   UNL A   1      37.647  29.094  30.565  1.00  0.00     0.198 A 
ATOM     46  F   UNL A   1      39.767  28.469  31.372  1.00  0.00    -0.203 F 
ATOM     47  F   UNL A   1      36.584  30.101  27.251  1.00  0.00    -0.200 F 
ATOM     48  C   UNL A   1      36.832  29.507  29.523  1.00  0.00     0.200 A 
ATOM     49  F   UNL A   1      37.131  28.916  31.788  1.00  0.00    -0.200 F 
ATOM     50  F   UNL A   1      35.531  29.746  29.741  1.00  0.00    -0.200 F 
ENDBRANCH  26  40
BRANCH  27  51
ATOM     51  C   UNL A   1      49.078  26.609  27.186  1.00  0.00     0.064 A 
ATOM     52  C   UNL A   1      49.574  26.637  25.877  1.00  0.00     0.173 A 
ATOM     53  C   UNL A   1      49.966  26.261  28.216  1.00  0.00     0.173 A 
ATOM     54  F   UNL A   1      48.758  26.949  24.859  1.00  0.00    -0.203 F 
ATOM     55  C   UNL A   1      50.904  26.323  25.607  1.00  0.00     0.198 A 
ATOM     56  C   UNL A   1      51.301  25.975  27.947  1.00  0.00     0.198 A 
ATOM     57  F   UNL A   1      49.539  26.228  29.487  1.00  0.00    -0.203 F 
ATOM     58  F   UNL A   1      51.346  26.327  24.342  1.00  0.00    -0.200 F 
ATOM     59  C   UNL A   1      51.768  26.000  26.642  1.00  0.00     0.200 A 
ATOM     60  F   UNL A   1      52.136  25.680  28.953  1.00  0.00    -0.200 F 
ATOM     61  F   UNL A   1      53.050  25.711  26.383  1.00  0.00    -0.200 F 
ENDBRANCH  27  51
BRANCH  39  62
ATOM     62  C   UNL A   1      45.907  32.432  29.313  1.00  0.00     0.064 A 
ATOM     63  C   UNL A   1      45.978  33.447  28.349  1.00  0.00     0.173 A 
ATOM     64  C   UNL A   1      46.316  32.733  30.621  1.00  0.00     0.173 A 
ATOM     65  F   UNL A   1      45.616  33.200  27.081  1.00  0.00    -0.203 F 
ATOM     66  C   UNL A   1      46.463  34.710  28.676  1.00  0.00     0.198 A 
ATOM     67  C   UNL A   1      46.775  34.004  30.950  1.00  0.00     0.198 A 
ATOM     68  F   UNL A   1      46.263  31.796  31.579  1.00  0.00    -0.203 F 
ATOM     69  F   UNL A   1      46.565  35.653  27.729  1.00  0.00    -0.200 F 
ATOM     70  C   UNL A   1      46.854  34.990  29.977  1.00  0.00     0.200 A 
ATOM     71  F   UNL A   1      47.145  34.276  32.210  1.00  0.00    -0.200 F 
ATOM     72  F   UNL A   1      47.318  36.206  30.291  1.00  0.00    -0.200 F 
ENDBRANCH  39  62
ENDBRANCH  13  14
ENDBRANCH   6   8
ENDBRANCH   3   4
ENDBRANCH   2   3
ENDBRANCH   1   2
BRANCH   1  73
ATOM     73  C   UNL A   1      35.806  21.107  25.252  1.00  0.00     0.116 C 
BRANCH  73  74
ATOM     74  N   UNL A   1      35.119  19.852  25.000  1.00  0.00    -0.352 N 
ATOM     75  C   UNL A   1      33.779  19.650  24.778  1.00  0.00     0.251 C 
ATOM     76  H   UNL A   1      35.684  19.046  24.987  1.00  0.00     0.163 HD
ATOM     77  O   UNL A   1      33.293  18.530  24.783  1.00  0.00    -0.269 OA
BRANCH  75  78
ATOM     78  C   UNL A   1      32.930  20.827  24.528  1.00  0.00     0.041 A 
ATOM     79  C   UNL A   1      32.875  21.370  23.247  1.00  0.00     0.018 A 
ATOM     80  C   UNL A   1      32.217  21.397  25.583  1.00  0.00     0.038 A 
ATOM     81  C   UNL A   1      32.135  22.522  23.034  1.00  0.00     0.049 A 
ATOM     82  C   UNL A   1      31.437  22.536  25.355  1.00  0.00     0.083 A 
ATOM     83  C   UNL A   1      31.358  23.075  24.063  1.00  0.00     0.137 A 
ATOM     84  Cl  UNL A   1      30.654  23.223  26.729  1.00  0.00    -0.080 Cl
BRANCH  83  85
ATOM     85  O   UNL A   1      30.579  24.094  23.606  1.00  0.00    -0.492 OA
BRANCH  85  86
ATOM     86  C   UNL A   1      31.155  25.176  22.884  1.00  0.00     0.233 C 
BRANCH  86  87
ATOM     87  C   UNL A   1      31.937  26.278  23.629  1.00  0.00     0.030 C 
ATOM     88  C   UNL A   1      31.662  26.312  25.156  1.00  0.00     0.011 C 
ATOM     89  C   UNL A   1      33.477  26.405  23.595  1.00  0.00    -0.004 C 
ATOM     90  C   UNL A   1      33.037  26.672  25.761  1.00  0.00    -0.010 C 
ATOM     91  C   UNL A   1      34.176  25.206  24.259  1.00  0.00     0.004 C 
ATOM     92  C   UNL A   1      33.685  27.497  24.654  1.00  0.00     0.007 C 
ATOM     93  C   UNL A   1      33.922  25.419  25.753  1.00  0.00     0.004 C 
ENDBRANCH  86  87
ENDBRANCH  85  86
ENDBRANCH  83  85
ENDBRANCH  75  78
ENDBRANCH  73  74
ENDBRANCH   1  73
TORSDOF 14
ENDMDL
