MODEL 1
REMARK VINA RESULT:     -13.1      0.000      0.000
REMARK SMILES Cc1cc(=O)c(Oc2ccc(C(=O)NCCCCNC(=O)c3ccc(-c4c5nc(c(-c6c(F)c(F)c(F)c(F)c6F)c6ccc([nH]6)c(-c6c(F)c(F)c(F)c(F)c6F)c6nc(c(-c7c(F)c(F)c(F)c(F)c7F)c7ccc4[nH]7)C=C6)C=C5)cc3)cc2)c(-c2ccc(S(C)(=O)=O)cc2)o1
REMARK SMILES IDX 15 1 14 2 12 3 13 4 11 6 8 7 9 8 86 9 10 10 85 11 7 12 6 13
REMARK SMILES IDX 1 14 2 15 3 16 98 17 4 18 87 19 5 20 88 21 89 22 97 23 90 24
REMARK SMILES IDX 96 25 91 26 92 27 93 28 94 29 95 30 16 31 17 32 18 33 19 34
REMARK SMILES IDX 20 35 21 37 22 38 23 39 84 40 24 41 83 42 25 43 26 44 27 45
REMARK SMILES IDX 77 46 28 47 82 48 76 49 78 50 29 51 81 52 75 53 74 54 30 56
REMARK SMILES IDX 62 57 42 58 61 59 43 60 46 61 60 62 79 63 44 64 45 65 59 67
REMARK SMILES IDX 80 68 47 69 31 70 32 71 40 72 33 73 34 74 38 75 41 76 35 77
REMARK SMILES IDX 36 78 39 79 37 80 63 81 64 82 72 83 65 84 66 85 70 86 73 87
REMARK SMILES IDX 67 88 68 89 71 90 69 91 48 92 49 93 57 94 50 95 51 96 55 97
REMARK SMILES IDX 58 98 52 99 53 100 56 101 54 102
REMARK H PARENT 14 5 19 36 78 55 46 66
REMARK Flexibility Score: inf
ROOT
ATOM      1  C   UNL A   1      34.650  31.531  27.989  1.00  0.00     0.116 C 
ENDROOT
BRANCH   1   2
ATOM      2  N   UNL A   1      33.422  31.755  27.247  1.00  0.00    -0.352 N 
ATOM      3  C   UNL A   1      32.435  30.871  26.859  1.00  0.00     0.251 C 
ATOM      4  O   UNL A   1      31.399  31.313  26.368  1.00  0.00    -0.269 OA
ATOM      5  H   UNL A   1      33.268  32.689  26.978  1.00  0.00     0.163 HD
BRANCH   3   6
ATOM      6  C   UNL A   1      32.647  29.398  26.902  1.00  0.00     0.040 A 
ATOM      7  C   UNL A   1      32.567  26.664  26.404  1.00  0.00     0.127 A 
ATOM      8  C   UNL A   1      31.611  27.229  27.241  1.00  0.00     0.048 A 
ATOM      9  C   UNL A   1      33.690  27.405  26.040  1.00  0.00     0.048 A 
ATOM     10  C   UNL A   1      31.626  28.610  27.454  1.00  0.00     0.017 A 
ATOM     11  C   UNL A   1      33.751  28.766  26.331  1.00  0.00     0.017 A 
BRANCH   7  12
ATOM     12  O   UNL A   1      32.519  25.378  25.957  1.00  0.00    -0.449 OA
BRANCH  12  13
ATOM     13  C   UNL A   1      32.651  25.004  24.627  1.00  0.00     0.217 A 
ATOM     14  C   UNL A   1      33.211  23.251  20.715  1.00  0.00     0.088 C 
ATOM     15  C   UNL A   1      33.145  23.817  22.098  1.00  0.00     0.105 A 
ATOM     16  C   UNL A   1      33.844  23.322  23.121  1.00  0.00     0.098 A 
ATOM     17  O   UNL A   1      32.300  24.897  22.232  1.00  0.00    -0.457 OA
ATOM     18  C   UNL A   1      33.678  23.924  24.450  1.00  0.00     0.228 A 
ATOM     19  C   UNL A   1      32.066  25.460  23.486  1.00  0.00     0.180 A 
ATOM     20  O   UNL A   1      34.376  23.525  25.377  1.00  0.00    -0.285 OA
BRANCH  19  21
ATOM     21  C   UNL A   1      31.083  26.555  23.350  1.00  0.00     0.021 A 
ATOM     22  C   UNL A   1      31.504  27.789  22.823  1.00  0.00     0.013 A 
ATOM     23  C   UNL A   1      29.745  26.403  23.741  1.00  0.00     0.013 A 
ATOM     24  C   UNL A   1      30.588  28.822  22.603  1.00  0.00     0.021 A 
ATOM     25  C   UNL A   1      28.825  27.437  23.534  1.00  0.00     0.021 A 
ATOM     26  C   UNL A   1      29.249  28.635  22.951  1.00  0.00     0.067 A 
BRANCH  26  27
ATOM     27  S   UNL A   1      28.068  29.901  22.539  1.00  0.00     0.175 S 
ATOM     28  C   UNL A   1      28.758  31.368  23.250  1.00  0.00     0.163 C 
ATOM     29  O   UNL A   1      28.091  30.056  21.099  1.00  0.00    -0.224 OA
ATOM     30  O   UNL A   1      26.833  29.610  23.248  1.00  0.00    -0.224 OA
ENDBRANCH  26  27
ENDBRANCH  19  21
ENDBRANCH  12  13
ENDBRANCH   7  12
ENDBRANCH   3   6
ENDBRANCH   1   2
BRANCH   1  31
ATOM     31  C   UNL A   1      35.196  32.720  28.771  1.00  0.00     0.023 C 
BRANCH  31  32
ATOM     32  C   UNL A   1      34.237  33.444  29.701  1.00  0.00     0.023 C 
BRANCH  32  33
ATOM     33  C   UNL A   1      33.949  34.901  29.375  1.00  0.00     0.116 C 
BRANCH  33  34
ATOM     34  N   UNL A   1      32.930  35.523  30.213  1.00  0.00    -0.352 N 
ATOM     35  C   UNL A   1      32.867  35.632  31.587  1.00  0.00     0.251 C 
ATOM     36  H   UNL A   1      32.174  35.924  29.725  1.00  0.00     0.163 HD
ATOM     37  O   UNL A   1      31.893  36.151  32.123  1.00  0.00    -0.269 OA
BRANCH  35  38
ATOM     38  C   UNL A   1      33.948  35.056  32.420  1.00  0.00     0.039 A 
ATOM     39  C   UNL A   1      35.190  35.682  32.502  1.00  0.00     0.014 A 
ATOM     40  C   UNL A   1      33.746  33.823  33.048  1.00  0.00     0.014 A 
ATOM     41  C   UNL A   1      36.283  34.965  32.971  1.00  0.00     0.010 A 
ATOM     42  C   UNL A   1      34.828  33.156  33.632  1.00  0.00     0.010 A 
ATOM     43  C   UNL A   1      36.125  33.681  33.521  1.00  0.00    -0.014 A 
BRANCH  43  44
ATOM     44  C   UNL A   1      37.337  32.899  33.901  1.00  0.00     0.031 A 
ATOM     45  C   UNL A   1      37.931  31.886  32.950  1.00  0.00     0.074 A 
ATOM     46  C   UNL A   1      37.968  33.175  35.060  1.00  0.00     0.049 A 
ATOM     47  N   UNL A   1      39.011  31.154  33.091  1.00  0.00    -0.248 NA
ATOM     48  C   UNL A   1      37.230  31.661  31.674  1.00  0.00     0.031 C 
ATOM     49  C   UNL A   1      37.512  34.147  36.056  1.00  0.00     0.029 A 
ATOM     50  N   UNL A   1      39.148  32.701  35.580  1.00  0.00    -0.354 N 
ATOM     51  C   UNL A   1      39.107  30.383  31.938  1.00  0.00     0.074 A 
ATOM     52  C   UNL A   1      37.956  30.698  31.123  1.00  0.00     0.031 C 
ATOM     53  C   UNL A   1      38.431  34.249  37.026  1.00  0.00     0.029 A 
ATOM     54  C   UNL A   1      39.506  33.298  36.766  1.00  0.00     0.049 A 
ATOM     55  H   UNL A   1      39.684  31.999  35.146  1.00  0.00     0.167 HD
ATOM     56  C   UNL A   1      40.078  29.511  31.580  1.00  0.00     0.037 A 
ATOM     57  C   UNL A   1      40.572  33.094  37.564  1.00  0.00     0.037 A 
ATOM     58  C   UNL A   1      41.248  29.227  32.369  1.00  0.00     0.049 A 
ATOM     59  C   UNL A   1      41.596  32.065  37.169  1.00  0.00     0.074 A 
ATOM     60  C   UNL A   1      42.298  28.373  32.074  1.00  0.00     0.029 A 
ATOM     61  N   UNL A   1      41.529  29.796  33.601  1.00  0.00    -0.354 N 
ATOM     62  N   UNL A   1      41.678  31.359  36.068  1.00  0.00    -0.248 NA
ATOM     63  C   UNL A   1      42.668  31.791  38.138  1.00  0.00     0.031 C 
ATOM     64  C   UNL A   1      43.191  28.391  33.146  1.00  0.00     0.029 A 
ATOM     65  C   UNL A   1      42.722  29.288  34.090  1.00  0.00     0.049 A 
ATOM     66  H   UNL A   1      40.967  30.461  34.059  1.00  0.00     0.167 HD
ATOM     67  C   UNL A   1      42.814  30.573  36.205  1.00  0.00     0.074 A 
ATOM     68  C   UNL A   1      43.407  30.908  37.481  1.00  0.00     0.031 C 
ATOM     69  C   UNL A   1      43.310  29.643  35.355  1.00  0.00     0.037 A 
BRANCH  56  70
ATOM     70  C   UNL A   1      39.954  28.802  30.263  1.00  0.00     0.064 A 
ATOM     71  C   UNL A   1      40.517  29.331  29.093  1.00  0.00     0.173 A 
ATOM     72  C   UNL A   1      39.378  27.523  30.194  1.00  0.00     0.173 A 
ATOM     73  F   UNL A   1      41.072  30.553  29.104  1.00  0.00    -0.203 F 
ATOM     74  C   UNL A   1      40.509  28.607  27.903  1.00  0.00     0.198 A 
ATOM     75  C   UNL A   1      39.396  26.791  29.009  1.00  0.00     0.198 A 
ATOM     76  F   UNL A   1      38.836  26.966  31.287  1.00  0.00    -0.203 F 
ATOM     77  F   UNL A   1      41.041  29.140  26.793  1.00  0.00    -0.200 F 
ATOM     78  C   UNL A   1      39.962  27.334  27.865  1.00  0.00     0.200 A 
ATOM     79  F   UNL A   1      38.884  25.553  28.978  1.00  0.00    -0.200 F 
ATOM     80  F   UNL A   1      39.984  26.627  26.726  1.00  0.00    -0.200 F 
ENDBRANCH  56  70
BRANCH  57  81
ATOM     81  C   UNL A   1      40.723  33.868  38.826  1.00  0.00     0.064 A 
ATOM     82  C   UNL A   1      40.063  33.474  39.998  1.00  0.00     0.173 A 
ATOM     83  C   UNL A   1      41.505  35.032  38.880  1.00  0.00     0.173 A 
ATOM     84  F   UNL A   1      39.284  32.383  39.992  1.00  0.00    -0.203 F 
ATOM     85  C   UNL A   1      40.162  34.225  41.167  1.00  0.00     0.198 A 
ATOM     86  C   UNL A   1      41.633  35.762  40.060  1.00  0.00     0.198 A 
ATOM     87  F   UNL A   1      42.156  35.457  37.787  1.00  0.00    -0.203 F 
ATOM     88  F   UNL A   1      39.475  33.856  42.257  1.00  0.00    -0.200 F 
ATOM     89  C   UNL A   1      40.952  35.365  41.199  1.00  0.00     0.200 A 
ATOM     90  F   UNL A   1      42.409  36.853  40.089  1.00  0.00    -0.200 F 
ATOM     91  F   UNL A   1      41.046  36.086  42.324  1.00  0.00    -0.200 F 
ENDBRANCH  57  81
BRANCH  69  92
ATOM     92  C   UNL A   1      44.559  28.919  35.761  1.00  0.00     0.064 A 
ATOM     93  C   UNL A   1      44.498  27.703  36.456  1.00  0.00     0.173 A 
ATOM     94  C   UNL A   1      45.820  29.392  35.371  1.00  0.00     0.173 A 
ATOM     95  F   UNL A   1      43.316  27.217  36.863  1.00  0.00    -0.203 F 
ATOM     96  C   UNL A   1      45.656  26.989  36.751  1.00  0.00     0.198 A 
ATOM     97  C   UNL A   1      46.974  28.661  35.641  1.00  0.00     0.198 A 
ATOM     98  F   UNL A   1      45.931  30.546  34.696  1.00  0.00    -0.203 F 
ATOM     99  F   UNL A   1      45.576  25.842  37.440  1.00  0.00    -0.200 F 
ATOM    100  C   UNL A   1      46.890  27.461  36.331  1.00  0.00     0.200 A 
ATOM    101  F   UNL A   1      48.164  29.109  35.218  1.00  0.00    -0.200 F 
ATOM    102  F   UNL A   1      48.001  26.760  36.594  1.00  0.00    -0.200 F 
ENDBRANCH  69  92
ENDBRANCH  43  44
ENDBRANCH  35  38
ENDBRANCH  33  34
ENDBRANCH  32  33
ENDBRANCH  31  32
ENDBRANCH   1  31
TORSDOF 15
ENDMDL
MODEL 2
REMARK VINA RESULT:     -12.8      0.325      6.886
REMARK SMILES Cc1cc(=O)c(Oc2ccc(C(=O)NCCCCNC(=O)c3ccc(-c4c5nc(c(-c6c(F)c(F)c(F)c(F)c6F)c6ccc([nH]6)c(-c6c(F)c(F)c(F)c(F)c6F)c6nc(c(-c7c(F)c(F)c(F)c(F)c7F)c7ccc4[nH]7)C=C6)C=C5)cc3)cc2)c(-c2ccc(S(C)(=O)=O)cc2)o1
REMARK SMILES IDX 15 1 14 2 12 3 13 4 11 6 8 7 9 8 86 9 10 10 85 11 7 12 6 13
REMARK SMILES IDX 1 14 2 15 3 16 98 17 4 18 87 19 5 20 88 21 89 22 97 23 90 24
REMARK SMILES IDX 96 25 91 26 92 27 93 28 94 29 95 30 16 31 17 32 18 33 19 34
REMARK SMILES IDX 20 35 21 37 22 38 23 39 84 40 24 41 83 42 25 43 26 44 27 45
REMARK SMILES IDX 77 46 28 47 82 48 76 49 78 50 29 51 81 52 75 53 74 54 30 56
REMARK SMILES IDX 62 57 42 58 61 59 43 60 46 61 60 62 79 63 44 64 45 65 59 67
REMARK SMILES IDX 80 68 47 69 31 70 32 71 40 72 33 73 34 74 38 75 41 76 35 77
REMARK SMILES IDX 36 78 39 79 37 80 63 81 64 82 72 83 65 84 66 85 70 86 73 87
REMARK SMILES IDX 67 88 68 89 71 90 69 91 48 92 49 93 57 94 50 95 51 96 55 97
REMARK SMILES IDX 58 98 52 99 53 100 56 101 54 102
REMARK H PARENT 14 5 19 36 78 55 46 66
REMARK Flexibility Score: inf
ROOT
ATOM      1  C   UNL A   1      34.680  31.637  27.983  1.00  0.00     0.116 C 
ENDROOT
BRANCH   1   2
ATOM      2  N   UNL A   1      33.456  31.849  27.233  1.00  0.00    -0.352 N 
ATOM      3  C   UNL A   1      32.469  30.960  26.857  1.00  0.00     0.251 C 
ATOM      4  O   UNL A   1      31.435  31.394  26.354  1.00  0.00    -0.269 OA
ATOM      5  H   UNL A   1      33.304  32.779  26.947  1.00  0.00     0.163 HD
BRANCH   3   6
ATOM      6  C   UNL A   1      32.679  29.488  26.925  1.00  0.00     0.040 A 
ATOM      7  C   UNL A   1      32.624  26.749  26.453  1.00  0.00     0.127 A 
ATOM      8  C   UNL A   1      31.629  27.321  27.238  1.00  0.00     0.048 A 
ATOM      9  C   UNL A   1      33.763  27.486  26.135  1.00  0.00     0.048 A 
ATOM     10  C   UNL A   1      31.633  28.705  27.436  1.00  0.00     0.017 A 
ATOM     11  C   UNL A   1      33.809  28.850  26.414  1.00  0.00     0.017 A 
BRANCH   7  12
ATOM     12  O   UNL A   1      32.596  25.458  26.018  1.00  0.00    -0.449 OA
BRANCH  12  13
ATOM     13  C   UNL A   1      32.711  25.075  24.689  1.00  0.00     0.217 A 
ATOM     14  C   UNL A   1      33.227  23.299  20.781  1.00  0.00     0.088 C 
ATOM     15  C   UNL A   1      33.177  23.874  22.161  1.00  0.00     0.105 A 
ATOM     16  C   UNL A   1      33.898  23.394  23.176  1.00  0.00     0.098 A 
ATOM     17  O   UNL A   1      32.323  24.947  22.301  1.00  0.00    -0.457 OA
ATOM     18  C   UNL A   1      33.747  24.005  24.503  1.00  0.00     0.228 A 
ATOM     19  C   UNL A   1      32.103  25.517  23.553  1.00  0.00     0.180 A 
ATOM     20  O   UNL A   1      34.464  23.620  25.422  1.00  0.00    -0.285 OA
BRANCH  19  21
ATOM     21  C   UNL A   1      31.107  26.600  23.426  1.00  0.00     0.021 A 
ATOM     22  C   UNL A   1      31.541  27.887  23.060  1.00  0.00     0.013 A 
ATOM     23  C   UNL A   1      29.743  26.386  23.669  1.00  0.00     0.013 A 
ATOM     24  C   UNL A   1      30.621  28.918  22.849  1.00  0.00     0.021 A 
ATOM     25  C   UNL A   1      28.818  27.418  23.471  1.00  0.00     0.021 A 
ATOM     26  C   UNL A   1      29.261  28.673  23.046  1.00  0.00     0.067 A 
BRANCH  26  27
ATOM     27  S   UNL A   1      28.089  29.950  22.642  1.00  0.00     0.175 S 
ATOM     28  C   UNL A   1      28.811  31.416  23.322  1.00  0.00     0.163 C 
ATOM     29  O   UNL A   1      28.087  30.088  21.199  1.00  0.00    -0.224 OA
ATOM     30  O   UNL A   1      26.864  29.684  23.377  1.00  0.00    -0.224 OA
ENDBRANCH  26  27
ENDBRANCH  19  21
ENDBRANCH  12  13
ENDBRANCH   7  12
ENDBRANCH   3   6
ENDBRANCH   1   2
BRANCH   1  31
ATOM     31  C   UNL A   1      35.205  32.827  28.777  1.00  0.00     0.023 C 
BRANCH  31  32
ATOM     32  C   UNL A   1      34.289  33.419  29.835  1.00  0.00     0.023 C 
BRANCH  32  33
ATOM     33  C   UNL A   1      33.734  34.806  29.550  1.00  0.00     0.116 C 
BRANCH  33  34
ATOM     34  N   UNL A   1      32.717  35.260  30.492  1.00  0.00    -0.352 N 
ATOM     35  C   UNL A   1      32.752  35.306  31.871  1.00  0.00     0.251 C 
ATOM     36  H   UNL A   1      31.880  35.581  30.083  1.00  0.00     0.163 HD
ATOM     37  O   UNL A   1      31.767  35.676  32.503  1.00  0.00    -0.269 OA
BRANCH  35  38
ATOM     38  C   UNL A   1      33.960  34.840  32.590  1.00  0.00     0.039 A 
ATOM     39  C   UNL A   1      35.131  35.594  32.572  1.00  0.00     0.014 A 
ATOM     40  C   UNL A   1      33.946  33.587  33.211  1.00  0.00     0.014 A 
ATOM     41  C   UNL A   1      36.333  34.993  32.926  1.00  0.00     0.010 A 
ATOM     42  C   UNL A   1      35.142  33.033  33.681  1.00  0.00     0.010 A 
ATOM     43  C   UNL A   1      36.361  33.694  33.463  1.00  0.00    -0.014 A 
BRANCH  43  44
ATOM     44  C   UNL A   1      37.678  33.041  33.716  1.00  0.00     0.031 A 
ATOM     45  C   UNL A   1      38.414  33.268  35.016  1.00  0.00     0.074 A 
ATOM     46  C   UNL A   1      38.164  32.157  32.821  1.00  0.00     0.049 A 
ATOM     47  N   UNL A   1      39.543  32.742  35.430  1.00  0.00    -0.248 NA
ATOM     48  C   UNL A   1      37.813  34.203  35.982  1.00  0.00     0.031 C 
ATOM     49  C   UNL A   1      37.539  31.830  31.538  1.00  0.00     0.029 A 
ATOM     50  N   UNL A   1      39.267  31.341  32.866  1.00  0.00    -0.354 N 
ATOM     51  C   UNL A   1      39.786  33.288  36.684  1.00  0.00     0.074 A 
ATOM     52  C   UNL A   1      38.715  34.221  36.953  1.00  0.00     0.031 C 
ATOM     53  C   UNL A   1      38.224  30.837  30.954  1.00  0.00     0.029 A 
ATOM     54  C   UNL A   1      39.380  30.506  31.780  1.00  0.00     0.049 A 
ATOM     55  H   UNL A   1      39.917  31.353  33.606  1.00  0.00     0.167 HD
ATOM     56  C   UNL A   1      40.795  33.019  37.546  1.00  0.00     0.037 A 
ATOM     57  C   UNL A   1      40.315  29.587  31.473  1.00  0.00     0.037 A 
ATOM     58  C   UNL A   1      41.839  32.058  37.301  1.00  0.00     0.049 A 
ATOM     59  C   UNL A   1      41.463  29.365  32.420  1.00  0.00     0.074 A 
ATOM     60  C   UNL A   1      42.892  31.703  38.128  1.00  0.00     0.029 A 
ATOM     61  N   UNL A   1      41.958  31.294  36.151  1.00  0.00    -0.354 N 
ATOM     62  N   UNL A   1      41.666  29.878  33.609  1.00  0.00    -0.248 NA
ATOM     63  C   UNL A   1      42.521  28.447  31.975  1.00  0.00     0.031 C 
ATOM     64  C   UNL A   1      43.672  30.757  37.461  1.00  0.00     0.029 A 
ATOM     65  C   UNL A   1      43.083  30.490  36.237  1.00  0.00     0.049 A 
ATOM     66  H   UNL A   1      41.336  31.318  35.388  1.00  0.00     0.167 HD
ATOM     67  C   UNL A   1      42.861  29.336  34.058  1.00  0.00     0.074 A 
ATOM     68  C   UNL A   1      43.326  28.430  33.030  1.00  0.00     0.031 C 
ATOM     69  C   UNL A   1      43.524  29.580  35.213  1.00  0.00     0.037 A 
BRANCH  56  70
ATOM     70  C   UNL A   1      40.829  33.745  38.859  1.00  0.00     0.064 A 
ATOM     71  C   UNL A   1      41.626  34.884  39.042  1.00  0.00     0.173 A 
ATOM     72  C   UNL A   1      39.963  33.375  39.901  1.00  0.00     0.173 A 
ATOM     73  F   UNL A   1      42.475  35.275  38.080  1.00  0.00    -0.203 F 
ATOM     74  C   UNL A   1      41.555  35.626  40.219  1.00  0.00     0.198 A 
ATOM     75  C   UNL A   1      39.876  34.135  41.065  1.00  0.00     0.198 A 
ATOM     76  F   UNL A   1      39.171  32.300  39.772  1.00  0.00    -0.203 F 
ATOM     77  F   UNL A   1      42.337  36.704  40.377  1.00  0.00    -0.200 F 
ATOM     78  C   UNL A   1      40.671  35.259  41.222  1.00  0.00     0.200 A 
ATOM     79  F   UNL A   1      39.008  33.791  42.026  1.00  0.00    -0.200 F 
ATOM     80  F   UNL A   1      40.582  35.994  42.341  1.00  0.00    -0.200 F 
ENDBRANCH  56  70
BRANCH  57  81
ATOM     81  C   UNL A   1      40.220  28.815  30.204  1.00  0.00     0.064 A 
ATOM     82  C   UNL A   1      39.571  27.574  30.161  1.00  0.00     0.173 A 
ATOM     83  C   UNL A   1      40.801  29.287  29.017  1.00  0.00     0.173 A 
ATOM     84  F   UNL A   1      39.021  27.067  31.274  1.00  0.00    -0.203 F 
ATOM     85  C   UNL A   1      39.524  26.826  28.986  1.00  0.00     0.198 A 
ATOM     86  C   UNL A   1      40.722  28.555  27.834  1.00  0.00     0.198 A 
ATOM     87  F   UNL A   1      41.438  30.467  29.002  1.00  0.00    -0.203 F 
ATOM     88  F   UNL A   1      38.947  25.617  28.987  1.00  0.00    -0.200 F 
ATOM     89  C   UNL A   1      40.095  27.320  27.822  1.00  0.00     0.200 A 
ATOM     90  F   UNL A   1      41.261  29.044  26.709  1.00  0.00    -0.200 F 
ATOM     91  F   UNL A   1      40.049  26.600  26.693  1.00  0.00    -0.200 F 
ENDBRANCH  57  81
BRANCH  69  92
ATOM     92  C   UNL A   1      44.820  28.861  35.443  1.00  0.00     0.064 A 
ATOM     93  C   UNL A   1      44.850  27.596  36.047  1.00  0.00     0.173 A 
ATOM     94  C   UNL A   1      46.028  29.394  34.970  1.00  0.00     0.173 A 
ATOM     95  F   UNL A   1      43.722  27.051  36.528  1.00  0.00    -0.203 F 
ATOM     96  C   UNL A   1      46.045  26.894  36.175  1.00  0.00     0.198 A 
ATOM     97  C   UNL A   1      47.216  28.675  35.072  1.00  0.00     0.198 A 
ATOM     98  F   UNL A   1      46.050  30.596  34.375  1.00  0.00    -0.203 F 
ATOM     99  F   UNL A   1      46.054  25.698  36.781  1.00  0.00    -0.200 F 
ATOM    100  C   UNL A   1      47.223  27.427  35.676  1.00  0.00     0.200 A 
ATOM    101  F   UNL A   1      48.350  29.184  34.572  1.00  0.00    -0.200 F 
ATOM    102  F   UNL A   1      48.367  26.737  35.777  1.00  0.00    -0.200 F 
ENDBRANCH  69  92
ENDBRANCH  43  44
ENDBRANCH  35  38
ENDBRANCH  33  34
ENDBRANCH  32  33
ENDBRANCH  31  32
ENDBRANCH   1  31
TORSDOF 15
ENDMDL
MODEL 3
REMARK VINA RESULT:     -12.7      3.012      8.533
REMARK SMILES Cc1cc(=O)c(Oc2ccc(C(=O)NCCCCNC(=O)c3ccc(-c4c5nc(c(-c6c(F)c(F)c(F)c(F)c6F)c6ccc([nH]6)c(-c6c(F)c(F)c(F)c(F)c6F)c6nc(c(-c7c(F)c(F)c(F)c(F)c7F)c7ccc4[nH]7)C=C6)C=C5)cc3)cc2)c(-c2ccc(S(C)(=O)=O)cc2)o1
REMARK SMILES IDX 15 1 14 2 12 3 13 4 11 6 8 7 9 8 86 9 10 10 85 11 7 12 6 13
REMARK SMILES IDX 1 14 2 15 3 16 98 17 4 18 87 19 5 20 88 21 89 22 97 23 90 24
REMARK SMILES IDX 96 25 91 26 92 27 93 28 94 29 95 30 16 31 17 32 18 33 19 34
REMARK SMILES IDX 20 35 21 37 22 38 23 39 84 40 24 41 83 42 25 43 26 44 27 45
REMARK SMILES IDX 77 46 28 47 82 48 76 49 78 50 29 51 81 52 75 53 74 54 30 56
REMARK SMILES IDX 62 57 42 58 61 59 43 60 46 61 60 62 79 63 44 64 45 65 59 67
REMARK SMILES IDX 80 68 47 69 31 70 32 71 40 72 33 73 34 74 38 75 41 76 35 77
REMARK SMILES IDX 36 78 39 79 37 80 63 81 64 82 72 83 65 84 66 85 70 86 73 87
REMARK SMILES IDX 67 88 68 89 71 90 69 91 48 92 49 93 57 94 50 95 51 96 55 97
REMARK SMILES IDX 58 98 52 99 53 100 56 101 54 102
REMARK H PARENT 14 5 19 36 78 55 46 66
REMARK Flexibility Score: inf
ROOT
ATOM      1  C   UNL A   1      32.082  29.561  25.090  1.00  0.00     0.116 C 
ENDROOT
BRANCH   1   2
ATOM      2  N   UNL A   1      33.103  29.441  24.065  1.00  0.00    -0.352 N 
ATOM      3  C   UNL A   1      33.655  28.322  23.476  1.00  0.00     0.251 C 
ATOM      4  O   UNL A   1      34.403  28.463  22.511  1.00  0.00    -0.269 OA
ATOM      5  H   UNL A   1      33.460  30.298  23.737  1.00  0.00     0.163 HD
BRANCH   3   6
ATOM      6  C   UNL A   1      33.472  26.964  24.058  1.00  0.00     0.040 A 
ATOM      7  C   UNL A   1      33.872  24.470  25.220  1.00  0.00     0.127 A 
ATOM      8  C   UNL A   1      33.979  24.600  23.840  1.00  0.00     0.048 A 
ATOM      9  C   UNL A   1      33.318  25.506  25.970  1.00  0.00     0.048 A 
ATOM     10  C   UNL A   1      33.823  25.863  23.262  1.00  0.00     0.017 A 
ATOM     11  C   UNL A   1      33.073  26.742  25.375  1.00  0.00     0.017 A 
BRANCH   7  12
ATOM     12  O   UNL A   1      34.216  23.344  25.904  1.00  0.00    -0.449 OA
BRANCH  12  13
ATOM     13  C   UNL A   1      34.033  22.051  25.432  1.00  0.00     0.217 A 
ATOM     14  C   UNL A   1      32.931  18.260  23.673  1.00  0.00     0.088 C 
ATOM     15  C   UNL A   1      33.188  19.573  24.339  1.00  0.00     0.105 A 
ATOM     16  C   UNL A   1      32.218  20.440  24.636  1.00  0.00     0.098 A 
ATOM     17  O   UNL A   1      34.513  19.818  24.625  1.00  0.00    -0.457 OA
ATOM     18  C   UNL A   1      32.579  21.722  25.255  1.00  0.00     0.228 A 
ATOM     19  C   UNL A   1      34.907  21.045  25.155  1.00  0.00     0.180 A 
ATOM     20  O   UNL A   1      31.686  22.490  25.602  1.00  0.00    -0.285 OA
BRANCH  19  21
ATOM     21  C   UNL A   1      36.377  21.059  25.307  1.00  0.00     0.021 A 
ATOM     22  C   UNL A   1      37.005  22.233  25.761  1.00  0.00     0.013 A 
ATOM     23  C   UNL A   1      37.164  19.941  25.001  1.00  0.00     0.013 A 
ATOM     24  C   UNL A   1      38.383  22.261  25.996  1.00  0.00     0.021 A 
ATOM     25  C   UNL A   1      38.547  19.966  25.222  1.00  0.00     0.021 A 
ATOM     26  C   UNL A   1      39.145  21.121  25.734  1.00  0.00     0.067 A 
BRANCH  26  27
ATOM     27  S   UNL A   1      40.872  21.122  26.166  1.00  0.00     0.175 S 
ATOM     28  C   UNL A   1      40.884  21.657  27.854  1.00  0.00     0.163 C 
ATOM     29  O   UNL A   1      41.322  19.745  26.136  1.00  0.00    -0.224 OA
ATOM     30  O   UNL A   1      41.530  22.150  25.377  1.00  0.00    -0.224 OA
ENDBRANCH  26  27
ENDBRANCH  19  21
ENDBRANCH  12  13
ENDBRANCH   7  12
ENDBRANCH   3   6
ENDBRANCH   1   2
BRANCH   1  31
ATOM     31  C   UNL A   1      32.521  30.167  26.417  1.00  0.00     0.023 C 
BRANCH  31  32
ATOM     32  C   UNL A   1      32.033  31.569  26.741  1.00  0.00     0.023 C 
BRANCH  32  33
ATOM     33  C   UNL A   1      33.000  32.462  27.504  1.00  0.00     0.116 C 
BRANCH  33  34
ATOM     34  N   UNL A   1      32.527  33.825  27.720  1.00  0.00    -0.352 N 
ATOM     35  C   UNL A   1      33.028  34.808  28.549  1.00  0.00     0.251 C 
ATOM     36  H   UNL A   1      31.732  34.081  27.198  1.00  0.00     0.163 HD
ATOM     37  O   UNL A   1      32.459  35.892  28.638  1.00  0.00    -0.269 OA
BRANCH  35  38
ATOM     38  C   UNL A   1      34.218  34.528  29.386  1.00  0.00     0.039 A 
ATOM     39  C   UNL A   1      35.501  34.753  28.893  1.00  0.00     0.014 A 
ATOM     40  C   UNL A   1      34.047  33.942  30.644  1.00  0.00     0.014 A 
ATOM     41  C   UNL A   1      36.586  34.158  29.524  1.00  0.00     0.010 A 
ATOM     42  C   UNL A   1      35.159  33.453  31.339  1.00  0.00     0.010 A 
ATOM     43  C   UNL A   1      36.430  33.476  30.744  1.00  0.00    -0.014 A 
BRANCH  43  44
ATOM     44  C   UNL A   1      37.596  32.750  31.325  1.00  0.00     0.031 A 
ATOM     45  C   UNL A   1      38.083  33.065  32.721  1.00  0.00     0.074 A 
ATOM     46  C   UNL A   1      38.152  31.731  30.640  1.00  0.00     0.049 A 
ATOM     47  N   UNL A   1      39.047  32.499  33.407  1.00  0.00    -0.248 NA
ATOM     48  C   UNL A   1      37.406  34.154  33.446  1.00  0.00     0.031 C 
ATOM     49  C   UNL A   1      37.759  31.309  29.294  1.00  0.00     0.029 A 
ATOM     50  N   UNL A   1      39.133  30.836  30.991  1.00  0.00    -0.354 N 
ATOM     51  C   UNL A   1      39.096  33.167  34.625  1.00  0.00     0.074 A 
ATOM     52  C   UNL A   1      38.098  34.210  34.575  1.00  0.00     0.031 C 
ATOM     53  C   UNL A   1      38.436  30.201  28.964  1.00  0.00     0.029 A 
ATOM     54  C   UNL A   1      39.367  29.874  30.038  1.00  0.00     0.049 A 
ATOM     55  H   UNL A   1      39.622  30.881  31.844  1.00  0.00     0.167 HD
ATOM     56  C   UNL A   1      39.883  32.916  35.699  1.00  0.00     0.037 A 
ATOM     57  C   UNL A   1      40.243  28.850  30.021  1.00  0.00     0.037 A 
ATOM     58  C   UNL A   1      40.848  31.851  35.769  1.00  0.00     0.049 A 
ATOM     59  C   UNL A   1      41.153  28.646  31.202  1.00  0.00     0.074 A 
ATOM     60  C   UNL A   1      41.675  31.508  36.826  1.00  0.00     0.029 A 
ATOM     61  N   UNL A   1      41.108  30.950  34.748  1.00  0.00    -0.354 N 
ATOM     62  N   UNL A   1      41.172  29.276  32.351  1.00  0.00    -0.248 NA
ATOM     63  C   UNL A   1      42.175  27.597  31.077  1.00  0.00     0.031 C 
ATOM     64  C   UNL A   1      42.467  30.429  36.429  1.00  0.00     0.029 A 
ATOM     65  C   UNL A   1      42.104  30.071  35.142  1.00  0.00     0.049 A 
ATOM     66  H   UNL A   1      40.653  30.936  33.875  1.00  0.00     0.167 HD
ATOM     67  C   UNL A   1      42.193  28.692  33.087  1.00  0.00     0.074 A 
ATOM     68  C   UNL A   1      42.752  27.637  32.271  1.00  0.00     0.031 C 
ATOM     69  C   UNL A   1      42.638  29.014  34.325  1.00  0.00     0.037 A 
BRANCH  56  70
ATOM     70  C   UNL A   1      39.735  33.786  36.913  1.00  0.00     0.064 A 
ATOM     71  C   UNL A   1      40.329  35.054  36.979  1.00  0.00     0.173 A 
ATOM     72  C   UNL A   1      38.890  33.401  37.967  1.00  0.00     0.173 A 
ATOM     73  F   UNL A   1      41.151  35.466  36.001  1.00  0.00    -0.203 F 
ATOM     74  C   UNL A   1      40.083  35.906  38.053  1.00  0.00     0.198 A 
ATOM     75  C   UNL A   1      38.625  34.266  39.026  1.00  0.00     0.198 A 
ATOM     76  F   UNL A   1      38.288  32.203  37.947  1.00  0.00    -0.203 F 
ATOM     77  F   UNL A   1      40.673  37.109  38.100  1.00  0.00    -0.200 F 
ATOM     78  C   UNL A   1      39.221  35.517  39.067  1.00  0.00     0.200 A 
ATOM     79  F   UNL A   1      37.777  33.897  39.996  1.00  0.00    -0.200 F 
ATOM     80  F   UNL A   1      38.960  36.352  40.084  1.00  0.00    -0.200 F 
ENDBRANCH  56  70
BRANCH  57  81
ATOM     81  C   UNL A   1      40.317  27.946  28.842  1.00  0.00     0.064 A 
ATOM     82  C   UNL A   1      41.056  28.301  27.706  1.00  0.00     0.173 A 
ATOM     83  C   UNL A   1      39.629  26.723  28.814  1.00  0.00     0.173 A 
ATOM     84  F   UNL A   1      41.712  29.470  27.671  1.00  0.00    -0.203 F 
ATOM     85  C   UNL A   1      41.086  27.479  26.580  1.00  0.00     0.198 A 
ATOM     86  C   UNL A   1      39.690  25.885  27.703  1.00  0.00     0.198 A 
ATOM     87  F   UNL A   1      38.904  26.335  29.874  1.00  0.00    -0.203 F 
ATOM     88  F   UNL A   1      41.754  27.870  25.486  1.00  0.00    -0.200 F 
ATOM     89  C   UNL A   1      40.408  26.270  26.583  1.00  0.00     0.200 A 
ATOM     90  F   UNL A   1      39.045  24.711  27.717  1.00  0.00    -0.200 F 
ATOM     91  F   UNL A   1      40.438  25.480  25.500  1.00  0.00    -0.200 F 
ENDBRANCH  57  81
BRANCH  69  92
ATOM     92  C   UNL A   1      43.782  28.221  34.886  1.00  0.00     0.064 A 
ATOM     93  C   UNL A   1      43.562  27.016  35.569  1.00  0.00     0.173 A 
ATOM     94  C   UNL A   1      45.108  28.615  34.656  1.00  0.00     0.173 A 
ATOM     95  F   UNL A   1      42.312  26.604  35.826  1.00  0.00    -0.203 F 
ATOM     96  C   UNL A   1      44.630  26.238  36.007  1.00  0.00     0.198 A 
ATOM     97  C   UNL A   1      46.173  27.820  35.069  1.00  0.00     0.198 A 
ATOM     98  F   UNL A   1      45.370  29.755  33.998  1.00  0.00    -0.203 F 
ATOM     99  F   UNL A   1      44.397  25.104  36.682  1.00  0.00    -0.200 F 
ATOM    100  C   UNL A   1      45.933  26.634  35.745  1.00  0.00     0.200 A 
ATOM    101  F   UNL A   1      47.431  28.194  34.798  1.00  0.00    -0.200 F 
ATOM    102  F   UNL A   1      46.959  25.870  36.145  1.00  0.00    -0.200 F 
ENDBRANCH  69  92
ENDBRANCH  43  44
ENDBRANCH  35  38
ENDBRANCH  33  34
ENDBRANCH  32  33
ENDBRANCH  31  32
ENDBRANCH   1  31
TORSDOF 15
ENDMDL
