MODEL 1
REMARK VINA RESULT:     -12.8      0.000      0.000
REMARK SMILES O=C(CNC(=O)Nc1cccc2c1CCCC2)NCCCCNC(=O)c1ccc(-c2c3nc(c(-c4c(F)c(F)c(F)c(F)c4F)c4ccc([nH]4)c(-c4c(F)c(F)c(F)c(F)c4F)c4nc(c(-c5c(F)c(F)c(F)c(F)c5F)c5ccc2[nH]5)C=C4)C=C3)cc1
REMARK SMILES IDX 20 1 19 2 18 3 1 4 2 5 3 7 4 8 5 9 6 11 7 12 8 14 9 15 13 16
REMARK SMILES IDX 10 17 12 18 14 19 11 20 17 21 15 22 16 23 21 24 22 25 23 26
REMARK SMILES IDX 24 27 25 29 26 30 27 31 88 32 28 33 87 34 29 35 30 36 31 37
REMARK SMILES IDX 81 38 32 39 86 40 80 41 82 42 33 43 85 44 79 45 78 46 34 48
REMARK SMILES IDX 66 49 46 50 65 51 47 52 50 53 64 54 83 55 48 56 49 57 63 59
REMARK SMILES IDX 84 60 51 61 35 62 36 63 44 64 37 65 38 66 42 67 45 68 39 69
REMARK SMILES IDX 40 70 43 71 41 72 67 73 68 74 76 75 69 76 70 77 74 78 77 79
REMARK SMILES IDX 71 80 72 81 75 82 73 83 52 84 53 85 61 86 54 87 55 88 59 89
REMARK SMILES IDX 62 90 56 91 57 92 60 93 58 94
REMARK H PARENT 18 6 4 10 7 13 23 28 82 47 50 58
REMARK Flexibility Score: inf
ROOT
ATOM      1  C   UNL A   1      36.553  20.886  25.074  1.00  0.00     0.023 C 
ENDROOT
BRANCH   1   2
ATOM      2  C   UNL A   1      35.196  20.183  25.001  1.00  0.00     0.116 C 
BRANCH   2   3
ATOM      3  N   UNL A   1      34.106  21.116  25.175  1.00  0.00    -0.355 N 
ATOM      4  O   UNL A   1      32.473  19.514  25.368  1.00  0.00    -0.273 OA
ATOM      5  C   UNL A   1      32.801  20.695  25.298  1.00  0.00     0.239 C 
ATOM      6  H   UNL A   1      34.301  22.081  25.204  1.00  0.00     0.163 HD
BRANCH   5   7
ATOM      7  C   UNL A   1      31.785  21.796  25.034  1.00  0.00     0.217 C 
BRANCH   7   8
ATOM      8  N   UNL A   1      30.803  22.036  26.085  1.00  0.00    -0.329 N 
ATOM      9  C   UNL A   1      30.452  23.108  26.819  1.00  0.00     0.319 C 
ATOM     10  H   UNL A   1      30.279  21.233  26.309  1.00  0.00     0.165 HD
ATOM     11  O   UNL A   1      29.530  22.953  27.627  1.00  0.00    -0.248 OA
ATOM     12  N   UNL A   1      31.093  24.297  26.808  1.00  0.00    -0.308 N 
ATOM     13  H   UNL A   1      30.738  24.957  27.449  1.00  0.00     0.171 HD
BRANCH  12  14
ATOM     14  C   UNL A   1      32.171  24.758  26.046  1.00  0.00     0.046 A 
ATOM     15  C   UNL A   1      33.445  24.394  26.500  1.00  0.00     0.026 A 
ATOM     16  C   UNL A   1      32.013  25.471  24.842  1.00  0.00    -0.021 A 
ATOM     17  C   UNL A   1      34.553  24.582  25.681  1.00  0.00     0.002 A 
ATOM     18  C   UNL A   1      33.124  25.562  23.978  1.00  0.00    -0.043 A 
ATOM     19  C   UNL A   1      30.685  26.099  24.475  1.00  0.00     0.038 C 
ATOM     20  C   UNL A   1      34.386  25.126  24.410  1.00  0.00     0.004 A 
ATOM     21  C   UNL A   1      32.976  26.075  22.566  1.00  0.00     0.036 C 
ATOM     22  C   UNL A   1      30.652  26.781  23.105  1.00  0.00     0.005 C 
ATOM     23  C   UNL A   1      31.524  26.050  22.097  1.00  0.00     0.005 C 
ENDBRANCH  12  14
ENDBRANCH   7   8
ENDBRANCH   5   7
ENDBRANCH   2   3
ENDBRANCH   1   2
BRANCH   1  24
ATOM     24  C   UNL A   1      37.766  19.968  24.912  1.00  0.00     0.023 C 
BRANCH  24  25
ATOM     25  C   UNL A   1      38.983  20.341  25.751  1.00  0.00     0.116 C 
BRANCH  25  26
ATOM     26  N   UNL A   1      39.946  19.259  25.871  1.00  0.00    -0.352 N 
ATOM     27  C   UNL A   1      41.295  19.315  26.126  1.00  0.00     0.251 C 
ATOM     28  H   UNL A   1      39.578  18.354  25.752  1.00  0.00     0.163 HD
ATOM     29  O   UNL A   1      41.973  18.297  26.080  1.00  0.00    -0.269 OA
BRANCH  27  30
ATOM     30  C   UNL A   1      41.936  20.616  26.416  1.00  0.00     0.039 A 
ATOM     31  C   UNL A   1      42.230  21.467  25.347  1.00  0.00     0.014 A 
ATOM     32  C   UNL A   1      42.237  21.003  27.724  1.00  0.00     0.014 A 
ATOM     33  C   UNL A   1      42.761  22.733  25.595  1.00  0.00     0.010 A 
ATOM     34  C   UNL A   1      42.695  22.295  27.976  1.00  0.00     0.010 A 
ATOM     35  C   UNL A   1      42.960  23.173  26.915  1.00  0.00    -0.014 A 
BRANCH  35  36
ATOM     36  C   UNL A   1      43.437  24.550  27.200  1.00  0.00     0.031 A 
ATOM     37  C   UNL A   1      42.490  25.584  27.742  1.00  0.00     0.074 A 
ATOM     38  C   UNL A   1      44.710  24.886  26.914  1.00  0.00     0.049 A 
ATOM     39  N   UNL A   1      42.701  26.852  27.991  1.00  0.00    -0.248 NA
ATOM     40  C   UNL A   1      41.115  25.141  28.018  1.00  0.00     0.031 C 
ATOM     41  C   UNL A   1      45.713  23.986  26.343  1.00  0.00     0.029 A 
ATOM     42  N   UNL A   1      45.376  26.079  27.053  1.00  0.00    -0.354 N 
ATOM     43  C   UNL A   1      41.489  27.357  28.441  1.00  0.00     0.074 A 
ATOM     44  C   UNL A   1      40.531  26.274  28.377  1.00  0.00     0.031 C 
ATOM     45  C   UNL A   1      46.870  24.653  26.198  1.00  0.00     0.029 A 
ATOM     46  C   UNL A   1      46.681  26.035  26.626  1.00  0.00     0.049 A 
ATOM     47  H   UNL A   1      44.957  26.890  27.423  1.00  0.00     0.167 HD
ATOM     48  C   UNL A   1      41.207  28.602  28.893  1.00  0.00     0.037 A 
ATOM     49  C   UNL A   1      47.616  27.003  26.574  1.00  0.00     0.037 A 
ATOM     50  C   UNL A   1      42.167  29.673  28.970  1.00  0.00     0.049 A 
ATOM     51  C   UNL A   1      47.271  28.384  27.064  1.00  0.00     0.074 A 
ATOM     52  C   UNL A   1      41.991  30.956  29.457  1.00  0.00     0.029 A 
ATOM     53  N   UNL A   1      43.483  29.586  28.542  1.00  0.00    -0.354 N 
ATOM     54  N   UNL A   1      46.139  28.831  27.552  1.00  0.00    -0.248 NA
ATOM     55  C   UNL A   1      48.337  29.394  27.003  1.00  0.00     0.031 C 
ATOM     56  C   UNL A   1      43.184  31.661  29.276  1.00  0.00     0.029 A 
ATOM     57  C   UNL A   1      44.123  30.800  28.732  1.00  0.00     0.049 A 
ATOM     58  H   UNL A   1      43.901  28.781  28.158  1.00  0.00     0.167 HD
ATOM     59  C   UNL A   1      46.364  30.160  27.882  1.00  0.00     0.074 A 
ATOM     60  C   UNL A   1      47.745  30.444  27.555  1.00  0.00     0.031 C 
ATOM     61  C   UNL A   1      45.503  31.066  28.409  1.00  0.00     0.037 A 
BRANCH  48  62
ATOM     62  C   UNL A   1      39.799  28.875  29.345  1.00  0.00     0.064 A 
ATOM     63  C   UNL A   1      38.819  29.340  28.454  1.00  0.00     0.173 A 
ATOM     64  C   UNL A   1      39.417  28.634  30.673  1.00  0.00     0.173 A 
ATOM     65  F   UNL A   1      39.134  29.596  27.176  1.00  0.00    -0.203 F 
ATOM     66  C   UNL A   1      37.516  29.581  28.884  1.00  0.00     0.198 A 
ATOM     67  C   UNL A   1      38.105  28.845  31.091  1.00  0.00     0.198 A 
ATOM     68  F   UNL A   1      40.312  28.184  31.564  1.00  0.00    -0.203 F 
ATOM     69  F   UNL A   1      36.611  30.074  28.027  1.00  0.00    -0.200 F 
ATOM     70  C   UNL A   1      37.159  29.326  30.199  1.00  0.00     0.200 A 
ATOM     71  F   UNL A   1      37.757  28.583  32.357  1.00  0.00    -0.200 F 
ATOM     72  F   UNL A   1      35.902  29.550  30.609  1.00  0.00    -0.200 F 
ENDBRANCH  48  62
BRANCH  49  73
ATOM     73  C   UNL A   1      48.974  26.698  26.050  1.00  0.00     0.064 A 
ATOM     74  C   UNL A   1      49.953  26.124  26.872  1.00  0.00     0.173 A 
ATOM     75  C   UNL A   1      49.324  26.983  24.722  1.00  0.00     0.173 A 
ATOM     76  F   UNL A   1      49.673  25.851  28.156  1.00  0.00    -0.203 F 
ATOM     77  C   UNL A   1      51.237  25.870  26.395  1.00  0.00     0.198 A 
ATOM     78  C   UNL A   1      50.599  26.698  24.236  1.00  0.00     0.198 A 
ATOM     79  F   UNL A   1      48.423  27.527  23.891  1.00  0.00    -0.203 F 
ATOM     80  F   UNL A   1      52.168  25.369  27.218  1.00  0.00    -0.200 F 
ATOM     81  C   UNL A   1      51.557  26.152  25.076  1.00  0.00     0.200 A 
ATOM     82  F   UNL A   1      50.898  26.957  22.956  1.00  0.00    -0.200 F 
ATOM     83  F   UNL A   1      52.791  25.904  24.616  1.00  0.00    -0.200 F 
ENDBRANCH  49  73
BRANCH  61  84
ATOM     84  C   UNL A   1      46.038  32.438  28.703  1.00  0.00     0.064 A 
ATOM     85  C   UNL A   1      45.956  33.480  27.767  1.00  0.00     0.173 A 
ATOM     86  C   UNL A   1      46.606  32.724  29.954  1.00  0.00     0.173 A 
ATOM     87  F   UNL A   1      45.437  33.256  26.550  1.00  0.00    -0.203 F 
ATOM     88  C   UNL A   1      46.449  34.749  28.063  1.00  0.00     0.198 A 
ATOM     89  C   UNL A   1      47.066  34.002  30.259  1.00  0.00     0.198 A 
ATOM     90  F   UNL A   1      46.701  31.766  30.888  1.00  0.00    -0.203 F 
ATOM     91  F   UNL A   1      46.408  35.714  27.135  1.00  0.00    -0.200 F 
ATOM     92  C   UNL A   1      46.995  35.011  29.310  1.00  0.00     0.200 A 
ATOM     93  F   UNL A   1      47.579  34.257  31.470  1.00  0.00    -0.200 F 
ATOM     94  F   UNL A   1      47.461  36.235  29.597  1.00  0.00    -0.200 F 
ENDBRANCH  61  84
ENDBRANCH  35  36
ENDBRANCH  27  30
ENDBRANCH  25  26
ENDBRANCH  24  25
ENDBRANCH   1  24
TORSDOF 13
ENDMDL
MODEL 2
REMARK VINA RESULT:     -12.8      5.640     10.985
REMARK SMILES O=C(CNC(=O)Nc1cccc2c1CCCC2)NCCCCNC(=O)c1ccc(-c2c3nc(c(-c4c(F)c(F)c(F)c(F)c4F)c4ccc([nH]4)c(-c4c(F)c(F)c(F)c(F)c4F)c4nc(c(-c5c(F)c(F)c(F)c(F)c5F)c5ccc2[nH]5)C=C4)C=C3)cc1
REMARK SMILES IDX 20 1 19 2 18 3 1 4 2 5 3 7 4 8 5 9 6 11 7 12 8 14 9 15 13 16
REMARK SMILES IDX 10 17 12 18 14 19 11 20 17 21 15 22 16 23 21 24 22 25 23 26
REMARK SMILES IDX 24 27 25 29 26 30 27 31 88 32 28 33 87 34 29 35 30 36 31 37
REMARK SMILES IDX 81 38 32 39 86 40 80 41 82 42 33 43 85 44 79 45 78 46 34 48
REMARK SMILES IDX 66 49 46 50 65 51 47 52 50 53 64 54 83 55 48 56 49 57 63 59
REMARK SMILES IDX 84 60 51 61 35 62 36 63 44 64 37 65 38 66 42 67 45 68 39 69
REMARK SMILES IDX 40 70 43 71 41 72 67 73 68 74 76 75 69 76 70 77 74 78 77 79
REMARK SMILES IDX 71 80 72 81 75 82 73 83 52 84 53 85 61 86 54 87 55 88 59 89
REMARK SMILES IDX 62 90 56 91 57 92 60 93 58 94
REMARK H PARENT 18 6 4 10 7 13 23 28 82 47 50 58
REMARK Flexibility Score: inf
ROOT
ATOM      1  C   UNL A   1      31.648  30.737  26.039  1.00  0.00     0.023 C 
ENDROOT
BRANCH   1   2
ATOM      2  C   UNL A   1      32.730  29.894  26.716  1.00  0.00     0.116 C 
BRANCH   2   3
ATOM      3  N   UNL A   1      32.743  28.541  26.207  1.00  0.00    -0.355 N 
ATOM      4  O   UNL A   1      31.122  27.755  27.630  1.00  0.00    -0.273 OA
ATOM      5  C   UNL A   1      31.955  27.552  26.751  1.00  0.00     0.239 C 
ATOM      6  H   UNL A   1      33.333  28.320  25.450  1.00  0.00     0.163 HD
BRANCH   5   7
ATOM      7  C   UNL A   1      32.416  26.148  26.389  1.00  0.00     0.217 C 
BRANCH   7   8
ATOM      8  N   UNL A   1      31.658  25.048  26.974  1.00  0.00    -0.329 N 
ATOM      9  C   UNL A   1      30.662  24.254  26.539  1.00  0.00     0.319 C 
ATOM     10  H   UNL A   1      31.937  24.839  27.895  1.00  0.00     0.165 HD
ATOM     11  O   UNL A   1      30.265  23.380  27.316  1.00  0.00    -0.248 OA
ATOM     12  N   UNL A   1      30.005  24.408  25.368  1.00  0.00    -0.308 N 
ATOM     13  H   UNL A   1      29.264  23.773  25.231  1.00  0.00     0.171 HD
BRANCH  12  14
ATOM     14  C   UNL A   1      30.193  25.309  24.315  1.00  0.00     0.046 A 
ATOM     15  C   UNL A   1      29.365  26.438  24.316  1.00  0.00     0.026 A 
ATOM     16  C   UNL A   1      31.206  25.162  23.348  1.00  0.00    -0.021 A 
ATOM     17  C   UNL A   1      29.644  27.505  23.470  1.00  0.00     0.002 A 
ATOM     18  C   UNL A   1      31.545  26.288  22.569  1.00  0.00    -0.043 A 
ATOM     19  C   UNL A   1      31.928  23.843  23.166  1.00  0.00     0.038 C 
ATOM     20  C   UNL A   1      30.753  27.446  22.630  1.00  0.00     0.004 A 
ATOM     21  C   UNL A   1      32.780  26.296  21.701  1.00  0.00     0.036 C 
ATOM     22  C   UNL A   1      33.048  23.859  22.125  1.00  0.00     0.005 C 
ATOM     23  C   UNL A   1      33.765  25.200  22.098  1.00  0.00     0.005 C 
ENDBRANCH  12  14
ENDBRANCH   7   8
ENDBRANCH   5   7
ENDBRANCH   2   3
ENDBRANCH   1   2
BRANCH   1  24
ATOM     24  C   UNL A   1      31.366  32.085  26.707  1.00  0.00     0.023 C 
BRANCH  24  25
ATOM     25  C   UNL A   1      32.586  32.797  27.279  1.00  0.00     0.116 C 
BRANCH  25  26
ATOM     26  N   UNL A   1      32.327  34.186  27.619  1.00  0.00    -0.352 N 
ATOM     27  C   UNL A   1      32.963  34.995  28.530  1.00  0.00     0.251 C 
ATOM     28  H   UNL A   1      31.588  34.609  27.126  1.00  0.00     0.163 HD
ATOM     29  O   UNL A   1      32.532  36.116  28.765  1.00  0.00    -0.269 OA
BRANCH  27  30
ATOM     30  C   UNL A   1      34.149  34.493  29.260  1.00  0.00     0.039 A 
ATOM     31  C   UNL A   1      33.960  33.907  30.515  1.00  0.00     0.014 A 
ATOM     32  C   UNL A   1      35.431  34.586  28.714  1.00  0.00     0.014 A 
ATOM     33  C   UNL A   1      35.047  33.353  31.191  1.00  0.00     0.010 A 
ATOM     34  C   UNL A   1      36.502  33.965  29.354  1.00  0.00     0.010 A 
ATOM     35  C   UNL A   1      36.321  33.341  30.597  1.00  0.00    -0.014 A 
BRANCH  35  36
ATOM     36  C   UNL A   1      37.470  32.674  31.262  1.00  0.00     0.031 A 
ATOM     37  C   UNL A   1      38.174  31.529  30.589  1.00  0.00     0.074 A 
ATOM     38  C   UNL A   1      37.841  33.062  32.497  1.00  0.00     0.049 A 
ATOM     39  N   UNL A   1      39.150  30.779  31.037  1.00  0.00    -0.248 NA
ATOM     40  C   UNL A   1      37.702  31.159  29.246  1.00  0.00     0.031 C 
ATOM     41  C   UNL A   1      37.208  34.130  33.273  1.00  0.00     0.029 A 
ATOM     42  N   UNL A   1      38.833  32.595  33.324  1.00  0.00    -0.354 N 
ATOM     43  C   UNL A   1      39.400  29.848  30.037  1.00  0.00     0.074 A 
ATOM     44  C   UNL A   1      38.436  30.088  28.985  1.00  0.00     0.031 C 
ATOM     45  C   UNL A   1      37.839  34.249  34.453  1.00  0.00     0.029 A 
ATOM     46  C   UNL A   1      38.892  33.241  34.535  1.00  0.00     0.049 A 
ATOM     47  H   UNL A   1      39.445  31.865  33.072  1.00  0.00     0.167 HD
ATOM     48  C   UNL A   1      40.364  28.897  29.990  1.00  0.00     0.037 A 
ATOM     49  C   UNL A   1      39.694  33.035  35.596  1.00  0.00     0.037 A 
ATOM     50  C   UNL A   1      41.331  28.671  31.033  1.00  0.00     0.049 A 
ATOM     51  C   UNL A   1      40.744  31.958  35.526  1.00  0.00     0.074 A 
ATOM     52  C   UNL A   1      42.376  27.764  31.058  1.00  0.00     0.029 A 
ATOM     53  N   UNL A   1      41.367  29.355  32.238  1.00  0.00    -0.354 N 
ATOM     54  N   UNL A   1      41.015  31.130  34.547  1.00  0.00    -0.248 NA
ATOM     55  C   UNL A   1      41.605  31.794  36.705  1.00  0.00     0.031 C 
ATOM     56  C   UNL A   1      43.012  27.863  32.299  1.00  0.00     0.029 A 
ATOM     57  C   UNL A   1      42.402  28.873  33.024  1.00  0.00     0.049 A 
ATOM     58  H   UNL A   1      40.749  30.076  32.498  1.00  0.00     0.167 HD
ATOM     59  C   UNL A   1      42.092  30.368  34.979  1.00  0.00     0.074 A 
ATOM     60  C   UNL A   1      42.436  30.844  36.301  1.00  0.00     0.031 C 
ATOM     61  C   UNL A   1      42.739  29.363  34.337  1.00  0.00     0.037 A 
BRANCH  48  62
ATOM     62  C   UNL A   1      40.423  28.028  28.765  1.00  0.00     0.064 A 
ATOM     63  C   UNL A   1      41.181  28.392  27.641  1.00  0.00     0.173 A 
ATOM     64  C   UNL A   1      39.745  26.800  28.728  1.00  0.00     0.173 A 
ATOM     65  F   UNL A   1      41.840  29.560  27.620  1.00  0.00    -0.203 F 
ATOM     66  C   UNL A   1      41.233  27.573  26.515  1.00  0.00     0.198 A 
ATOM     67  C   UNL A   1      39.827  25.969  27.613  1.00  0.00     0.198 A 
ATOM     68  F   UNL A   1      39.011  26.400  29.777  1.00  0.00    -0.203 F 
ATOM     69  F   UNL A   1      41.922  27.967  25.435  1.00  0.00    -0.200 F 
ATOM     70  C   UNL A   1      40.563  26.360  26.505  1.00  0.00     0.200 A 
ATOM     71  F   UNL A   1      39.192  24.789  27.612  1.00  0.00    -0.200 F 
ATOM     72  F   UNL A   1      40.622  25.569  25.425  1.00  0.00    -0.200 F 
ENDBRANCH  48  62
BRANCH  49  73
ATOM     73  C   UNL A   1      39.547  33.876  36.814  1.00  0.00     0.064 A 
ATOM     74  C   UNL A   1      38.769  33.446  37.898  1.00  0.00     0.173 A 
ATOM     75  C   UNL A   1      40.171  35.128  36.917  1.00  0.00     0.173 A 
ATOM     76  F   UNL A   1      38.135  32.265  37.841  1.00  0.00    -0.203 F 
ATOM     77  C   UNL A   1      38.600  34.246  39.026  1.00  0.00     0.198 A 
ATOM     78  C   UNL A   1      40.028  35.913  38.059  1.00  0.00     0.198 A 
ATOM     79  F   UNL A   1      40.932  35.584  35.911  1.00  0.00    -0.203 F 
ATOM     80  F   UNL A   1      37.808  33.833  40.025  1.00  0.00    -0.200 F 
ATOM     81  C   UNL A   1      39.233  35.476  39.108  1.00  0.00     0.200 A 
ATOM     82  F   UNL A   1      40.657  37.093  38.140  1.00  0.00    -0.200 F 
ATOM     83  F   UNL A   1      39.074  36.244  40.195  1.00  0.00    -0.200 F 
ENDBRANCH  49  73
BRANCH  61  84
ATOM     84  C   UNL A   1      43.909  28.737  35.039  1.00  0.00     0.064 A 
ATOM     85  C   UNL A   1      43.762  27.609  35.860  1.00  0.00     0.173 A 
ATOM     86  C   UNL A   1      45.203  29.249  34.855  1.00  0.00     0.173 A 
ATOM     87  F   UNL A   1      42.545  27.089  36.081  1.00  0.00    -0.203 F 
ATOM     88  C   UNL A   1      44.863  27.036  36.493  1.00  0.00     0.198 A 
ATOM     89  C   UNL A   1      46.305  28.653  35.462  1.00  0.00     0.198 A 
ATOM     90  F   UNL A   1      45.400  30.322  34.073  1.00  0.00    -0.203 F 
ATOM     91  F   UNL A   1      44.691  25.991  37.314  1.00  0.00    -0.200 F 
ATOM     92  C   UNL A   1      46.133  27.553  36.287  1.00  0.00     0.200 A 
ATOM     93  F   UNL A   1      47.533  29.145  35.248  1.00  0.00    -0.200 F 
ATOM     94  F   UNL A   1      47.192  26.995  36.890  1.00  0.00    -0.200 F 
ENDBRANCH  61  84
ENDBRANCH  35  36
ENDBRANCH  27  30
ENDBRANCH  25  26
ENDBRANCH  24  25
ENDBRANCH   1  24
TORSDOF 13
ENDMDL
MODEL 3
REMARK VINA RESULT:     -12.8      1.456      2.268
REMARK SMILES O=C(CNC(=O)Nc1cccc2c1CCCC2)NCCCCNC(=O)c1ccc(-c2c3nc(c(-c4c(F)c(F)c(F)c(F)c4F)c4ccc([nH]4)c(-c4c(F)c(F)c(F)c(F)c4F)c4nc(c(-c5c(F)c(F)c(F)c(F)c5F)c5ccc2[nH]5)C=C4)C=C3)cc1
REMARK SMILES IDX 20 1 19 2 18 3 1 4 2 5 3 7 4 8 5 9 6 11 7 12 8 14 9 15 13 16
REMARK SMILES IDX 10 17 12 18 14 19 11 20 17 21 15 22 16 23 21 24 22 25 23 26
REMARK SMILES IDX 24 27 25 29 26 30 27 31 88 32 28 33 87 34 29 35 30 36 31 37
REMARK SMILES IDX 81 38 32 39 86 40 80 41 82 42 33 43 85 44 79 45 78 46 34 48
REMARK SMILES IDX 66 49 46 50 65 51 47 52 50 53 64 54 83 55 48 56 49 57 63 59
REMARK SMILES IDX 84 60 51 61 35 62 36 63 44 64 37 65 38 66 42 67 45 68 39 69
REMARK SMILES IDX 40 70 43 71 41 72 67 73 68 74 76 75 69 76 70 77 74 78 77 79
REMARK SMILES IDX 71 80 72 81 75 82 73 83 52 84 53 85 61 86 54 87 55 88 59 89
REMARK SMILES IDX 62 90 56 91 57 92 60 93 58 94
REMARK H PARENT 18 6 4 10 7 13 23 28 82 47 50 58
REMARK Flexibility Score: inf
ROOT
ATOM      1  C   UNL A   1      36.533  20.738  25.094  1.00  0.00     0.023 C 
ENDROOT
BRANCH   1   2
ATOM      2  C   UNL A   1      36.343  22.122  24.471  1.00  0.00     0.116 C 
BRANCH   2   3
ATOM      3  N   UNL A   1      35.074  22.703  24.847  1.00  0.00    -0.355 N 
ATOM      4  O   UNL A   1      34.698  23.736  22.832  1.00  0.00    -0.273 OA
ATOM      5  C   UNL A   1      34.365  23.518  23.993  1.00  0.00     0.239 C 
ATOM      6  H   UNL A   1      34.705  22.511  25.740  1.00  0.00     0.163 HD
BRANCH   5   7
ATOM      7  C   UNL A   1      33.314  24.361  24.699  1.00  0.00     0.217 C 
BRANCH   7   8
ATOM      8  N   UNL A   1      32.714  23.780  25.894  1.00  0.00    -0.329 N 
ATOM      9  C   UNL A   1      31.655  24.092  26.663  1.00  0.00     0.319 C 
ATOM     10  H   UNL A   1      33.191  22.979  26.210  1.00  0.00     0.165 HD
ATOM     11  O   UNL A   1      31.414  23.340  27.613  1.00  0.00    -0.248 OA
ATOM     12  N   UNL A   1      30.906  25.209  26.533  1.00  0.00    -0.308 N 
ATOM     13  H   UNL A   1      30.202  25.309  27.216  1.00  0.00     0.171 HD
BRANCH  12  14
ATOM     14  C   UNL A   1      30.954  26.249  25.599  1.00  0.00     0.046 A 
ATOM     15  C   UNL A   1      30.213  26.057  24.427  1.00  0.00     0.026 A 
ATOM     16  C   UNL A   1      31.627  27.464  25.833  1.00  0.00    -0.021 A 
ATOM     17  C   UNL A   1      29.990  27.125  23.564  1.00  0.00     0.002 A 
ATOM     18  C   UNL A   1      31.311  28.564  25.009  1.00  0.00    -0.043 A 
ATOM     19  C   UNL A   1      32.640  27.593  26.952  1.00  0.00     0.038 C 
ATOM     20  C   UNL A   1      30.504  28.381  23.875  1.00  0.00     0.004 A 
ATOM     21  C   UNL A   1      31.783  29.957  25.350  1.00  0.00     0.036 C 
ATOM     22  C   UNL A   1      33.235  28.992  27.124  1.00  0.00     0.005 C 
ATOM     23  C   UNL A   1      32.215  30.074  26.808  1.00  0.00     0.005 C 
ENDBRANCH  12  14
ENDBRANCH   7   8
ENDBRANCH   5   7
ENDBRANCH   2   3
ENDBRANCH   1   2
BRANCH   1  24
ATOM     24  C   UNL A   1      37.859  20.053  24.756  1.00  0.00     0.023 C 
BRANCH  24  25
ATOM     25  C   UNL A   1      38.989  20.294  25.750  1.00  0.00     0.116 C 
BRANCH  25  26
ATOM     26  N   UNL A   1      39.981  19.232  25.753  1.00  0.00    -0.352 N 
ATOM     27  C   UNL A   1      41.333  19.299  25.994  1.00  0.00     0.251 C 
ATOM     28  H   UNL A   1      39.635  18.333  25.554  1.00  0.00     0.163 HD
ATOM     29  O   UNL A   1      42.036  18.309  25.842  1.00  0.00    -0.269 OA
BRANCH  27  30
ATOM     30  C   UNL A   1      41.945  20.585  26.397  1.00  0.00     0.039 A 
ATOM     31  C   UNL A   1      42.359  21.468  25.397  1.00  0.00     0.014 A 
ATOM     32  C   UNL A   1      42.103  20.924  27.743  1.00  0.00     0.014 A 
ATOM     33  C   UNL A   1      42.866  22.721  25.746  1.00  0.00     0.010 A 
ATOM     34  C   UNL A   1      42.538  22.202  28.088  1.00  0.00     0.010 A 
ATOM     35  C   UNL A   1      42.922  23.114  27.094  1.00  0.00    -0.014 A 
BRANCH  35  36
ATOM     36  C   UNL A   1      43.373  24.476  27.477  1.00  0.00     0.031 A 
ATOM     37  C   UNL A   1      42.367  25.534  27.837  1.00  0.00     0.074 A 
ATOM     38  C   UNL A   1      44.685  24.777  27.442  1.00  0.00     0.049 A 
ATOM     39  N   UNL A   1      42.561  26.795  28.133  1.00  0.00    -0.248 NA
ATOM     40  C   UNL A   1      40.953  25.128  27.841  1.00  0.00     0.031 C 
ATOM     41  C   UNL A   1      45.755  23.851  27.065  1.00  0.00     0.029 A 
ATOM     42  N   UNL A   1      45.344  25.950  27.717  1.00  0.00    -0.354 N 
ATOM     43  C   UNL A   1      41.299  27.331  28.348  1.00  0.00     0.074 A 
ATOM     44  C   UNL A   1      40.342  26.276  28.092  1.00  0.00     0.031 C 
ATOM     45  C   UNL A   1      46.935  24.486  27.150  1.00  0.00     0.029 A 
ATOM     46  C   UNL A   1      46.705  25.872  27.547  1.00  0.00     0.049 A 
ATOM     47  H   UNL A   1      44.884  26.771  28.007  1.00  0.00     0.167 HD
ATOM     48  C   UNL A   1      40.969  28.582  28.748  1.00  0.00     0.037 A 
ATOM     49  C   UNL A   1      47.658  26.813  27.683  1.00  0.00     0.037 A 
ATOM     50  C   UNL A   1      41.925  29.626  29.017  1.00  0.00     0.049 A 
ATOM     51  C   UNL A   1      47.263  28.201  28.110  1.00  0.00     0.074 A 
ATOM     52  C   UNL A   1      41.693  30.912  29.473  1.00  0.00     0.029 A 
ATOM     53  N   UNL A   1      43.296  29.503  28.847  1.00  0.00    -0.354 N 
ATOM     54  N   UNL A   1      46.071  28.678  28.376  1.00  0.00    -0.248 NA
ATOM     55  C   UNL A   1      48.347  29.181  28.263  1.00  0.00     0.031 C 
ATOM     56  C   UNL A   1      42.918  31.584  29.530  1.00  0.00     0.029 A 
ATOM     57  C   UNL A   1      43.920  30.699  29.167  1.00  0.00     0.049 A 
ATOM     58  H   UNL A   1      43.758  28.688  28.544  1.00  0.00     0.167 HD
ATOM     59  C   UNL A   1      46.264  29.999  28.756  1.00  0.00     0.074 A 
ATOM     60  C   UNL A   1      47.689  30.245  28.701  1.00  0.00     0.031 C 
ATOM     61  C   UNL A   1      45.342  30.927  29.116  1.00  0.00     0.037 A 
BRANCH  48  62
ATOM     62  C   UNL A   1      39.509  28.893  28.925  1.00  0.00     0.064 A 
ATOM     63  C   UNL A   1      38.886  28.807  30.180  1.00  0.00     0.173 A 
ATOM     64  C   UNL A   1      38.733  29.319  27.836  1.00  0.00     0.173 A 
ATOM     65  F   UNL A   1      39.579  28.396  31.252  1.00  0.00    -0.203 F 
ATOM     66  C   UNL A   1      37.534  29.106  30.331  1.00  0.00     0.198 A 
ATOM     67  C   UNL A   1      37.390  29.648  27.998  1.00  0.00     0.198 A 
ATOM     68  F   UNL A   1      39.280  29.425  26.617  1.00  0.00    -0.203 F 
ATOM     69  F   UNL A   1      36.949  28.966  31.529  1.00  0.00    -0.200 F 
ATOM     70  C   UNL A   1      36.790  29.534  29.243  1.00  0.00     0.200 A 
ATOM     71  F   UNL A   1      36.676  30.078  26.949  1.00  0.00    -0.200 F 
ATOM     72  F   UNL A   1      35.491  29.830  29.391  1.00  0.00    -0.200 F 
ENDBRANCH  48  62
BRANCH  49  73
ATOM     73  C   UNL A   1      49.082  26.472  27.426  1.00  0.00     0.064 A 
ATOM     74  C   UNL A   1      49.973  26.242  28.484  1.00  0.00     0.173 A 
ATOM     75  C   UNL A   1      49.586  26.380  26.120  1.00  0.00     0.173 A 
ATOM     76  F   UNL A   1      49.545  26.338  29.751  1.00  0.00    -0.203 F 
ATOM     77  C   UNL A   1      51.316  25.957  28.247  1.00  0.00     0.198 A 
ATOM     78  C   UNL A   1      50.922  26.063  25.883  1.00  0.00     0.198 A 
ATOM     79  F   UNL A   1      48.775  26.584  25.071  1.00  0.00    -0.203 F 
ATOM     80  F   UNL A   1      52.155  25.794  29.278  1.00  0.00    -0.200 F 
ATOM     81  C   UNL A   1      51.788  25.863  26.947  1.00  0.00     0.200 A 
ATOM     82  F   UNL A   1      51.369  25.955  24.625  1.00  0.00    -0.200 F 
ATOM     83  F   UNL A   1      53.079  25.585  26.719  1.00  0.00    -0.200 F 
ENDBRANCH  49  73
BRANCH  61  84
ATOM     84  C   UNL A   1      45.849  32.282  29.519  1.00  0.00     0.064 A 
ATOM     85  C   UNL A   1      45.969  33.331  28.595  1.00  0.00     0.173 A 
ATOM     86  C   UNL A   1      46.180  32.546  30.857  1.00  0.00     0.173 A 
ATOM     87  F   UNL A   1      45.680  33.128  27.301  1.00  0.00    -0.203 F 
ATOM     88  C   UNL A   1      46.429  34.584  28.992  1.00  0.00     0.198 A 
ATOM     89  C   UNL A   1      46.607  33.809  31.256  1.00  0.00     0.198 A 
ATOM     90  F   UNL A   1      46.075  31.580  31.783  1.00  0.00    -0.203 F 
ATOM     91  F   UNL A   1      46.587  35.556  28.082  1.00  0.00    -0.200 F 
ATOM     92  C   UNL A   1      46.740  34.825  30.322  1.00  0.00     0.200 A 
ATOM     93  F   UNL A   1      46.891  34.043  32.544  1.00  0.00    -0.200 F 
ATOM     94  F   UNL A   1      47.175  36.034  30.703  1.00  0.00    -0.200 F 
ENDBRANCH  61  84
ENDBRANCH  35  36
ENDBRANCH  27  30
ENDBRANCH  25  26
ENDBRANCH  24  25
ENDBRANCH   1  24
TORSDOF 13
ENDMDL
