MODEL 1
REMARK VINA RESULT:     -13.1      0.000      0.000
REMARK SMILES O=C(NCCCCNC(=O)[C@H]1COCCN1C(=O)c1ccc(Br)nc1)c1ccc(-c2c3nc(c(-c4c(F)c(F)c(F)c(F)c4F)c4ccc([nH]4)c(-c4c(F)c(F)c(F)c(F)c4F)c4nc(c(-c5c(F)c(F)c(F)c(F)c5F)c5ccc2[nH]5)C=C4)C=C3)cc1
REMARK SMILES IDX 5 1 4 2 3 3 1 4 2 5 26 7 27 8 88 9 28 10 87 11 29 12 30 13
REMARK SMILES IDX 31 14 81 15 32 16 86 17 80 18 82 19 33 20 85 21 79 22 78 23
REMARK SMILES IDX 34 25 66 26 46 27 65 28 47 29 50 30 64 31 83 32 48 33 49 34
REMARK SMILES IDX 63 36 84 37 51 38 35 39 36 40 44 41 37 42 38 43 42 44 45 45
REMARK SMILES IDX 39 46 40 47 43 48 41 49 67 50 68 51 76 52 69 53 70 54 74 55
REMARK SMILES IDX 77 56 71 57 72 58 75 59 73 60 52 61 53 62 61 63 54 64 55 65
REMARK SMILES IDX 59 66 62 67 56 68 57 69 60 70 58 71 6 72 7 73 8 74 9 75
REMARK SMILES IDX 10 77 11 78 12 79 16 80 13 81 15 82 14 83 17 84 18 85 19 86
REMARK SMILES IDX 20 87 25 88 21 89 24 90 22 91 23 92
REMARK H PARENT 3 6 82 24 50 35 8 76
REMARK Flexibility Score: inf
ROOT
ATOM      1  C   UNL A   1      31.393  32.349  26.690  1.00  0.00     0.023 C 
ENDROOT
BRANCH   1   2
ATOM      2  C   UNL A   1      32.637  33.000  27.274  1.00  0.00     0.116 C 
BRANCH   2   3
ATOM      3  N   UNL A   1      32.400  34.360  27.729  1.00  0.00    -0.352 N 
ATOM      4  O   UNL A   1      32.625  36.149  29.090  1.00  0.00    -0.269 OA
ATOM      5  C   UNL A   1      33.029  35.044  28.739  1.00  0.00     0.251 C 
ATOM      6  H   UNL A   1      31.697  34.856  27.249  1.00  0.00     0.163 HD
BRANCH   5   7
ATOM      7  C   UNL A   1      34.187  34.431  29.417  1.00  0.00     0.039 A 
ATOM      8  C   UNL A   1      34.012  33.691  30.591  1.00  0.00     0.014 A 
ATOM      9  C   UNL A   1      35.461  34.597  28.868  1.00  0.00     0.014 A 
ATOM     10  C   UNL A   1      35.122  33.207  31.273  1.00  0.00     0.010 A 
ATOM     11  C   UNL A   1      36.568  34.043  29.513  1.00  0.00     0.010 A 
ATOM     12  C   UNL A   1      36.407  33.354  30.725  1.00  0.00    -0.014 A 
BRANCH  12  13
ATOM     13  C   UNL A   1      37.555  32.674  31.369  1.00  0.00     0.031 A 
ATOM     14  C   UNL A   1      38.244  31.514  30.714  1.00  0.00     0.074 A 
ATOM     15  C   UNL A   1      37.951  33.112  32.580  1.00  0.00     0.049 A 
ATOM     16  N   UNL A   1      39.228  30.781  31.169  1.00  0.00    -0.248 NA
ATOM     17  C   UNL A   1      37.766  31.116  29.381  1.00  0.00     0.031 C 
ATOM     18  C   UNL A   1      37.333  34.220  33.314  1.00  0.00     0.029 A 
ATOM     19  N   UNL A   1      38.954  32.684  33.410  1.00  0.00    -0.354 N 
ATOM     20  C   UNL A   1      39.473  29.824  30.193  1.00  0.00     0.074 A 
ATOM     21  C   UNL A   1      38.528  30.060  29.124  1.00  0.00     0.031 C 
ATOM     22  C   UNL A   1      37.978  34.394  34.475  1.00  0.00     0.029 A 
ATOM     23  C   UNL A   1      39.010  33.372  34.597  1.00  0.00     0.049 A 
ATOM     24  H   UNL A   1      39.574  31.956  33.177  1.00  0.00     0.167 HD
ATOM     25  C   UNL A   1      40.408  28.843  30.200  1.00  0.00     0.037 A 
ATOM     26  C   UNL A   1      39.780  33.176  35.682  1.00  0.00     0.037 A 
ATOM     27  C   UNL A   1      41.362  28.640  31.261  1.00  0.00     0.049 A 
ATOM     28  C   UNL A   1      40.784  32.060  35.667  1.00  0.00     0.074 A 
ATOM     29  C   UNL A   1      42.408  27.735  31.317  1.00  0.00     0.029 A 
ATOM     30  N   UNL A   1      41.374  29.341  32.458  1.00  0.00    -0.354 N 
ATOM     31  N   UNL A   1      41.056  31.210  34.708  1.00  0.00    -0.248 NA
ATOM     32  C   UNL A   1      41.579  31.868  36.887  1.00  0.00     0.031 C 
ATOM     33  C   UNL A   1      43.017  27.849  32.571  1.00  0.00     0.029 A 
ATOM     34  C   UNL A   1      42.382  28.857  33.278  1.00  0.00     0.049 A 
ATOM     35  H   UNL A   1      40.760  30.073  32.691  1.00  0.00     0.167 HD
ATOM     36  C   UNL A   1      42.056  30.387  35.203  1.00  0.00     0.074 A 
ATOM     37  C   UNL A   1      42.362  30.857  36.539  1.00  0.00     0.031 C 
ATOM     38  C   UNL A   1      42.663  29.332  34.608  1.00  0.00     0.037 A 
BRANCH  25  39
ATOM     39  C   UNL A   1      40.449  27.893  29.041  1.00  0.00     0.064 A 
ATOM     40  C   UNL A   1      39.667  26.731  29.008  1.00  0.00     0.173 A 
ATOM     41  C   UNL A   1      41.213  28.204  27.904  1.00  0.00     0.173 A 
ATOM     42  F   UNL A   1      38.924  26.387  30.070  1.00  0.00    -0.203 F 
ATOM     43  C   UNL A   1      39.653  25.909  27.882  1.00  0.00     0.198 A 
ATOM     44  C   UNL A   1      41.179  27.393  26.773  1.00  0.00     0.198 A 
ATOM     45  F   UNL A   1      41.973  29.309  27.882  1.00  0.00    -0.203 F 
ATOM     46  F   UNL A   1      38.912  24.792  27.879  1.00  0.00    -0.200 F 
ATOM     47  C   UNL A   1      40.400  26.246  26.763  1.00  0.00     0.200 A 
ATOM     48  F   UNL A   1      41.892  27.728  25.688  1.00  0.00    -0.200 F 
ATOM     49  F   UNL A   1      40.369  25.465  25.674  1.00  0.00    -0.200 F 
ENDBRANCH  25  39
BRANCH  26  50
ATOM     50  C   UNL A   1      39.596  34.033  36.881  1.00  0.00     0.064 A 
ATOM     51  C   UNL A   1      38.806  33.612  37.958  1.00  0.00     0.173 A 
ATOM     52  C   UNL A   1      40.212  35.291  36.973  1.00  0.00     0.173 A 
ATOM     53  F   UNL A   1      38.182  32.426  37.907  1.00  0.00    -0.203 F 
ATOM     54  C   UNL A   1      38.623  34.425  39.074  1.00  0.00     0.198 A 
ATOM     55  C   UNL A   1      40.056  36.088  38.104  1.00  0.00     0.198 A 
ATOM     56  F   UNL A   1      40.985  35.737  35.972  1.00  0.00    -0.203 F 
ATOM     57  F   UNL A   1      37.825  34.019  40.071  1.00  0.00    -0.200 F 
ATOM     58  C   UNL A   1      39.253  35.659  39.150  1.00  0.00     0.200 A 
ATOM     59  F   UNL A   1      40.682  37.270  38.180  1.00  0.00    -0.200 F 
ATOM     60  F   UNL A   1      39.081  36.436  40.227  1.00  0.00    -0.200 F 
ENDBRANCH  26  50
BRANCH  38  61
ATOM     61  C   UNL A   1      43.717  28.617  35.399  1.00  0.00     0.064 A 
ATOM     62  C   UNL A   1      45.072  28.958  35.279  1.00  0.00     0.173 A 
ATOM     63  C   UNL A   1      43.367  27.612  36.312  1.00  0.00     0.173 A 
ATOM     64  F   UNL A   1      45.456  29.899  34.403  1.00  0.00    -0.203 F 
ATOM     65  C   UNL A   1      46.041  28.305  36.034  1.00  0.00     0.198 A 
ATOM     66  C   UNL A   1      44.336  26.981  37.085  1.00  0.00     0.198 A 
ATOM     67  F   UNL A   1      42.083  27.253  36.463  1.00  0.00    -0.203 F 
ATOM     68  F   UNL A   1      47.335  28.618  35.874  1.00  0.00    -0.200 F 
ATOM     69  C   UNL A   1      45.672  27.324  36.942  1.00  0.00     0.200 A 
ATOM     70  F   UNL A   1      43.977  26.041  37.970  1.00  0.00    -0.200 F 
ATOM     71  F   UNL A   1      46.606  26.703  37.675  1.00  0.00    -0.200 F 
ENDBRANCH  38  61
ENDBRANCH  12  13
ENDBRANCH   5   7
ENDBRANCH   2   3
ENDBRANCH   1   2
BRANCH   1  72
ATOM     72  C   UNL A   1      31.541  30.868  26.348  1.00  0.00     0.023 C 
BRANCH  72  73
ATOM     73  C   UNL A   1      32.569  30.109  27.183  1.00  0.00     0.116 C 
BRANCH  73  74
ATOM     74  N   UNL A   1      32.151  28.740  27.414  1.00  0.00    -0.354 N 
ATOM     75  C   UNL A   1      31.753  27.760  26.555  1.00  0.00     0.245 C 
ATOM     76  H   UNL A   1      32.156  28.471  28.360  1.00  0.00     0.163 HD
ATOM     77  O   UNL A   1      31.336  26.721  27.074  1.00  0.00    -0.273 OA
BRANCH  75  78
ATOM     78  C   UNL A   1      31.775  27.982  25.025  1.00  0.00     0.200 C 
ATOM     79  C   UNL A   1      33.240  28.026  24.540  1.00  0.00     0.195 C 
ATOM     80  N   UNL A   1      31.023  26.931  24.297  1.00  0.00    -0.322 N 
ATOM     81  O   UNL A   1      33.879  26.743  24.504  1.00  0.00    -0.377 OA
ATOM     82  C   UNL A   1      31.709  25.634  24.244  1.00  0.00     0.149 C 
ATOM     83  C   UNL A   1      33.137  25.799  23.725  1.00  0.00     0.181 C 
BRANCH  80  84
ATOM     84  C   UNL A   1      29.726  27.007  23.805  1.00  0.00     0.256 C 
ATOM     85  O   UNL A   1      28.903  26.102  23.922  1.00  0.00    -0.269 OA
BRANCH  84  86
ATOM     86  C   UNL A   1      29.269  28.212  23.095  1.00  0.00     0.058 A 
ATOM     87  C   UNL A   1      27.990  28.748  23.244  1.00  0.00     0.018 A 
ATOM     88  C   UNL A   1      30.172  28.883  22.284  1.00  0.00     0.126 A 
ATOM     89  C   UNL A   1      27.637  29.875  22.499  1.00  0.00     0.037 A 
ATOM     90  N   UNL A   1      29.846  29.965  21.534  1.00  0.00    -0.249 NA
ATOM     91  C   UNL A   1      28.586  30.436  21.654  1.00  0.00     0.106 A 
ATOM     92  Br  UNL A   1      28.096  31.916  20.578  1.00  0.00    -0.029 Br
ENDBRANCH  84  86
ENDBRANCH  80  84
ENDBRANCH  75  78
ENDBRANCH  73  74
ENDBRANCH  72  73
ENDBRANCH   1  72
TORSDOF 13
ENDMDL
MODEL 2
REMARK VINA RESULT:     -13.0      0.109      1.604
REMARK SMILES O=C(NCCCCNC(=O)[C@H]1COCCN1C(=O)c1ccc(Br)nc1)c1ccc(-c2c3nc(c(-c4c(F)c(F)c(F)c(F)c4F)c4ccc([nH]4)c(-c4c(F)c(F)c(F)c(F)c4F)c4nc(c(-c5c(F)c(F)c(F)c(F)c5F)c5ccc2[nH]5)C=C4)C=C3)cc1
REMARK SMILES IDX 5 1 4 2 3 3 1 4 2 5 26 7 27 8 88 9 28 10 87 11 29 12 30 13
REMARK SMILES IDX 31 14 81 15 32 16 86 17 80 18 82 19 33 20 85 21 79 22 78 23
REMARK SMILES IDX 34 25 66 26 46 27 65 28 47 29 50 30 64 31 83 32 48 33 49 34
REMARK SMILES IDX 63 36 84 37 51 38 35 39 36 40 44 41 37 42 38 43 42 44 45 45
REMARK SMILES IDX 39 46 40 47 43 48 41 49 67 50 68 51 76 52 69 53 70 54 74 55
REMARK SMILES IDX 77 56 71 57 72 58 75 59 73 60 52 61 53 62 61 63 54 64 55 65
REMARK SMILES IDX 59 66 62 67 56 68 57 69 60 70 58 71 6 72 7 73 8 74 9 75
REMARK SMILES IDX 10 77 11 78 12 79 16 80 13 81 15 82 14 83 17 84 18 85 19 86
REMARK SMILES IDX 20 87 25 88 21 89 24 90 22 91 23 92
REMARK H PARENT 3 6 82 24 50 35 8 76
REMARK Flexibility Score: inf
ROOT
ATOM      1  C   UNL A   1      31.384  32.383  26.551  1.00  0.00     0.023 C 
ENDROOT
BRANCH   1   2
ATOM      2  C   UNL A   1      32.560  32.937  27.339  1.00  0.00     0.116 C 
BRANCH   2   3
ATOM      3  N   UNL A   1      32.365  34.319  27.746  1.00  0.00    -0.352 N 
ATOM      4  O   UNL A   1      32.662  36.152  29.032  1.00  0.00    -0.269 OA
ATOM      5  C   UNL A   1      33.033  35.026  28.714  1.00  0.00     0.251 C 
ATOM      6  H   UNL A   1      31.661  34.811  27.265  1.00  0.00     0.163 HD
BRANCH   5   7
ATOM      7  C   UNL A   1      34.194  34.413  29.387  1.00  0.00     0.039 A 
ATOM      8  C   UNL A   1      34.029  33.705  30.581  1.00  0.00     0.014 A 
ATOM      9  C   UNL A   1      35.460  34.547  28.813  1.00  0.00     0.014 A 
ATOM     10  C   UNL A   1      35.143  33.221  31.257  1.00  0.00     0.010 A 
ATOM     11  C   UNL A   1      36.571  33.994  29.453  1.00  0.00     0.010 A 
ATOM     12  C   UNL A   1      36.420  33.336  30.684  1.00  0.00    -0.014 A 
BRANCH  12  13
ATOM     13  C   UNL A   1      37.569  32.655  31.325  1.00  0.00     0.031 A 
ATOM     14  C   UNL A   1      38.257  31.496  30.668  1.00  0.00     0.074 A 
ATOM     15  C   UNL A   1      37.969  33.094  32.535  1.00  0.00     0.049 A 
ATOM     16  N   UNL A   1      39.242  30.762  31.120  1.00  0.00    -0.248 NA
ATOM     17  C   UNL A   1      37.776  31.098  29.336  1.00  0.00     0.031 C 
ATOM     18  C   UNL A   1      37.353  34.201  33.271  1.00  0.00     0.029 A 
ATOM     19  N   UNL A   1      38.974  32.665  33.362  1.00  0.00    -0.354 N 
ATOM     20  C   UNL A   1      39.484  29.805  30.144  1.00  0.00     0.074 A 
ATOM     21  C   UNL A   1      38.536  30.042  29.077  1.00  0.00     0.031 C 
ATOM     22  C   UNL A   1      38.001  34.375  34.430  1.00  0.00     0.029 A 
ATOM     23  C   UNL A   1      39.033  33.353  34.549  1.00  0.00     0.049 A 
ATOM     24  H   UNL A   1      39.593  31.936  33.128  1.00  0.00     0.167 HD
ATOM     25  C   UNL A   1      40.418  28.824  30.149  1.00  0.00     0.037 A 
ATOM     26  C   UNL A   1      39.806  33.156  35.632  1.00  0.00     0.037 A 
ATOM     27  C   UNL A   1      41.374  28.620  31.208  1.00  0.00     0.049 A 
ATOM     28  C   UNL A   1      40.808  32.040  35.615  1.00  0.00     0.074 A 
ATOM     29  C   UNL A   1      42.421  27.715  31.261  1.00  0.00     0.029 A 
ATOM     30  N   UNL A   1      41.390  29.321  32.404  1.00  0.00    -0.354 N 
ATOM     31  N   UNL A   1      41.079  31.189  34.656  1.00  0.00    -0.248 NA
ATOM     32  C   UNL A   1      41.607  31.848  36.833  1.00  0.00     0.031 C 
ATOM     33  C   UNL A   1      43.033  27.828  32.513  1.00  0.00     0.029 A 
ATOM     34  C   UNL A   1      42.400  28.836  33.222  1.00  0.00     0.049 A 
ATOM     35  H   UNL A   1      40.777  30.053  32.639  1.00  0.00     0.167 HD
ATOM     36  C   UNL A   1      42.079  30.366  35.148  1.00  0.00     0.074 A 
ATOM     37  C   UNL A   1      42.388  30.836  36.483  1.00  0.00     0.031 C 
ATOM     38  C   UNL A   1      42.684  29.311  34.551  1.00  0.00     0.037 A 
BRANCH  25  39
ATOM     39  C   UNL A   1      40.456  27.874  28.989  1.00  0.00     0.064 A 
ATOM     40  C   UNL A   1      39.692  26.699  28.969  1.00  0.00     0.173 A 
ATOM     41  C   UNL A   1      41.197  28.196  27.840  1.00  0.00     0.173 A 
ATOM     42  F   UNL A   1      38.973  26.344  30.044  1.00  0.00    -0.203 F 
ATOM     43  C   UNL A   1      39.674  25.877  27.844  1.00  0.00     0.198 A 
ATOM     44  C   UNL A   1      41.158  27.385  26.710  1.00  0.00     0.198 A 
ATOM     45  F   UNL A   1      41.937  29.314  27.805  1.00  0.00    -0.203 F 
ATOM     46  F   UNL A   1      38.951  24.748  27.853  1.00  0.00    -0.200 F 
ATOM     47  C   UNL A   1      40.398  26.225  26.713  1.00  0.00     0.200 A 
ATOM     48  F   UNL A   1      41.847  27.730  25.614  1.00  0.00    -0.200 F 
ATOM     49  F   UNL A   1      40.362  25.443  25.625  1.00  0.00    -0.200 F 
ENDBRANCH  25  39
BRANCH  26  50
ATOM     50  C   UNL A   1      39.625  34.013  36.832  1.00  0.00     0.064 A 
ATOM     51  C   UNL A   1      40.245  35.265  36.929  1.00  0.00     0.173 A 
ATOM     52  C   UNL A   1      38.823  33.595  37.906  1.00  0.00     0.173 A 
ATOM     53  F   UNL A   1      41.036  35.699  35.936  1.00  0.00    -0.203 F 
ATOM     54  C   UNL A   1      40.086  36.059  38.062  1.00  0.00     0.198 A 
ATOM     55  C   UNL A   1      38.638  34.404  39.023  1.00  0.00     0.198 A 
ATOM     56  F   UNL A   1      38.202  32.408  37.859  1.00  0.00    -0.203 F 
ATOM     57  F   UNL A   1      40.727  37.233  38.149  1.00  0.00    -0.200 F 
ATOM     58  C   UNL A   1      39.277  35.632  39.106  1.00  0.00     0.200 A 
ATOM     59  F   UNL A   1      37.841  33.995  40.020  1.00  0.00    -0.200 F 
ATOM     60  F   UNL A   1      39.120  36.400  40.192  1.00  0.00    -0.200 F 
ENDBRANCH  26  50
BRANCH  38  61
ATOM     61  C   UNL A   1      43.740  28.596  35.339  1.00  0.00     0.064 A 
ATOM     62  C   UNL A   1      43.419  27.508  36.165  1.00  0.00     0.173 A 
ATOM     63  C   UNL A   1      45.086  28.974  35.238  1.00  0.00     0.173 A 
ATOM     64  F   UNL A   1      42.142  27.123  36.309  1.00  0.00    -0.203 F 
ATOM     65  C   UNL A   1      44.409  26.836  36.875  1.00  0.00     0.198 A 
ATOM     66  C   UNL A   1      46.076  28.282  35.928  1.00  0.00     0.198 A 
ATOM     67  F   UNL A   1      45.442  30.007  34.459  1.00  0.00    -0.203 F 
ATOM     68  F   UNL A   1      44.076  25.825  37.690  1.00  0.00    -0.200 F 
ATOM     69  C   UNL A   1      45.736  27.217  36.748  1.00  0.00     0.200 A 
ATOM     70  F   UNL A   1      47.360  28.644  35.796  1.00  0.00    -0.200 F 
ATOM     71  F   UNL A   1      46.690  26.562  37.426  1.00  0.00    -0.200 F 
ENDBRANCH  38  61
ENDBRANCH  12  13
ENDBRANCH   5   7
ENDBRANCH   2   3
ENDBRANCH   1   2
BRANCH   1  72
ATOM     72  C   UNL A   1      31.459  30.888  26.247  1.00  0.00     0.023 C 
BRANCH  72  73
ATOM     73  C   UNL A   1      32.564  30.131  26.981  1.00  0.00     0.116 C 
BRANCH  73  74
ATOM     74  N   UNL A   1      32.168  28.766  27.264  1.00  0.00    -0.354 N 
ATOM     75  C   UNL A   1      31.767  27.753  26.445  1.00  0.00     0.245 C 
ATOM     76  H   UNL A   1      32.193  28.528  28.218  1.00  0.00     0.163 HD
ATOM     77  O   UNL A   1      31.372  26.728  27.005  1.00  0.00    -0.273 OA
BRANCH  75  78
ATOM     78  C   UNL A   1      31.759  27.925  24.908  1.00  0.00     0.200 C 
ATOM     79  C   UNL A   1      33.212  27.889  24.387  1.00  0.00     0.195 C 
ATOM     80  N   UNL A   1      30.944  26.885  24.235  1.00  0.00    -0.322 N 
ATOM     81  O   UNL A   1      33.794  26.580  24.378  1.00  0.00    -0.377 OA
ATOM     82  C   UNL A   1      31.572  25.558  24.208  1.00  0.00     0.149 C 
ATOM     83  C   UNL A   1      32.992  25.644  23.649  1.00  0.00     0.181 C 
BRANCH  80  84
ATOM     84  C   UNL A   1      29.640  27.002  23.771  1.00  0.00     0.256 C 
ATOM     85  O   UNL A   1      28.791  26.123  23.906  1.00  0.00    -0.269 OA
BRANCH  84  86
ATOM     86  C   UNL A   1      29.204  28.221  23.073  1.00  0.00     0.058 A 
ATOM     87  C   UNL A   1      27.942  28.790  23.241  1.00  0.00     0.018 A 
ATOM     88  C   UNL A   1      30.112  28.872  22.251  1.00  0.00     0.126 A 
ATOM     89  C   UNL A   1      27.607  29.928  22.506  1.00  0.00     0.037 A 
ATOM     90  N   UNL A   1      29.805  29.964  21.510  1.00  0.00    -0.249 NA
ATOM     91  C   UNL A   1      28.559  30.468  21.650  1.00  0.00     0.106 A 
ATOM     92  Br  UNL A   1      28.093  31.965  20.586  1.00  0.00    -0.029 Br
ENDBRANCH  84  86
ENDBRANCH  80  84
ENDBRANCH  75  78
ENDBRANCH  73  74
ENDBRANCH  72  73
ENDBRANCH   1  72
TORSDOF 13
ENDMDL
MODEL 3
REMARK VINA RESULT:     -12.9      6.272     11.544
REMARK SMILES O=C(NCCCCNC(=O)[C@H]1COCCN1C(=O)c1ccc(Br)nc1)c1ccc(-c2c3nc(c(-c4c(F)c(F)c(F)c(F)c4F)c4ccc([nH]4)c(-c4c(F)c(F)c(F)c(F)c4F)c4nc(c(-c5c(F)c(F)c(F)c(F)c5F)c5ccc2[nH]5)C=C4)C=C3)cc1
REMARK SMILES IDX 5 1 4 2 3 3 1 4 2 5 26 7 27 8 88 9 28 10 87 11 29 12 30 13
REMARK SMILES IDX 31 14 81 15 32 16 86 17 80 18 82 19 33 20 85 21 79 22 78 23
REMARK SMILES IDX 34 25 66 26 46 27 65 28 47 29 50 30 64 31 83 32 48 33 49 34
REMARK SMILES IDX 63 36 84 37 51 38 35 39 36 40 44 41 37 42 38 43 42 44 45 45
REMARK SMILES IDX 39 46 40 47 43 48 41 49 67 50 68 51 76 52 69 53 70 54 74 55
REMARK SMILES IDX 77 56 71 57 72 58 75 59 73 60 52 61 53 62 61 63 54 64 55 65
REMARK SMILES IDX 59 66 62 67 56 68 57 69 60 70 58 71 6 72 7 73 8 74 9 75
REMARK SMILES IDX 10 77 11 78 12 79 16 80 13 81 15 82 14 83 17 84 18 85 19 86
REMARK SMILES IDX 20 87 25 88 21 89 24 90 22 91 23 92
REMARK H PARENT 3 6 82 24 50 35 8 76
REMARK Flexibility Score: inf
ROOT
ATOM      1  C   UNL A   1      37.851  19.679  25.001  1.00  0.00     0.023 C 
ENDROOT
BRANCH   1   2
ATOM      2  C   UNL A   1      39.070  20.193  25.751  1.00  0.00     0.116 C 
BRANCH   2   3
ATOM      3  N   UNL A   1      40.119  19.194  25.874  1.00  0.00    -0.352 N 
ATOM      4  O   UNL A   1      42.241  18.443  26.055  1.00  0.00    -0.269 OA
ATOM      5  C   UNL A   1      41.457  19.385  26.108  1.00  0.00     0.251 C 
ATOM      6  H   UNL A   1      39.831  18.257  25.775  1.00  0.00     0.163 HD
BRANCH   5   7
ATOM      7  C   UNL A   1      41.952  20.743  26.408  1.00  0.00     0.039 A 
ATOM      8  C   UNL A   1      42.173  21.661  25.376  1.00  0.00     0.014 A 
ATOM      9  C   UNL A   1      42.195  21.099  27.736  1.00  0.00     0.014 A 
ATOM     10  C   UNL A   1      42.736  22.899  25.663  1.00  0.00     0.010 A 
ATOM     11  C   UNL A   1      42.688  22.372  28.031  1.00  0.00     0.010 A 
ATOM     12  C   UNL A   1      42.971  23.276  26.995  1.00  0.00    -0.014 A 
BRANCH  12  13
ATOM     13  C   UNL A   1      43.396  24.663  27.294  1.00  0.00     0.031 A 
ATOM     14  C   UNL A   1      42.433  25.677  27.835  1.00  0.00     0.074 A 
ATOM     15  C   UNL A   1      44.677  24.999  27.044  1.00  0.00     0.049 A 
ATOM     16  N   UNL A   1      42.636  26.942  28.100  1.00  0.00    -0.248 NA
ATOM     17  C   UNL A   1      41.060  25.221  28.105  1.00  0.00     0.031 C 
ATOM     18  C   UNL A   1      45.690  24.093  26.497  1.00  0.00     0.029 A 
ATOM     19  N   UNL A   1      45.345  26.184  27.205  1.00  0.00    -0.354 N 
ATOM     20  C   UNL A   1      41.418  27.439  28.546  1.00  0.00     0.074 A 
ATOM     21  C   UNL A   1      40.475  26.342  28.506  1.00  0.00     0.031 C 
ATOM     22  C   UNL A   1      46.853  24.748  26.383  1.00  0.00     0.029 A 
ATOM     23  C   UNL A   1      46.652  26.134  26.786  1.00  0.00     0.049 A 
ATOM     24  H   UNL A   1      44.930  26.992  27.585  1.00  0.00     0.167 HD
ATOM     25  C   UNL A   1      41.127  28.698  28.952  1.00  0.00     0.037 A 
ATOM     26  C   UNL A   1      47.576  27.107  26.696  1.00  0.00     0.037 A 
ATOM     27  C   UNL A   1      42.086  29.772  29.014  1.00  0.00     0.049 A 
ATOM     28  C   UNL A   1      47.209  28.498  27.124  1.00  0.00     0.074 A 
ATOM     29  C   UNL A   1      41.911  31.056  29.501  1.00  0.00     0.029 A 
ATOM     30  N   UNL A   1      43.394  29.691  28.559  1.00  0.00    -0.354 N 
ATOM     31  N   UNL A   1      46.077  28.937  27.615  1.00  0.00    -0.248 NA
ATOM     32  C   UNL A   1      48.243  29.531  26.979  1.00  0.00     0.031 C 
ATOM     33  C   UNL A   1      43.095  31.769  29.288  1.00  0.00     0.029 A 
ATOM     34  C   UNL A   1      44.024  30.917  28.712  1.00  0.00     0.049 A 
ATOM     35  H   UNL A   1      43.813  28.884  28.184  1.00  0.00     0.167 HD
ATOM     36  C   UNL A   1      46.261  30.292  27.842  1.00  0.00     0.074 A 
ATOM     37  C   UNL A   1      47.624  30.598  27.461  1.00  0.00     0.031 C 
ATOM     38  C   UNL A   1      45.378  31.203  28.317  1.00  0.00     0.037 A 
BRANCH  25  39
ATOM     39  C   UNL A   1      39.714  29.007  29.350  1.00  0.00     0.064 A 
ATOM     40  C   UNL A   1      38.764  29.450  28.419  1.00  0.00     0.173 A 
ATOM     41  C   UNL A   1      39.284  28.763  30.664  1.00  0.00     0.173 A 
ATOM     42  F   UNL A   1      39.126  29.703  27.153  1.00  0.00    -0.203 F 
ATOM     43  C   UNL A   1      37.435  29.645  28.792  1.00  0.00     0.198 A 
ATOM     44  C   UNL A   1      37.952  28.937  31.027  1.00  0.00     0.198 A 
ATOM     45  F   UNL A   1      40.153  28.330  31.590  1.00  0.00    -0.203 F 
ATOM     46  F   UNL A   1      36.547  30.087  27.891  1.00  0.00    -0.200 F 
ATOM     47  C   UNL A   1      37.028  29.379  30.092  1.00  0.00     0.200 A 
ATOM     48  F   UNL A   1      37.558  28.666  32.279  1.00  0.00    -0.200 F 
ATOM     49  F   UNL A   1      35.746  29.548  30.442  1.00  0.00    -0.200 F 
ENDBRANCH  25  39
BRANCH  26  50
ATOM     50  C   UNL A   1      48.918  26.800  26.138  1.00  0.00     0.064 A 
ATOM     51  C   UNL A   1      49.941  26.292  26.949  1.00  0.00     0.173 A 
ATOM     52  C   UNL A   1      49.202  27.007  24.779  1.00  0.00     0.173 A 
ATOM     53  F   UNL A   1      49.723  26.096  28.258  1.00  0.00    -0.203 F 
ATOM     54  C   UNL A   1      51.203  26.020  26.426  1.00  0.00     0.198 A 
ATOM     55  C   UNL A   1      50.454  26.703  24.251  1.00  0.00     0.198 A 
ATOM     56  F   UNL A   1      48.255  27.485  23.960  1.00  0.00    -0.203 F 
ATOM     57  F   UNL A   1      52.178  25.577  27.233  1.00  0.00    -0.200 F 
ATOM     58  C   UNL A   1      51.457  26.219  25.076  1.00  0.00     0.200 A 
ATOM     59  F   UNL A   1      50.688  26.879  22.944  1.00  0.00    -0.200 F 
ATOM     60  F   UNL A   1      52.669  25.950  24.574  1.00  0.00    -0.200 F 
ENDBRANCH  26  50
BRANCH  38  61
ATOM     61  C   UNL A   1      45.862  32.616  28.451  1.00  0.00     0.064 A 
ATOM     62  C   UNL A   1      45.676  33.549  27.422  1.00  0.00     0.173 A 
ATOM     63  C   UNL A   1      46.482  33.050  29.632  1.00  0.00     0.173 A 
ATOM     64  F   UNL A   1      45.107  33.174  26.265  1.00  0.00    -0.203 F 
ATOM     65  C   UNL A   1      46.108  34.864  27.563  1.00  0.00     0.198 A 
ATOM     66  C   UNL A   1      46.888  34.372  29.781  1.00  0.00     0.198 A 
ATOM     67  F   UNL A   1      46.680  32.194  30.646  1.00  0.00    -0.203 F 
ATOM     68  F   UNL A   1      45.957  35.730  26.552  1.00  0.00    -0.200 F 
ATOM     69  C   UNL A   1      46.705  35.276  28.746  1.00  0.00     0.200 A 
ATOM     70  F   UNL A   1      47.454  34.772  30.928  1.00  0.00    -0.200 F 
ATOM     71  F   UNL A   1      47.112  36.545  28.885  1.00  0.00    -0.200 F 
ENDBRANCH  38  61
ENDBRANCH  12  13
ENDBRANCH   5   7
ENDBRANCH   2   3
ENDBRANCH   1   2
BRANCH   1  72
ATOM     72  C   UNL A   1      36.673  20.650  24.944  1.00  0.00     0.023 C 
BRANCH  72  73
ATOM     73  C   UNL A   1      37.033  22.085  24.569  1.00  0.00     0.116 C 
BRANCH  73  74
ATOM     74  N   UNL A   1      36.198  22.572  23.489  1.00  0.00    -0.354 N 
ATOM     75  C   UNL A   1      34.965  23.154  23.491  1.00  0.00     0.245 C 
ATOM     76  H   UNL A   1      36.591  22.462  22.594  1.00  0.00     0.163 HD
ATOM     77  O   UNL A   1      34.456  23.348  22.385  1.00  0.00    -0.273 OA
BRANCH  75  78
ATOM     78  C   UNL A   1      34.243  23.488  24.817  1.00  0.00     0.200 C 
ATOM     79  C   UNL A   1      34.640  24.910  25.267  1.00  0.00     0.195 C 
ATOM     80  N   UNL A   1      32.769  23.379  24.692  1.00  0.00    -0.322 N 
ATOM     81  O   UNL A   1      34.022  25.954  24.505  1.00  0.00    -0.377 OA
ATOM     82  C   UNL A   1      32.151  24.476  23.935  1.00  0.00     0.149 C 
ATOM     83  C   UNL A   1      32.596  25.830  24.488  1.00  0.00     0.181 C 
BRANCH  80  84
ATOM     84  C   UNL A   1      31.964  22.316  25.080  1.00  0.00     0.256 C 
ATOM     85  O   UNL A   1      30.897  22.456  25.674  1.00  0.00    -0.269 OA
BRANCH  84  86
ATOM     86  C   UNL A   1      32.368  20.931  24.790  1.00  0.00     0.058 A 
ATOM     87  C   UNL A   1      32.903  20.074  25.751  1.00  0.00     0.018 A 
ATOM     88  C   UNL A   1      32.153  20.434  23.514  1.00  0.00     0.126 A 
ATOM     89  C   UNL A   1      33.291  18.788  25.371  1.00  0.00     0.037 A 
ATOM     90  N   UNL A   1      32.542  19.198  23.115  1.00  0.00    -0.249 NA
ATOM     91  C   UNL A   1      33.106  18.402  24.050  1.00  0.00     0.106 A 
ATOM     92  Br  UNL A   1      33.701  16.690  23.501  1.00  0.00    -0.029 Br
ENDBRANCH  84  86
ENDBRANCH  80  84
ENDBRANCH  75  78
ENDBRANCH  73  74
ENDBRANCH  72  73
ENDBRANCH   1  72
TORSDOF 13
ENDMDL
