MODEL 1
REMARK VINA RESULT:     -12.8      0.000      0.000
REMARK SMILES COc1ccc(-c2ccc(C(=O)NCc3ccc(C(=O)NCCCCNC(=O)c4ccc(-c5c6nc(c(-c7c(F)c(F)c(F)c(F)c7F)c7ccc([nH]7)c(-c7c(F)c(F)c(F)c(F)c7F)c7nc(c(-c8c(F)c(F)c(F)c(F)c8F)c8ccc5[nH]8)C=C7)C=C6)cc4)cc3)o2)c([N+](=O)[O-])c1
REMARK SMILES IDX 22 1 21 2 19 3 20 4 18 6 15 7 16 8 93 9 17 10 92 11 14 12
REMARK SMILES IDX 13 13 11 14 12 15 10 17 7 18 8 19 94 20 9 21 6 22 3 23 4 24
REMARK SMILES IDX 99 25 5 26 95 27 2 28 1 29 96 30 97 31 98 32 23 33 24 34
REMARK SMILES IDX 25 35 26 36 27 37 28 39 29 40 30 41 91 42 31 43 90 44 32 45
REMARK SMILES IDX 33 46 34 47 84 48 35 49 89 50 83 51 85 52 36 53 88 54 82 55
REMARK SMILES IDX 81 56 37 58 69 59 49 60 68 61 50 62 53 63 67 64 86 65 51 66
REMARK SMILES IDX 52 67 66 69 87 70 54 71 38 72 39 73 47 74 40 75 41 76 45 77
REMARK SMILES IDX 48 78 42 79 43 80 46 81 44 82 70 83 71 84 79 85 72 86 73 87
REMARK SMILES IDX 77 88 80 89 74 90 75 91 78 92 76 93 55 94 56 95 64 96 57 97
REMARK SMILES IDX 58 98 62 99 65 100 59 101 60 102 63 103 61 104
REMARK H PARENT 21 5 13 16 26 38 85 57 53 68
REMARK Flexibility Score: inf
ROOT
ATOM      1  C   UNL A   1      30.795  28.632  23.083  1.00  0.00     0.116 C 
ENDROOT
BRANCH   1   2
ATOM      2  N   UNL A   1      31.954  28.174  22.347  1.00  0.00    -0.352 N 
ATOM      3  C   UNL A   1      32.704  27.032  22.476  1.00  0.00     0.251 C 
ATOM      4  O   UNL A   1      33.640  26.862  21.694  1.00  0.00    -0.269 OA
ATOM      5  H   UNL A   1      32.254  28.783  21.634  1.00  0.00     0.163 HD
BRANCH   3   6
ATOM      6  C   UNL A   1      32.388  25.975  23.476  1.00  0.00     0.039 A 
ATOM      7  C   UNL A   1      31.984  23.953  25.413  1.00  0.00    -0.029 A 
ATOM      8  C   UNL A   1      33.014  24.893  25.558  1.00  0.00     0.006 A 
ATOM      9  C   UNL A   1      31.138  24.062  24.308  1.00  0.00     0.006 A 
ATOM     10  C   UNL A   1      33.209  25.897  24.604  1.00  0.00     0.014 A 
ATOM     11  C   UNL A   1      31.324  25.077  23.367  1.00  0.00     0.014 A 
BRANCH   7  12
ATOM     12  C   UNL A   1      31.762  22.842  26.407  1.00  0.00     0.152 C 
BRANCH  12  13
ATOM     13  N   UNL A   1      31.631  21.566  25.751  1.00  0.00    -0.345 N 
ATOM     14  C   UNL A   1      32.505  20.834  24.989  1.00  0.00     0.287 C 
ATOM     15  O   UNL A   1      32.125  19.696  24.697  1.00  0.00    -0.266 OA
ATOM     16  H   UNL A   1      30.751  21.140  25.874  1.00  0.00     0.164 HD
BRANCH  14  17
ATOM     17  C   UNL A   1      33.780  21.375  24.550  1.00  0.00     0.192 A 
ATOM     18  C   UNL A   1      35.988  21.492  24.645  1.00  0.00     0.142 A 
ATOM     19  C   UNL A   1      35.607  22.342  23.636  1.00  0.00     0.052 A 
ATOM     20  O   UNL A   1      34.900  20.885  25.185  1.00  0.00    -0.451 OA
ATOM     21  C   UNL A   1      34.197  22.274  23.582  1.00  0.00     0.057 A 
BRANCH  18  22
ATOM     22  C   UNL A   1      37.273  21.113  25.198  1.00  0.00     0.095 A 
ATOM     23  C   UNL A   1      39.883  20.334  25.955  1.00  0.00     0.125 A 
ATOM     24  C   UNL A   1      39.026  19.431  25.326  1.00  0.00     0.047 A 
ATOM     25  C   UNL A   1      39.436  21.623  26.234  1.00  0.00     0.132 A 
ATOM     26  C   UNL A   1      37.731  19.809  24.963  1.00  0.00     0.023 A 
ATOM     27  C   UNL A   1      38.134  22.003  25.859  1.00  0.00     0.284 A 
BRANCH  23  28
ATOM     28  O   UNL A   1      41.138  19.856  26.205  1.00  0.00    -0.497 OA
ATOM     29  C   UNL A   1      41.801  20.376  27.350  1.00  0.00     0.278 C 
ENDBRANCH  23  28
BRANCH  27  30
ATOM     30  N   UNL A   1      37.717  23.368  26.184  1.00  0.00     0.063 N 
ATOM     31  O   UNL A   1      38.506  24.294  25.961  1.00  0.00    -0.258 OA
ATOM     32  O   UNL A   1      36.572  23.513  26.636  1.00  0.00    -0.258 OA
ENDBRANCH  27  30
ENDBRANCH  18  22
ENDBRANCH  14  17
ENDBRANCH  12  13
ENDBRANCH   7  12
ENDBRANCH   3   6
ENDBRANCH   1   2
BRANCH   1  33
ATOM     33  C   UNL A   1      31.164  28.892  24.547  1.00  0.00     0.023 C 
BRANCH  33  34
ATOM     34  C   UNL A   1      32.510  29.587  24.737  1.00  0.00     0.023 C 
BRANCH  34  35
ATOM     35  C   UNL A   1      32.852  29.906  26.184  1.00  0.00     0.116 C 
BRANCH  35  36
ATOM     36  N   UNL A   1      32.621  31.300  26.535  1.00  0.00    -0.352 N 
ATOM     37  C   UNL A   1      33.381  32.105  27.346  1.00  0.00     0.251 C 
ATOM     38  H   UNL A   1      31.819  31.716  26.143  1.00  0.00     0.163 HD
ATOM     39  O   UNL A   1      32.999  33.231  27.651  1.00  0.00    -0.269 OA
BRANCH  37  40
ATOM     40  C   UNL A   1      34.650  31.575  27.879  1.00  0.00     0.039 A 
ATOM     41  C   UNL A   1      35.734  32.442  28.022  1.00  0.00     0.014 A 
ATOM     42  C   UNL A   1      34.740  30.245  28.295  1.00  0.00     0.014 A 
ATOM     43  C   UNL A   1      36.895  31.987  28.645  1.00  0.00     0.010 A 
ATOM     44  C   UNL A   1      35.864  29.819  28.991  1.00  0.00     0.010 A 
ATOM     45  C   UNL A   1      36.955  30.685  29.169  1.00  0.00    -0.014 A 
BRANCH  45  46
ATOM     46  C   UNL A   1      38.152  30.208  29.901  1.00  0.00     0.031 A 
ATOM     47  C   UNL A   1      38.398  30.658  31.314  1.00  0.00     0.074 A 
ATOM     48  C   UNL A   1      39.046  29.418  29.275  1.00  0.00     0.049 A 
ATOM     49  N   UNL A   1      39.407  30.393  32.104  1.00  0.00    -0.248 NA
ATOM     50  C   UNL A   1      37.389  31.550  31.909  1.00  0.00     0.031 C 
ATOM     51  C   UNL A   1      38.943  28.959  27.888  1.00  0.00     0.029 A 
ATOM     52  N   UNL A   1      40.221  28.867  29.720  1.00  0.00    -0.354 N 
ATOM     53  C   UNL A   1      39.159  31.091  33.278  1.00  0.00     0.074 A 
ATOM     54  C   UNL A   1      37.940  31.841  33.077  1.00  0.00     0.031 C 
ATOM     55  C   UNL A   1      39.995  28.174  27.606  1.00  0.00     0.029 A 
ATOM     56  C   UNL A   1      40.865  28.107  28.775  1.00  0.00     0.049 A 
ATOM     57  H   UNL A   1      40.569  29.004  30.631  1.00  0.00     0.167 HD
ATOM     58  C   UNL A   1      39.870  31.082  34.431  1.00  0.00     0.037 A 
ATOM     59  C   UNL A   1      42.032  27.437  28.844  1.00  0.00     0.037 A 
ATOM     60  C   UNL A   1      41.073  30.318  34.631  1.00  0.00     0.049 A 
ATOM     61  C   UNL A   1      42.809  27.456  30.134  1.00  0.00     0.074 A 
ATOM     62  C   UNL A   1      41.838  30.195  35.777  1.00  0.00     0.029 A 
ATOM     63  N   UNL A   1      41.691  29.549  33.654  1.00  0.00    -0.354 N 
ATOM     64  N   UNL A   1      42.526  28.056  31.265  1.00  0.00    -0.248 NA
ATOM     65  C   UNL A   1      44.066  26.695  30.158  1.00  0.00     0.031 C 
ATOM     66  C   UNL A   1      42.948  29.399  35.480  1.00  0.00     0.029 A 
ATOM     67  C   UNL A   1      42.843  28.972  34.165  1.00  0.00     0.049 A 
ATOM     68  H   UNL A   1      41.360  29.432  32.734  1.00  0.00     0.167 HD
ATOM     69  C   UNL A   1      43.548  27.721  32.142  1.00  0.00     0.074 A 
ATOM     70  C   UNL A   1      44.450  26.850  31.417  1.00  0.00     0.031 C 
ATOM     71  C   UNL A   1      43.726  28.100  33.432  1.00  0.00     0.037 A 
BRANCH  58  72
ATOM     72  C   UNL A   1      39.363  31.926  35.565  1.00  0.00     0.064 A 
ATOM     73  C   UNL A   1      38.462  31.421  36.516  1.00  0.00     0.173 A 
ATOM     74  C   UNL A   1      39.810  33.247  35.725  1.00  0.00     0.173 A 
ATOM     75  F   UNL A   1      37.994  30.168  36.403  1.00  0.00    -0.203 F 
ATOM     76  C   UNL A   1      38.003  32.214  37.564  1.00  0.00     0.198 A 
ATOM     77  C   UNL A   1      39.375  34.027  36.794  1.00  0.00     0.198 A 
ATOM     78  F   UNL A   1      40.675  33.780  34.850  1.00  0.00    -0.203 F 
ATOM     79  F   UNL A   1      37.100  31.727  38.426  1.00  0.00    -0.200 F 
ATOM     80  C   UNL A   1      38.466  33.514  37.706  1.00  0.00     0.200 A 
ATOM     81  F   UNL A   1      39.835  35.277  36.940  1.00  0.00    -0.200 F 
ATOM     82  F   UNL A   1      38.029  34.274  38.720  1.00  0.00    -0.200 F 
ENDBRANCH  58  72
BRANCH  59  83
ATOM     83  C   UNL A   1      42.524  26.674  27.668  1.00  0.00     0.064 A 
ATOM     84  C   UNL A   1      42.077  25.370  27.414  1.00  0.00     0.173 A 
ATOM     85  C   UNL A   1      43.459  27.224  26.779  1.00  0.00     0.173 A 
ATOM     86  F   UNL A   1      41.197  24.792  28.246  1.00  0.00    -0.203 F 
ATOM     87  C   UNL A   1      42.565  24.636  26.335  1.00  0.00     0.198 A 
ATOM     88  C   UNL A   1      43.923  26.503  25.681  1.00  0.00     0.198 A 
ATOM     89  F   UNL A   1      43.915  28.472  26.970  1.00  0.00    -0.203 F 
ATOM     90  F   UNL A   1      42.160  23.373  26.149  1.00  0.00    -0.200 F 
ATOM     91  C   UNL A   1      43.483  25.205  25.466  1.00  0.00     0.200 A 
ATOM     92  F   UNL A   1      44.797  27.062  24.834  1.00  0.00    -0.200 F 
ATOM     93  F   UNL A   1      43.950  24.500  24.426  1.00  0.00    -0.200 F 
ENDBRANCH  59  83
BRANCH  71  94
ATOM     94  C   UNL A   1      44.916  27.541  34.157  1.00  0.00     0.064 A 
ATOM     95  C   UNL A   1      46.144  28.219  34.197  1.00  0.00     0.173 A 
ATOM     96  C   UNL A   1      44.815  26.325  34.852  1.00  0.00     0.173 A 
ATOM     97  F   UNL A   1      46.298  29.377  33.538  1.00  0.00    -0.203 F 
ATOM     98  C   UNL A   1      47.234  27.683  34.879  1.00  0.00     0.198 A 
ATOM     99  C   UNL A   1      45.896  25.811  35.562  1.00  0.00     0.198 A 
ATOM    100  F   UNL A   1      43.661  25.641  34.853  1.00  0.00    -0.203 F 
ATOM    101  F   UNL A   1      48.414  28.321  34.856  1.00  0.00    -0.200 F 
ATOM    102  C   UNL A   1      47.107  26.486  35.567  1.00  0.00     0.200 A 
ATOM    103  F   UNL A   1      45.766  24.664  36.240  1.00  0.00    -0.200 F 
ATOM    104  F   UNL A   1      48.156  25.977  36.229  1.00  0.00    -0.200 F 
ENDBRANCH  71  94
ENDBRANCH  45  46
ENDBRANCH  37  40
ENDBRANCH  35  36
ENDBRANCH  34  35
ENDBRANCH  33  34
ENDBRANCH   1  33
TORSDOF 17
ENDMDL
MODEL 2
REMARK VINA RESULT:     -12.7      2.654      4.629
REMARK SMILES COc1ccc(-c2ccc(C(=O)NCc3ccc(C(=O)NCCCCNC(=O)c4ccc(-c5c6nc(c(-c7c(F)c(F)c(F)c(F)c7F)c7ccc([nH]7)c(-c7c(F)c(F)c(F)c(F)c7F)c7nc(c(-c8c(F)c(F)c(F)c(F)c8F)c8ccc5[nH]8)C=C7)C=C6)cc4)cc3)o2)c([N+](=O)[O-])c1
REMARK SMILES IDX 22 1 21 2 19 3 20 4 18 6 15 7 16 8 93 9 17 10 92 11 14 12
REMARK SMILES IDX 13 13 11 14 12 15 10 17 7 18 8 19 94 20 9 21 6 22 3 23 4 24
REMARK SMILES IDX 99 25 5 26 95 27 2 28 1 29 96 30 97 31 98 32 23 33 24 34
REMARK SMILES IDX 25 35 26 36 27 37 28 39 29 40 30 41 91 42 31 43 90 44 32 45
REMARK SMILES IDX 33 46 34 47 84 48 35 49 89 50 83 51 85 52 36 53 88 54 82 55
REMARK SMILES IDX 81 56 37 58 69 59 49 60 68 61 50 62 53 63 67 64 86 65 51 66
REMARK SMILES IDX 52 67 66 69 87 70 54 71 38 72 39 73 47 74 40 75 41 76 45 77
REMARK SMILES IDX 48 78 42 79 43 80 46 81 44 82 70 83 71 84 79 85 72 86 73 87
REMARK SMILES IDX 77 88 80 89 74 90 75 91 78 92 76 93 55 94 56 95 64 96 57 97
REMARK SMILES IDX 58 98 62 99 65 100 59 101 60 102 63 103 61 104
REMARK H PARENT 21 5 13 16 26 38 85 57 53 68
REMARK Flexibility Score: inf
ROOT
ATOM      1  C   UNL A   1      34.056  31.994  28.043  1.00  0.00     0.116 C 
ENDROOT
BRANCH   1   2
ATOM      2  N   UNL A   1      32.768  32.110  27.392  1.00  0.00    -0.352 N 
ATOM      3  C   UNL A   1      32.078  31.224  26.604  1.00  0.00     0.251 C 
ATOM      4  O   UNL A   1      30.969  31.560  26.189  1.00  0.00    -0.269 OA
ATOM      5  H   UNL A   1      32.311  32.970  27.540  1.00  0.00     0.163 HD
BRANCH   3   6
ATOM      6  C   UNL A   1      32.592  29.861  26.293  1.00  0.00     0.039 A 
ATOM      7  C   UNL A   1      33.526  27.309  25.508  1.00  0.00    -0.029 A 
ATOM      8  C   UNL A   1      33.692  28.424  24.675  1.00  0.00     0.006 A 
ATOM      9  C   UNL A   1      32.922  27.497  26.754  1.00  0.00     0.006 A 
ATOM     10  C   UNL A   1      33.236  29.688  25.066  1.00  0.00     0.014 A 
ATOM     11  C   UNL A   1      32.485  28.763  27.149  1.00  0.00     0.014 A 
BRANCH   7  12
ATOM     12  C   UNL A   1      33.980  25.930  25.108  1.00  0.00     0.152 C 
BRANCH  12  13
ATOM     13  N   UNL A   1      34.099  25.807  23.678  1.00  0.00    -0.345 N 
ATOM     14  C   UNL A   1      33.486  24.975  22.776  1.00  0.00     0.287 C 
ATOM     15  O   UNL A   1      33.704  25.232  21.589  1.00  0.00    -0.266 OA
ATOM     16  H   UNL A   1      34.738  26.438  23.272  1.00  0.00     0.164 HD
BRANCH  14  17
ATOM     17  C   UNL A   1      32.653  23.863  23.201  1.00  0.00     0.192 A 
ATOM     18  C   UNL A   1      32.359  21.735  23.733  1.00  0.00     0.142 A 
ATOM     19  C   UNL A   1      31.142  22.344  23.922  1.00  0.00     0.052 A 
ATOM     20  O   UNL A   1      33.281  22.643  23.324  1.00  0.00    -0.451 OA
ATOM     21  C   UNL A   1      31.328  23.701  23.574  1.00  0.00     0.057 A 
BRANCH  18  22
ATOM     22  C   UNL A   1      32.831  20.376  23.908  1.00  0.00     0.095 A 
ATOM     23  C   UNL A   1      33.863  17.744  23.929  1.00  0.00     0.125 A 
ATOM     24  C   UNL A   1      32.781  18.078  23.113  1.00  0.00     0.047 A 
ATOM     25  C   UNL A   1      34.421  18.714  24.758  1.00  0.00     0.132 A 
ATOM     26  C   UNL A   1      32.260  19.374  23.112  1.00  0.00     0.023 A 
ATOM     27  C   UNL A   1      33.899  20.021  24.747  1.00  0.00     0.284 A 
BRANCH  23  28
ATOM     28  O   UNL A   1      34.309  16.460  23.793  1.00  0.00    -0.497 OA
ATOM     29  C   UNL A   1      34.659  15.778  24.991  1.00  0.00     0.278 C 
ENDBRANCH  23  28
BRANCH  27  30
ATOM     30  N   UNL A   1      34.522  20.995  25.644  1.00  0.00     0.063 N 
ATOM     31  O   UNL A   1      33.904  21.341  26.659  1.00  0.00    -0.258 OA
ATOM     32  O   UNL A   1      35.658  21.390  25.345  1.00  0.00    -0.258 OA
ENDBRANCH  27  30
ENDBRANCH  18  22
ENDBRANCH  14  17
ENDBRANCH  12  13
ENDBRANCH   7  12
ENDBRANCH   3   6
ENDBRANCH   1   2
BRANCH   1  33
ATOM     33  C   UNL A   1      34.363  33.262  28.844  1.00  0.00     0.023 C 
BRANCH  33  34
ATOM     34  C   UNL A   1      33.264  34.320  28.784  1.00  0.00     0.023 C 
BRANCH  34  35
ATOM     35  C   UNL A   1      33.582  35.599  29.542  1.00  0.00     0.116 C 
BRANCH  35  36
ATOM     36  N   UNL A   1      32.602  35.916  30.570  1.00  0.00    -0.352 N 
ATOM     37  C   UNL A   1      32.642  35.598  31.904  1.00  0.00     0.251 C 
ATOM     38  H   UNL A   1      31.811  36.422  30.271  1.00  0.00     0.163 HD
ATOM     39  O   UNL A   1      31.683  35.827  32.635  1.00  0.00    -0.269 OA
BRANCH  37  40
ATOM     40  C   UNL A   1      33.847  34.934  32.437  1.00  0.00     0.039 A 
ATOM     41  C   UNL A   1      33.746  33.617  32.888  1.00  0.00     0.014 A 
ATOM     42  C   UNL A   1      35.079  35.593  32.427  1.00  0.00     0.014 A 
ATOM     43  C   UNL A   1      34.901  32.937  33.270  1.00  0.00     0.010 A 
ATOM     44  C   UNL A   1      36.236  34.887  32.726  1.00  0.00     0.010 A 
ATOM     45  C   UNL A   1      36.158  33.553  33.156  1.00  0.00    -0.014 A 
BRANCH  45  46
ATOM     46  C   UNL A   1      37.404  32.819  33.486  1.00  0.00     0.031 A 
ATOM     47  C   UNL A   1      38.144  33.128  34.756  1.00  0.00     0.074 A 
ATOM     48  C   UNL A   1      37.897  31.919  32.614  1.00  0.00     0.049 A 
ATOM     49  N   UNL A   1      39.271  32.632  35.199  1.00  0.00    -0.248 NA
ATOM     50  C   UNL A   1      37.553  34.151  35.634  1.00  0.00     0.031 C 
ATOM     51  C   UNL A   1      37.296  31.573  31.323  1.00  0.00     0.029 A 
ATOM     52  N   UNL A   1      39.020  31.134  32.677  1.00  0.00    -0.354 N 
ATOM     53  C   UNL A   1      39.527  33.290  36.395  1.00  0.00     0.074 A 
ATOM     54  C   UNL A   1      38.474  34.263  36.579  1.00  0.00     0.031 C 
ATOM     55  C   UNL A   1      38.042  30.626  30.731  1.00  0.00     0.029 A 
ATOM     56  C   UNL A   1      39.192  30.328  31.578  1.00  0.00     0.049 A 
ATOM     57  H   UNL A   1      39.645  31.147  33.438  1.00  0.00     0.167 HD
ATOM     58  C   UNL A   1      40.534  33.078  37.275  1.00  0.00     0.037 A 
ATOM     59  C   UNL A   1      40.172  29.451  31.285  1.00  0.00     0.037 A 
ATOM     60  C   UNL A   1      41.569  32.095  37.095  1.00  0.00     0.049 A 
ATOM     61  C   UNL A   1      41.287  29.246  32.275  1.00  0.00     0.074 A 
ATOM     62  C   UNL A   1      42.603  31.762  37.953  1.00  0.00     0.029 A 
ATOM     63  N   UNL A   1      41.704  31.287  35.974  1.00  0.00    -0.354 N 
ATOM     64  N   UNL A   1      41.478  29.817  33.440  1.00  0.00    -0.248 NA
ATOM     65  C   UNL A   1      42.321  28.266  31.912  1.00  0.00     0.031 C 
ATOM     66  C   UNL A   1      43.396  30.795  37.328  1.00  0.00     0.029 A 
ATOM     67  C   UNL A   1      42.821  30.477  36.107  1.00  0.00     0.049 A 
ATOM     68  H   UNL A   1      41.097  31.290  35.200  1.00  0.00     0.167 HD
ATOM     69  C   UNL A   1      42.631  29.245  33.962  1.00  0.00     0.074 A 
ATOM     70  C   UNL A   1      43.086  28.270  32.994  1.00  0.00     0.031 C 
ATOM     71  C   UNL A   1      43.256  29.504  35.137  1.00  0.00     0.037 A 
BRANCH  58  72
ATOM     72  C   UNL A   1      40.565  33.929  38.513  1.00  0.00     0.064 A 
ATOM     73  C   UNL A   1      41.299  35.126  38.567  1.00  0.00     0.173 A 
ATOM     74  C   UNL A   1      39.826  33.563  39.648  1.00  0.00     0.173 A 
ATOM     75  F   UNL A   1      42.033  35.516  37.514  1.00  0.00    -0.203 F 
ATOM     76  C   UNL A   1      41.316  35.905  39.721  1.00  0.00     0.198 A 
ATOM     77  C   UNL A   1      39.818  34.363  40.787  1.00  0.00     0.198 A 
ATOM     78  F   UNL A   1      39.103  32.433  39.650  1.00  0.00    -0.203 F 
ATOM     79  F   UNL A   1      42.068  37.013  39.767  1.00  0.00    -0.200 F 
ATOM     80  C   UNL A   1      40.570  35.527  40.827  1.00  0.00     0.200 A 
ATOM     81  F   UNL A   1      39.084  34.005  41.850  1.00  0.00    -0.200 F 
ATOM     82  F   UNL A   1      40.581  36.283  41.933  1.00  0.00    -0.200 F 
ENDBRANCH  58  72
BRANCH  59  83
ATOM     83  C   UNL A   1      40.131  28.685  30.012  1.00  0.00     0.064 A 
ATOM     84  C   UNL A   1      39.513  27.428  29.946  1.00  0.00     0.173 A 
ATOM     85  C   UNL A   1      40.716  29.184  28.839  1.00  0.00     0.173 A 
ATOM     86  F   UNL A   1      38.955  26.899  31.044  1.00  0.00    -0.203 F 
ATOM     87  C   UNL A   1      39.506  26.689  28.765  1.00  0.00     0.198 A 
ATOM     88  C   UNL A   1      40.681  28.459  27.650  1.00  0.00     0.198 A 
ATOM     89  F   UNL A   1      41.314  30.385  28.846  1.00  0.00    -0.203 F 
ATOM     90  F   UNL A   1      38.956  25.467  28.745  1.00  0.00    -0.200 F 
ATOM     91  C   UNL A   1      40.085  27.207  27.616  1.00  0.00     0.200 A 
ATOM     92  F   UNL A   1      41.226  28.971  26.539  1.00  0.00    -0.200 F 
ATOM     93  F   UNL A   1      40.076  26.497  26.480  1.00  0.00    -0.200 F 
ENDBRANCH  59  83
BRANCH  71  94
ATOM     94  C   UNL A   1      44.477  28.691  35.461  1.00  0.00     0.064 A 
ATOM     95  C   UNL A   1      45.758  29.078  35.041  1.00  0.00     0.173 A 
ATOM     96  C   UNL A   1      44.365  27.525  36.236  1.00  0.00     0.173 A 
ATOM     97  F   UNL A   1      45.917  30.176  34.286  1.00  0.00    -0.203 F 
ATOM     98  C   UNL A   1      46.876  28.311  35.356  1.00  0.00     0.198 A 
ATOM     99  C   UNL A   1      45.490  26.781  36.579  1.00  0.00     0.198 A 
ATOM    100  F   UNL A   1      43.165  27.115  36.672  1.00  0.00    -0.203 F 
ATOM    101  F   UNL A   1      48.083  28.670  34.895  1.00  0.00    -0.200 F 
ATOM    102  C   UNL A   1      46.743  27.169  36.132  1.00  0.00     0.200 A 
ATOM    103  F   UNL A   1      45.361  25.688  37.344  1.00  0.00    -0.200 F 
ATOM    104  F   UNL A   1      47.822  26.437  36.441  1.00  0.00    -0.200 F 
ENDBRANCH  71  94
ENDBRANCH  45  46
ENDBRANCH  37  40
ENDBRANCH  35  36
ENDBRANCH  34  35
ENDBRANCH  33  34
ENDBRANCH   1  33
TORSDOF 17
ENDMDL
MODEL 3
REMARK VINA RESULT:     -12.5      3.401      9.060
REMARK SMILES COc1ccc(-c2ccc(C(=O)NCc3ccc(C(=O)NCCCCNC(=O)c4ccc(-c5c6nc(c(-c7c(F)c(F)c(F)c(F)c7F)c7ccc([nH]7)c(-c7c(F)c(F)c(F)c(F)c7F)c7nc(c(-c8c(F)c(F)c(F)c(F)c8F)c8ccc5[nH]8)C=C7)C=C6)cc4)cc3)o2)c([N+](=O)[O-])c1
REMARK SMILES IDX 22 1 21 2 19 3 20 4 18 6 15 7 16 8 93 9 17 10 92 11 14 12
REMARK SMILES IDX 13 13 11 14 12 15 10 17 7 18 8 19 94 20 9 21 6 22 3 23 4 24
REMARK SMILES IDX 99 25 5 26 95 27 2 28 1 29 96 30 97 31 98 32 23 33 24 34
REMARK SMILES IDX 25 35 26 36 27 37 28 39 29 40 30 41 91 42 31 43 90 44 32 45
REMARK SMILES IDX 33 46 34 47 84 48 35 49 89 50 83 51 85 52 36 53 88 54 82 55
REMARK SMILES IDX 81 56 37 58 69 59 49 60 68 61 50 62 53 63 67 64 86 65 51 66
REMARK SMILES IDX 52 67 66 69 87 70 54 71 38 72 39 73 47 74 40 75 41 76 45 77
REMARK SMILES IDX 48 78 42 79 43 80 46 81 44 82 70 83 71 84 79 85 72 86 73 87
REMARK SMILES IDX 77 88 80 89 74 90 75 91 78 92 76 93 55 94 56 95 64 96 57 97
REMARK SMILES IDX 58 98 62 99 65 100 59 101 60 102 63 103 61 104
REMARK H PARENT 21 5 13 16 26 38 85 57 53 68
REMARK Flexibility Score: inf
ROOT
ATOM      1  C   UNL A   1      34.112  31.912  28.371  1.00  0.00     0.116 C 
ENDROOT
BRANCH   1   2
ATOM      2  N   UNL A   1      32.932  32.109  27.557  1.00  0.00    -0.352 N 
ATOM      3  C   UNL A   1      32.210  31.225  26.795  1.00  0.00     0.251 C 
ATOM      4  O   UNL A   1      31.212  31.645  26.210  1.00  0.00    -0.269 OA
ATOM      5  H   UNL A   1      32.590  33.032  27.547  1.00  0.00     0.163 HD
BRANCH   3   6
ATOM      6  C   UNL A   1      32.553  29.778  26.707  1.00  0.00     0.039 A 
ATOM      7  C   UNL A   1      33.285  27.068  26.359  1.00  0.00    -0.029 A 
ATOM      8  C   UNL A   1      34.082  28.101  25.846  1.00  0.00     0.006 A 
ATOM      9  C   UNL A   1      32.139  27.412  27.080  1.00  0.00     0.006 A 
ATOM     10  C   UNL A   1      33.724  29.441  26.025  1.00  0.00     0.014 A 
ATOM     11  C   UNL A   1      31.795  28.751  27.272  1.00  0.00     0.014 A 
BRANCH   7  12
ATOM     12  C   UNL A   1      33.626  25.614  26.163  1.00  0.00     0.152 C 
BRANCH  12  13
ATOM     13  N   UNL A   1      32.731  24.758  26.899  1.00  0.00    -0.345 N 
ATOM     14  C   UNL A   1      31.585  24.099  26.532  1.00  0.00     0.287 C 
ATOM     15  O   UNL A   1      31.133  23.319  27.375  1.00  0.00    -0.266 OA
ATOM     16  H   UNL A   1      32.990  24.620  27.840  1.00  0.00     0.164 HD
BRANCH  14  17
ATOM     17  C   UNL A   1      30.949  24.323  25.246  1.00  0.00     0.192 A 
ATOM     18  C   UNL A   1      29.838  25.591  23.811  1.00  0.00     0.142 A 
ATOM     19  C   UNL A   1      30.092  24.411  23.156  1.00  0.00     0.052 A 
ATOM     20  O   UNL A   1      30.370  25.559  25.060  1.00  0.00    -0.451 OA
ATOM     21  C   UNL A   1      30.795  23.599  24.075  1.00  0.00     0.057 A 
BRANCH  18  22
ATOM     22  C   UNL A   1      29.166  26.817  23.432  1.00  0.00     0.095 A 
ATOM     23  C   UNL A   1      27.820  29.270  23.023  1.00  0.00     0.125 A 
ATOM     24  C   UNL A   1      27.159  28.182  23.594  1.00  0.00     0.047 A 
ATOM     25  C   UNL A   1      29.148  29.134  22.628  1.00  0.00     0.132 A 
ATOM     26  C   UNL A   1      27.817  26.965  23.784  1.00  0.00     0.023 A 
ATOM     27  C   UNL A   1      29.811  27.909  22.830  1.00  0.00     0.284 A 
BRANCH  23  28
ATOM     28  O   UNL A   1      27.079  30.415  22.945  1.00  0.00    -0.497 OA
ATOM     29  C   UNL A   1      27.797  31.642  22.995  1.00  0.00     0.278 C 
ENDBRANCH  23  28
BRANCH  27  30
ATOM     30  N   UNL A   1      31.204  27.824  22.388  1.00  0.00     0.063 N 
ATOM     31  O   UNL A   1      32.064  28.445  23.025  1.00  0.00    -0.258 OA
ATOM     32  O   UNL A   1      31.441  27.097  21.412  1.00  0.00    -0.258 OA
ENDBRANCH  27  30
ENDBRANCH  18  22
ENDBRANCH  14  17
ENDBRANCH  12  13
ENDBRANCH   7  12
ENDBRANCH   3   6
ENDBRANCH   1   2
BRANCH   1  33
ATOM     33  C   UNL A   1      34.498  33.218  29.072  1.00  0.00     0.023 C 
BRANCH  33  34
ATOM     34  C   UNL A   1      33.597  34.400  28.727  1.00  0.00     0.023 C 
BRANCH  34  35
ATOM     35  C   UNL A   1      33.770  35.607  29.638  1.00  0.00     0.116 C 
BRANCH  35  36
ATOM     36  N   UNL A   1      32.687  35.761  30.598  1.00  0.00    -0.352 N 
ATOM     37  C   UNL A   1      32.661  35.369  31.913  1.00  0.00     0.251 C 
ATOM     38  H   UNL A   1      31.872  36.202  30.263  1.00  0.00     0.163 HD
ATOM     39  O   UNL A   1      31.631  35.456  32.575  1.00  0.00    -0.269 OA
BRANCH  37  40
ATOM     40  C   UNL A   1      33.886  34.800  32.506  1.00  0.00     0.039 A 
ATOM     41  C   UNL A   1      33.866  33.477  32.950  1.00  0.00     0.014 A 
ATOM     42  C   UNL A   1      35.061  35.553  32.558  1.00  0.00     0.014 A 
ATOM     43  C   UNL A   1      35.050  32.887  33.390  1.00  0.00     0.010 A 
ATOM     44  C   UNL A   1      36.254  34.939  32.915  1.00  0.00     0.010 A 
ATOM     45  C   UNL A   1      36.259  33.601  33.340  1.00  0.00    -0.014 A 
BRANCH  45  46
ATOM     46  C   UNL A   1      37.540  32.965  33.732  1.00  0.00     0.031 A 
ATOM     47  C   UNL A   1      38.196  31.968  32.819  1.00  0.00     0.074 A 
ATOM     48  C   UNL A   1      38.080  33.243  34.934  1.00  0.00     0.049 A 
ATOM     49  N   UNL A   1      39.288  31.271  33.001  1.00  0.00    -0.248 NA
ATOM     50  C   UNL A   1      37.518  31.697  31.540  1.00  0.00     0.031 C 
ATOM     51  C   UNL A   1      37.509  34.152  35.930  1.00  0.00     0.029 A 
ATOM     52  N   UNL A   1      39.229  32.782  35.528  1.00  0.00    -0.354 N 
ATOM     53  C   UNL A   1      39.420  30.475  31.871  1.00  0.00     0.074 A 
ATOM     54  C   UNL A   1      38.266  30.727  31.037  1.00  0.00     0.031 C 
ATOM     55  C   UNL A   1      38.323  34.205  36.996  1.00  0.00     0.029 A 
ATOM     56  C   UNL A   1      39.450  33.304  36.779  1.00  0.00     0.049 A 
ATOM     57  H   UNL A   1      39.837  32.138  35.097  1.00  0.00     0.167 HD
ATOM     58  C   UNL A   1      40.428  29.632  31.546  1.00  0.00     0.037 A 
ATOM     59  C   UNL A   1      40.447  33.074  37.655  1.00  0.00     0.037 A 
ATOM     60  C   UNL A   1      41.583  29.400  32.372  1.00  0.00     0.049 A 
ATOM     61  C   UNL A   1      41.549  32.122  37.273  1.00  0.00     0.074 A 
ATOM     62  C   UNL A   1      42.688  28.610  32.110  1.00  0.00     0.029 A 
ATOM     63  N   UNL A   1      41.779  29.955  33.629  1.00  0.00    -0.354 N 
ATOM     64  N   UNL A   1      41.704  31.433  36.168  1.00  0.00    -0.248 NA
ATOM     65  C   UNL A   1      42.620  31.921  38.259  1.00  0.00     0.031 C 
ATOM     66  C   UNL A   1      43.525  28.641  33.229  1.00  0.00     0.029 A 
ATOM     67  C   UNL A   1      42.974  29.502  34.165  1.00  0.00     0.049 A 
ATOM     68  H   UNL A   1      41.161  30.578  34.074  1.00  0.00     0.167 HD
ATOM     69  C   UNL A   1      42.901  30.745  36.312  1.00  0.00     0.074 A 
ATOM     70  C   UNL A   1      43.440  31.113  37.604  1.00  0.00     0.031 C 
ATOM     71  C   UNL A   1      43.501  29.885  35.451  1.00  0.00     0.037 A 
BRANCH  58  72
ATOM     72  C   UNL A   1      40.325  28.898  30.239  1.00  0.00     0.064 A 
ATOM     73  C   UNL A   1      39.639  27.678  30.131  1.00  0.00     0.173 A 
ATOM     74  C   UNL A   1      40.891  29.436  29.073  1.00  0.00     0.173 A 
ATOM     75  F   UNL A   1      39.090  27.113  31.217  1.00  0.00    -0.203 F 
ATOM     76  C   UNL A   1      39.550  27.010  28.912  1.00  0.00     0.198 A 
ATOM     77  C   UNL A   1      40.771  28.782  27.850  1.00  0.00     0.198 A 
ATOM     78  F   UNL A   1      41.554  30.601  29.118  1.00  0.00    -0.203 F 
ATOM     79  F   UNL A   1      38.938  25.820  28.846  1.00  0.00    -0.200 F 
ATOM     80  C   UNL A   1      40.109  27.566  27.772  1.00  0.00     0.200 A 
ATOM     81  F   UNL A   1      41.298  29.328  26.745  1.00  0.00    -0.200 F 
ATOM     82  F   UNL A   1      40.016  26.926  26.598  1.00  0.00    -0.200 F 
ENDBRANCH  58  72
BRANCH  59  83
ATOM     83  C   UNL A   1      40.464  33.774  38.966  1.00  0.00     0.064 A 
ATOM     84  C   UNL A   1      39.707  33.301  40.047  1.00  0.00     0.173 A 
ATOM     85  C   UNL A   1      41.225  34.936  39.165  1.00  0.00     0.173 A 
ATOM     86  F   UNL A   1      38.948  32.204  39.903  1.00  0.00    -0.203 F 
ATOM     87  C   UNL A   1      39.689  33.975  41.266  1.00  0.00     0.198 A 
ATOM     88  C   UNL A   1      41.232  35.592  40.394  1.00  0.00     0.198 A 
ATOM     89  F   UNL A   1      41.972  35.428  38.165  1.00  0.00    -0.203 F 
ATOM     90  F   UNL A   1      38.915  33.530  42.264  1.00  0.00    -0.200 F 
ATOM     91  C   UNL A   1      40.456  35.117  41.440  1.00  0.00     0.200 A 
ATOM     92  F   UNL A   1      41.988  36.685  40.562  1.00  0.00    -0.200 F 
ATOM     93  F   UNL A   1      40.441  35.765  42.613  1.00  0.00    -0.200 F 
ENDBRANCH  59  83
BRANCH  71  94
ATOM     94  C   UNL A   1      44.829  29.316  35.860  1.00  0.00     0.064 A 
ATOM     95  C   UNL A   1      44.933  28.100  36.552  1.00  0.00     0.173 A 
ATOM     96  C   UNL A   1      46.019  29.982  35.521  1.00  0.00     0.173 A 
ATOM     97  F   UNL A   1      43.827  27.432  36.912  1.00  0.00    -0.203 F 
ATOM     98  C   UNL A   1      46.176  27.589  36.918  1.00  0.00     0.198 A 
ATOM     99  C   UNL A   1      47.260  29.449  35.857  1.00  0.00     0.198 A 
ATOM    100  F   UNL A   1      45.977  31.143  34.852  1.00  0.00    -0.203 F 
ATOM    101  F   UNL A   1      46.247  26.454  37.628  1.00  0.00    -0.200 F 
ATOM    102  C   UNL A   1      47.337  28.259  36.562  1.00  0.00     0.200 A 
ATOM    103  F   UNL A   1      48.381  30.088  35.498  1.00  0.00    -0.200 F 
ATOM    104  F   UNL A   1      48.532  27.760  36.909  1.00  0.00    -0.200 F 
ENDBRANCH  71  94
ENDBRANCH  45  46
ENDBRANCH  37  40
ENDBRANCH  35  36
ENDBRANCH  34  35
ENDBRANCH  33  34
ENDBRANCH   1  33
TORSDOF 17
ENDMDL
