MODEL 1
REMARK VINA RESULT:     -14.6      0.000      0.000
REMARK SMILES Cc1nc2ccccc2c2c1C(=O)N(c1cccc(C(=O)NCCCCNC(=O)c3ccc(-c4c5nc(c(-c6c(F)c(F)c(F)c(F)c6F)c6ccc([nH]6)c(-c6c(F)c(F)c(F)c(F)c6F)c6nc(c(-c7c(F)c(F)c(F)c(F)c7F)c7ccc4[nH]7)C=C6)C=C5)cc3)c1)C2=O
REMARK SMILES IDX 25 1 24 2 23 3 22 4 20 5 21 6 19 8 15 9 16 10 93 11 17 12
REMARK SMILES IDX 18 13 14 14 1 15 2 16 3 17 11 18 4 19 10 20 12 21 5 22 9 23
REMARK SMILES IDX 94 24 13 25 6 26 8 27 95 28 7 29 26 30 27 31 28 32 29 34
REMARK SMILES IDX 30 35 31 36 92 37 32 38 91 39 33 40 34 41 35 42 85 43 36 44
REMARK SMILES IDX 90 45 84 46 86 47 37 48 89 49 83 50 82 51 38 53 70 54 50 55
REMARK SMILES IDX 69 56 51 57 54 58 68 59 87 60 52 61 53 62 67 64 88 65 55 66
REMARK SMILES IDX 39 67 40 68 48 69 41 70 42 71 46 72 49 73 43 74 44 75 47 76
REMARK SMILES IDX 45 77 71 78 72 79 80 80 73 81 74 82 78 83 81 84 75 85 76 86
REMARK SMILES IDX 79 87 77 88 56 89 57 90 65 91 58 92 59 93 63 94 66 95 60 96
REMARK SMILES IDX 61 97 64 98 62 99
REMARK H PARENT 22 7 27 33 86 52 54 63
REMARK Flexibility Score: inf
ROOT
ATOM      1  C   UNL A   1      32.344  29.603  25.273  1.00  0.00     0.023 C 
ENDROOT
BRANCH   1   2
ATOM      2  C   UNL A   1      31.038  29.217  24.585  1.00  0.00     0.023 C 
BRANCH   2   3
ATOM      3  C   UNL A   1      31.150  28.640  23.178  1.00  0.00     0.116 C 
BRANCH   3   4
ATOM      4  N   UNL A   1      32.460  28.781  22.587  1.00  0.00    -0.352 N 
ATOM      5  C   UNL A   1      33.399  27.862  22.212  1.00  0.00     0.251 C 
ATOM      6  O   UNL A   1      34.362  28.307  21.583  1.00  0.00    -0.269 OA
ATOM      7  H   UNL A   1      32.727  29.715  22.423  1.00  0.00     0.163 HD
BRANCH   5   8
ATOM      8  C   UNL A   1      33.352  26.399  22.528  1.00  0.00     0.041 A 
ATOM      9  C   UNL A   1      33.920  24.388  23.787  1.00  0.00     0.053 A 
ATOM     10  C   UNL A   1      33.331  23.619  22.761  1.00  0.00     0.027 A 
ATOM     11  C   UNL A   1      33.802  25.782  23.713  1.00  0.00     0.040 A 
ATOM     12  C   UNL A   1      32.887  24.204  21.584  1.00  0.00     0.003 A 
ATOM     13  C   UNL A   1      32.939  25.583  21.457  1.00  0.00     0.014 A 
BRANCH   9  14
ATOM     14  N   UNL A   1      34.943  23.768  24.588  1.00  0.00    -0.242 N 
ATOM     15  C   UNL A   1      38.387  20.625  25.065  1.00  0.00     0.067 C 
ATOM     16  C   UNL A   1      36.900  20.717  24.924  1.00  0.00     0.052 A 
ATOM     17  N   UNL A   1      36.224  19.529  24.947  1.00  0.00    -0.252 NA
ATOM     18  C   UNL A   1      36.231  21.904  25.127  1.00  0.00     0.075 A 
ATOM     19  C   UNL A   1      34.880  19.565  24.842  1.00  0.00     0.071 A 
ATOM     20  C   UNL A   1      34.950  21.793  25.587  1.00  0.00     0.064 A 
ATOM     21  C   UNL A   1      36.097  23.098  24.195  1.00  0.00     0.268 C 
ATOM     22  C   UNL A   1      34.164  18.463  24.390  1.00  0.00     0.029 A 
ATOM     23  C   UNL A   1      34.190  20.761  25.037  1.00  0.00     0.014 A 
ATOM     24  C   UNL A   1      34.519  23.159  25.723  1.00  0.00     0.266 C 
ATOM     25  O   UNL A   1      36.789  23.250  23.203  1.00  0.00    -0.268 OA
ATOM     26  C   UNL A   1      32.874  18.605  23.866  1.00  0.00     0.002 A 
ATOM     27  C   UNL A   1      32.895  20.916  24.485  1.00  0.00     0.011 A 
ATOM     28  O   UNL A   1      34.038  23.596  26.753  1.00  0.00    -0.268 OA
ATOM     29  C   UNL A   1      32.273  19.856  23.839  1.00  0.00     0.001 A 
ENDBRANCH   9  14
ENDBRANCH   5   8
ENDBRANCH   3   4
ENDBRANCH   2   3
ENDBRANCH   1   2
BRANCH   1  30
ATOM     30  C   UNL A   1      32.217  30.035  26.727  1.00  0.00     0.116 C 
BRANCH  30  31
ATOM     31  N   UNL A   1      32.197  31.482  26.901  1.00  0.00    -0.352 N 
ATOM     32  C   UNL A   1      33.142  32.336  27.421  1.00  0.00     0.251 C 
ATOM     33  H   UNL A   1      31.372  31.921  26.595  1.00  0.00     0.163 HD
ATOM     34  O   UNL A   1      32.875  33.521  27.589  1.00  0.00    -0.269 OA
BRANCH  32  35
ATOM     35  C   UNL A   1      34.462  31.816  27.833  1.00  0.00     0.039 A 
ATOM     36  C   UNL A   1      34.644  30.461  28.103  1.00  0.00     0.014 A 
ATOM     37  C   UNL A   1      35.525  32.710  27.992  1.00  0.00     0.014 A 
ATOM     38  C   UNL A   1      35.798  30.041  28.751  1.00  0.00     0.010 A 
ATOM     39  C   UNL A   1      36.730  32.262  28.540  1.00  0.00     0.010 A 
ATOM     40  C   UNL A   1      36.851  30.939  28.991  1.00  0.00    -0.014 A 
BRANCH  40  41
ATOM     41  C   UNL A   1      38.048  30.478  29.742  1.00  0.00     0.031 A 
ATOM     42  C   UNL A   1      38.261  30.890  31.176  1.00  0.00     0.074 A 
ATOM     43  C   UNL A   1      38.909  29.626  29.154  1.00  0.00     0.049 A 
ATOM     44  N   UNL A   1      39.246  30.588  31.985  1.00  0.00    -0.248 NA
ATOM     45  C   UNL A   1      37.236  31.756  31.784  1.00  0.00     0.031 C 
ATOM     46  C   UNL A   1      38.795  29.132  27.781  1.00  0.00     0.029 A 
ATOM     47  N   UNL A   1      40.026  28.997  29.642  1.00  0.00    -0.354 N 
ATOM     48  C   UNL A   1      38.974  31.243  33.180  1.00  0.00     0.074 A 
ATOM     49  C   UNL A   1      37.744  31.978  32.988  1.00  0.00     0.031 C 
ATOM     50  C   UNL A   1      39.762  28.231  27.557  1.00  0.00     0.029 A 
ATOM     51  C   UNL A   1      40.607  28.139  28.742  1.00  0.00     0.049 A 
ATOM     52  H   UNL A   1      40.377  29.148  30.549  1.00  0.00     0.167 HD
ATOM     53  C   UNL A   1      39.682  31.221  34.334  1.00  0.00     0.037 A 
ATOM     54  C   UNL A   1      41.708  27.372  28.851  1.00  0.00     0.037 A 
ATOM     55  C   UNL A   1      40.889  30.461  34.534  1.00  0.00     0.049 A 
ATOM     56  C   UNL A   1      42.494  27.398  30.130  1.00  0.00     0.074 A 
ATOM     57  C   UNL A   1      41.674  30.373  35.671  1.00  0.00     0.029 A 
ATOM     58  N   UNL A   1      41.479  29.651  33.576  1.00  0.00    -0.354 N 
ATOM     59  N   UNL A   1      42.242  28.044  31.241  1.00  0.00    -0.248 NA
ATOM     60  C   UNL A   1      43.726  26.599  30.164  1.00  0.00     0.031 C 
ATOM     61  C   UNL A   1      42.759  29.536  35.389  1.00  0.00     0.029 A 
ATOM     62  C   UNL A   1      42.626  29.068  34.092  1.00  0.00     0.049 A 
ATOM     63  H   UNL A   1      41.134  29.509  32.665  1.00  0.00     0.167 HD
ATOM     64  C   UNL A   1      43.274  27.725  32.110  1.00  0.00     0.074 A 
ATOM     65  C   UNL A   1      44.147  26.810  31.404  1.00  0.00     0.031 C 
ATOM     66  C   UNL A   1      43.483  28.159  33.376  1.00  0.00     0.037 A 
BRANCH  53  67
ATOM     67  C   UNL A   1      39.181  32.049  35.482  1.00  0.00     0.064 A 
ATOM     68  C   UNL A   1      38.387  31.496  36.497  1.00  0.00     0.173 A 
ATOM     69  C   UNL A   1      39.564  33.394  35.609  1.00  0.00     0.173 A 
ATOM     70  F   UNL A   1      37.983  30.219  36.418  1.00  0.00    -0.203 F 
ATOM     71  C   UNL A   1      37.987  32.261  37.591  1.00  0.00     0.198 A 
ATOM     72  C   UNL A   1      39.184  34.148  36.715  1.00  0.00     0.198 A 
ATOM     73  F   UNL A   1      40.330  33.969  34.669  1.00  0.00    -0.203 F 
ATOM     74  F   UNL A   1      37.205  31.719  38.534  1.00  0.00    -0.200 F 
ATOM     75  C   UNL A   1      38.394  33.582  37.704  1.00  0.00     0.200 A 
ATOM     76  F   UNL A   1      39.589  35.420  36.829  1.00  0.00    -0.200 F 
ATOM     77  F   UNL A   1      38.022  34.311  38.766  1.00  0.00    -0.200 F 
ENDBRANCH  53  67
BRANCH  54  78
ATOM     78  C   UNL A   1      42.121  26.519  27.708  1.00  0.00     0.064 A 
ATOM     79  C   UNL A   1      43.101  26.951  26.806  1.00  0.00     0.173 A 
ATOM     80  C   UNL A   1      41.576  25.241  27.520  1.00  0.00     0.173 A 
ATOM     81  F   UNL A   1      43.636  28.175  26.934  1.00  0.00    -0.203 F 
ATOM     82  C   UNL A   1      43.521  26.138  25.757  1.00  0.00     0.198 A 
ATOM     83  C   UNL A   1      42.017  24.415  26.488  1.00  0.00     0.198 A 
ATOM     84  F   UNL A   1      40.637  24.780  28.359  1.00  0.00    -0.203 F 
ATOM     85  F   UNL A   1      44.441  26.584  24.891  1.00  0.00    -0.200 F 
ATOM     86  C   UNL A   1      42.986  24.867  25.605  1.00  0.00     0.200 A 
ATOM     87  F   UNL A   1      41.510  23.183  26.356  1.00  0.00    -0.200 F 
ATOM     88  F   UNL A   1      43.404  24.077  24.607  1.00  0.00    -0.200 F 
ENDBRANCH  54  78
BRANCH  66  89
ATOM     89  C   UNL A   1      44.693  27.637  34.091  1.00  0.00     0.064 A 
ATOM     90  C   UNL A   1      45.917  28.318  34.046  1.00  0.00     0.173 A 
ATOM     91  C   UNL A   1      44.612  26.473  34.870  1.00  0.00     0.173 A 
ATOM     92  F   UNL A   1      46.046  29.427  33.303  1.00  0.00    -0.203 F 
ATOM     93  C   UNL A   1      47.025  27.843  34.744  1.00  0.00     0.198 A 
ATOM     94  C   UNL A   1      45.713  26.016  35.586  1.00  0.00     0.198 A 
ATOM     95  F   UNL A   1      43.460  25.791  34.949  1.00  0.00    -0.203 F 
ATOM     96  F   UNL A   1      48.195  28.489  34.659  1.00  0.00    -0.200 F 
ATOM     97  C   UNL A   1      46.919  26.697  35.519  1.00  0.00     0.200 A 
ATOM     98  F   UNL A   1      45.608  24.916  36.345  1.00  0.00    -0.200 F 
ATOM     99  F   UNL A   1      47.984  26.247  36.198  1.00  0.00    -0.200 F 
ENDBRANCH  66  89
ENDBRANCH  40  41
ENDBRANCH  32  35
ENDBRANCH  30  31
ENDBRANCH   1  30
TORSDOF 12
ENDMDL
MODEL 2
REMARK VINA RESULT:     -14.6      1.813      3.284
REMARK SMILES Cc1nc2ccccc2c2c1C(=O)N(c1cccc(C(=O)NCCCCNC(=O)c3ccc(-c4c5nc(c(-c6c(F)c(F)c(F)c(F)c6F)c6ccc([nH]6)c(-c6c(F)c(F)c(F)c(F)c6F)c6nc(c(-c7c(F)c(F)c(F)c(F)c7F)c7ccc4[nH]7)C=C6)C=C5)cc3)c1)C2=O
REMARK SMILES IDX 25 1 24 2 23 3 22 4 20 5 21 6 19 8 15 9 16 10 93 11 17 12
REMARK SMILES IDX 18 13 14 14 1 15 2 16 3 17 11 18 4 19 10 20 12 21 5 22 9 23
REMARK SMILES IDX 94 24 13 25 6 26 8 27 95 28 7 29 26 30 27 31 28 32 29 34
REMARK SMILES IDX 30 35 31 36 92 37 32 38 91 39 33 40 34 41 35 42 85 43 36 44
REMARK SMILES IDX 90 45 84 46 86 47 37 48 89 49 83 50 82 51 38 53 70 54 50 55
REMARK SMILES IDX 69 56 51 57 54 58 68 59 87 60 52 61 53 62 67 64 88 65 55 66
REMARK SMILES IDX 39 67 40 68 48 69 41 70 42 71 46 72 49 73 43 74 44 75 47 76
REMARK SMILES IDX 45 77 71 78 72 79 80 80 73 81 74 82 78 83 81 84 75 85 76 86
REMARK SMILES IDX 79 87 77 88 56 89 57 90 65 91 58 92 59 93 63 94 66 95 60 96
REMARK SMILES IDX 61 97 64 98 62 99
REMARK H PARENT 22 7 27 33 86 52 54 63
REMARK Flexibility Score: inf
ROOT
ATOM      1  C   UNL A   1      31.692  31.958  26.625  1.00  0.00     0.023 C 
ENDROOT
BRANCH   1   2
ATOM      2  C   UNL A   1      31.878  30.450  26.490  1.00  0.00     0.023 C 
BRANCH   2   3
ATOM      3  C   UNL A   1      33.237  29.968  25.996  1.00  0.00     0.116 C 
BRANCH   3   4
ATOM      4  N   UNL A   1      33.249  29.563  24.610  1.00  0.00    -0.352 N 
ATOM      5  C   UNL A   1      32.775  28.448  23.978  1.00  0.00     0.251 C 
ATOM      6  O   UNL A   1      32.803  28.480  22.744  1.00  0.00    -0.269 OA
ATOM      7  H   UNL A   1      33.678  30.212  24.007  1.00  0.00     0.163 HD
BRANCH   5   8
ATOM      8  C   UNL A   1      32.267  27.216  24.660  1.00  0.00     0.041 A 
ATOM      9  C   UNL A   1      32.080  24.814  25.038  1.00  0.00     0.053 A 
ATOM     10  C   UNL A   1      30.986  25.066  25.893  1.00  0.00     0.027 A 
ATOM     11  C   UNL A   1      32.789  25.912  24.536  1.00  0.00     0.040 A 
ATOM     12  C   UNL A   1      30.452  26.340  26.025  1.00  0.00     0.003 A 
ATOM     13  C   UNL A   1      31.068  27.398  25.377  1.00  0.00     0.014 A 
BRANCH   9  14
ATOM     14  N   UNL A   1      32.148  23.527  24.396  1.00  0.00    -0.242 N 
ATOM     15  C   UNL A   1      33.056  18.933  24.584  1.00  0.00     0.067 C 
ATOM     16  C   UNL A   1      33.742  20.262  24.626  1.00  0.00     0.052 A 
ATOM     17  N   UNL A   1      35.104  20.227  24.740  1.00  0.00    -0.252 NA
ATOM     18  C   UNL A   1      33.106  21.412  24.211  1.00  0.00     0.075 A 
ATOM     19  C   UNL A   1      35.766  21.401  24.763  1.00  0.00     0.071 A 
ATOM     20  C   UNL A   1      33.914  22.388  23.702  1.00  0.00     0.064 A 
ATOM     21  C   UNL A   1      32.075  22.252  24.948  1.00  0.00     0.268 C 
ATOM     22  C   UNL A   1      37.029  21.505  25.331  1.00  0.00     0.029 A 
ATOM     23  C   UNL A   1      35.133  22.575  24.354  1.00  0.00     0.014 A 
ATOM     24  C   UNL A   1      32.996  23.435  23.341  1.00  0.00     0.266 C 
ATOM     25  O   UNL A   1      31.488  21.865  25.944  1.00  0.00    -0.268 OA
ATOM     26  C   UNL A   1      37.533  22.740  25.754  1.00  0.00     0.002 A 
ATOM     27  C   UNL A   1      35.625  23.825  24.803  1.00  0.00     0.011 A 
ATOM     28  O   UNL A   1      32.977  23.938  22.232  1.00  0.00    -0.268 OA
ATOM     29  C   UNL A   1      36.785  23.893  25.563  1.00  0.00     0.001 A 
ENDBRANCH   9  14
ENDBRANCH   5   8
ENDBRANCH   3   4
ENDBRANCH   2   3
ENDBRANCH   1   2
BRANCH   1  30
ATOM     30  C   UNL A   1      32.792  32.690  27.381  1.00  0.00     0.116 C 
BRANCH  30  31
ATOM     31  N   UNL A   1      32.453  34.070  27.702  1.00  0.00    -0.352 N 
ATOM     32  C   UNL A   1      33.011  34.944  28.606  1.00  0.00     0.251 C 
ATOM     33  H   UNL A   1      31.700  34.439  27.186  1.00  0.00     0.163 HD
ATOM     34  O   UNL A   1      32.491  36.037  28.807  1.00  0.00    -0.269 OA
BRANCH  32  35
ATOM     35  C   UNL A   1      34.205  34.546  29.380  1.00  0.00     0.039 A 
ATOM     36  C   UNL A   1      35.483  34.694  28.848  1.00  0.00     0.014 A 
ATOM     37  C   UNL A   1      34.034  33.974  30.644  1.00  0.00     0.014 A 
ATOM     38  C   UNL A   1      36.557  34.065  29.462  1.00  0.00     0.010 A 
ATOM     39  C   UNL A   1      35.137  33.439  31.316  1.00  0.00     0.010 A 
ATOM     40  C   UNL A   1      36.396  33.416  30.698  1.00  0.00    -0.014 A 
BRANCH  40  41
ATOM     41  C   UNL A   1      37.547  32.696  31.302  1.00  0.00     0.031 A 
ATOM     42  C   UNL A   1      38.004  33.016  32.702  1.00  0.00     0.074 A 
ATOM     43  C   UNL A   1      38.137  31.699  30.615  1.00  0.00     0.049 A 
ATOM     44  N   UNL A   1      38.990  32.494  33.388  1.00  0.00    -0.248 NA
ATOM     45  C   UNL A   1      37.260  34.059  33.428  1.00  0.00     0.031 C 
ATOM     46  C   UNL A   1      37.766  31.276  29.263  1.00  0.00     0.029 A 
ATOM     47  N   UNL A   1      39.146  30.839  30.967  1.00  0.00    -0.354 N 
ATOM     48  C   UNL A   1      39.001  33.159  34.609  1.00  0.00     0.074 A 
ATOM     49  C   UNL A   1      37.938  34.139  34.564  1.00  0.00     0.031 C 
ATOM     50  C   UNL A   1      38.491  30.200  28.926  1.00  0.00     0.029 A 
ATOM     51  C   UNL A   1      39.428  29.903  30.003  1.00  0.00     0.049 A 
ATOM     52  H   UNL A   1      39.622  30.889  31.827  1.00  0.00     0.167 HD
ATOM     53  C   UNL A   1      39.815  32.960  35.672  1.00  0.00     0.037 A 
ATOM     54  C   UNL A   1      40.348  28.921  29.980  1.00  0.00     0.037 A 
ATOM     55  C   UNL A   1      40.851  31.960  35.726  1.00  0.00     0.049 A 
ATOM     56  C   UNL A   1      41.263  28.749  31.158  1.00  0.00     0.074 A 
ATOM     57  C   UNL A   1      41.725  31.680  36.763  1.00  0.00     0.029 A 
ATOM     58  N   UNL A   1      41.144  31.071  34.704  1.00  0.00    -0.354 N 
ATOM     59  N   UNL A   1      41.281  29.403  32.292  1.00  0.00    -0.248 NA
ATOM     60  C   UNL A   1      42.296  27.711  31.045  1.00  0.00     0.031 C 
ATOM     61  C   UNL A   1      42.571  30.644  36.354  1.00  0.00     0.029 A 
ATOM     62  C   UNL A   1      42.195  30.249  35.081  1.00  0.00     0.049 A 
ATOM     63  H   UNL A   1      40.676  31.028  33.840  1.00  0.00     0.167 HD
ATOM     64  C   UNL A   1      42.316  28.854  33.033  1.00  0.00     0.074 A 
ATOM     65  C   UNL A   1      42.891  27.796  32.227  1.00  0.00     0.031 C 
ATOM     66  C   UNL A   1      42.754  29.201  34.267  1.00  0.00     0.037 A 
BRANCH  53  67
ATOM     67  C   UNL A   1      39.634  33.843  36.872  1.00  0.00     0.064 A 
ATOM     68  C   UNL A   1      40.196  35.127  36.932  1.00  0.00     0.173 A 
ATOM     69  C   UNL A   1      38.824  33.431  37.942  1.00  0.00     0.173 A 
ATOM     70  F   UNL A   1      40.988  35.563  35.942  1.00  0.00    -0.203 F 
ATOM     71  C   UNL A   1      39.963  35.960  38.024  1.00  0.00     0.198 A 
ATOM     72  C   UNL A   1      38.572  34.277  39.018  1.00  0.00     0.198 A 
ATOM     73  F   UNL A   1      38.256  32.215  37.930  1.00  0.00    -0.203 F 
ATOM     74  F   UNL A   1      40.534  37.172  38.073  1.00  0.00    -0.200 F 
ATOM     75  C   UNL A   1      39.143  35.539  39.060  1.00  0.00     0.200 A 
ATOM     76  F   UNL A   1      37.769  33.872  40.013  1.00  0.00    -0.200 F 
ATOM     77  F   UNL A   1      38.906  36.350  40.101  1.00  0.00    -0.200 F 
ENDBRANCH  53  67
BRANCH  54  78
ATOM     78  C   UNL A   1      40.440  28.032  28.795  1.00  0.00     0.064 A 
ATOM     79  C   UNL A   1      39.759  26.809  28.758  1.00  0.00     0.173 A 
ATOM     80  C   UNL A   1      41.175  28.406  27.660  1.00  0.00     0.173 A 
ATOM     81  F   UNL A   1      39.060  26.400  29.828  1.00  0.00    -0.203 F 
ATOM     82  C   UNL A   1      39.810  25.992  27.632  1.00  0.00     0.198 A 
ATOM     83  C   UNL A   1      41.202  27.602  26.523  1.00  0.00     0.198 A 
ATOM     84  F   UNL A   1      41.842  29.570  27.644  1.00  0.00    -0.203 F 
ATOM     85  F   UNL A   1      39.171  24.814  27.631  1.00  0.00    -0.200 F 
ATOM     86  C   UNL A   1      40.522  26.393  26.512  1.00  0.00     0.200 A 
ATOM     87  F   UNL A   1      41.877  28.002  25.438  1.00  0.00    -0.200 F 
ATOM     88  F   UNL A   1      40.555  25.616  25.422  1.00  0.00    -0.200 F 
ENDBRANCH  54  78
BRANCH  66  89
ATOM     89  C   UNL A   1      43.902  28.420  34.834  1.00  0.00     0.064 A 
ATOM     90  C   UNL A   1      45.226  28.853  34.680  1.00  0.00     0.173 A 
ATOM     91  C   UNL A   1      43.670  27.255  35.581  1.00  0.00     0.173 A 
ATOM     92  F   UNL A   1      45.498  29.952  33.961  1.00  0.00    -0.203 F 
ATOM     93  C   UNL A   1      46.281  28.138  35.242  1.00  0.00     0.198 A 
ATOM     94  C   UNL A   1      44.724  26.558  36.163  1.00  0.00     0.198 A 
ATOM     95  F   UNL A   1      42.419  26.805  35.761  1.00  0.00    -0.203 F 
ATOM     96  F   UNL A   1      47.542  28.549  35.053  1.00  0.00    -0.200 F 
ATOM     97  C   UNL A   1      46.028  26.997  35.989  1.00  0.00     0.200 A 
ATOM     98  F   UNL A   1      44.478  25.463  36.894  1.00  0.00    -0.200 F 
ATOM     99  F   UNL A   1      47.044  26.316  36.537  1.00  0.00    -0.200 F 
ENDBRANCH  66  89
ENDBRANCH  40  41
ENDBRANCH  32  35
ENDBRANCH  30  31
ENDBRANCH   1  30
TORSDOF 12
ENDMDL
MODEL 3
REMARK VINA RESULT:     -14.6      1.323      2.153
REMARK SMILES Cc1nc2ccccc2c2c1C(=O)N(c1cccc(C(=O)NCCCCNC(=O)c3ccc(-c4c5nc(c(-c6c(F)c(F)c(F)c(F)c6F)c6ccc([nH]6)c(-c6c(F)c(F)c(F)c(F)c6F)c6nc(c(-c7c(F)c(F)c(F)c(F)c7F)c7ccc4[nH]7)C=C6)C=C5)cc3)c1)C2=O
REMARK SMILES IDX 25 1 24 2 23 3 22 4 20 5 21 6 19 8 15 9 16 10 93 11 17 12
REMARK SMILES IDX 18 13 14 14 1 15 2 16 3 17 11 18 4 19 10 20 12 21 5 22 9 23
REMARK SMILES IDX 94 24 13 25 6 26 8 27 95 28 7 29 26 30 27 31 28 32 29 34
REMARK SMILES IDX 30 35 31 36 92 37 32 38 91 39 33 40 34 41 35 42 85 43 36 44
REMARK SMILES IDX 90 45 84 46 86 47 37 48 89 49 83 50 82 51 38 53 70 54 50 55
REMARK SMILES IDX 69 56 51 57 54 58 68 59 87 60 52 61 53 62 67 64 88 65 55 66
REMARK SMILES IDX 39 67 40 68 48 69 41 70 42 71 46 72 49 73 43 74 44 75 47 76
REMARK SMILES IDX 45 77 71 78 72 79 80 80 73 81 74 82 78 83 81 84 75 85 76 86
REMARK SMILES IDX 79 87 77 88 56 89 57 90 65 91 58 92 59 93 63 94 66 95 60 96
REMARK SMILES IDX 61 97 64 98 62 99
REMARK H PARENT 22 7 27 33 86 52 54 63
REMARK Flexibility Score: inf
ROOT
ATOM      1  C   UNL A   1      31.230  30.448  25.238  1.00  0.00     0.023 C 
ENDROOT
BRANCH   1   2
ATOM      2  C   UNL A   1      31.590  29.265  24.344  1.00  0.00     0.023 C 
BRANCH   2   3
ATOM      3  C   UNL A   1      30.778  29.102  23.064  1.00  0.00     0.116 C 
BRANCH   3   4
ATOM      4  N   UNL A   1      29.631  28.235  23.202  1.00  0.00    -0.352 N 
ATOM      5  C   UNL A   1      29.459  27.039  23.840  1.00  0.00     0.251 C 
ATOM      6  O   UNL A   1      28.296  26.629  23.904  1.00  0.00    -0.269 OA
ATOM      7  H   UNL A   1      28.821  28.569  22.753  1.00  0.00     0.163 HD
BRANCH   5   8
ATOM      8  C   UNL A   1      30.556  26.204  24.424  1.00  0.00     0.041 A 
ATOM      9  C   UNL A   1      32.194  24.397  24.435  1.00  0.00     0.053 A 
ATOM     10  C   UNL A   1      32.392  24.628  25.813  1.00  0.00     0.027 A 
ATOM     11  C   UNL A   1      31.369  25.284  23.732  1.00  0.00     0.040 A 
ATOM     12  C   UNL A   1      31.598  25.524  26.516  1.00  0.00     0.003 A 
ATOM     13  C   UNL A   1      30.659  26.274  25.828  1.00  0.00     0.014 A 
BRANCH   9  14
ATOM     14  N   UNL A   1      32.476  23.080  23.927  1.00  0.00    -0.242 N 
ATOM     15  C   UNL A   1      33.814  18.646  24.646  1.00  0.00     0.067 C 
ATOM     16  C   UNL A   1      34.349  20.043  24.648  1.00  0.00     0.052 A 
ATOM     17  N   UNL A   1      35.681  20.170  24.930  1.00  0.00    -0.252 NA
ATOM     18  C   UNL A   1      33.660  21.078  24.056  1.00  0.00     0.075 A 
ATOM     19  C   UNL A   1      36.212  21.410  24.924  1.00  0.00     0.071 A 
ATOM     20  C   UNL A   1      34.424  22.096  23.560  1.00  0.00     0.064 A 
ATOM     21  C   UNL A   1      32.461  21.852  24.582  1.00  0.00     0.268 C 
ATOM     22  C   UNL A   1      37.373  21.699  25.629  1.00  0.00     0.029 A 
ATOM     23  C   UNL A   1      35.521  22.470  24.335  1.00  0.00     0.014 A 
ATOM     24  C   UNL A   1      33.459  23.001  22.996  1.00  0.00     0.266 C 
ATOM     25  O   UNL A   1      31.792  21.481  25.530  1.00  0.00    -0.268 OA
ATOM     26  C   UNL A   1      37.689  23.012  25.995  1.00  0.00     0.002 A 
ATOM     27  C   UNL A   1      35.821  23.798  24.724  1.00  0.00     0.011 A 
ATOM     28  O   UNL A   1      33.533  23.411  21.852  1.00  0.00    -0.268 OA
ATOM     29  C   UNL A   1      36.859  24.056  25.609  1.00  0.00     0.001 A 
ENDBRANCH   9  14
ENDBRANCH   5   8
ENDBRANCH   3   4
ENDBRANCH   2   3
ENDBRANCH   1   2
BRANCH   1  30
ATOM     30  C   UNL A   1      32.209  30.740  26.366  1.00  0.00     0.116 C 
BRANCH  30  31
ATOM     31  N   UNL A   1      32.160  32.120  26.831  1.00  0.00    -0.352 N 
ATOM     32  C   UNL A   1      33.052  32.844  27.588  1.00  0.00     0.251 C 
ATOM     33  H   UNL A   1      31.356  32.617  26.558  1.00  0.00     0.163 HD
ATOM     34  O   UNL A   1      32.760  33.971  27.975  1.00  0.00    -0.269 OA
BRANCH  32  35
ATOM     35  C   UNL A   1      34.341  32.243  27.987  1.00  0.00     0.039 A 
ATOM     36  C   UNL A   1      34.427  30.894  28.323  1.00  0.00     0.014 A 
ATOM     37  C   UNL A   1      35.475  33.058  28.066  1.00  0.00     0.014 A 
ATOM     38  C   UNL A   1      35.567  30.417  28.956  1.00  0.00     0.010 A 
ATOM     39  C   UNL A   1      36.660  32.545  28.600  1.00  0.00     0.010 A 
ATOM     40  C   UNL A   1      36.694  31.241  29.117  1.00  0.00    -0.014 A 
BRANCH  40  41
ATOM     41  C   UNL A   1      37.877  30.726  29.855  1.00  0.00     0.031 A 
ATOM     42  C   UNL A   1      38.100  31.090  31.300  1.00  0.00     0.074 A 
ATOM     43  C   UNL A   1      38.714  29.867  29.242  1.00  0.00     0.049 A 
ATOM     44  N   UNL A   1      39.076  30.738  32.100  1.00  0.00    -0.248 NA
ATOM     45  C   UNL A   1      37.099  31.966  31.932  1.00  0.00     0.031 C 
ATOM     46  C   UNL A   1      38.588  29.416  27.856  1.00  0.00     0.029 A 
ATOM     47  N   UNL A   1      39.814  29.194  29.712  1.00  0.00    -0.354 N 
ATOM     48  C   UNL A   1      38.821  31.366  33.313  1.00  0.00     0.074 A 
ATOM     49  C   UNL A   1      37.611  32.140  33.142  1.00  0.00     0.031 C 
ATOM     50  C   UNL A   1      39.531  28.495  27.606  1.00  0.00     0.029 A 
ATOM     51  C   UNL A   1      40.372  28.345  28.789  1.00  0.00     0.049 A 
ATOM     52  H   UNL A   1      40.167  29.309  30.623  1.00  0.00     0.167 HD
ATOM     53  C   UNL A   1      39.527  31.291  34.466  1.00  0.00     0.037 A 
ATOM     54  C   UNL A   1      41.451  27.546  28.875  1.00  0.00     0.037 A 
ATOM     55  C   UNL A   1      40.712  30.493  34.644  1.00  0.00     0.049 A 
ATOM     56  C   UNL A   1      42.236  27.513  30.155  1.00  0.00     0.074 A 
ATOM     57  C   UNL A   1      41.494  30.350  35.778  1.00  0.00     0.029 A 
ATOM     58  N   UNL A   1      41.280  29.694  33.663  1.00  0.00    -0.354 N 
ATOM     59  N   UNL A   1      42.000  28.134  31.283  1.00  0.00    -0.248 NA
ATOM     60  C   UNL A   1      43.446  26.680  30.166  1.00  0.00     0.031 C 
ATOM     61  C   UNL A   1      42.555  29.492  35.473  1.00  0.00     0.029 A 
ATOM     62  C   UNL A   1      42.410  29.065  34.163  1.00  0.00     0.049 A 
ATOM     63  H   UNL A   1      40.933  29.588  32.749  1.00  0.00     0.167 HD
ATOM     64  C   UNL A   1      43.023  27.762  32.143  1.00  0.00     0.074 A 
ATOM     65  C   UNL A   1      43.871  26.844  31.411  1.00  0.00     0.031 C 
ATOM     66  C   UNL A   1      43.242  28.154  33.421  1.00  0.00     0.037 A 
BRANCH  53  67
ATOM     67  C   UNL A   1      39.048  32.100  35.637  1.00  0.00     0.064 A 
ATOM     68  C   UNL A   1      38.266  31.531  36.653  1.00  0.00     0.173 A 
ATOM     69  C   UNL A   1      39.441  33.439  35.784  1.00  0.00     0.173 A 
ATOM     70  F   UNL A   1      37.854  30.259  36.555  1.00  0.00    -0.203 F 
ATOM     71  C   UNL A   1      37.887  32.277  37.767  1.00  0.00     0.198 A 
ATOM     72  C   UNL A   1      39.082  34.174  36.910  1.00  0.00     0.198 A 
ATOM     73  F   UNL A   1      40.195  34.029  34.843  1.00  0.00    -0.203 F 
ATOM     74  F   UNL A   1      37.116  31.722  38.712  1.00  0.00    -0.200 F 
ATOM     75  C   UNL A   1      38.303  33.594  37.900  1.00  0.00     0.200 A 
ATOM     76  F   UNL A   1      39.495  35.442  37.042  1.00  0.00    -0.200 F 
ATOM     77  F   UNL A   1      37.951  34.304  38.981  1.00  0.00    -0.200 F 
ENDBRANCH  53  67
BRANCH  54  78
ATOM     78  C   UNL A   1      41.841  26.715  27.709  1.00  0.00     0.064 A 
ATOM     79  C   UNL A   1      42.839  27.142  26.823  1.00  0.00     0.173 A 
ATOM     80  C   UNL A   1      41.256  25.461  27.480  1.00  0.00     0.173 A 
ATOM     81  F   UNL A   1      43.412  28.344  26.990  1.00  0.00    -0.203 F 
ATOM     82  C   UNL A   1      43.236  26.347  25.751  1.00  0.00     0.198 A 
ATOM     83  C   UNL A   1      41.674  24.653  26.425  1.00  0.00     0.198 A 
ATOM     84  F   UNL A   1      40.299  25.005  28.302  1.00  0.00    -0.203 F 
ATOM     85  F   UNL A   1      44.174  26.789  24.903  1.00  0.00    -0.200 F 
ATOM     86  C   UNL A   1      42.662  25.099  25.559  1.00  0.00     0.200 A 
ATOM     87  F   UNL A   1      41.129  23.442  26.254  1.00  0.00    -0.200 F 
ATOM     88  F   UNL A   1      43.058  24.327  24.539  1.00  0.00    -0.200 F 
ENDBRANCH  54  78
BRANCH  66  89
ATOM     89  C   UNL A   1      44.437  27.578  34.121  1.00  0.00     0.064 A 
ATOM     90  C   UNL A   1      45.689  28.206  34.063  1.00  0.00     0.173 A 
ATOM     91  C   UNL A   1      44.315  26.417  34.899  1.00  0.00     0.173 A 
ATOM     92  F   UNL A   1      45.857  29.309  33.321  1.00  0.00    -0.203 F 
ATOM     93  C   UNL A   1      46.783  27.681  34.747  1.00  0.00     0.198 A 
ATOM     94  C   UNL A   1      45.403  25.911  35.602  1.00  0.00     0.198 A 
ATOM     95  F   UNL A   1      43.135  25.785  34.991  1.00  0.00    -0.203 F 
ATOM     96  F   UNL A   1      47.979  28.276  34.650  1.00  0.00    -0.200 F 
ATOM     97  C   UNL A   1      46.637  26.539  35.522  1.00  0.00     0.200 A 
ATOM     98  F   UNL A   1      45.259  24.815  36.359  1.00  0.00    -0.200 F 
ATOM     99  F   UNL A   1      47.689  26.042  36.187  1.00  0.00    -0.200 F 
ENDBRANCH  66  89
ENDBRANCH  40  41
ENDBRANCH  32  35
ENDBRANCH  30  31
ENDBRANCH   1  30
TORSDOF 12
ENDMDL
