MODEL 1
REMARK VINA RESULT:     -12.6      0.000      0.000
REMARK SMILES COC(=O)c1ccc(Cl)c(-c2ccc(F)cc2C(=O)NCCCCNC(=O)c2ccc(-c3c4nc(c(-c5c(F)c(F)c(F)c(F)c5F)c5ccc([nH]5)c(-c5c(F)c(F)c(F)c(F)c5F)c5nc(c(-c6c(F)c(F)c(F)c(F)c6F)c6ccc3[nH]6)C=C5)C=C4)cc2)c1
REMARK SMILES IDX 22 1 21 2 20 3 18 4 19 5 17 7 11 8 12 9 13 10 16 11 14 12
REMARK SMILES IDX 15 13 10 14 5 15 6 16 91 17 7 18 8 19 9 20 3 21 4 22 2 23
REMARK SMILES IDX 1 24 23 25 24 26 25 27 26 28 27 30 28 31 29 32 90 33 30 34
REMARK SMILES IDX 89 35 31 36 32 37 33 38 83 39 34 40 88 41 82 42 84 43 35 44
REMARK SMILES IDX 87 45 81 46 80 47 36 49 68 50 48 51 67 52 49 53 52 54 66 55
REMARK SMILES IDX 85 56 50 57 51 58 65 60 86 61 53 62 37 63 38 64 46 65 39 66
REMARK SMILES IDX 40 67 44 68 47 69 41 70 42 71 45 72 43 73 69 74 70 75 78 76
REMARK SMILES IDX 71 77 72 78 76 79 79 80 73 81 74 82 77 83 75 84 54 85 55 86
REMARK SMILES IDX 63 87 56 88 57 89 61 90 64 91 58 92 59 93 62 94 60 95
REMARK H PARENT 20 6 25 29 84 48 52 59
REMARK Flexibility Score: inf
ROOT
ATOM      1  C   UNL A   1      32.030  29.964  27.247  1.00  0.00     0.023 C 
ENDROOT
BRANCH   1   2
ATOM      2  C   UNL A   1      31.807  28.799  26.297  1.00  0.00     0.116 C 
BRANCH   2   3
ATOM      3  N   UNL A   1      32.406  28.900  24.992  1.00  0.00    -0.352 N 
ATOM      4  C   UNL A   1      31.802  28.951  23.757  1.00  0.00     0.252 C 
ATOM      5  O   UNL A   1      32.522  29.162  22.779  1.00  0.00    -0.269 OA
ATOM      6  H   UNL A   1      33.389  28.938  24.982  1.00  0.00     0.163 HD
BRANCH   4   7
ATOM      7  C   UNL A   1      30.349  28.679  23.512  1.00  0.00     0.050 A 
ATOM      8  C   UNL A   1      29.683  27.427  23.581  1.00  0.00    -0.004 A 
ATOM      9  C   UNL A   1      28.276  27.415  23.410  1.00  0.00     0.012 A 
ATOM     10  C   UNL A   1      27.551  28.583  23.173  1.00  0.00     0.040 A 
ATOM     11  C   UNL A   1      29.595  29.852  23.297  1.00  0.00     0.053 A 
ATOM     12  C   UNL A   1      28.219  29.793  23.125  1.00  0.00     0.124 A 
ATOM     13  F   UNL A   1      27.526  30.921  22.923  1.00  0.00    -0.207 F 
BRANCH   8  14
ATOM     14  C   UNL A   1      30.344  26.136  23.861  1.00  0.00     0.002 A 
ATOM     15  C   UNL A   1      30.939  24.411  25.485  1.00  0.00     0.060 A 
ATOM     16  C   UNL A   1      31.782  23.795  24.554  1.00  0.00     0.017 A 
ATOM     17  C   UNL A   1      30.205  25.552  25.133  1.00  0.00     0.026 A 
ATOM     18  C   UNL A   1      31.883  24.318  23.266  1.00  0.00     0.022 A 
ATOM     19  C   UNL A   1      31.171  25.473  22.918  1.00  0.00     0.048 A 
ATOM     20  Cl  UNL A   1      31.465  26.111  21.333  1.00  0.00    -0.084 Cl
BRANCH  15  21
ATOM     21  C   UNL A   1      30.835  23.927  26.876  1.00  0.00     0.337 C 
ATOM     22  O   UNL A   1      31.786  23.526  27.525  1.00  0.00    -0.246 OA
BRANCH  21  23
ATOM     23  O   UNL A   1      29.530  23.893  27.242  1.00  0.00    -0.465 OA
ATOM     24  C   UNL A   1      29.061  22.578  27.533  1.00  0.00     0.282 C 
ENDBRANCH  21  23
ENDBRANCH  15  21
ENDBRANCH   8  14
ENDBRANCH   4   7
ENDBRANCH   2   3
ENDBRANCH   1   2
BRANCH   1  25
ATOM     25  C   UNL A   1      31.403  31.307  26.876  1.00  0.00     0.023 C 
BRANCH  25  26
ATOM     26  C   UNL A   1      32.321  32.456  26.465  1.00  0.00     0.116 C 
BRANCH  26  27
ATOM     27  N   UNL A   1      32.252  33.649  27.293  1.00  0.00    -0.352 N 
ATOM     28  C   UNL A   1      33.142  34.143  28.222  1.00  0.00     0.251 C 
ATOM     29  H   UNL A   1      31.437  34.190  27.172  1.00  0.00     0.163 HD
ATOM     30  O   UNL A   1      32.908  35.226  28.755  1.00  0.00    -0.269 OA
BRANCH  28  31
ATOM     31  C   UNL A   1      34.340  33.367  28.642  1.00  0.00     0.039 A 
ATOM     32  C   UNL A   1      35.586  34.005  28.613  1.00  0.00     0.014 A 
ATOM     33  C   UNL A   1      34.262  32.044  29.080  1.00  0.00     0.014 A 
ATOM     34  C   UNL A   1      36.721  33.362  29.123  1.00  0.00     0.010 A 
ATOM     35  C   UNL A   1      35.378  31.425  29.649  1.00  0.00     0.010 A 
ATOM     36  C   UNL A   1      36.612  32.086  29.698  1.00  0.00    -0.014 A 
BRANCH  36  37
ATOM     37  C   UNL A   1      37.756  31.465  30.416  1.00  0.00     0.031 A 
ATOM     38  C   UNL A   1      38.616  30.431  29.747  1.00  0.00     0.074 A 
ATOM     39  C   UNL A   1      37.964  31.779  31.711  1.00  0.00     0.049 A 
ATOM     40  N   UNL A   1      39.627  29.758  30.236  1.00  0.00    -0.248 NA
ATOM     41  C   UNL A   1      38.285  30.088  28.355  1.00  0.00     0.031 C 
ATOM     42  C   UNL A   1      37.148  32.712  32.493  1.00  0.00     0.029 A 
ATOM     43  N   UNL A   1      38.909  31.339  32.604  1.00  0.00    -0.354 N 
ATOM     44  C   UNL A   1      40.049  28.913  29.219  1.00  0.00     0.074 A 
ATOM     45  C   UNL A   1      39.158  29.122  28.098  1.00  0.00     0.031 C 
ATOM     46  C   UNL A   1      37.636  32.785  33.741  1.00  0.00     0.029 A 
ATOM     47  C   UNL A   1      38.783  31.890  33.857  1.00  0.00     0.049 A 
ATOM     48  H   UNL A   1      39.610  30.690  32.370  1.00  0.00     0.167 HD
ATOM     49  C   UNL A   1      41.100  28.059  29.215  1.00  0.00     0.037 A 
ATOM     50  C   UNL A   1      39.511  31.699  34.975  1.00  0.00     0.037 A 
ATOM     51  C   UNL A   1      42.000  27.873  30.324  1.00  0.00     0.049 A 
ATOM     52  C   UNL A   1      40.694  30.771  34.930  1.00  0.00     0.074 A 
ATOM     53  C   UNL A   1      43.132  27.079  30.390  1.00  0.00     0.029 A 
ATOM     54  N   UNL A   1      41.871  28.489  31.559  1.00  0.00    -0.354 N 
ATOM     55  N   UNL A   1      41.134  30.044  33.932  1.00  0.00    -0.248 NA
ATOM     56  C   UNL A   1      41.492  30.648  36.159  1.00  0.00     0.031 C 
ATOM     57  C   UNL A   1      43.667  27.185  31.675  1.00  0.00     0.029 A 
ATOM     58  C   UNL A   1      42.896  28.081  32.397  1.00  0.00     0.049 A 
ATOM     59  H   UNL A   1      41.157  29.122  31.804  1.00  0.00     0.167 HD
ATOM     60  C   UNL A   1      42.272  29.402  34.400  1.00  0.00     0.074 A 
ATOM     61  C   UNL A   1      42.464  29.834  35.769  1.00  0.00     0.031 C 
ATOM     62  C   UNL A   1      43.083  28.533  33.751  1.00  0.00     0.037 A 
BRANCH  49  63
ATOM     63  C   UNL A   1      41.368  27.273  27.966  1.00  0.00     0.064 A 
ATOM     64  C   UNL A   1      40.861  25.973  27.816  1.00  0.00     0.173 A 
ATOM     65  C   UNL A   1      42.218  27.766  26.965  1.00  0.00     0.173 A 
ATOM     66  F   UNL A   1      40.051  25.452  28.749  1.00  0.00    -0.203 F 
ATOM     67  C   UNL A   1      41.211  25.190  26.718  1.00  0.00     0.198 A 
ATOM     68  C   UNL A   1      42.546  26.990  25.857  1.00  0.00     0.198 A 
ATOM     69  F   UNL A   1      42.722  29.007  27.059  1.00  0.00    -0.203 F 
ATOM     70  F   UNL A   1      40.745  23.939  26.614  1.00  0.00    -0.200 F 
ATOM     71  C   UNL A   1      42.052  25.699  25.741  1.00  0.00     0.200 A 
ATOM     72  F   UNL A   1      43.345  27.490  24.903  1.00  0.00    -0.200 F 
ATOM     73  F   UNL A   1      42.390  24.945  24.685  1.00  0.00    -0.200 F 
ENDBRANCH  49  63
BRANCH  50  74
ATOM     74  C   UNL A   1      39.169  32.441  36.216  1.00  0.00     0.064 A 
ATOM     75  C   UNL A   1      38.308  31.897  37.180  1.00  0.00     0.173 A 
ATOM     76  C   UNL A   1      39.689  33.720  36.455  1.00  0.00     0.173 A 
ATOM     77  F   UNL A   1      37.778  30.679  36.995  1.00  0.00    -0.203 F 
ATOM     78  C   UNL A   1      37.974  32.609  38.330  1.00  0.00     0.198 A 
ATOM     79  C   UNL A   1      39.375  34.421  37.619  1.00  0.00     0.198 A 
ATOM     80  F   UNL A   1      40.532  34.276  35.572  1.00  0.00    -0.203 F 
ATOM     81  F   UNL A   1      37.127  32.076  39.223  1.00  0.00    -0.200 F 
ATOM     82  C   UNL A   1      38.512  33.867  38.552  1.00  0.00     0.200 A 
ATOM     83  F   UNL A   1      39.917  35.625  37.840  1.00  0.00    -0.200 F 
ATOM     84  F   UNL A   1      38.204  34.543  39.667  1.00  0.00    -0.200 F 
ENDBRANCH  50  74
BRANCH  62  85
ATOM     85  C   UNL A   1      44.275  28.008  34.494  1.00  0.00     0.064 A 
ATOM     86  C   UNL A   1      45.508  28.674  34.416  1.00  0.00     0.173 A 
ATOM     87  C   UNL A   1      44.219  26.808  35.217  1.00  0.00     0.173 A 
ATOM     88  F   UNL A   1      45.615  29.820  33.729  1.00  0.00    -0.203 F 
ATOM     89  C   UNL A   1      46.645  28.148  35.025  1.00  0.00     0.198 A 
ATOM     90  C   UNL A   1      45.351  26.299  35.847  1.00  0.00     0.198 A 
ATOM     91  F   UNL A   1      43.060  26.142  35.329  1.00  0.00    -0.203 F 
ATOM     92  F   UNL A   1      47.819  28.784  34.910  1.00  0.00    -0.200 F 
ATOM     93  C   UNL A   1      46.564  26.964  35.742  1.00  0.00     0.200 A 
ATOM     94  F   UNL A   1      45.269  25.166  36.558  1.00  0.00    -0.200 F 
ATOM     95  F   UNL A   1      47.657  26.464  36.335  1.00  0.00    -0.200 F 
ENDBRANCH  62  85
ENDBRANCH  36  37
ENDBRANCH  28  31
ENDBRANCH  26  27
ENDBRANCH  25  26
ENDBRANCH   1  25
TORSDOF 14
ENDMDL
MODEL 2
REMARK VINA RESULT:     -12.6      0.881      7.377
REMARK SMILES COC(=O)c1ccc(Cl)c(-c2ccc(F)cc2C(=O)NCCCCNC(=O)c2ccc(-c3c4nc(c(-c5c(F)c(F)c(F)c(F)c5F)c5ccc([nH]5)c(-c5c(F)c(F)c(F)c(F)c5F)c5nc(c(-c6c(F)c(F)c(F)c(F)c6F)c6ccc3[nH]6)C=C5)C=C4)cc2)c1
REMARK SMILES IDX 22 1 21 2 20 3 18 4 19 5 17 7 11 8 12 9 13 10 16 11 14 12
REMARK SMILES IDX 15 13 10 14 5 15 6 16 91 17 7 18 8 19 9 20 3 21 4 22 2 23
REMARK SMILES IDX 1 24 23 25 24 26 25 27 26 28 27 30 28 31 29 32 90 33 30 34
REMARK SMILES IDX 89 35 31 36 32 37 33 38 83 39 34 40 88 41 82 42 84 43 35 44
REMARK SMILES IDX 87 45 81 46 80 47 36 49 68 50 48 51 67 52 49 53 52 54 66 55
REMARK SMILES IDX 85 56 50 57 51 58 65 60 86 61 53 62 37 63 38 64 46 65 39 66
REMARK SMILES IDX 40 67 44 68 47 69 41 70 42 71 45 72 43 73 69 74 70 75 78 76
REMARK SMILES IDX 71 77 72 78 76 79 79 80 73 81 74 82 77 83 75 84 54 85 55 86
REMARK SMILES IDX 63 87 56 88 57 89 61 90 64 91 58 92 59 93 62 94 60 95
REMARK H PARENT 20 6 25 29 84 48 52 59
REMARK Flexibility Score: inf
ROOT
ATOM      1  C   UNL A   1      32.089  29.821  27.271  1.00  0.00     0.023 C 
ENDROOT
BRANCH   1   2
ATOM      2  C   UNL A   1      31.871  28.668  26.306  1.00  0.00     0.116 C 
BRANCH   2   3
ATOM      3  N   UNL A   1      32.478  28.784  25.006  1.00  0.00    -0.352 N 
ATOM      4  C   UNL A   1      31.881  28.886  23.770  1.00  0.00     0.252 C 
ATOM      5  O   UNL A   1      32.611  29.100  22.801  1.00  0.00    -0.269 OA
ATOM      6  H   UNL A   1      33.462  28.791  25.000  1.00  0.00     0.163 HD
BRANCH   4   7
ATOM      7  C   UNL A   1      30.422  28.667  23.513  1.00  0.00     0.050 A 
ATOM      8  C   UNL A   1      29.715  27.436  23.552  1.00  0.00    -0.004 A 
ATOM      9  C   UNL A   1      28.309  27.474  23.375  1.00  0.00     0.012 A 
ATOM     10  C   UNL A   1      27.623  28.669  23.162  1.00  0.00     0.040 A 
ATOM     11  C   UNL A   1      29.707  29.868  23.322  1.00  0.00     0.053 A 
ATOM     12  C   UNL A   1      28.330  29.857  23.144  1.00  0.00     0.124 A 
ATOM     13  F   UNL A   1      27.674  31.011  22.964  1.00  0.00    -0.207 F 
BRANCH   8  14
ATOM     14  C   UNL A   1      30.333  26.118  23.805  1.00  0.00     0.002 A 
ATOM     15  C   UNL A   1      30.847  24.330  25.388  1.00  0.00     0.060 A 
ATOM     16  C   UNL A   1      31.689  23.717  24.455  1.00  0.00     0.017 A 
ATOM     17  C   UNL A   1      30.153  25.502  25.057  1.00  0.00     0.026 A 
ATOM     18  C   UNL A   1      31.829  24.274  23.185  1.00  0.00     0.022 A 
ATOM     19  C   UNL A   1      31.158  25.459  22.858  1.00  0.00     0.048 A 
ATOM     20  Cl  UNL A   1      31.499  26.134  21.298  1.00  0.00    -0.084 Cl
BRANCH  15  21
ATOM     21  C   UNL A   1      30.702  23.810  26.763  1.00  0.00     0.337 C 
ATOM     22  O   UNL A   1      29.641  23.444  27.238  1.00  0.00    -0.246 OA
BRANCH  21  23
ATOM     23  O   UNL A   1      31.887  23.926  27.413  1.00  0.00    -0.465 OA
ATOM     24  C   UNL A   1      32.524  22.672  27.650  1.00  0.00     0.282 C 
ENDBRANCH  21  23
ENDBRANCH  15  21
ENDBRANCH   8  14
ENDBRANCH   4   7
ENDBRANCH   2   3
ENDBRANCH   1   2
BRANCH   1  25
ATOM     25  C   UNL A   1      31.875  31.237  26.740  1.00  0.00     0.023 C 
BRANCH  25  26
ATOM     26  C   UNL A   1      32.968  32.280  26.969  1.00  0.00     0.116 C 
BRANCH  26  27
ATOM     27  N   UNL A   1      32.518  33.566  27.475  1.00  0.00    -0.352 N 
ATOM     28  C   UNL A   1      33.084  34.402  28.414  1.00  0.00     0.251 C 
ATOM     29  H   UNL A   1      31.675  33.892  27.085  1.00  0.00     0.163 HD
ATOM     30  O   UNL A   1      32.561  35.493  28.632  1.00  0.00    -0.269 OA
BRANCH  28  31
ATOM     31  C   UNL A   1      34.267  33.988  29.214  1.00  0.00     0.039 A 
ATOM     32  C   UNL A   1      34.056  33.183  30.340  1.00  0.00     0.014 A 
ATOM     33  C   UNL A   1      35.571  34.352  28.872  1.00  0.00     0.014 A 
ATOM     34  C   UNL A   1      35.144  32.658  31.048  1.00  0.00     0.010 A 
ATOM     35  C   UNL A   1      36.658  33.778  29.535  1.00  0.00     0.010 A 
ATOM     36  C   UNL A   1      36.456  32.907  30.614  1.00  0.00    -0.014 A 
BRANCH  36  37
ATOM     37  C   UNL A   1      37.616  32.209  31.229  1.00  0.00     0.031 A 
ATOM     38  C   UNL A   1      38.118  32.600  32.589  1.00  0.00     0.074 A 
ATOM     39  C   UNL A   1      38.270  31.273  30.512  1.00  0.00     0.049 A 
ATOM     40  N   UNL A   1      39.140  32.127  33.258  1.00  0.00    -0.248 NA
ATOM     41  C   UNL A   1      37.396  33.678  33.282  1.00  0.00     0.031 C 
ATOM     42  C   UNL A   1      37.925  30.862  29.149  1.00  0.00     0.029 A 
ATOM     43  N   UNL A   1      39.370  30.510  30.818  1.00  0.00    -0.354 N 
ATOM     44  C   UNL A   1      39.186  32.849  34.443  1.00  0.00     0.074 A 
ATOM     45  C   UNL A   1      38.118  33.825  34.385  1.00  0.00     0.031 C 
ATOM     46  C   UNL A   1      38.784  29.914  28.743  1.00  0.00     0.029 A 
ATOM     47  C   UNL A   1      39.754  29.664  29.805  1.00  0.00     0.049 A 
ATOM     48  H   UNL A   1      39.839  30.564  31.681  1.00  0.00     0.167 HD
ATOM     49  C   UNL A   1      40.028  32.694  35.492  1.00  0.00     0.037 A 
ATOM     50  C   UNL A   1      40.772  28.784  29.738  1.00  0.00     0.037 A 
ATOM     51  C   UNL A   1      41.072  31.704  35.556  1.00  0.00     0.049 A 
ATOM     52  C   UNL A   1      41.670  28.607  30.932  1.00  0.00     0.074 A 
ATOM     53  C   UNL A   1      41.933  31.427  36.604  1.00  0.00     0.029 A 
ATOM     54  N   UNL A   1      41.397  30.830  34.531  1.00  0.00    -0.354 N 
ATOM     55  N   UNL A   1      41.645  29.237  32.081  1.00  0.00    -0.248 NA
ATOM     56  C   UNL A   1      42.724  27.588  30.830  1.00  0.00     0.031 C 
ATOM     57  C   UNL A   1      42.802  30.411  36.200  1.00  0.00     0.029 A 
ATOM     58  C   UNL A   1      42.453  30.022  34.918  1.00  0.00     0.049 A 
ATOM     59  H   UNL A   1      40.943  30.788  33.657  1.00  0.00     0.167 HD
ATOM     60  C   UNL A   1      42.657  28.675  32.847  1.00  0.00     0.074 A 
ATOM     61  C   UNL A   1      43.270  27.642  32.037  1.00  0.00     0.031 C 
ATOM     62  C   UNL A   1      43.041  28.987  34.107  1.00  0.00     0.037 A 
BRANCH  49  63
ATOM     63  C   UNL A   1      39.848  33.589  36.682  1.00  0.00     0.064 A 
ATOM     64  C   UNL A   1      38.968  33.237  37.716  1.00  0.00     0.173 A 
ATOM     65  C   UNL A   1      40.468  34.846  36.746  1.00  0.00     0.173 A 
ATOM     66  F   UNL A   1      38.344  32.049  37.697  1.00  0.00    -0.203 F 
ATOM     67  C   UNL A   1      38.698  34.119  38.759  1.00  0.00     0.198 A 
ATOM     68  C   UNL A   1      40.215  35.716  37.803  1.00  0.00     0.198 A 
ATOM     69  F   UNL A   1      41.325  35.225  35.785  1.00  0.00    -0.203 F 
ATOM     70  F   UNL A   1      37.825  33.777  39.715  1.00  0.00    -0.200 F 
ATOM     71  C   UNL A   1      39.322  35.357  38.802  1.00  0.00     0.200 A 
ATOM     72  F   UNL A   1      40.833  36.904  37.853  1.00  0.00    -0.200 F 
ATOM     73  F   UNL A   1      39.061  36.206  39.806  1.00  0.00    -0.200 F 
ENDBRANCH  49  63
BRANCH  50  74
ATOM     74  C   UNL A   1      40.963  27.966  28.512  1.00  0.00     0.064 A 
ATOM     75  C   UNL A   1      41.777  28.408  27.458  1.00  0.00     0.173 A 
ATOM     76  C   UNL A   1      40.322  26.728  28.365  1.00  0.00     0.173 A 
ATOM     77  F   UNL A   1      42.407  29.588  27.546  1.00  0.00    -0.203 F 
ATOM     78  C   UNL A   1      41.932  27.646  26.302  1.00  0.00     0.198 A 
ATOM     79  C   UNL A   1      40.499  25.955  27.220  1.00  0.00     0.198 A 
ATOM     80  F   UNL A   1      39.548  26.255  29.353  1.00  0.00    -0.203 F 
ATOM     81  F   UNL A   1      42.694  28.103  25.298  1.00  0.00    -0.200 F 
ATOM     82  C   UNL A   1      41.299  26.418  26.186  1.00  0.00     0.200 A 
ATOM     83  F   UNL A   1      39.905  24.759  27.123  1.00  0.00    -0.200 F 
ATOM     84  F   UNL A   1      41.463  25.678  25.081  1.00  0.00    -0.200 F 
ENDBRANCH  50  74
BRANCH  62  85
ATOM     85  C   UNL A   1      44.157  28.189  34.712  1.00  0.00     0.064 A 
ATOM     86  C   UNL A   1      43.879  27.030  35.453  1.00  0.00     0.173 A 
ATOM     87  C   UNL A   1      45.492  28.611  34.626  1.00  0.00     0.173 A 
ATOM     88  F   UNL A   1      42.617  26.591  35.572  1.00  0.00    -0.203 F 
ATOM     89  C   UNL A   1      44.896  26.330  36.097  1.00  0.00     0.198 A 
ATOM     90  C   UNL A   1      46.509  27.894  35.249  1.00  0.00     0.198 A 
ATOM     91  F   UNL A   1      45.808  29.706  33.919  1.00  0.00    -0.203 F 
ATOM     92  F   UNL A   1      44.602  25.244  36.825  1.00  0.00    -0.200 F 
ATOM     93  C   UNL A   1      46.210  26.761  35.990  1.00  0.00     0.200 A 
ATOM     94  F   UNL A   1      47.781  28.298  35.128  1.00  0.00    -0.200 F 
ATOM     95  F   UNL A   1      47.188  26.081  36.603  1.00  0.00    -0.200 F 
ENDBRANCH  62  85
ENDBRANCH  36  37
ENDBRANCH  28  31
ENDBRANCH  26  27
ENDBRANCH  25  26
ENDBRANCH   1  25
TORSDOF 14
ENDMDL
MODEL 3
REMARK VINA RESULT:     -12.5      5.633      9.344
REMARK SMILES COC(=O)c1ccc(Cl)c(-c2ccc(F)cc2C(=O)NCCCCNC(=O)c2ccc(-c3c4nc(c(-c5c(F)c(F)c(F)c(F)c5F)c5ccc([nH]5)c(-c5c(F)c(F)c(F)c(F)c5F)c5nc(c(-c6c(F)c(F)c(F)c(F)c6F)c6ccc3[nH]6)C=C5)C=C4)cc2)c1
REMARK SMILES IDX 22 1 21 2 20 3 18 4 19 5 17 7 11 8 12 9 13 10 16 11 14 12
REMARK SMILES IDX 15 13 10 14 5 15 6 16 91 17 7 18 8 19 9 20 3 21 4 22 2 23
REMARK SMILES IDX 1 24 23 25 24 26 25 27 26 28 27 30 28 31 29 32 90 33 30 34
REMARK SMILES IDX 89 35 31 36 32 37 33 38 83 39 34 40 88 41 82 42 84 43 35 44
REMARK SMILES IDX 87 45 81 46 80 47 36 49 68 50 48 51 67 52 49 53 52 54 66 55
REMARK SMILES IDX 85 56 50 57 51 58 65 60 86 61 53 62 37 63 38 64 46 65 39 66
REMARK SMILES IDX 40 67 44 68 47 69 41 70 42 71 45 72 43 73 69 74 70 75 78 76
REMARK SMILES IDX 71 77 72 78 76 79 79 80 73 81 74 82 77 83 75 84 54 85 55 86
REMARK SMILES IDX 63 87 56 88 57 89 61 90 64 91 58 92 59 93 62 94 60 95
REMARK H PARENT 20 6 25 29 84 48 52 59
REMARK Flexibility Score: inf
ROOT
ATOM      1  C   UNL A   1      36.675  20.178  25.079  1.00  0.00     0.023 C 
ENDROOT
BRANCH   1   2
ATOM      2  C   UNL A   1      36.131  21.597  25.111  1.00  0.00     0.116 C 
BRANCH   2   3
ATOM      3  N   UNL A   1      35.645  22.135  23.868  1.00  0.00    -0.352 N 
ATOM      4  C   UNL A   1      34.430  22.716  23.585  1.00  0.00     0.252 C 
ATOM      5  O   UNL A   1      34.285  23.217  22.468  1.00  0.00    -0.269 OA
ATOM      6  H   UNL A   1      36.272  22.080  23.111  1.00  0.00     0.163 HD
BRANCH   4   7
ATOM      7  C   UNL A   1      33.248  22.700  24.504  1.00  0.00     0.050 A 
ATOM      8  C   UNL A   1      32.391  21.603  24.788  1.00  0.00    -0.004 A 
ATOM      9  C   UNL A   1      31.389  21.784  25.774  1.00  0.00     0.012 A 
ATOM     10  C   UNL A   1      31.226  22.993  26.449  1.00  0.00     0.040 A 
ATOM     11  C   UNL A   1      33.084  23.906  25.217  1.00  0.00     0.053 A 
ATOM     12  C   UNL A   1      32.082  24.042  26.168  1.00  0.00     0.124 A 
ATOM     13  F   UNL A   1      31.947  25.198  26.830  1.00  0.00    -0.207 F 
BRANCH   8  14
ATOM     14  C   UNL A   1      32.495  20.269  24.160  1.00  0.00     0.002 A 
ATOM     15  C   UNL A   1      33.231  17.946  24.319  1.00  0.00     0.060 A 
ATOM     16  C   UNL A   1      32.959  17.744  22.963  1.00  0.00     0.017 A 
ATOM     17  C   UNL A   1      32.974  19.187  24.920  1.00  0.00     0.026 A 
ATOM     18  C   UNL A   1      32.420  18.785  22.207  1.00  0.00     0.022 A 
ATOM     19  C   UNL A   1      32.186  20.033  22.796  1.00  0.00     0.048 A 
ATOM     20  Cl  UNL A   1      31.633  21.293  21.740  1.00  0.00    -0.084 Cl
BRANCH  15  21
ATOM     21  C   UNL A   1      33.849  16.894  25.152  1.00  0.00     0.337 C 
ATOM     22  O   UNL A   1      35.024  16.578  25.078  1.00  0.00    -0.246 OA
BRANCH  21  23
ATOM     23  O   UNL A   1      32.889  16.285  25.890  1.00  0.00    -0.465 OA
ATOM     24  C   UNL A   1      32.668  14.926  25.516  1.00  0.00     0.282 C 
ENDBRANCH  21  23
ENDBRANCH  15  21
ENDBRANCH   8  14
ENDBRANCH   4   7
ENDBRANCH   2   3
ENDBRANCH   1   2
BRANCH   1  25
ATOM     25  C   UNL A   1      38.144  19.993  24.703  1.00  0.00     0.023 C 
BRANCH  25  26
ATOM     26  C   UNL A   1      39.204  20.139  25.794  1.00  0.00     0.116 C 
BRANCH  26  27
ATOM     27  N   UNL A   1      40.237  19.117  25.813  1.00  0.00    -0.352 N 
ATOM     28  C   UNL A   1      41.563  19.196  26.180  1.00  0.00     0.251 C 
ATOM     29  H   UNL A   1      39.942  18.225  25.516  1.00  0.00     0.163 HD
ATOM     30  O   UNL A   1      42.241  18.170  26.189  1.00  0.00    -0.269 OA
BRANCH  28  31
ATOM     31  C   UNL A   1      42.208  20.498  26.496  1.00  0.00     0.039 A 
ATOM     32  C   UNL A   1      42.715  21.261  25.437  1.00  0.00     0.014 A 
ATOM     33  C   UNL A   1      42.305  20.992  27.799  1.00  0.00     0.014 A 
ATOM     34  C   UNL A   1      43.210  22.551  25.668  1.00  0.00     0.010 A 
ATOM     35  C   UNL A   1      42.737  22.301  28.024  1.00  0.00     0.010 A 
ATOM     36  C   UNL A   1      43.172  23.102  26.959  1.00  0.00    -0.014 A 
BRANCH  36  37
ATOM     37  C   UNL A   1      43.510  24.529  27.197  1.00  0.00     0.031 A 
ATOM     38  C   UNL A   1      44.899  25.044  26.948  1.00  0.00     0.074 A 
ATOM     39  C   UNL A   1      42.573  25.345  27.724  1.00  0.00     0.049 A 
ATOM     40  N   UNL A   1      45.379  26.247  27.140  1.00  0.00    -0.248 NA
ATOM     41  C   UNL A   1      45.886  24.079  26.440  1.00  0.00     0.031 C 
ATOM     42  C   UNL A   1      41.211  24.942  28.081  1.00  0.00     0.029 A 
ATOM     43  N   UNL A   1      42.625  26.673  28.067  1.00  0.00    -0.354 N 
ATOM     44  C   UNL A   1      46.719  26.184  26.782  1.00  0.00     0.074 A 
ATOM     45  C   UNL A   1      46.991  24.813  26.404  1.00  0.00     0.031 C 
ATOM     46  C   UNL A   1      40.554  26.002  28.578  1.00  0.00     0.029 A 
ATOM     47  C   UNL A   1      41.451  27.153  28.596  1.00  0.00     0.049 A 
ATOM     48  H   UNL A   1      43.428  27.229  27.945  1.00  0.00     0.167 HD
ATOM     49  C   UNL A   1      47.631  27.184  26.750  1.00  0.00     0.037 A 
ATOM     50  C   UNL A   1      41.131  28.382  29.044  1.00  0.00     0.037 A 
ATOM     51  C   UNL A   1      47.349  28.552  27.101  1.00  0.00     0.049 A 
ATOM     52  C   UNL A   1      42.153  29.483  28.963  1.00  0.00     0.074 A 
ATOM     53  C   UNL A   1      48.191  29.649  27.037  1.00  0.00     0.029 A 
ATOM     54  N   UNL A   1      46.133  29.010  27.584  1.00  0.00    -0.354 N 
ATOM     55  N   UNL A   1      43.392  29.426  28.538  1.00  0.00    -0.248 NA
ATOM     56  C   UNL A   1      41.732  30.820  29.405  1.00  0.00     0.031 C 
ATOM     57  C   UNL A   1      47.497  30.762  27.514  1.00  0.00     0.029 A 
ATOM     58  C   UNL A   1      46.207  30.370  27.832  1.00  0.00     0.049 A 
ATOM     59  H   UNL A   1      45.334  28.451  27.728  1.00  0.00     0.167 HD
ATOM     60  C   UNL A   1      43.887  30.719  28.634  1.00  0.00     0.074 A 
ATOM     61  C   UNL A   1      42.812  31.543  29.146  1.00  0.00     0.031 C 
ATOM     62  C   UNL A   1      45.123  31.180  28.325  1.00  0.00     0.037 A 
BRANCH  49  63
ATOM     63  C   UNL A   1      49.021  26.860  26.289  1.00  0.00     0.064 A 
ATOM     64  C   UNL A   1      49.385  27.019  24.944  1.00  0.00     0.173 A 
ATOM     65  C   UNL A   1      49.961  26.290  27.161  1.00  0.00     0.173 A 
ATOM     66  F   UNL A   1      48.519  27.552  24.068  1.00  0.00    -0.203 F 
ATOM     67  C   UNL A   1      50.630  26.600  24.483  1.00  0.00     0.198 A 
ATOM     68  C   UNL A   1      51.215  25.895  26.703  1.00  0.00     0.198 A 
ATOM     69  F   UNL A   1      49.664  26.124  28.459  1.00  0.00    -0.203 F 
ATOM     70  F   UNL A   1      50.942  26.727  23.187  1.00  0.00    -0.200 F 
ATOM     71  C   UNL A   1      51.544  26.039  25.363  1.00  0.00     0.200 A 
ATOM     72  F   UNL A   1      52.104  25.369  27.557  1.00  0.00    -0.200 F 
ATOM     73  F   UNL A   1      52.742  25.635  24.919  1.00  0.00    -0.200 F 
ENDBRANCH  49  63
BRANCH  50  74
ATOM     74  C   UNL A   1      39.764  28.647  29.564  1.00  0.00     0.064 A 
ATOM     75  C   UNL A   1      39.437  28.428  30.910  1.00  0.00     0.173 A 
ATOM     76  C   UNL A   1      38.750  29.114  28.715  1.00  0.00     0.173 A 
ATOM     77  F   UNL A   1      40.369  27.975  31.761  1.00  0.00    -0.203 F 
ATOM     78  C   UNL A   1      38.147  28.657  31.383  1.00  0.00     0.198 A 
ATOM     79  C   UNL A   1      37.467  29.368  29.196  1.00  0.00     0.198 A 
ATOM     80  F   UNL A   1      39.018  29.356  27.423  1.00  0.00    -0.203 F 
ATOM     81  F   UNL A   1      37.855  28.414  32.669  1.00  0.00    -0.200 F 
ATOM     82  C   UNL A   1      37.165  29.132  30.528  1.00  0.00     0.200 A 
ATOM     83  F   UNL A   1      36.528  29.849  28.371  1.00  0.00    -0.200 F 
ATOM     84  F   UNL A   1      35.929  29.368  30.989  1.00  0.00    -0.200 F 
ENDBRANCH  50  74
BRANCH  62  85
ATOM     85  C   UNL A   1      45.382  32.647  28.499  1.00  0.00     0.064 A 
ATOM     86  C   UNL A   1      45.116  33.541  27.450  1.00  0.00     0.173 A 
ATOM     87  C   UNL A   1      45.964  33.156  29.668  1.00  0.00     0.173 A 
ATOM     88  F   UNL A   1      44.569  33.101  26.308  1.00  0.00    -0.203 F 
ATOM     89  C   UNL A   1      45.437  34.891  27.564  1.00  0.00     0.198 A 
ATOM     90  C   UNL A   1      46.259  34.511  29.788  1.00  0.00     0.198 A 
ATOM     91  F   UNL A   1      46.226  32.341  30.701  1.00  0.00    -0.203 F 
ATOM     92  F   UNL A   1      45.204  35.722  26.537  1.00  0.00    -0.200 F 
ATOM     93  C   UNL A   1      46.004  35.375  28.733  1.00  0.00     0.200 A 
ATOM     94  F   UNL A   1      46.787  34.982  30.926  1.00  0.00    -0.200 F 
ATOM     95  F   UNL A   1      46.304  36.676  28.844  1.00  0.00    -0.200 F 
ENDBRANCH  62  85
ENDBRANCH  36  37
ENDBRANCH  28  31
ENDBRANCH  26  27
ENDBRANCH  25  26
ENDBRANCH   1  25
TORSDOF 14
ENDMDL
