MODEL 1
REMARK VINA RESULT:     -13.9      0.000      0.000
REMARK SMILES COc1cc([C@@H]2N=c3ccc(C(=O)NCCCCNC(=O)c4ccc(-c5c6nc(c(-c7c(F)c(F)c(F)c(F)c7F)c7ccc([nH]7)c(-c7c(F)c(F)c(F)c(F)c7F)c7nc(c(-c8c(F)c(F)c(F)c(F)c8F)c8ccc5[nH]8)C=C7)C=C6)cc4)cc3=N2)ccc1C
REMARK SMILES IDX 16 1 15 2 14 3 12 4 13 5 11 7 6 8 7 9 87 10 8 11 86 12 9 13
REMARK SMILES IDX 85 14 10 15 5 16 3 17 4 18 90 19 89 20 91 21 88 22 2 23 1 24
REMARK SMILES IDX 17 25 18 26 19 27 20 28 21 30 22 31 23 32 84 33 24 34 83 35
REMARK SMILES IDX 25 36 26 37 27 38 77 39 28 40 82 41 76 42 78 43 29 44 81 45
REMARK SMILES IDX 75 46 74 47 30 49 62 50 42 51 61 52 43 53 46 54 60 55 79 56
REMARK SMILES IDX 44 57 45 58 59 60 80 61 47 62 31 63 32 64 40 65 33 66 34 67
REMARK SMILES IDX 38 68 41 69 35 70 36 71 39 72 37 73 63 74 64 75 72 76 65 77
REMARK SMILES IDX 66 78 70 79 73 80 67 81 68 82 71 83 69 84 48 85 49 86 57 87
REMARK SMILES IDX 50 88 51 89 55 90 58 91 52 92 53 93 56 94 54 95
REMARK H PARENT 14 6 19 29 78 48 46 59
REMARK Flexibility Score: inf
ROOT
ATOM      1  C   UNL A   1      36.543  24.032  25.526  1.00  0.00     0.023 C 
ENDROOT
BRANCH   1   2
ATOM      2  C   UNL A   1      35.505  23.525  24.526  1.00  0.00     0.116 C 
BRANCH   2   3
ATOM      3  N   UNL A   1      35.568  22.090  24.362  1.00  0.00    -0.352 N 
ATOM      4  C   UNL A   1      35.010  21.045  25.012  1.00  0.00     0.251 C 
ATOM      5  O   UNL A   1      35.473  19.937  24.721  1.00  0.00    -0.269 OA
ATOM      6  H   UNL A   1      36.143  21.814  23.612  1.00  0.00     0.163 HD
BRANCH   4   7
ATOM      7  C   UNL A   1      33.845  21.146  25.965  1.00  0.00     0.042 A 
ATOM      8  C   UNL A   1      30.866  24.281  25.990  1.00  0.00     0.253 C 
ATOM      9  N   UNL A   1      31.469  24.063  27.341  1.00  0.00    -0.252 NA
ATOM     10  N   UNL A   1      30.896  23.001  25.216  1.00  0.00    -0.252 NA
ATOM     11  C   UNL A   1      32.120  22.970  27.154  1.00  0.00     0.086 A 
ATOM     12  C   UNL A   1      31.811  22.352  25.848  1.00  0.00     0.087 A 
ATOM     13  C   UNL A   1      33.130  22.346  28.001  1.00  0.00     0.031 A 
ATOM     14  C   UNL A   1      32.677  21.298  25.304  1.00  0.00     0.044 A 
ATOM     15  C   UNL A   1      33.962  21.495  27.379  1.00  0.00     0.016 A 
BRANCH   8  16
ATOM     16  C   UNL A   1      31.677  25.338  25.222  1.00  0.00     0.002 A 
ATOM     17  C   UNL A   1      32.253  26.521  23.171  1.00  0.00     0.122 A 
ATOM     18  C   UNL A   1      31.472  25.573  23.858  1.00  0.00     0.054 A 
ATOM     19  C   UNL A   1      33.275  27.225  23.830  1.00  0.00    -0.009 A 
ATOM     20  C   UNL A   1      33.480  26.993  25.189  1.00  0.00     0.007 A 
ATOM     21  C   UNL A   1      34.171  28.214  23.146  1.00  0.00     0.048 C 
ATOM     22  C   UNL A   1      32.688  26.076  25.872  1.00  0.00     0.008 A 
BRANCH  17  23
ATOM     23  O   UNL A   1      32.110  26.754  21.827  1.00  0.00    -0.496 OA
ATOM     24  C   UNL A   1      32.617  25.708  21.005  1.00  0.00     0.278 C 
ENDBRANCH  17  23
ENDBRANCH   8  16
ENDBRANCH   4   7
ENDBRANCH   2   3
ENDBRANCH   1   2
BRANCH   1  25
ATOM     25  C   UNL A   1      37.976  23.557  25.251  1.00  0.00     0.023 C 
BRANCH  25  26
ATOM     26  C   UNL A   1      38.638  22.849  26.424  1.00  0.00     0.116 C 
BRANCH  26  27
ATOM     27  N   UNL A   1      40.084  23.001  26.492  1.00  0.00    -0.352 N 
ATOM     28  C   UNL A   1      40.858  24.139  26.646  1.00  0.00     0.251 C 
ATOM     29  H   UNL A   1      40.593  22.160  26.417  1.00  0.00     0.163 HD
ATOM     30  O   UNL A   1      42.073  24.057  26.561  1.00  0.00    -0.269 OA
BRANCH  28  31
ATOM     31  C   UNL A   1      40.232  25.429  27.047  1.00  0.00     0.039 A 
ATOM     32  C   UNL A   1      40.597  26.588  26.345  1.00  0.00     0.014 A 
ATOM     33  C   UNL A   1      39.447  25.539  28.188  1.00  0.00     0.014 A 
ATOM     34  C   UNL A   1      40.389  27.841  26.921  1.00  0.00     0.010 A 
ATOM     35  C   UNL A   1      39.341  26.764  28.816  1.00  0.00     0.010 A 
ATOM     36  C   UNL A   1      39.868  27.908  28.212  1.00  0.00    -0.014 A 
BRANCH  36  37
ATOM     37  C   UNL A   1      39.931  29.095  29.055  1.00  0.00     0.031 A 
ATOM     38  C   UNL A   1      38.870  30.120  29.007  1.00  0.00     0.074 A 
ATOM     39  C   UNL A   1      40.897  29.179  29.997  1.00  0.00     0.049 A 
ATOM     40  N   UNL A   1      39.026  31.335  29.415  1.00  0.00    -0.248 NA
ATOM     41  C   UNL A   1      37.537  29.853  28.477  1.00  0.00     0.031 C 
ATOM     42  C   UNL A   1      40.963  30.106  31.124  1.00  0.00     0.029 A 
ATOM     43  N   UNL A   1      42.147  28.534  30.008  1.00  0.00    -0.354 N 
ATOM     44  C   UNL A   1      37.786  31.919  29.452  1.00  0.00     0.074 A 
ATOM     45  C   UNL A   1      36.896  30.977  28.811  1.00  0.00     0.031 C 
ATOM     46  C   UNL A   1      42.242  30.218  31.517  1.00  0.00     0.029 A 
ATOM     47  C   UNL A   1      43.047  29.479  30.562  1.00  0.00     0.049 A 
ATOM     48  H   UNL A   1      42.353  27.624  29.697  1.00  0.00     0.167 HD
ATOM     49  C   UNL A   1      37.602  33.088  30.126  1.00  0.00     0.037 A 
ATOM     50  C   UNL A   1      44.051  30.007  29.801  1.00  0.00     0.037 A 
ATOM     51  C   UNL A   1      38.837  33.603  30.697  1.00  0.00     0.049 A 
ATOM     52  C   UNL A   1      43.964  31.504  29.592  1.00  0.00     0.074 A 
ATOM     53  C   UNL A   1      39.424  33.535  31.950  1.00  0.00     0.029 A 
ATOM     54  N   UNL A   1      39.830  34.033  29.835  1.00  0.00    -0.354 N 
ATOM     55  N   UNL A   1      42.973  32.248  29.997  1.00  0.00    -0.248 NA
ATOM     56  C   UNL A   1      44.948  32.264  28.815  1.00  0.00     0.031 C 
ATOM     57  C   UNL A   1      40.797  33.885  31.818  1.00  0.00     0.029 A 
ATOM     58  C   UNL A   1      41.039  34.177  30.489  1.00  0.00     0.049 A 
ATOM     59  H   UNL A   1      39.693  34.215  28.877  1.00  0.00     0.167 HD
ATOM     60  C   UNL A   1      43.138  33.518  29.521  1.00  0.00     0.074 A 
ATOM     61  C   UNL A   1      44.389  33.484  28.788  1.00  0.00     0.031 C 
ATOM     62  C   UNL A   1      42.225  34.508  29.723  1.00  0.00     0.037 A 
BRANCH  49  63
ATOM     63  C   UNL A   1      36.228  33.601  30.443  1.00  0.00     0.064 A 
ATOM     64  C   UNL A   1      35.399  34.133  29.437  1.00  0.00     0.173 A 
ATOM     65  C   UNL A   1      35.706  33.639  31.749  1.00  0.00     0.173 A 
ATOM     66  F   UNL A   1      35.764  34.108  28.149  1.00  0.00    -0.203 F 
ATOM     67  C   UNL A   1      34.177  34.739  29.730  1.00  0.00     0.198 A 
ATOM     68  C   UNL A   1      34.509  34.294  32.048  1.00  0.00     0.198 A 
ATOM     69  F   UNL A   1      36.351  33.041  32.762  1.00  0.00    -0.203 F 
ATOM     70  F   UNL A   1      33.428  35.239  28.736  1.00  0.00    -0.200 F 
ATOM     71  C   UNL A   1      33.748  34.851  31.037  1.00  0.00     0.200 A 
ATOM     72  F   UNL A   1      34.107  34.399  33.322  1.00  0.00    -0.200 F 
ATOM     73  F   UNL A   1      32.604  35.487  31.323  1.00  0.00    -0.200 F 
ENDBRANCH  49  63
BRANCH  50  74
ATOM     74  C   UNL A   1      44.580  29.036  28.807  1.00  0.00     0.064 A 
ATOM     75  C   UNL A   1      45.392  27.982  29.272  1.00  0.00     0.173 A 
ATOM     76  C   UNL A   1      44.001  28.898  27.541  1.00  0.00     0.173 A 
ATOM     77  F   UNL A   1      45.968  28.062  30.483  1.00  0.00    -0.203 F 
ATOM     78  C   UNL A   1      45.508  26.791  28.562  1.00  0.00     0.198 A 
ATOM     79  C   UNL A   1      44.139  27.710  26.821  1.00  0.00     0.198 A 
ATOM     80  F   UNL A   1      43.202  29.857  27.051  1.00  0.00    -0.203 F 
ATOM     81  F   UNL A   1      46.178  25.758  29.093  1.00  0.00    -0.200 F 
ATOM     82  C   UNL A   1      44.858  26.647  27.348  1.00  0.00     0.200 A 
ATOM     83  F   UNL A   1      43.489  27.561  25.658  1.00  0.00    -0.200 F 
ATOM     84  F   UNL A   1      44.885  25.469  26.709  1.00  0.00    -0.200 F 
ENDBRANCH  50  74
BRANCH  62  85
ATOM     85  C   UNL A   1      42.415  35.901  29.221  1.00  0.00     0.064 A 
ATOM     86  C   UNL A   1      41.873  36.323  27.998  1.00  0.00     0.173 A 
ATOM     87  C   UNL A   1      43.259  36.807  29.890  1.00  0.00     0.173 A 
ATOM     88  F   UNL A   1      41.083  35.507  27.285  1.00  0.00    -0.203 F 
ATOM     89  C   UNL A   1      42.149  37.588  27.482  1.00  0.00     0.198 A 
ATOM     90  C   UNL A   1      43.570  38.051  29.348  1.00  0.00     0.198 A 
ATOM     91  F   UNL A   1      43.787  36.507  31.086  1.00  0.00    -0.203 F 
ATOM     92  F   UNL A   1      41.585  37.973  26.328  1.00  0.00    -0.200 F 
ATOM     93  C   UNL A   1      43.009  38.444  28.148  1.00  0.00     0.200 A 
ATOM     94  F   UNL A   1      44.416  38.865  29.996  1.00  0.00    -0.200 F 
ATOM     95  F   UNL A   1      43.296  39.649  27.636  1.00  0.00    -0.200 F 
ENDBRANCH  62  85
ENDBRANCH  36  37
ENDBRANCH  28  31
ENDBRANCH  26  27
ENDBRANCH  25  26
ENDBRANCH   1  25
TORSDOF 13
ENDMDL
MODEL 2
REMARK VINA RESULT:     -13.9      3.764     10.089
REMARK SMILES COc1cc([C@@H]2N=c3ccc(C(=O)NCCCCNC(=O)c4ccc(-c5c6nc(c(-c7c(F)c(F)c(F)c(F)c7F)c7ccc([nH]7)c(-c7c(F)c(F)c(F)c(F)c7F)c7nc(c(-c8c(F)c(F)c(F)c(F)c8F)c8ccc5[nH]8)C=C7)C=C6)cc4)cc3=N2)ccc1C
REMARK SMILES IDX 16 1 15 2 14 3 12 4 13 5 11 7 6 8 7 9 87 10 8 11 86 12 9 13
REMARK SMILES IDX 85 14 10 15 5 16 3 17 4 18 90 19 89 20 91 21 88 22 2 23 1 24
REMARK SMILES IDX 17 25 18 26 19 27 20 28 21 30 22 31 23 32 84 33 24 34 83 35
REMARK SMILES IDX 25 36 26 37 27 38 77 39 28 40 82 41 76 42 78 43 29 44 81 45
REMARK SMILES IDX 75 46 74 47 30 49 62 50 42 51 61 52 43 53 46 54 60 55 79 56
REMARK SMILES IDX 44 57 45 58 59 60 80 61 47 62 31 63 32 64 40 65 33 66 34 67
REMARK SMILES IDX 38 68 41 69 35 70 36 71 39 72 37 73 63 74 64 75 72 76 65 77
REMARK SMILES IDX 66 78 70 79 73 80 67 81 68 82 71 83 69 84 48 85 49 86 57 87
REMARK SMILES IDX 50 88 51 89 55 90 58 91 52 92 53 93 56 94 54 95
REMARK H PARENT 14 6 19 29 78 48 46 59
REMARK Flexibility Score: inf
ROOT
ATOM      1  C   UNL A   1      33.664  27.873  26.564  1.00  0.00     0.023 C 
ENDROOT
BRANCH   1   2
ATOM      2  C   UNL A   1      32.241  27.429  26.228  1.00  0.00     0.116 C 
BRANCH   2   3
ATOM      3  N   UNL A   1      31.421  28.535  25.786  1.00  0.00    -0.352 N 
ATOM      4  C   UNL A   1      31.296  29.204  24.619  1.00  0.00     0.251 C 
ATOM      5  O   UNL A   1      30.639  30.249  24.680  1.00  0.00    -0.269 OA
ATOM      6  H   UNL A   1      30.821  28.873  26.490  1.00  0.00     0.163 HD
BRANCH   4   7
ATOM      7  C   UNL A   1      31.817  28.721  23.289  1.00  0.00     0.042 A 
ATOM      8  C   UNL A   1      32.892  24.644  22.327  1.00  0.00     0.253 C 
ATOM      9  N   UNL A   1      33.977  25.612  21.977  1.00  0.00    -0.252 NA
ATOM     10  N   UNL A   1      31.563  25.326  22.235  1.00  0.00    -0.252 NA
ATOM     11  C   UNL A   1      33.367  26.736  22.117  1.00  0.00     0.086 A 
ATOM     12  C   UNL A   1      31.915  26.563  22.322  1.00  0.00     0.087 A 
ATOM     13  C   UNL A   1      33.924  28.082  22.171  1.00  0.00     0.031 A 
ATOM     14  C   UNL A   1      31.100  27.675  22.826  1.00  0.00     0.044 A 
ATOM     15  C   UNL A   1      33.155  29.003  22.774  1.00  0.00     0.016 A 
BRANCH   8  16
ATOM     16  C   UNL A   1      33.087  24.140  23.766  1.00  0.00     0.002 A 
ATOM     17  C   UNL A   1      34.502  23.347  25.585  1.00  0.00     0.122 A 
ATOM     18  C   UNL A   1      34.355  23.841  24.275  1.00  0.00     0.054 A 
ATOM     19  C   UNL A   1      33.378  23.112  26.394  1.00  0.00    -0.009 A 
ATOM     20  C   UNL A   1      32.113  23.409  25.891  1.00  0.00     0.007 A 
ATOM     21  C   UNL A   1      33.463  22.544  27.780  1.00  0.00     0.048 C 
ATOM     22  C   UNL A   1      31.974  23.924  24.606  1.00  0.00     0.008 A 
BRANCH  17  23
ATOM     23  O   UNL A   1      35.723  23.006  26.108  1.00  0.00    -0.496 OA
ATOM     24  C   UNL A   1      36.812  23.729  25.543  1.00  0.00     0.278 C 
ENDBRANCH  17  23
ENDBRANCH   8  16
ENDBRANCH   4   7
ENDBRANCH   2   3
ENDBRANCH   1   2
BRANCH   1  25
ATOM     25  C   UNL A   1      33.757  28.913  27.688  1.00  0.00     0.023 C 
BRANCH  25  26
ATOM     26  C   UNL A   1      34.289  30.269  27.245  1.00  0.00     0.116 C 
BRANCH  26  27
ATOM     27  N   UNL A   1      34.785  31.111  28.323  1.00  0.00    -0.352 N 
ATOM     28  C   UNL A   1      35.832  30.909  29.208  1.00  0.00     0.251 C 
ATOM     29  H   UNL A   1      34.300  31.961  28.442  1.00  0.00     0.163 HD
ATOM     30  O   UNL A   1      36.010  31.700  30.121  1.00  0.00    -0.269 OA
BRANCH  28  31
ATOM     31  C   UNL A   1      36.818  29.818  28.974  1.00  0.00     0.039 A 
ATOM     32  C   UNL A   1      37.091  28.936  30.030  1.00  0.00     0.014 A 
ATOM     33  C   UNL A   1      37.588  29.762  27.818  1.00  0.00     0.014 A 
ATOM     34  C   UNL A   1      38.269  28.189  30.021  1.00  0.00     0.010 A 
ATOM     35  C   UNL A   1      38.808  29.116  27.854  1.00  0.00     0.010 A 
ATOM     36  C   UNL A   1      39.177  28.380  28.982  1.00  0.00    -0.014 A 
BRANCH  36  37
ATOM     37  C   UNL A   1      40.569  27.951  29.027  1.00  0.00     0.031 A 
ATOM     38  C   UNL A   1      40.980  26.641  28.484  1.00  0.00     0.074 A 
ATOM     39  C   UNL A   1      41.513  28.829  29.436  1.00  0.00     0.049 A 
ATOM     40  N   UNL A   1      42.074  26.039  28.812  1.00  0.00    -0.248 NA
ATOM     41  C   UNL A   1      40.172  25.894  27.526  1.00  0.00     0.031 C 
ATOM     42  C   UNL A   1      42.960  28.719  29.274  1.00  0.00     0.029 A 
ATOM     43  N   UNL A   1      41.344  29.946  30.272  1.00  0.00    -0.354 N 
ATOM     44  C   UNL A   1      42.243  24.991  27.944  1.00  0.00     0.074 A 
ATOM     45  C   UNL A   1      41.010  24.908  27.193  1.00  0.00     0.031 C 
ATOM     46  C   UNL A   1      43.558  29.485  30.200  1.00  0.00     0.029 A 
ATOM     47  C   UNL A   1      42.514  29.992  31.071  1.00  0.00     0.049 A 
ATOM     48  H   UNL A   1      40.578  30.564  30.298  1.00  0.00     0.167 HD
ATOM     49  C   UNL A   1      43.451  24.369  27.852  1.00  0.00     0.037 A 
ATOM     50  C   UNL A   1      42.440  29.783  32.419  1.00  0.00     0.037 A 
ATOM     51  C   UNL A   1      44.427  24.906  28.789  1.00  0.00     0.049 A 
ATOM     52  C   UNL A   1      43.195  28.566  32.911  1.00  0.00     0.074 A 
ATOM     53  C   UNL A   1      45.446  25.838  28.692  1.00  0.00     0.029 A 
ATOM     54  N   UNL A   1      44.213  24.714  30.143  1.00  0.00    -0.354 N 
ATOM     55  N   UNL A   1      43.789  27.704  32.134  1.00  0.00    -0.248 NA
ATOM     56  C   UNL A   1      43.250  28.173  34.321  1.00  0.00     0.031 C 
ATOM     57  C   UNL A   1      45.807  26.240  30.009  1.00  0.00     0.029 A 
ATOM     58  C   UNL A   1      45.017  25.541  30.902  1.00  0.00     0.049 A 
ATOM     59  H   UNL A   1      43.571  24.068  30.517  1.00  0.00     0.167 HD
ATOM     60  C   UNL A   1      44.244  26.658  32.886  1.00  0.00     0.074 A 
ATOM     61  C   UNL A   1      43.887  26.993  34.250  1.00  0.00     0.031 C 
ATOM     62  C   UNL A   1      44.850  25.566  32.342  1.00  0.00     0.037 A 
BRANCH  49  63
ATOM     63  C   UNL A   1      43.766  23.433  26.724  1.00  0.00     0.064 A 
ATOM     64  C   UNL A   1      43.295  22.106  26.724  1.00  0.00     0.173 A 
ATOM     65  C   UNL A   1      44.584  23.790  25.636  1.00  0.00     0.173 A 
ATOM     66  F   UNL A   1      42.468  21.661  27.678  1.00  0.00    -0.203 F 
ATOM     67  C   UNL A   1      43.689  21.181  25.756  1.00  0.00     0.198 A 
ATOM     68  C   UNL A   1      45.021  22.852  24.699  1.00  0.00     0.198 A 
ATOM     69  F   UNL A   1      44.979  25.061  25.465  1.00  0.00    -0.203 F 
ATOM     70  F   UNL A   1      43.219  19.926  25.806  1.00  0.00    -0.200 F 
ATOM     71  C   UNL A   1      44.578  21.544  24.764  1.00  0.00     0.200 A 
ATOM     72  F   UNL A   1      45.889  23.216  23.745  1.00  0.00    -0.200 F 
ATOM     73  F   UNL A   1      45.003  20.640  23.871  1.00  0.00    -0.200 F 
ENDBRANCH  49  63
BRANCH  50  74
ATOM     74  C   UNL A   1      41.173  30.295  33.004  1.00  0.00     0.064 A 
ATOM     75  C   UNL A   1      40.990  31.691  33.079  1.00  0.00     0.173 A 
ATOM     76  C   UNL A   1      40.036  29.486  33.108  1.00  0.00     0.173 A 
ATOM     77  F   UNL A   1      42.048  32.513  32.981  1.00  0.00    -0.203 F 
ATOM     78  C   UNL A   1      39.717  32.252  33.120  1.00  0.00     0.198 A 
ATOM     79  C   UNL A   1      38.762  30.053  33.171  1.00  0.00     0.198 A 
ATOM     80  F   UNL A   1      40.142  28.152  33.023  1.00  0.00    -0.203 F 
ATOM     81  F   UNL A   1      39.571  33.583  33.055  1.00  0.00    -0.200 F 
ATOM     82  C   UNL A   1      38.603  31.431  33.138  1.00  0.00     0.200 A 
ATOM     83  F   UNL A   1      37.683  29.259  33.163  1.00  0.00    -0.200 F 
ATOM     84  F   UNL A   1      37.375  31.965  33.076  1.00  0.00    -0.200 F 
ENDBRANCH  50  74
BRANCH  62  85
ATOM     85  C   UNL A   1      45.366  24.432  33.165  1.00  0.00     0.064 A 
ATOM     86  C   UNL A   1      44.573  23.313  33.456  1.00  0.00     0.173 A 
ATOM     87  C   UNL A   1      46.623  24.503  33.795  1.00  0.00     0.173 A 
ATOM     88  F   UNL A   1      43.350  23.186  32.920  1.00  0.00    -0.203 F 
ATOM     89  C   UNL A   1      45.020  22.313  34.318  1.00  0.00     0.198 A 
ATOM     90  C   UNL A   1      47.047  23.525  34.691  1.00  0.00     0.198 A 
ATOM     91  F   UNL A   1      47.468  25.514  33.543  1.00  0.00    -0.203 F 
ATOM     92  F   UNL A   1      44.251  21.238  34.546  1.00  0.00    -0.200 F 
ATOM     93  C   UNL A   1      46.248  22.426  34.947  1.00  0.00     0.200 A 
ATOM     94  F   UNL A   1      48.232  23.655  35.304  1.00  0.00    -0.200 F 
ATOM     95  F   UNL A   1      46.664  21.478  35.796  1.00  0.00    -0.200 F 
ENDBRANCH  62  85
ENDBRANCH  36  37
ENDBRANCH  28  31
ENDBRANCH  26  27
ENDBRANCH  25  26
ENDBRANCH   1  25
TORSDOF 13
ENDMDL
MODEL 3
REMARK VINA RESULT:     -13.6      0.757      1.576
REMARK SMILES COc1cc([C@@H]2N=c3ccc(C(=O)NCCCCNC(=O)c4ccc(-c5c6nc(c(-c7c(F)c(F)c(F)c(F)c7F)c7ccc([nH]7)c(-c7c(F)c(F)c(F)c(F)c7F)c7nc(c(-c8c(F)c(F)c(F)c(F)c8F)c8ccc5[nH]8)C=C7)C=C6)cc4)cc3=N2)ccc1C
REMARK SMILES IDX 16 1 15 2 14 3 12 4 13 5 11 7 6 8 7 9 87 10 8 11 86 12 9 13
REMARK SMILES IDX 85 14 10 15 5 16 3 17 4 18 90 19 89 20 91 21 88 22 2 23 1 24
REMARK SMILES IDX 17 25 18 26 19 27 20 28 21 30 22 31 23 32 84 33 24 34 83 35
REMARK SMILES IDX 25 36 26 37 27 38 77 39 28 40 82 41 76 42 78 43 29 44 81 45
REMARK SMILES IDX 75 46 74 47 30 49 62 50 42 51 61 52 43 53 46 54 60 55 79 56
REMARK SMILES IDX 44 57 45 58 59 60 80 61 47 62 31 63 32 64 40 65 33 66 34 67
REMARK SMILES IDX 38 68 41 69 35 70 36 71 39 72 37 73 63 74 64 75 72 76 65 77
REMARK SMILES IDX 66 78 70 79 73 80 67 81 68 82 71 83 69 84 48 85 49 86 57 87
REMARK SMILES IDX 50 88 51 89 55 90 58 91 52 92 53 93 56 94 54 95
REMARK H PARENT 14 6 19 29 78 48 46 59
REMARK Flexibility Score: inf
ROOT
ATOM      1  C   UNL A   1      36.454  23.919  25.554  1.00  0.00     0.023 C 
ENDROOT
BRANCH   1   2
ATOM      2  C   UNL A   1      35.556  23.417  24.425  1.00  0.00     0.116 C 
BRANCH   2   3
ATOM      3  N   UNL A   1      35.579  21.976  24.316  1.00  0.00    -0.352 N 
ATOM      4  C   UNL A   1      34.980  20.973  24.996  1.00  0.00     0.251 C 
ATOM      5  O   UNL A   1      35.415  19.841  24.754  1.00  0.00    -0.269 OA
ATOM      6  H   UNL A   1      36.157  21.654  23.586  1.00  0.00     0.163 HD
BRANCH   4   7
ATOM      7  C   UNL A   1      33.805  21.143  25.924  1.00  0.00     0.042 A 
ATOM      8  C   UNL A   1      31.005  24.439  25.876  1.00  0.00     0.253 C 
ATOM      9  N   UNL A   1      31.568  24.196  27.240  1.00  0.00    -0.252 NA
ATOM     10  N   UNL A   1      30.978  23.155  25.109  1.00  0.00    -0.252 NA
ATOM     11  C   UNL A   1      32.161  23.067  27.070  1.00  0.00     0.086 A 
ATOM     12  C   UNL A   1      31.844  22.460  25.762  1.00  0.00     0.087 A 
ATOM     13  C   UNL A   1      33.117  22.393  27.940  1.00  0.00     0.031 A 
ATOM     14  C   UNL A   1      32.660  21.357  25.240  1.00  0.00     0.044 A 
ATOM     15  C   UNL A   1      33.912  21.494  27.339  1.00  0.00     0.016 A 
BRANCH   8  16
ATOM     16  C   UNL A   1      31.888  25.445  25.119  1.00  0.00     0.002 A 
ATOM     17  C   UNL A   1      33.321  27.415  25.058  1.00  0.00     0.122 A 
ATOM     18  C   UNL A   1      32.548  26.486  25.780  1.00  0.00     0.054 A 
ATOM     19  C   UNL A   1      33.418  27.336  23.659  1.00  0.00    -0.009 A 
ATOM     20  C   UNL A   1      32.762  26.299  22.998  1.00  0.00     0.007 A 
ATOM     21  C   UNL A   1      34.188  28.319  22.827  1.00  0.00     0.048 C 
ATOM     22  C   UNL A   1      32.022  25.367  23.717  1.00  0.00     0.008 A 
BRANCH  17  23
ATOM     23  O   UNL A   1      33.953  28.471  25.662  1.00  0.00    -0.496 OA
ATOM     24  C   UNL A   1      33.790  28.506  27.076  1.00  0.00     0.278 C 
ENDBRANCH  17  23
ENDBRANCH   8  16
ENDBRANCH   4   7
ENDBRANCH   2   3
ENDBRANCH   1   2
BRANCH   1  25
ATOM     25  C   UNL A   1      37.950  23.647  25.345  1.00  0.00     0.023 C 
BRANCH  25  26
ATOM     26  C   UNL A   1      38.572  22.727  26.386  1.00  0.00     0.116 C 
BRANCH  26  27
ATOM     27  N   UNL A   1      40.009  22.880  26.555  1.00  0.00    -0.352 N 
ATOM     28  C   UNL A   1      40.766  24.014  26.800  1.00  0.00     0.251 C 
ATOM     29  H   UNL A   1      40.526  22.044  26.484  1.00  0.00     0.163 HD
ATOM     30  O   UNL A   1      41.984  23.937  26.794  1.00  0.00    -0.269 OA
BRANCH  28  31
ATOM     31  C   UNL A   1      40.109  25.287  27.205  1.00  0.00     0.039 A 
ATOM     32  C   UNL A   1      40.415  26.449  26.479  1.00  0.00     0.014 A 
ATOM     33  C   UNL A   1      39.353  25.385  28.367  1.00  0.00     0.014 A 
ATOM     34  C   UNL A   1      40.181  27.701  27.048  1.00  0.00     0.010 A 
ATOM     35  C   UNL A   1      39.224  26.613  28.984  1.00  0.00     0.010 A 
ATOM     36  C   UNL A   1      39.695  27.766  28.352  1.00  0.00    -0.014 A 
BRANCH  36  37
ATOM     37  C   UNL A   1      39.742  28.964  29.180  1.00  0.00     0.031 A 
ATOM     38  C   UNL A   1      38.723  30.024  29.043  1.00  0.00     0.074 A 
ATOM     39  C   UNL A   1      40.644  29.032  30.185  1.00  0.00     0.049 A 
ATOM     40  N   UNL A   1      38.894  31.240  29.443  1.00  0.00    -0.248 NA
ATOM     41  C   UNL A   1      37.421  29.794  28.426  1.00  0.00     0.031 C 
ATOM     42  C   UNL A   1      40.665  29.976  31.299  1.00  0.00     0.029 A 
ATOM     43  N   UNL A   1      41.866  28.345  30.292  1.00  0.00    -0.354 N 
ATOM     44  C   UNL A   1      37.676  31.867  29.385  1.00  0.00     0.074 A 
ATOM     45  C   UNL A   1      36.798  30.945  28.699  1.00  0.00     0.031 C 
ATOM     46  C   UNL A   1      41.917  30.051  31.778  1.00  0.00     0.029 A 
ATOM     47  C   UNL A   1      42.759  29.269  30.892  1.00  0.00     0.049 A 
ATOM     48  H   UNL A   1      42.061  27.423  30.009  1.00  0.00     0.167 HD
ATOM     49  C   UNL A   1      37.487  33.053  30.028  1.00  0.00     0.037 A 
ATOM     50  C   UNL A   1      43.831  29.748  30.194  1.00  0.00     0.037 A 
ATOM     51  C   UNL A   1      38.698  33.535  30.675  1.00  0.00     0.049 A 
ATOM     52  C   UNL A   1      43.811  31.243  29.957  1.00  0.00     0.074 A 
ATOM     53  C   UNL A   1      39.194  33.469  31.966  1.00  0.00     0.029 A 
ATOM     54  N   UNL A   1      39.762  33.916  29.877  1.00  0.00    -0.354 N 
ATOM     55  N   UNL A   1      42.821  32.028  30.282  1.00  0.00    -0.248 NA
ATOM     56  C   UNL A   1      44.872  31.956  29.239  1.00  0.00     0.031 C 
ATOM     57  C   UNL A   1      40.585  33.770  31.924  1.00  0.00     0.029 A 
ATOM     58  C   UNL A   1      40.927  34.030  30.610  1.00  0.00     0.049 A 
ATOM     59  H   UNL A   1      39.697  34.086  28.909  1.00  0.00     0.167 HD
ATOM     60  C   UNL A   1      43.063  33.283  29.799  1.00  0.00     0.074 A 
ATOM     61  C   UNL A   1      44.359  33.194  29.155  1.00  0.00     0.031 C 
ATOM     62  C   UNL A   1      42.174  34.307  29.923  1.00  0.00     0.037 A 
BRANCH  49  63
ATOM     63  C   UNL A   1      36.114  33.618  30.241  1.00  0.00     0.064 A 
ATOM     64  C   UNL A   1      35.372  34.154  29.172  1.00  0.00     0.173 A 
ATOM     65  C   UNL A   1      35.508  33.702  31.508  1.00  0.00     0.173 A 
ATOM     66  F   UNL A   1      35.821  34.088  27.912  1.00  0.00    -0.203 F 
ATOM     67  C   UNL A   1      34.155  34.807  29.370  1.00  0.00     0.198 A 
ATOM     68  C   UNL A   1      34.317  34.403  31.713  1.00  0.00     0.198 A 
ATOM     69  F   UNL A   1      36.063  33.107  32.574  1.00  0.00    -0.203 F 
ATOM     70  F   UNL A   1      33.491  35.309  28.318  1.00  0.00    -0.200 F 
ATOM     71  C   UNL A   1      33.644  34.962  30.643  1.00  0.00     0.200 A 
ATOM     72  F   UNL A   1      33.835  34.550  32.955  1.00  0.00    -0.200 F 
ATOM     73  F   UNL A   1      32.506  35.641  30.839  1.00  0.00    -0.200 F 
ENDBRANCH  49  63
BRANCH  50  74
ATOM     74  C   UNL A   1      44.392  28.743  29.254  1.00  0.00     0.064 A 
ATOM     75  C   UNL A   1      43.987  28.794  27.905  1.00  0.00     0.173 A 
ATOM     76  C   UNL A   1      45.560  28.033  29.553  1.00  0.00     0.173 A 
ATOM     77  F   UNL A   1      42.876  29.466  27.562  1.00  0.00    -0.203 F 
ATOM     78  C   UNL A   1      44.786  28.275  26.890  1.00  0.00     0.198 A 
ATOM     79  C   UNL A   1      46.347  27.494  28.534  1.00  0.00     0.198 A 
ATOM     80  F   UNL A   1      46.008  27.964  30.815  1.00  0.00    -0.203 F 
ATOM     81  F   UNL A   1      44.440  28.458  25.607  1.00  0.00    -0.200 F 
ATOM     82  C   UNL A   1      45.980  27.650  27.205  1.00  0.00     0.200 A 
ATOM     83  F   UNL A   1      47.514  26.911  28.838  1.00  0.00    -0.200 F 
ATOM     84  F   UNL A   1      46.800  27.238  26.228  1.00  0.00    -0.200 F 
ENDBRANCH  50  74
BRANCH  62  85
ATOM     85  C   UNL A   1      42.447  35.684  29.415  1.00  0.00     0.064 A 
ATOM     86  C   UNL A   1      41.944  36.126  28.183  1.00  0.00     0.173 A 
ATOM     87  C   UNL A   1      43.332  36.546  30.088  1.00  0.00     0.173 A 
ATOM     88  F   UNL A   1      41.119  35.350  27.464  1.00  0.00    -0.203 F 
ATOM     89  C   UNL A   1      42.296  37.370  27.662  1.00  0.00     0.198 A 
ATOM     90  C   UNL A   1      43.717  37.768  29.543  1.00  0.00     0.198 A 
ATOM     91  F   UNL A   1      43.828  36.226  31.293  1.00  0.00    -0.203 F 
ATOM     92  F   UNL A   1      41.769  37.778  26.498  1.00  0.00    -0.200 F 
ATOM     93  C   UNL A   1      43.194  38.183  28.333  1.00  0.00     0.200 A 
ATOM     94  F   UNL A   1      44.599  38.539  30.197  1.00  0.00    -0.200 F 
ATOM     95  F   UNL A   1      43.553  39.366  27.817  1.00  0.00    -0.200 F 
ENDBRANCH  62  85
ENDBRANCH  36  37
ENDBRANCH  28  31
ENDBRANCH  26  27
ENDBRANCH  25  26
ENDBRANCH   1  25
TORSDOF 13
ENDMDL
