MODEL 1
REMARK VINA RESULT:     -11.8      0.000      0.000
REMARK SMILES C[C@H](CC(=O)NCCCCNC(=O)c1ccc(-c2c3nc(c(-c4c(F)c(F)c(F)c(F)c4F)c4ccc([nH]4)c(-c4c(F)c(F)c(F)c(F)c4F)c4nc(c(-c5c(F)c(F)c(F)c(F)c5F)c5ccc2[nH]5)C=C4)C=C3)cc1)NC(=O)CS[C@H]1CCS(=O)(=O)C1
REMARK SMILES IDX 7 1 6 2 4 3 5 4 3 6 2 7 1 8 77 9 78 10 79 12 80 13 81 14
REMARK SMILES IDX 82 15 83 16 88 17 84 18 85 19 86 20 87 21 8 22 9 23 10 24
REMARK SMILES IDX 11 25 12 26 13 28 14 29 15 30 76 31 16 32 75 33 17 34 18 35
REMARK SMILES IDX 19 36 69 37 20 38 74 39 68 40 70 41 21 42 73 43 67 44 66 45
REMARK SMILES IDX 22 47 54 48 34 49 53 50 35 51 38 52 52 53 71 54 36 55 37 56
REMARK SMILES IDX 51 58 72 59 39 60 23 61 24 62 32 63 25 64 26 65 30 66 33 67
REMARK SMILES IDX 27 68 28 69 31 70 29 71 55 72 56 73 64 74 57 75 58 76 62 77
REMARK SMILES IDX 65 78 59 79 60 80 63 81 61 82 40 83 41 84 49 85 42 86 43 87
REMARK SMILES IDX 47 88 50 89 44 90 45 91 48 92 46 93
REMARK H PARENT 6 5 77 11 11 27 70 46 38 57
REMARK Flexibility Score: inf
ROOT
ATOM      1  C   UNL A   1      33.235  30.205  27.247  1.00  0.00     0.116 C 
ENDROOT
BRANCH   1   2
ATOM      2  N   UNL A   1      33.132  28.821  27.620  1.00  0.00    -0.356 N 
ATOM      3  C   UNL A   1      32.982  27.895  26.634  1.00  0.00     0.222 C 
ATOM      4  O   UNL A   1      32.013  27.146  26.667  1.00  0.00    -0.275 OA
ATOM      5  H   UNL A   1      33.170  28.549  28.565  1.00  0.00     0.163 HD
BRANCH   3   6
ATOM      6  C   UNL A   1      34.015  27.893  25.527  1.00  0.00     0.124 C 
BRANCH   6   7
ATOM      7  C   UNL A   1      33.364  27.960  24.145  1.00  0.00     0.088 C 
ATOM      8  C   UNL A   1      34.254  28.577  23.071  1.00  0.00     0.031 C 
BRANCH   7   9
ATOM      9  N   UNL A   1      32.964  26.623  23.734  1.00  0.00    -0.352 N 
ATOM     10  C   UNL A   1      31.970  26.244  22.878  1.00  0.00     0.230 C 
ATOM     11  H   UNL A   1      33.483  25.886  24.131  1.00  0.00     0.163 HD
ATOM     12  O   UNL A   1      31.890  25.045  22.603  1.00  0.00    -0.274 OA
BRANCH  10  13
ATOM     13  C   UNL A   1      31.013  27.276  22.286  1.00  0.00     0.169 C 
BRANCH  13  14
ATOM     14  S   UNL A   1      30.103  28.176  23.601  1.00  0.00    -0.148 SA
BRANCH  14  15
ATOM     15  C   UNL A   1      29.682  29.781  22.805  1.00  0.00     0.063 C 
ATOM     16  C   UNL A   1      28.456  29.601  21.900  1.00  0.00     0.031 C 
ATOM     17  C   UNL A   1      29.328  30.869  23.796  1.00  0.00     0.151 C 
ATOM     18  C   UNL A   1      27.954  30.997  21.553  1.00  0.00     0.138 C 
ATOM     19  S   UNL A   1      28.087  31.912  23.063  1.00  0.00     0.151 S 
ATOM     20  O   UNL A   1      28.631  33.219  22.752  1.00  0.00    -0.229 OA
ATOM     21  O   UNL A   1      26.865  31.757  23.819  1.00  0.00    -0.229 OA
ENDBRANCH  14  15
ENDBRANCH  13  14
ENDBRANCH  10  13
ENDBRANCH   7   9
ENDBRANCH   6   7
ENDBRANCH   3   6
ENDBRANCH   1   2
BRANCH   1  22
ATOM     22  C   UNL A   1      31.859  30.690  26.768  1.00  0.00     0.023 C 
BRANCH  22  23
ATOM     23  C   UNL A   1      31.702  32.203  26.776  1.00  0.00     0.023 C 
BRANCH  23  24
ATOM     24  C   UNL A   1      32.832  32.892  27.508  1.00  0.00     0.116 C 
BRANCH  24  25
ATOM     25  N   UNL A   1      32.534  34.298  27.778  1.00  0.00    -0.352 N 
ATOM     26  C   UNL A   1      33.070  35.121  28.723  1.00  0.00     0.251 C 
ATOM     27  H   UNL A   1      31.851  34.707  27.198  1.00  0.00     0.163 HD
ATOM     28  O   UNL A   1      32.630  36.246  28.912  1.00  0.00    -0.269 OA
BRANCH  26  29
ATOM     29  C   UNL A   1      34.160  34.577  29.530  1.00  0.00     0.039 A 
ATOM     30  C   UNL A   1      33.840  33.914  30.711  1.00  0.00     0.014 A 
ATOM     31  C   UNL A   1      35.464  34.608  29.028  1.00  0.00     0.014 A 
ATOM     32  C   UNL A   1      34.849  33.244  31.384  1.00  0.00     0.010 A 
ATOM     33  C   UNL A   1      36.431  33.825  29.625  1.00  0.00     0.010 A 
ATOM     34  C   UNL A   1      36.139  33.173  30.829  1.00  0.00    -0.014 A 
BRANCH  34  35
ATOM     35  C   UNL A   1      37.212  32.458  31.540  1.00  0.00     0.031 A 
ATOM     36  C   UNL A   1      37.920  31.325  30.859  1.00  0.00     0.074 A 
ATOM     37  C   UNL A   1      37.535  32.841  32.789  1.00  0.00     0.049 A 
ATOM     38  N   UNL A   1      38.933  30.615  31.280  1.00  0.00    -0.248 NA
ATOM     39  C   UNL A   1      37.405  30.908  29.543  1.00  0.00     0.031 C 
ATOM     40  C   UNL A   1      36.851  33.884  33.559  1.00  0.00     0.029 A 
ATOM     41  N   UNL A   1      38.533  32.413  33.621  1.00  0.00    -0.354 N 
ATOM     42  C   UNL A   1      39.167  29.675  30.286  1.00  0.00     0.074 A 
ATOM     43  C   UNL A   1      38.140  29.839  29.286  1.00  0.00     0.031 C 
ATOM     44  C   UNL A   1      37.490  34.058  34.726  1.00  0.00     0.029 A 
ATOM     45  C   UNL A   1      38.602  33.115  34.798  1.00  0.00     0.049 A 
ATOM     46  H   UNL A   1      39.142  31.673  33.396  1.00  0.00     0.167 HD
ATOM     47  C   UNL A   1      40.178  28.782  30.198  1.00  0.00     0.037 A 
ATOM     48  C   UNL A   1      39.482  33.013  35.809  1.00  0.00     0.037 A 
ATOM     49  C   UNL A   1      41.202  28.647  31.197  1.00  0.00     0.049 A 
ATOM     50  C   UNL A   1      40.602  32.018  35.682  1.00  0.00     0.074 A 
ATOM     51  C   UNL A   1      42.301  27.810  31.202  1.00  0.00     0.029 A 
ATOM     52  N   UNL A   1      41.245  29.375  32.380  1.00  0.00    -0.354 N 
ATOM     53  N   UNL A   1      40.868  31.187  34.701  1.00  0.00    -0.248 NA
ATOM     54  C   UNL A   1      41.556  31.959  36.795  1.00  0.00     0.031 C 
ATOM     55  C   UNL A   1      42.977  27.989  32.414  1.00  0.00     0.029 A 
ATOM     56  C   UNL A   1      42.341  28.989  33.132  1.00  0.00     0.049 A 
ATOM     57  H   UNL A   1      40.592  30.063  32.644  1.00  0.00     0.167 HD
ATOM     58  C   UNL A   1      42.034  30.528  35.064  1.00  0.00     0.074 A 
ATOM     59  C   UNL A   1      42.436  31.079  36.344  1.00  0.00     0.031 C 
ATOM     60  C   UNL A   1      42.713  29.555  34.404  1.00  0.00     0.037 A 
BRANCH  47  61
ATOM     61  C   UNL A   1      40.215  27.897  28.986  1.00  0.00     0.064 A 
ATOM     62  C   UNL A   1      39.565  26.652  28.957  1.00  0.00     0.173 A 
ATOM     63  C   UNL A   1      40.906  28.299  27.834  1.00  0.00     0.173 A 
ATOM     64  F   UNL A   1      38.908  26.207  30.039  1.00  0.00    -0.203 F 
ATOM     65  C   UNL A   1      39.635  25.831  27.835  1.00  0.00     0.198 A 
ATOM     66  C   UNL A   1      40.942  27.492  26.699  1.00  0.00     0.198 A 
ATOM     67  F   UNL A   1      41.549  29.476  27.807  1.00  0.00    -0.203 F 
ATOM     68  F   UNL A   1      39.061  24.620  27.856  1.00  0.00    -0.200 F 
ATOM     69  C   UNL A   1      40.315  26.254  26.704  1.00  0.00     0.200 A 
ATOM     70  F   UNL A   1      41.591  27.909  25.603  1.00  0.00    -0.200 F 
ATOM     71  F   UNL A   1      40.375  25.467  25.622  1.00  0.00    -0.200 F 
ENDBRANCH  47  61
BRANCH  48  72
ATOM     72  C   UNL A   1      39.364  33.904  36.993  1.00  0.00     0.064 A 
ATOM     73  C   UNL A   1      38.693  33.485  38.151  1.00  0.00     0.173 A 
ATOM     74  C   UNL A   1      39.918  35.192  36.992  1.00  0.00     0.173 A 
ATOM     75  F   UNL A   1      38.137  32.265  38.198  1.00  0.00    -0.203 F 
ATOM     76  C   UNL A   1      38.553  34.331  39.248  1.00  0.00     0.198 A 
ATOM     77  C   UNL A   1      39.806  36.025  38.104  1.00  0.00     0.198 A 
ATOM     78  F   UNL A   1      40.583  35.637  35.915  1.00  0.00    -0.203 F 
ATOM     79  F   UNL A   1      37.859  33.924  40.321  1.00  0.00    -0.200 F 
ATOM     80  C   UNL A   1      39.114  35.599  39.226  1.00  0.00     0.200 A 
ATOM     81  F   UNL A   1      40.369  37.241  38.084  1.00  0.00    -0.200 F 
ATOM     82  F   UNL A   1      38.982  36.411  40.284  1.00  0.00    -0.200 F 
ENDBRANCH  48  72
BRANCH  60  83
ATOM     83  C   UNL A   1      43.980  29.062  35.043  1.00  0.00     0.064 A 
ATOM     84  C   UNL A   1      45.226  29.648  34.769  1.00  0.00     0.173 A 
ATOM     85  C   UNL A   1      43.944  27.989  35.947  1.00  0.00     0.173 A 
ATOM     86  F   UNL A   1      45.316  30.671  33.904  1.00  0.00    -0.203 F 
ATOM     87  C   UNL A   1      46.392  29.142  35.334  1.00  0.00     0.198 A 
ATOM     88  C   UNL A   1      45.107  27.515  36.543  1.00  0.00     0.198 A 
ATOM     89  F   UNL A   1      42.778  27.401  36.254  1.00  0.00    -0.203 F 
ATOM     90  F   UNL A   1      47.579  29.666  34.994  1.00  0.00    -0.200 F 
ATOM     91  C   UNL A   1      46.333  28.080  36.223  1.00  0.00     0.200 A 
ATOM     92  F   UNL A   1      45.045  26.502  37.418  1.00  0.00    -0.200 F 
ATOM     93  F   UNL A   1      47.458  27.593  36.763  1.00  0.00    -0.200 F 
ENDBRANCH  60  83
ENDBRANCH  34  35
ENDBRANCH  26  29
ENDBRANCH  24  25
ENDBRANCH  23  24
ENDBRANCH  22  23
ENDBRANCH   1  22
TORSDOF 16
ENDMDL
MODEL 2
REMARK VINA RESULT:     -11.8      2.028      7.916
REMARK SMILES C[C@H](CC(=O)NCCCCNC(=O)c1ccc(-c2c3nc(c(-c4c(F)c(F)c(F)c(F)c4F)c4ccc([nH]4)c(-c4c(F)c(F)c(F)c(F)c4F)c4nc(c(-c5c(F)c(F)c(F)c(F)c5F)c5ccc2[nH]5)C=C4)C=C3)cc1)NC(=O)CS[C@H]1CCS(=O)(=O)C1
REMARK SMILES IDX 7 1 6 2 4 3 5 4 3 6 2 7 1 8 77 9 78 10 79 12 80 13 81 14
REMARK SMILES IDX 82 15 83 16 88 17 84 18 85 19 86 20 87 21 8 22 9 23 10 24
REMARK SMILES IDX 11 25 12 26 13 28 14 29 15 30 76 31 16 32 75 33 17 34 18 35
REMARK SMILES IDX 19 36 69 37 20 38 74 39 68 40 70 41 21 42 73 43 67 44 66 45
REMARK SMILES IDX 22 47 54 48 34 49 53 50 35 51 38 52 52 53 71 54 36 55 37 56
REMARK SMILES IDX 51 58 72 59 39 60 23 61 24 62 32 63 25 64 26 65 30 66 33 67
REMARK SMILES IDX 27 68 28 69 31 70 29 71 55 72 56 73 64 74 57 75 58 76 62 77
REMARK SMILES IDX 65 78 59 79 60 80 63 81 61 82 40 83 41 84 49 85 42 86 43 87
REMARK SMILES IDX 47 88 50 89 44 90 45 91 48 92 46 93
REMARK H PARENT 6 5 77 11 11 27 70 46 38 57
REMARK Flexibility Score: inf
ROOT
ATOM      1  C   UNL A   1      32.016  30.031  25.429  1.00  0.00     0.116 C 
ENDROOT
BRANCH   1   2
ATOM      2  N   UNL A   1      33.325  29.525  25.119  1.00  0.00    -0.356 N 
ATOM      3  C   UNL A   1      33.422  28.440  24.303  1.00  0.00     0.222 C 
ATOM      4  O   UNL A   1      34.012  27.445  24.708  1.00  0.00    -0.275 OA
ATOM      5  H   UNL A   1      34.131  29.953  25.486  1.00  0.00     0.163 HD
BRANCH   3   6
ATOM      6  C   UNL A   1      32.742  28.529  22.954  1.00  0.00     0.124 C 
BRANCH   6   7
ATOM      7  C   UNL A   1      31.867  27.305  22.679  1.00  0.00     0.088 C 
ATOM      8  C   UNL A   1      30.371  27.602  22.670  1.00  0.00     0.031 C 
BRANCH   7   9
ATOM      9  N   UNL A   1      32.251  26.713  21.405  1.00  0.00    -0.352 N 
ATOM     10  C   UNL A   1      32.913  25.545  21.162  1.00  0.00     0.230 C 
ATOM     11  H   UNL A   1      31.998  27.229  20.606  1.00  0.00     0.163 HD
ATOM     12  O   UNL A   1      33.033  25.199  19.985  1.00  0.00    -0.274 OA
BRANCH  10  13
ATOM     13  C   UNL A   1      33.468  24.707  22.311  1.00  0.00     0.169 C 
BRANCH  13  14
ATOM     14  S   UNL A   1      32.491  23.172  22.553  1.00  0.00    -0.148 SA
BRANCH  14  15
ATOM     15  C   UNL A   1      32.348  23.042  24.383  1.00  0.00     0.063 C 
ATOM     16  C   UNL A   1      33.311  24.035  25.046  1.00  0.00     0.031 C 
ATOM     17  C   UNL A   1      30.965  23.372  24.903  1.00  0.00     0.151 C 
ATOM     18  C   UNL A   1      32.906  24.130  26.512  1.00  0.00     0.138 C 
ATOM     19  S   UNL A   1      31.136  24.155  26.491  1.00  0.00     0.151 S 
ATOM     20  O   UNL A   1      30.660  23.285  27.548  1.00  0.00    -0.229 OA
ATOM     21  O   UNL A   1      30.683  25.522  26.369  1.00  0.00    -0.229 OA
ENDBRANCH  14  15
ENDBRANCH  13  14
ENDBRANCH  10  13
ENDBRANCH   7   9
ENDBRANCH   6   7
ENDBRANCH   3   6
ENDBRANCH   1   2
BRANCH   1  22
ATOM     22  C   UNL A   1      32.023  30.570  26.867  1.00  0.00     0.023 C 
BRANCH  22  23
ATOM     23  C   UNL A   1      31.689  32.050  26.972  1.00  0.00     0.023 C 
BRANCH  23  24
ATOM     24  C   UNL A   1      32.882  32.878  27.392  1.00  0.00     0.116 C 
BRANCH  24  25
ATOM     25  N   UNL A   1      32.495  34.227  27.806  1.00  0.00    -0.352 N 
ATOM     26  C   UNL A   1      33.036  35.013  28.778  1.00  0.00     0.251 C 
ATOM     27  H   UNL A   1      31.739  34.622  27.313  1.00  0.00     0.163 HD
ATOM     28  O   UNL A   1      32.524  36.077  29.096  1.00  0.00    -0.269 OA
BRANCH  26  29
ATOM     29  C   UNL A   1      34.226  34.501  29.455  1.00  0.00     0.039 A 
ATOM     30  C   UNL A   1      34.052  33.636  30.531  1.00  0.00     0.014 A 
ATOM     31  C   UNL A   1      35.488  34.772  28.918  1.00  0.00     0.014 A 
ATOM     32  C   UNL A   1      35.170  33.009  31.059  1.00  0.00     0.010 A 
ATOM     33  C   UNL A   1      36.573  34.040  29.355  1.00  0.00     0.010 A 
ATOM     34  C   UNL A   1      36.427  33.186  30.455  1.00  0.00    -0.014 A 
BRANCH  34  35
ATOM     35  C   UNL A   1      37.616  32.519  31.012  1.00  0.00     0.031 A 
ATOM     36  C   UNL A   1      38.089  32.885  32.388  1.00  0.00     0.074 A 
ATOM     37  C   UNL A   1      38.251  31.591  30.272  1.00  0.00     0.049 A 
ATOM     38  N   UNL A   1      39.067  32.370  33.086  1.00  0.00    -0.248 NA
ATOM     39  C   UNL A   1      37.398  33.999  33.059  1.00  0.00     0.031 C 
ATOM     40  C   UNL A   1      37.906  31.224  28.896  1.00  0.00     0.029 A 
ATOM     41  N   UNL A   1      39.303  30.774  30.582  1.00  0.00    -0.354 N 
ATOM     42  C   UNL A   1      39.103  33.098  34.267  1.00  0.00     0.074 A 
ATOM     43  C   UNL A   1      38.119  34.147  34.158  1.00  0.00     0.031 C 
ATOM     44  C   UNL A   1      38.692  30.210  28.503  1.00  0.00     0.029 A 
ATOM     45  C   UNL A   1      39.615  29.884  29.585  1.00  0.00     0.049 A 
ATOM     46  H   UNL A   1      39.788  30.820  31.437  1.00  0.00     0.167 HD
ATOM     47  C   UNL A   1      39.864  32.880  35.363  1.00  0.00     0.037 A 
ATOM     48  C   UNL A   1      40.536  28.905  29.565  1.00  0.00     0.037 A 
ATOM     49  C   UNL A   1      40.826  31.817  35.458  1.00  0.00     0.049 A 
ATOM     50  C   UNL A   1      41.364  28.678  30.800  1.00  0.00     0.074 A 
ATOM     51  C   UNL A   1      41.627  31.469  36.528  1.00  0.00     0.029 A 
ATOM     52  N   UNL A   1      41.120  30.930  34.429  1.00  0.00    -0.354 N 
ATOM     53  N   UNL A   1      41.337  29.317  31.946  1.00  0.00    -0.248 NA
ATOM     54  C   UNL A   1      42.336  27.582  30.746  1.00  0.00     0.031 C 
ATOM     55  C   UNL A   1      42.446  30.407  36.129  1.00  0.00     0.029 A 
ATOM     56  C   UNL A   1      42.106  30.048  34.834  1.00  0.00     0.049 A 
ATOM     57  H   UNL A   1      40.689  30.930  33.544  1.00  0.00     0.167 HD
ATOM     58  C   UNL A   1      42.267  28.683  32.759  1.00  0.00     0.074 A 
ATOM     59  C   UNL A   1      42.817  27.592  31.979  1.00  0.00     0.031 C 
ATOM     60  C   UNL A   1      42.635  28.973  34.033  1.00  0.00     0.037 A 
BRANCH  47  61
ATOM     61  C   UNL A   1      39.677  33.807  36.529  1.00  0.00     0.064 A 
ATOM     62  C   UNL A   1      40.313  35.059  36.591  1.00  0.00     0.173 A 
ATOM     63  C   UNL A   1      38.849  33.443  37.600  1.00  0.00     0.173 A 
ATOM     64  F   UNL A   1      41.135  35.449  35.605  1.00  0.00    -0.203 F 
ATOM     65  C   UNL A   1      40.152  35.893  37.694  1.00  0.00     0.198 A 
ATOM     66  C   UNL A   1      38.660  34.296  38.684  1.00  0.00     0.198 A 
ATOM     67  F   UNL A   1      38.220  32.258  37.596  1.00  0.00    -0.203 F 
ATOM     68  F   UNL A   1      40.821  37.052  37.758  1.00  0.00    -0.200 F 
ATOM     69  C   UNL A   1      39.319  35.515  38.736  1.00  0.00     0.200 A 
ATOM     70  F   UNL A   1      37.845  33.934  39.685  1.00  0.00    -0.200 F 
ATOM     71  F   UNL A   1      39.159  36.322  39.793  1.00  0.00    -0.200 F 
ENDBRANCH  47  61
BRANCH  48  72
ATOM     72  C   UNL A   1      40.685  28.045  28.362  1.00  0.00     0.064 A 
ATOM     73  C   UNL A   1      40.027  26.811  28.267  1.00  0.00     0.173 A 
ATOM     74  C   UNL A   1      41.488  28.438  27.281  1.00  0.00     0.173 A 
ATOM     75  F   UNL A   1      39.255  26.385  29.279  1.00  0.00    -0.203 F 
ATOM     76  C   UNL A   1      40.191  25.989  27.155  1.00  0.00     0.198 A 
ATOM     77  C   UNL A   1      41.625  27.631  26.154  1.00  0.00     0.198 A 
ATOM     78  F   UNL A   1      42.128  29.617  27.314  1.00  0.00    -0.203 F 
ATOM     79  F   UNL A   1      39.593  24.790  27.115  1.00  0.00    -0.200 F 
ATOM     80  C   UNL A   1      40.986  26.402  26.096  1.00  0.00     0.200 A 
ATOM     81  F   UNL A   1      42.377  28.045  25.126  1.00  0.00    -0.200 F 
ATOM     82  F   UNL A   1      41.142  25.613  25.025  1.00  0.00    -0.200 F 
ENDBRANCH  48  72
BRANCH  60  83
ATOM     83  C   UNL A   1      43.653  28.067  34.666  1.00  0.00     0.064 A 
ATOM     84  C   UNL A   1      45.023  28.369  34.656  1.00  0.00     0.173 A 
ATOM     85  C   UNL A   1      43.246  26.880  35.295  1.00  0.00     0.173 A 
ATOM     86  F   UNL A   1      45.464  29.487  34.057  1.00  0.00    -0.203 F 
ATOM     87  C   UNL A   1      45.952  27.490  35.204  1.00  0.00     0.198 A 
ATOM     88  C   UNL A   1      44.174  26.025  35.880  1.00  0.00     0.198 A 
ATOM     89  F   UNL A   1      41.947  26.549  35.344  1.00  0.00    -0.203 F 
ATOM     90  F   UNL A   1      47.261  27.761  35.111  1.00  0.00    -0.200 F 
ATOM     91  C   UNL A   1      45.528  26.322  35.819  1.00  0.00     0.200 A 
ATOM     92  F   UNL A   1      43.760  24.908  36.492  1.00  0.00    -0.200 F 
ATOM     93  F   UNL A   1      46.424  25.476  36.344  1.00  0.00    -0.200 F 
ENDBRANCH  60  83
ENDBRANCH  34  35
ENDBRANCH  26  29
ENDBRANCH  24  25
ENDBRANCH  23  24
ENDBRANCH  22  23
ENDBRANCH   1  22
TORSDOF 16
ENDMDL
MODEL 3
REMARK VINA RESULT:     -11.7      2.364      3.897
REMARK SMILES C[C@H](CC(=O)NCCCCNC(=O)c1ccc(-c2c3nc(c(-c4c(F)c(F)c(F)c(F)c4F)c4ccc([nH]4)c(-c4c(F)c(F)c(F)c(F)c4F)c4nc(c(-c5c(F)c(F)c(F)c(F)c5F)c5ccc2[nH]5)C=C4)C=C3)cc1)NC(=O)CS[C@H]1CCS(=O)(=O)C1
REMARK SMILES IDX 7 1 6 2 4 3 5 4 3 6 2 7 1 8 77 9 78 10 79 12 80 13 81 14
REMARK SMILES IDX 82 15 83 16 88 17 84 18 85 19 86 20 87 21 8 22 9 23 10 24
REMARK SMILES IDX 11 25 12 26 13 28 14 29 15 30 76 31 16 32 75 33 17 34 18 35
REMARK SMILES IDX 19 36 69 37 20 38 74 39 68 40 70 41 21 42 73 43 67 44 66 45
REMARK SMILES IDX 22 47 54 48 34 49 53 50 35 51 38 52 52 53 71 54 36 55 37 56
REMARK SMILES IDX 51 58 72 59 39 60 23 61 24 62 32 63 25 64 26 65 30 66 33 67
REMARK SMILES IDX 27 68 28 69 31 70 29 71 55 72 56 73 64 74 57 75 58 76 62 77
REMARK SMILES IDX 65 78 59 79 60 80 63 81 61 82 40 83 41 84 49 85 42 86 43 87
REMARK SMILES IDX 47 88 50 89 44 90 45 91 48 92 46 93
REMARK H PARENT 6 5 77 11 11 27 70 46 38 57
REMARK Flexibility Score: inf
ROOT
ATOM      1  C   UNL A   1      33.116  30.232  26.993  1.00  0.00     0.116 C 
ENDROOT
BRANCH   1   2
ATOM      2  N   UNL A   1      32.932  28.985  27.684  1.00  0.00    -0.356 N 
ATOM      3  C   UNL A   1      31.907  28.177  27.296  1.00  0.00     0.222 C 
ATOM      4  O   UNL A   1      31.073  27.839  28.128  1.00  0.00    -0.275 OA
ATOM      5  H   UNL A   1      33.532  28.721  28.417  1.00  0.00     0.163 HD
BRANCH   3   6
ATOM      6  C   UNL A   1      31.848  27.791  25.834  1.00  0.00     0.124 C 
BRANCH   6   7
ATOM      7  C   UNL A   1      32.366  26.371  25.601  1.00  0.00     0.088 C 
ATOM      8  C   UNL A   1      33.884  26.247  25.668  1.00  0.00     0.031 C 
BRANCH   7   9
ATOM      9  N   UNL A   1      31.762  25.472  26.574  1.00  0.00    -0.352 N 
ATOM     10  C   UNL A   1      31.221  24.233  26.383  1.00  0.00     0.230 C 
ATOM     11  H   UNL A   1      31.741  25.804  27.500  1.00  0.00     0.163 HD
ATOM     12  O   UNL A   1      30.863  23.614  27.388  1.00  0.00    -0.274 OA
BRANCH  10  13
ATOM     13  C   UNL A   1      31.082  23.648  24.980  1.00  0.00     0.169 C 
BRANCH  13  14
ATOM     14  S   UNL A   1      32.605  22.760  24.471  1.00  0.00    -0.148 SA
BRANCH  14  15
ATOM     15  C   UNL A   1      32.083  20.996  24.454  1.00  0.00     0.063 C 
ATOM     16  C   UNL A   1      32.348  20.393  23.069  1.00  0.00     0.031 C 
ATOM     17  C   UNL A   1      32.837  20.136  25.448  1.00  0.00     0.151 C 
ATOM     18  C   UNL A   1      32.229  18.881  23.214  1.00  0.00     0.138 C 
ATOM     19  S   UNL A   1      33.029  18.511  24.750  1.00  0.00     0.151 S 
ATOM     20  O   UNL A   1      32.215  17.546  25.461  1.00  0.00    -0.229 OA
ATOM     21  O   UNL A   1      34.436  18.288  24.509  1.00  0.00    -0.229 OA
ENDBRANCH  14  15
ENDBRANCH  13  14
ENDBRANCH  10  13
ENDBRANCH   7   9
ENDBRANCH   6   7
ENDBRANCH   3   6
ENDBRANCH   1   2
BRANCH   1  22
ATOM     22  C   UNL A   1      31.741  30.883  26.777  1.00  0.00     0.023 C 
BRANCH  22  23
ATOM     23  C   UNL A   1      31.785  32.402  26.694  1.00  0.00     0.023 C 
BRANCH  23  24
ATOM     24  C   UNL A   1      32.800  32.998  27.644  1.00  0.00     0.116 C 
BRANCH  24  25
ATOM     25  N   UNL A   1      32.588  34.431  27.845  1.00  0.00    -0.352 N 
ATOM     26  C   UNL A   1      33.191  35.270  28.732  1.00  0.00     0.251 C 
ATOM     27  H   UNL A   1      31.915  34.847  27.257  1.00  0.00     0.163 HD
ATOM     28  O   UNL A   1      32.820  36.427  28.869  1.00  0.00    -0.269 OA
BRANCH  26  29
ATOM     29  C   UNL A   1      34.269  34.708  29.544  1.00  0.00     0.039 A 
ATOM     30  C   UNL A   1      33.935  34.077  30.738  1.00  0.00     0.014 A 
ATOM     31  C   UNL A   1      35.570  34.690  29.034  1.00  0.00     0.014 A 
ATOM     32  C   UNL A   1      34.927  33.389  31.418  1.00  0.00     0.010 A 
ATOM     33  C   UNL A   1      36.516  33.889  29.641  1.00  0.00     0.010 A 
ATOM     34  C   UNL A   1      36.211  33.268  30.858  1.00  0.00    -0.014 A 
BRANCH  34  35
ATOM     35  C   UNL A   1      37.266  32.535  31.578  1.00  0.00     0.031 A 
ATOM     36  C   UNL A   1      37.962  31.392  30.899  1.00  0.00     0.074 A 
ATOM     37  C   UNL A   1      37.583  32.908  32.831  1.00  0.00     0.049 A 
ATOM     38  N   UNL A   1      38.960  30.665  31.328  1.00  0.00    -0.248 NA
ATOM     39  C   UNL A   1      37.453  30.988  29.577  1.00  0.00     0.031 C 
ATOM     40  C   UNL A   1      36.908  33.959  33.597  1.00  0.00     0.029 A 
ATOM     41  N   UNL A   1      38.566  32.462  33.670  1.00  0.00    -0.354 N 
ATOM     42  C   UNL A   1      39.189  29.724  30.333  1.00  0.00     0.074 A 
ATOM     43  C   UNL A   1      38.174  29.908  29.324  1.00  0.00     0.031 C 
ATOM     44  C   UNL A   1      37.539  34.119  34.771  1.00  0.00     0.029 A 
ATOM     45  C   UNL A   1      38.635  33.159  34.850  1.00  0.00     0.049 A 
ATOM     46  H   UNL A   1      39.166  31.713  33.449  1.00  0.00     0.167 HD
ATOM     47  C   UNL A   1      40.186  28.816  30.252  1.00  0.00     0.037 A 
ATOM     48  C   UNL A   1      39.504  33.040  35.870  1.00  0.00     0.037 A 
ATOM     49  C   UNL A   1      41.198  28.662  31.260  1.00  0.00     0.049 A 
ATOM     50  C   UNL A   1      40.609  32.027  35.750  1.00  0.00     0.074 A 
ATOM     51  C   UNL A   1      42.284  27.807  31.272  1.00  0.00     0.029 A 
ATOM     52  N   UNL A   1      41.242  29.385  32.445  1.00  0.00    -0.354 N 
ATOM     53  N   UNL A   1      40.871  31.196  34.769  1.00  0.00    -0.248 NA
ATOM     54  C   UNL A   1      41.551  31.949  36.871  1.00  0.00     0.031 C 
ATOM     55  C   UNL A   1      42.951  27.971  32.491  1.00  0.00     0.029 A 
ATOM     56  C   UNL A   1      42.323  28.979  33.207  1.00  0.00     0.049 A 
ATOM     57  H   UNL A   1      40.597  30.083  32.705  1.00  0.00     0.167 HD
ATOM     58  C   UNL A   1      42.023  30.517  35.140  1.00  0.00     0.074 A 
ATOM     59  C   UNL A   1      42.421  31.057  36.426  1.00  0.00     0.031 C 
ATOM     60  C   UNL A   1      42.693  29.536  34.484  1.00  0.00     0.037 A 
BRANCH  47  61
ATOM     61  C   UNL A   1      40.220  27.934  29.036  1.00  0.00     0.064 A 
ATOM     62  C   UNL A   1      39.557  26.696  29.000  1.00  0.00     0.173 A 
ATOM     63  C   UNL A   1      40.922  28.332  27.890  1.00  0.00     0.173 A 
ATOM     64  F   UNL A   1      38.889  26.255  30.077  1.00  0.00    -0.203 F 
ATOM     65  C   UNL A   1      39.625  25.878  27.876  1.00  0.00     0.198 A 
ATOM     66  C   UNL A   1      40.956  27.528  26.753  1.00  0.00     0.198 A 
ATOM     67  F   UNL A   1      41.578  29.503  27.870  1.00  0.00    -0.203 F 
ATOM     68  F   UNL A   1      39.038  24.673  27.890  1.00  0.00    -0.200 F 
ATOM     69  C   UNL A   1      40.316  26.298  26.750  1.00  0.00     0.200 A 
ATOM     70  F   UNL A   1      41.616  27.941  25.662  1.00  0.00    -0.200 F 
ATOM     71  F   UNL A   1      40.374  25.513  25.666  1.00  0.00    -0.200 F 
ENDBRANCH  47  61
BRANCH  48  72
ATOM     72  C   UNL A   1      39.389  33.929  37.055  1.00  0.00     0.064 A 
ATOM     73  C   UNL A   1      38.709  33.513  38.209  1.00  0.00     0.173 A 
ATOM     74  C   UNL A   1      39.954  35.212  37.060  1.00  0.00     0.173 A 
ATOM     75  F   UNL A   1      38.142  32.298  38.251  1.00  0.00    -0.203 F 
ATOM     76  C   UNL A   1      38.571  34.357  39.308  1.00  0.00     0.198 A 
ATOM     77  C   UNL A   1      39.845  36.043  38.173  1.00  0.00     0.198 A 
ATOM     78  F   UNL A   1      40.627  35.654  35.987  1.00  0.00    -0.203 F 
ATOM     79  F   UNL A   1      37.870  33.953  40.377  1.00  0.00    -0.200 F 
ATOM     80  C   UNL A   1      39.144  35.620  39.291  1.00  0.00     0.200 A 
ATOM     81  F   UNL A   1      40.418  37.254  38.159  1.00  0.00    -0.200 F 
ATOM     82  F   UNL A   1      39.014  36.431  40.351  1.00  0.00    -0.200 F 
ENDBRANCH  48  72
BRANCH  60  83
ATOM     83  C   UNL A   1      43.946  29.020  35.133  1.00  0.00     0.064 A 
ATOM     84  C   UNL A   1      45.204  29.582  34.867  1.00  0.00     0.173 A 
ATOM     85  C   UNL A   1      43.882  27.950  36.039  1.00  0.00     0.173 A 
ATOM     86  F   UNL A   1      45.320  30.600  34.000  1.00  0.00    -0.203 F 
ATOM     87  C   UNL A   1      46.357  29.056  35.441  1.00  0.00     0.198 A 
ATOM     88  C   UNL A   1      45.033  27.456  36.645  1.00  0.00     0.198 A 
ATOM     89  F   UNL A   1      42.703  27.385  36.339  1.00  0.00    -0.203 F 
ATOM     90  F   UNL A   1      47.555  29.556  35.109  1.00  0.00    -0.200 F 
ATOM     91  C   UNL A   1      46.271  27.997  36.333  1.00  0.00     0.200 A 
ATOM     92  F   UNL A   1      44.944  26.446  37.522  1.00  0.00    -0.200 F 
ATOM     93  F   UNL A   1      47.382  27.490  36.882  1.00  0.00    -0.200 F 
ENDBRANCH  60  83
ENDBRANCH  34  35
ENDBRANCH  26  29
ENDBRANCH  24  25
ENDBRANCH  23  24
ENDBRANCH  22  23
ENDBRANCH   1  22
TORSDOF 16
ENDMDL
