MODEL 1
REMARK VINA RESULT:     -12.4      0.000      0.000
REMARK SMILES O=C1NC(=S)S/C1=C\c1ccc(OCc2cn(-c3ccc(C(=O)NCCCCNC(=O)c4ccc(-c5c6nc(c(-c7c(F)c(F)c(F)c(F)c7F)c7ccc([nH]7)c(-c7c(F)c(F)c(F)c(F)c7F)c7nc(c(-c8c(F)c(F)c(F)c(F)c8F)c8ccc5[nH]8)C=C7)C=C6)cc4)cc3)nn2)cc1
REMARK SMILES IDX 25 1 24 2 22 3 23 4 21 6 18 7 19 8 96 9 20 10 95 11 17 12
REMARK SMILES IDX 15 13 16 14 98 15 97 16 14 17 13 18 12 19 9 20 10 21 100 22
REMARK SMILES IDX 11 23 99 24 8 25 1 26 2 27 3 28 7 29 4 30 6 32 5 33 26 34
REMARK SMILES IDX 27 35 28 36 29 37 30 38 31 40 32 41 33 42 94 43 34 44 93 45
REMARK SMILES IDX 35 46 36 47 37 48 87 49 38 50 92 51 86 52 88 53 39 54 91 55
REMARK SMILES IDX 85 56 84 57 40 59 72 60 52 61 71 62 53 63 56 64 70 65 89 66
REMARK SMILES IDX 54 67 55 68 69 70 90 71 57 72 41 73 42 74 50 75 43 76 44 77
REMARK SMILES IDX 48 78 51 79 45 80 46 81 49 82 47 83 73 84 74 85 82 86 75 87
REMARK SMILES IDX 76 88 80 89 83 90 77 91 78 92 81 93 79 94 58 95 59 96 67 97
REMARK SMILES IDX 60 98 61 99 65 100 68 101 62 102 63 103 66 104 64 105
REMARK H PARENT 24 5 3 31 29 39 88 58 56 69
REMARK Flexibility Score: inf
ROOT
ATOM      1  C   UNL A   1      41.748  28.474  35.454  1.00  0.00     0.116 C 
ENDROOT
BRANCH   1   2
ATOM      2  N   UNL A   1      42.644  28.408  34.317  1.00  0.00    -0.352 N 
ATOM      3  C   UNL A   1      42.485  28.648  32.977  1.00  0.00     0.251 C 
ATOM      4  O   UNL A   1      43.484  28.511  32.270  1.00  0.00    -0.269 OA
ATOM      5  H   UNL A   1      43.558  28.133  34.558  1.00  0.00     0.163 HD
BRANCH   3   6
ATOM      6  C   UNL A   1      41.210  29.110  32.349  1.00  0.00     0.039 A 
ATOM      7  C   UNL A   1      38.891  30.223  31.200  1.00  0.00     0.066 A 
ATOM      8  C   UNL A   1      40.146  30.758  30.892  1.00  0.00     0.029 A 
ATOM      9  C   UNL A   1      38.797  29.098  32.019  1.00  0.00     0.029 A 
ATOM     10  C   UNL A   1      41.291  30.220  31.490  1.00  0.00     0.016 A 
ATOM     11  C   UNL A   1      39.958  28.520  32.543  1.00  0.00     0.016 A 
BRANCH   7  12
ATOM     12  N   UNL A   1      37.724  30.813  30.671  1.00  0.00    -0.220 N 
ATOM     13  C   UNL A   1      36.192  31.697  29.393  1.00  0.00     0.120 A 
ATOM     14  C   UNL A   1      37.430  31.094  29.355  1.00  0.00     0.144 A 
ATOM     15  N   UNL A   1      35.761  31.719  30.694  1.00  0.00    -0.131 NA
ATOM     16  N   UNL A   1      36.681  31.153  31.455  1.00  0.00    -0.062 NA
BRANCH  13  17
ATOM     17  C   UNL A   1      35.306  32.177  28.289  1.00  0.00     0.289 C 
BRANCH  17  18
ATOM     18  O   UNL A   1      33.961  31.669  28.309  1.00  0.00    -0.487 OA
BRANCH  18  19
ATOM     19  C   UNL A   1      33.639  30.638  27.469  1.00  0.00     0.119 A 
ATOM     20  C   UNL A   1      33.378  28.565  25.590  1.00  0.00    -0.024 A 
ATOM     21  C   UNL A   1      34.421  28.541  26.519  1.00  0.00     0.012 A 
ATOM     22  C   UNL A   1      32.415  29.573  25.674  1.00  0.00     0.012 A 
ATOM     23  C   UNL A   1      34.551  29.578  27.450  1.00  0.00     0.047 A 
ATOM     24  C   UNL A   1      32.531  30.586  26.628  1.00  0.00     0.047 A 
BRANCH  20  25
ATOM     25  C   UNL A   1      33.296  27.571  24.519  1.00  0.00     0.029 C 
ATOM     26  O   UNL A   1      33.248  25.526  22.446  1.00  0.00    -0.268 OA
ATOM     27  C   UNL A   1      32.762  25.356  23.551  1.00  0.00     0.263 C 
ATOM     28  N   UNL A   1      32.161  24.202  23.971  1.00  0.00    -0.307 N 
ATOM     29  C   UNL A   1      32.744  26.357  24.652  1.00  0.00     0.080 C 
ATOM     30  C   UNL A   1      31.665  24.159  25.237  1.00  0.00     0.145 C 
ATOM     31  H   UNL A   1      32.090  23.423  23.373  1.00  0.00     0.171 HD
ATOM     32  S   UNL A   1      31.951  25.686  26.035  1.00  0.00    -0.055 SA
ATOM     33  S   UNL A   1      30.906  22.834  25.880  1.00  0.00    -0.052 S 
ENDBRANCH  20  25
ENDBRANCH  18  19
ENDBRANCH  17  18
ENDBRANCH  13  17
ENDBRANCH   7  12
ENDBRANCH   3   6
ENDBRANCH   1   2
BRANCH   1  34
ATOM     34  C   UNL A   1      41.791  27.184  36.279  1.00  0.00     0.023 C 
BRANCH  34  35
ATOM     35  C   UNL A   1      41.540  25.898  35.479  1.00  0.00     0.023 C 
BRANCH  35  36
ATOM     36  C   UNL A   1      41.714  24.605  36.272  1.00  0.00     0.116 C 
BRANCH  36  37
ATOM     37  N   UNL A   1      42.902  24.613  37.125  1.00  0.00    -0.352 N 
ATOM     38  C   UNL A   1      44.213  24.340  36.774  1.00  0.00     0.251 C 
ATOM     39  H   UNL A   1      42.750  24.842  38.070  1.00  0.00     0.163 HD
ATOM     40  O   UNL A   1      45.038  24.004  37.604  1.00  0.00    -0.269 OA
BRANCH  38  41
ATOM     41  C   UNL A   1      44.596  24.484  35.359  1.00  0.00     0.039 A 
ATOM     42  C   UNL A   1      44.480  23.423  34.459  1.00  0.00     0.014 A 
ATOM     43  C   UNL A   1      45.029  25.737  34.938  1.00  0.00     0.014 A 
ATOM     44  C   UNL A   1      44.709  23.666  33.107  1.00  0.00     0.010 A 
ATOM     45  C   UNL A   1      45.107  26.010  33.596  1.00  0.00     0.010 A 
ATOM     46  C   UNL A   1      44.995  24.972  32.675  1.00  0.00    -0.014 A 
BRANCH  46  47
ATOM     47  C   UNL A   1      45.083  25.286  31.252  1.00  0.00     0.031 A 
ATOM     48  C   UNL A   1      46.121  26.288  30.870  1.00  0.00     0.074 A 
ATOM     49  C   UNL A   1      44.430  24.581  30.303  1.00  0.00     0.049 A 
ATOM     50  N   UNL A   1      45.936  27.441  30.315  1.00  0.00    -0.248 NA
ATOM     51  C   UNL A   1      47.524  26.018  31.220  1.00  0.00     0.031 C 
ATOM     52  C   UNL A   1      43.602  23.380  30.453  1.00  0.00     0.029 A 
ATOM     53  N   UNL A   1      44.469  24.747  28.953  1.00  0.00    -0.354 N 
ATOM     54  C   UNL A   1      47.201  27.985  30.097  1.00  0.00     0.074 A 
ATOM     55  C   UNL A   1      48.129  27.129  30.791  1.00  0.00     0.031 C 
ATOM     56  C   UNL A   1      43.423  22.799  29.245  1.00  0.00     0.029 A 
ATOM     57  C   UNL A   1      43.967  23.676  28.227  1.00  0.00     0.049 A 
ATOM     58  H   UNL A   1      44.822  25.561  28.527  1.00  0.00     0.167 HD
ATOM     59  C   UNL A   1      47.392  28.991  29.196  1.00  0.00     0.037 A 
ATOM     60  C   UNL A   1      44.017  23.517  26.882  1.00  0.00     0.037 A 
ATOM     61  C   UNL A   1      46.144  29.630  28.859  1.00  0.00     0.049 A 
ATOM     62  C   UNL A   1      44.224  24.863  26.291  1.00  0.00     0.074 A 
ATOM     63  C   UNL A   1      45.172  30.293  29.585  1.00  0.00     0.029 A 
ATOM     64  N   UNL A   1      45.549  29.315  27.662  1.00  0.00    -0.354 N 
ATOM     65  N   UNL A   1      43.326  25.808  26.319  1.00  0.00    -0.248 NA
ATOM     66  C   UNL A   1      45.595  25.306  26.085  1.00  0.00     0.031 C 
ATOM     67  C   UNL A   1      43.936  29.864  29.015  1.00  0.00     0.029 A 
ATOM     68  C   UNL A   1      44.236  29.030  27.937  1.00  0.00     0.049 A 
ATOM     69  H   UNL A   1      45.982  29.296  26.777  1.00  0.00     0.167 HD
ATOM     70  C   UNL A   1      44.045  26.964  26.580  1.00  0.00     0.074 A 
ATOM     71  C   UNL A   1      45.442  26.610  26.334  1.00  0.00     0.031 C 
ATOM     72  C   UNL A   1      43.481  28.014  27.246  1.00  0.00     0.037 A 
BRANCH  59  73
ATOM     73  C   UNL A   1      48.634  29.185  28.358  1.00  0.00     0.064 A 
ATOM     74  C   UNL A   1      49.092  28.121  27.551  1.00  0.00     0.173 A 
ATOM     75  C   UNL A   1      49.555  30.237  28.551  1.00  0.00     0.173 A 
ATOM     76  F   UNL A   1      48.305  27.064  27.301  1.00  0.00    -0.203 F 
ATOM     77  C   UNL A   1      50.402  28.068  27.066  1.00  0.00     0.198 A 
ATOM     78  C   UNL A   1      50.844  30.206  28.019  1.00  0.00     0.198 A 
ATOM     79  F   UNL A   1      49.290  31.277  29.348  1.00  0.00    -0.203 F 
ATOM     80  F   UNL A   1      50.831  26.973  26.425  1.00  0.00    -0.200 F 
ATOM     81  C   UNL A   1      51.280  29.107  27.311  1.00  0.00     0.200 A 
ATOM     82  F   UNL A   1      51.685  31.217  28.279  1.00  0.00    -0.200 F 
ATOM     83  F   UNL A   1      52.556  29.029  26.910  1.00  0.00    -0.200 F 
ENDBRANCH  59  73
BRANCH  60  84
ATOM     84  C   UNL A   1      44.149  22.266  26.100  1.00  0.00     0.064 A 
ATOM     85  C   UNL A   1      45.408  21.799  25.690  1.00  0.00     0.173 A 
ATOM     86  C   UNL A   1      43.076  21.360  25.979  1.00  0.00     0.173 A 
ATOM     87  F   UNL A   1      46.489  22.585  25.806  1.00  0.00    -0.203 F 
ATOM     88  C   UNL A   1      45.591  20.495  25.223  1.00  0.00     0.198 A 
ATOM     89  C   UNL A   1      43.259  20.060  25.505  1.00  0.00     0.198 A 
ATOM     90  F   UNL A   1      41.848  21.686  26.407  1.00  0.00    -0.203 F 
ATOM     91  F   UNL A   1      46.820  20.064  24.906  1.00  0.00    -0.200 F 
ATOM     92  C   UNL A   1      44.518  19.622  25.143  1.00  0.00     0.200 A 
ATOM     93  F   UNL A   1      42.217  19.216  25.463  1.00  0.00    -0.200 F 
ATOM     94  F   UNL A   1      44.704  18.352  24.758  1.00  0.00    -0.200 F 
ENDBRANCH  60  84
BRANCH  72  95
ATOM     95  C   UNL A   1      41.998  27.984  27.492  1.00  0.00     0.064 A 
ATOM     96  C   UNL A   1      41.395  27.342  28.589  1.00  0.00     0.173 A 
ATOM     97  C   UNL A   1      41.169  28.757  26.670  1.00  0.00     0.173 A 
ATOM     98  F   UNL A   1      42.126  26.673  29.488  1.00  0.00    -0.203 F 
ATOM     99  C   UNL A   1      40.023  27.431  28.820  1.00  0.00     0.198 A 
ATOM    100  C   UNL A   1      39.804  28.875  26.923  1.00  0.00     0.198 A 
ATOM    101  F   UNL A   1      41.694  29.441  25.641  1.00  0.00    -0.203 F 
ATOM    102  F   UNL A   1      39.474  26.797  29.868  1.00  0.00    -0.200 F 
ATOM    103  C   UNL A   1      39.230  28.203  27.989  1.00  0.00     0.200 A 
ATOM    104  F   UNL A   1      39.050  29.665  26.146  1.00  0.00    -0.200 F 
ATOM    105  F   UNL A   1      37.917  28.323  28.233  1.00  0.00    -0.200 F 
ENDBRANCH  72  95
ENDBRANCH  46  47
ENDBRANCH  38  41
ENDBRANCH  36  37
ENDBRANCH  35  36
ENDBRANCH  34  35
ENDBRANCH   1  34
TORSDOF 16
ENDMDL
MODEL 2
REMARK VINA RESULT:     -12.0      4.706      9.698
REMARK SMILES O=C1NC(=S)S/C1=C\c1ccc(OCc2cn(-c3ccc(C(=O)NCCCCNC(=O)c4ccc(-c5c6nc(c(-c7c(F)c(F)c(F)c(F)c7F)c7ccc([nH]7)c(-c7c(F)c(F)c(F)c(F)c7F)c7nc(c(-c8c(F)c(F)c(F)c(F)c8F)c8ccc5[nH]8)C=C7)C=C6)cc4)cc3)nn2)cc1
REMARK SMILES IDX 25 1 24 2 22 3 23 4 21 6 18 7 19 8 96 9 20 10 95 11 17 12
REMARK SMILES IDX 15 13 16 14 98 15 97 16 14 17 13 18 12 19 9 20 10 21 100 22
REMARK SMILES IDX 11 23 99 24 8 25 1 26 2 27 3 28 7 29 4 30 6 32 5 33 26 34
REMARK SMILES IDX 27 35 28 36 29 37 30 38 31 40 32 41 33 42 94 43 34 44 93 45
REMARK SMILES IDX 35 46 36 47 37 48 87 49 38 50 92 51 86 52 88 53 39 54 91 55
REMARK SMILES IDX 85 56 84 57 40 59 72 60 52 61 71 62 53 63 56 64 70 65 89 66
REMARK SMILES IDX 54 67 55 68 69 70 90 71 57 72 41 73 42 74 50 75 43 76 44 77
REMARK SMILES IDX 48 78 51 79 45 80 46 81 49 82 47 83 73 84 74 85 82 86 75 87
REMARK SMILES IDX 76 88 80 89 83 90 77 91 78 92 81 93 79 94 58 95 59 96 67 97
REMARK SMILES IDX 60 98 61 99 65 100 68 101 62 102 63 103 66 104 64 105
REMARK H PARENT 24 5 3 31 29 39 88 58 56 69
REMARK Flexibility Score: inf
ROOT
ATOM      1  C   UNL A   1      49.254  25.768  26.660  1.00  0.00     0.116 C 
ENDROOT
BRANCH   1   2
ATOM      2  N   UNL A   1      48.879  26.330  25.378  1.00  0.00    -0.352 N 
ATOM      3  C   UNL A   1      47.763  26.217  24.590  1.00  0.00     0.251 C 
ATOM      4  O   UNL A   1      47.762  26.860  23.540  1.00  0.00    -0.269 OA
ATOM      5  H   UNL A   1      49.571  26.916  24.993  1.00  0.00     0.163 HD
BRANCH   3   6
ATOM      6  C   UNL A   1      46.553  25.419  24.953  1.00  0.00     0.039 A 
ATOM      7  C   UNL A   1      44.349  23.740  25.467  1.00  0.00     0.066 A 
ATOM      8  C   UNL A   1      45.624  23.187  25.309  1.00  0.00     0.029 A 
ATOM      9  C   UNL A   1      44.185  25.125  25.438  1.00  0.00     0.029 A 
ATOM     10  C   UNL A   1      46.710  24.023  25.024  1.00  0.00     0.016 A 
ATOM     11  C   UNL A   1      45.293  25.953  25.236  1.00  0.00     0.016 A 
BRANCH   7  12
ATOM     12  N   UNL A   1      43.236  22.898  25.668  1.00  0.00    -0.220 N 
ATOM     13  C   UNL A   1      41.295  22.041  26.179  1.00  0.00     0.120 A 
ATOM     14  C   UNL A   1      41.988  23.231  26.144  1.00  0.00     0.144 A 
ATOM     15  N   UNL A   1      42.108  21.053  25.689  1.00  0.00    -0.131 NA
ATOM     16  N   UNL A   1      43.270  21.588  25.351  1.00  0.00    -0.062 NA
BRANCH  13  17
ATOM     17  C   UNL A   1      39.876  21.748  26.543  1.00  0.00     0.289 C 
BRANCH  17  18
ATOM     18  O   UNL A   1      39.005  21.441  25.441  1.00  0.00    -0.487 OA
BRANCH  18  19
ATOM     19  C   UNL A   1      37.698  21.842  25.510  1.00  0.00     0.119 A 
ATOM     20  C   UNL A   1      35.125  22.842  26.028  1.00  0.00    -0.024 A 
ATOM     21  C   UNL A   1      36.224  23.703  26.034  1.00  0.00     0.012 A 
ATOM     22  C   UNL A   1      35.307  21.507  25.661  1.00  0.00     0.012 A 
ATOM     23  C   UNL A   1      37.506  23.200  25.781  1.00  0.00     0.047 A 
ATOM     24  C   UNL A   1      36.584  21.019  25.376  1.00  0.00     0.047 A 
BRANCH  20  25
ATOM     25  C   UNL A   1      33.795  23.311  26.423  1.00  0.00     0.029 C 
ATOM     26  O   UNL A   1      31.211  24.368  27.251  1.00  0.00    -0.268 OA
ATOM     27  C   UNL A   1      31.718  24.634  26.175  1.00  0.00     0.263 C 
ATOM     28  N   UNL A   1      31.169  25.465  25.238  1.00  0.00    -0.307 N 
ATOM     29  C   UNL A   1      33.027  24.125  25.686  1.00  0.00     0.080 C 
ATOM     30  C   UNL A   1      31.854  25.669  24.080  1.00  0.00     0.145 C 
ATOM     31  H   UNL A   1      30.303  25.903  25.397  1.00  0.00     0.171 HD
ATOM     32  S   UNL A   1      33.347  24.760  24.109  1.00  0.00    -0.055 SA
ATOM     33  S   UNL A   1      31.312  26.641  22.853  1.00  0.00    -0.052 S 
ENDBRANCH  20  25
ENDBRANCH  18  19
ENDBRANCH  17  18
ENDBRANCH  13  17
ENDBRANCH   7  12
ENDBRANCH   3   6
ENDBRANCH   1   2
BRANCH   1  34
ATOM     34  C   UNL A   1      48.539  26.477  27.814  1.00  0.00     0.023 C 
BRANCH  34  35
ATOM     35  C   UNL A   1      47.670  25.565  28.693  1.00  0.00     0.023 C 
BRANCH  35  36
ATOM     36  C   UNL A   1      46.197  25.955  28.764  1.00  0.00     0.116 C 
BRANCH  36  37
ATOM     37  N   UNL A   1      45.297  24.803  28.712  1.00  0.00    -0.352 N 
ATOM     38  C   UNL A   1      44.023  24.683  29.239  1.00  0.00     0.251 C 
ATOM     39  H   UNL A   1      45.643  24.010  28.242  1.00  0.00     0.163 HD
ATOM     40  O   UNL A   1      43.530  23.595  29.473  1.00  0.00    -0.269 OA
BRANCH  38  41
ATOM     41  C   UNL A   1      43.261  25.918  29.498  1.00  0.00     0.039 A 
ATOM     42  C   UNL A   1      43.457  26.667  30.659  1.00  0.00     0.014 A 
ATOM     43  C   UNL A   1      42.376  26.340  28.512  1.00  0.00     0.014 A 
ATOM     44  C   UNL A   1      42.822  27.902  30.771  1.00  0.00     0.010 A 
ATOM     45  C   UNL A   1      41.873  27.616  28.556  1.00  0.00     0.010 A 
ATOM     46  C   UNL A   1      42.052  28.386  29.701  1.00  0.00    -0.014 A 
BRANCH  46  47
ATOM     47  C   UNL A   1      41.507  29.741  29.725  1.00  0.00     0.031 A 
ATOM     48  C   UNL A   1      42.455  30.830  29.347  1.00  0.00     0.074 A 
ATOM     49  C   UNL A   1      40.190  29.999  29.869  1.00  0.00     0.049 A 
ATOM     50  N   UNL A   1      42.854  31.817  30.081  1.00  0.00    -0.248 NA
ATOM     51  C   UNL A   1      43.102  30.775  28.028  1.00  0.00     0.031 C 
ATOM     52  C   UNL A   1      39.069  29.057  29.953  1.00  0.00     0.029 A 
ATOM     53  N   UNL A   1      39.561  31.206  29.861  1.00  0.00    -0.354 N 
ATOM     54  C   UNL A   1      43.681  32.601  29.278  1.00  0.00     0.074 A 
ATOM     55  C   UNL A   1      43.903  31.844  28.073  1.00  0.00     0.031 C 
ATOM     56  C   UNL A   1      37.907  29.716  29.747  1.00  0.00     0.029 A 
ATOM     57  C   UNL A   1      38.185  31.137  29.695  1.00  0.00     0.049 A 
ATOM     58  H   UNL A   1      40.044  32.058  29.965  1.00  0.00     0.167 HD
ATOM     59  C   UNL A   1      43.955  33.898  29.600  1.00  0.00     0.037 A 
ATOM     60  C   UNL A   1      37.340  32.180  29.508  1.00  0.00     0.037 A 
ATOM     61  C   UNL A   1      43.639  34.168  30.981  1.00  0.00     0.049 A 
ATOM     62  C   UNL A   1      38.030  33.396  30.007  1.00  0.00     0.074 A 
ATOM     63  C   UNL A   1      44.065  33.646  32.188  1.00  0.00     0.029 A 
ATOM     64  N   UNL A   1      42.477  34.842  31.268  1.00  0.00    -0.354 N 
ATOM     65  N   UNL A   1      38.291  33.610  31.267  1.00  0.00    -0.248 NA
ATOM     66  C   UNL A   1      38.842  34.148  29.063  1.00  0.00     0.031 C 
ATOM     67  C   UNL A   1      42.886  33.577  32.990  1.00  0.00     0.029 A 
ATOM     68  C   UNL A   1      41.840  34.128  32.250  1.00  0.00     0.049 A 
ATOM     69  H   UNL A   1      42.162  35.676  30.849  1.00  0.00     0.167 HD
ATOM     70  C   UNL A   1      39.562  34.162  31.271  1.00  0.00     0.074 A 
ATOM     71  C   UNL A   1      39.813  34.554  29.885  1.00  0.00     0.031 C 
ATOM     72  C   UNL A   1      40.406  33.990  32.330  1.00  0.00     0.037 A 
BRANCH  59  73
ATOM     73  C   UNL A   1      44.180  35.013  28.605  1.00  0.00     0.064 A 
ATOM     74  C   UNL A   1      45.384  35.748  28.658  1.00  0.00     0.173 A 
ATOM     75  C   UNL A   1      43.154  35.588  27.826  1.00  0.00     0.173 A 
ATOM     76  F   UNL A   1      46.428  35.300  29.371  1.00  0.00    -0.203 F 
ATOM     77  C   UNL A   1      45.511  37.006  28.063  1.00  0.00     0.198 A 
ATOM     78  C   UNL A   1      43.303  36.820  27.188  1.00  0.00     0.198 A 
ATOM     79  F   UNL A   1      41.935  35.045  27.740  1.00  0.00    -0.203 F 
ATOM     80  F   UNL A   1      46.624  37.726  28.259  1.00  0.00    -0.200 F 
ATOM     81  C   UNL A   1      44.465  37.546  27.338  1.00  0.00     0.200 A 
ATOM     82  F   UNL A   1      42.273  37.333  26.501  1.00  0.00    -0.200 F 
ATOM     83  F   UNL A   1      44.557  38.781  26.828  1.00  0.00    -0.200 F 
ENDBRANCH  59  73
BRANCH  60  84
ATOM     84  C   UNL A   1      36.096  32.234  28.706  1.00  0.00     0.064 A 
ATOM     85  C   UNL A   1      35.738  31.177  27.854  1.00  0.00     0.173 A 
ATOM     86  C   UNL A   1      35.096  33.193  28.967  1.00  0.00     0.173 A 
ATOM     87  F   UNL A   1      36.618  30.202  27.583  1.00  0.00    -0.203 F 
ATOM     88  C   UNL A   1      34.448  31.065  27.326  1.00  0.00     0.198 A 
ATOM     89  C   UNL A   1      33.812  33.084  28.433  1.00  0.00     0.198 A 
ATOM     90  F   UNL A   1      35.317  34.203  29.821  1.00  0.00    -0.203 F 
ATOM     91  F   UNL A   1      34.125  30.004  26.573  1.00  0.00    -0.200 F 
ATOM     92  C   UNL A   1      33.483  32.011  27.626  1.00  0.00     0.200 A 
ATOM     93  F   UNL A   1      32.878  33.990  28.757  1.00  0.00    -0.200 F 
ATOM     94  F   UNL A   1      32.230  31.869  27.174  1.00  0.00    -0.200 F 
ENDBRANCH  60  84
BRANCH  72  95
ATOM     95  C   UNL A   1      39.851  33.382  33.588  1.00  0.00     0.064 A 
ATOM     96  C   UNL A   1      39.178  34.112  34.585  1.00  0.00     0.173 A 
ATOM     97  C   UNL A   1      39.868  31.988  33.720  1.00  0.00     0.173 A 
ATOM     98  F   UNL A   1      39.018  35.436  34.484  1.00  0.00    -0.203 F 
ATOM     99  C   UNL A   1      38.598  33.480  35.683  1.00  0.00     0.198 A 
ATOM    100  C   UNL A   1      39.255  31.354  34.799  1.00  0.00     0.198 A 
ATOM    101  F   UNL A   1      40.442  31.231  32.771  1.00  0.00    -0.203 F 
ATOM    102  F   UNL A   1      37.975  34.205  36.625  1.00  0.00    -0.200 F 
ATOM    103  C   UNL A   1      38.631  32.100  35.785  1.00  0.00     0.200 A 
ATOM    104  F   UNL A   1      39.246  30.016  34.866  1.00  0.00    -0.200 F 
ATOM    105  F   UNL A   1      38.039  31.488  36.819  1.00  0.00    -0.200 F 
ENDBRANCH  72  95
ENDBRANCH  46  47
ENDBRANCH  38  41
ENDBRANCH  36  37
ENDBRANCH  35  36
ENDBRANCH  34  35
ENDBRANCH   1  34
TORSDOF 16
ENDMDL
MODEL 3
REMARK VINA RESULT:     -12.0      3.466      6.765
REMARK SMILES O=C1NC(=S)S/C1=C\c1ccc(OCc2cn(-c3ccc(C(=O)NCCCCNC(=O)c4ccc(-c5c6nc(c(-c7c(F)c(F)c(F)c(F)c7F)c7ccc([nH]7)c(-c7c(F)c(F)c(F)c(F)c7F)c7nc(c(-c8c(F)c(F)c(F)c(F)c8F)c8ccc5[nH]8)C=C7)C=C6)cc4)cc3)nn2)cc1
REMARK SMILES IDX 25 1 24 2 22 3 23 4 21 6 18 7 19 8 96 9 20 10 95 11 17 12
REMARK SMILES IDX 15 13 16 14 98 15 97 16 14 17 13 18 12 19 9 20 10 21 100 22
REMARK SMILES IDX 11 23 99 24 8 25 1 26 2 27 3 28 7 29 4 30 6 32 5 33 26 34
REMARK SMILES IDX 27 35 28 36 29 37 30 38 31 40 32 41 33 42 94 43 34 44 93 45
REMARK SMILES IDX 35 46 36 47 37 48 87 49 38 50 92 51 86 52 88 53 39 54 91 55
REMARK SMILES IDX 85 56 84 57 40 59 72 60 52 61 71 62 53 63 56 64 70 65 89 66
REMARK SMILES IDX 54 67 55 68 69 70 90 71 57 72 41 73 42 74 50 75 43 76 44 77
REMARK SMILES IDX 48 78 51 79 45 80 46 81 49 82 47 83 73 84 74 85 82 86 75 87
REMARK SMILES IDX 76 88 80 89 83 90 77 91 78 92 81 93 79 94 58 95 59 96 67 97
REMARK SMILES IDX 60 98 61 99 65 100 68 101 62 102 63 103 66 104 64 105
REMARK H PARENT 24 5 3 31 29 39 88 58 56 69
REMARK Flexibility Score: inf
ROOT
ATOM      1  C   UNL A   1      39.273  35.029  35.814  1.00  0.00     0.116 C 
ENDROOT
BRANCH   1   2
ATOM      2  N   UNL A   1      38.543  34.027  36.563  1.00  0.00    -0.352 N 
ATOM      3  C   UNL A   1      37.390  33.324  36.321  1.00  0.00     0.251 C 
ATOM      4  O   UNL A   1      37.047  32.513  37.182  1.00  0.00    -0.269 OA
ATOM      5  H   UNL A   1      38.961  33.803  37.425  1.00  0.00     0.163 HD
BRANCH   3   6
ATOM      6  C   UNL A   1      36.576  33.446  35.074  1.00  0.00     0.039 A 
ATOM      7  C   UNL A   1      35.256  33.627  32.591  1.00  0.00     0.066 A 
ATOM      8  C   UNL A   1      36.207  32.624  32.802  1.00  0.00     0.029 A 
ATOM      9  C   UNL A   1      34.915  34.491  33.631  1.00  0.00     0.029 A 
ATOM     10  C   UNL A   1      36.880  32.557  34.027  1.00  0.00     0.016 A 
ATOM     11  C   UNL A   1      35.537  34.359  34.877  1.00  0.00     0.016 A 
BRANCH   7  12
ATOM     12  N   UNL A   1      34.635  33.756  31.331  1.00  0.00    -0.220 N 
ATOM     13  C   UNL A   1      34.038  33.590  29.238  1.00  0.00     0.120 A 
ATOM     14  C   UNL A   1      34.887  33.047  30.178  1.00  0.00     0.144 A 
ATOM     15  N   UNL A   1      33.281  34.556  29.847  1.00  0.00    -0.131 NA
ATOM     16  N   UNL A   1      33.627  34.627  31.121  1.00  0.00    -0.062 NA
BRANCH  13  17
ATOM     17  C   UNL A   1      33.791  33.214  27.813  1.00  0.00     0.289 C 
BRANCH  17  18
ATOM     18  O   UNL A   1      34.468  32.029  27.360  1.00  0.00    -0.487 OA
BRANCH  18  19
ATOM     19  C   UNL A   1      33.764  30.857  27.299  1.00  0.00     0.119 A 
ATOM     20  C   UNL A   1      32.581  28.349  26.852  1.00  0.00    -0.024 A 
ATOM     21  C   UNL A   1      33.952  28.442  27.099  1.00  0.00     0.012 A 
ATOM     22  C   UNL A   1      31.795  29.500  26.932  1.00  0.00     0.012 A 
ATOM     23  C   UNL A   1      34.539  29.695  27.316  1.00  0.00     0.047 A 
ATOM     24  C   UNL A   1      32.381  30.742  27.183  1.00  0.00     0.047 A 
BRANCH  20  25
ATOM     25  C   UNL A   1      31.964  27.073  26.486  1.00  0.00     0.029 C 
ATOM     26  O   UNL A   1      30.623  24.609  25.703  1.00  0.00    -0.268 OA
ATOM     27  C   UNL A   1      31.281  25.278  24.925  1.00  0.00     0.263 C 
ATOM     28  N   UNL A   1      31.458  24.985  23.601  1.00  0.00    -0.307 N 
ATOM     29  C   UNL A   1      31.996  26.538  25.257  1.00  0.00     0.080 C 
ATOM     30  C   UNL A   1      32.220  25.828  22.852  1.00  0.00     0.145 C 
ATOM     31  H   UNL A   1      31.046  24.186  23.201  1.00  0.00     0.171 HD
ATOM     32  S   UNL A   1      32.798  27.142  23.848  1.00  0.00    -0.055 SA
ATOM     33  S   UNL A   1      32.529  25.599  21.241  1.00  0.00    -0.052 S 
ENDBRANCH  20  25
ENDBRANCH  18  19
ENDBRANCH  17  18
ENDBRANCH  13  17
ENDBRANCH   7  12
ENDBRANCH   3   6
ENDBRANCH   1   2
BRANCH   1  34
ATOM     34  C   UNL A   1      40.477  34.420  35.089  1.00  0.00     0.023 C 
BRANCH  34  35
ATOM     35  C   UNL A   1      40.148  33.732  33.756  1.00  0.00     0.023 C 
BRANCH  35  36
ATOM     36  C   UNL A   1      40.567  34.510  32.512  1.00  0.00     0.116 C 
BRANCH  36  37
ATOM     37  N   UNL A   1      39.559  34.478  31.453  1.00  0.00    -0.352 N 
ATOM     38  C   UNL A   1      39.418  33.559  30.427  1.00  0.00     0.251 C 
ATOM     39  H   UNL A   1      38.895  35.206  31.470  1.00  0.00     0.163 HD
ATOM     40  O   UNL A   1      38.808  33.829  29.409  1.00  0.00    -0.269 OA
BRANCH  38  41
ATOM     41  C   UNL A   1      40.015  32.224  30.607  1.00  0.00     0.039 A 
ATOM     42  C   UNL A   1      39.270  31.149  31.095  1.00  0.00     0.014 A 
ATOM     43  C   UNL A   1      41.340  32.060  30.218  1.00  0.00     0.014 A 
ATOM     44  C   UNL A   1      39.847  29.881  31.094  1.00  0.00     0.010 A 
ATOM     45  C   UNL A   1      41.852  30.796  30.076  1.00  0.00     0.010 A 
ATOM     46  C   UNL A   1      41.132  29.705  30.554  1.00  0.00    -0.014 A 
BRANCH  46  47
ATOM     47  C   UNL A   1      41.698  28.368  30.394  1.00  0.00     0.031 A 
ATOM     48  C   UNL A   1      42.403  27.812  31.586  1.00  0.00     0.074 A 
ATOM     49  C   UNL A   1      41.433  27.583  29.328  1.00  0.00     0.049 A 
ATOM     50  N   UNL A   1      43.648  27.478  31.679  1.00  0.00    -0.248 NA
ATOM     51  C   UNL A   1      41.661  27.691  32.851  1.00  0.00     0.031 C 
ATOM     52  C   UNL A   1      40.529  27.831  28.200  1.00  0.00     0.029 A 
ATOM     53  N   UNL A   1      41.860  26.313  29.089  1.00  0.00    -0.354 N 
ATOM     54  C   UNL A   1      43.825  26.957  32.960  1.00  0.00     0.074 A 
ATOM     55  C   UNL A   1      42.607  27.234  33.677  1.00  0.00     0.031 C 
ATOM     56  C   UNL A   1      40.295  26.673  27.543  1.00  0.00     0.029 A 
ATOM     57  C   UNL A   1      41.164  25.649  28.089  1.00  0.00     0.049 A 
ATOM     58  H   UNL A   1      42.603  25.899  29.586  1.00  0.00     0.167 HD
ATOM     59  C   UNL A   1      44.895  26.165  33.259  1.00  0.00     0.037 A 
ATOM     60  C   UNL A   1      41.283  24.343  27.750  1.00  0.00     0.037 A 
ATOM     61  C   UNL A   1      45.931  26.296  32.265  1.00  0.00     0.049 A 
ATOM     62  C   UNL A   1      42.600  23.880  28.257  1.00  0.00     0.074 A 
ATOM     63  C   UNL A   1      46.685  27.353  31.790  1.00  0.00     0.029 A 
ATOM     64  N   UNL A   1      46.066  25.303  31.325  1.00  0.00    -0.354 N 
ATOM     65  N   UNL A   1      43.741  24.287  27.774  1.00  0.00    -0.248 NA
ATOM     66  C   UNL A   1      42.649  23.325  29.601  1.00  0.00     0.031 C 
ATOM     67  C   UNL A   1      46.772  27.133  30.382  1.00  0.00     0.029 A 
ATOM     68  C   UNL A   1      46.133  25.924  30.104  1.00  0.00     0.049 A 
ATOM     69  H   UNL A   1      46.106  24.334  31.494  1.00  0.00     0.167 HD
ATOM     70  C   UNL A   1      44.550  24.454  28.887  1.00  0.00     0.074 A 
ATOM     71  C   UNL A   1      43.856  23.761  29.972  1.00  0.00     0.031 C 
ATOM     72  C   UNL A   1      45.555  25.378  28.900  1.00  0.00     0.037 A 
BRANCH  59  73
ATOM     73  C   UNL A   1      44.883  25.021  34.246  1.00  0.00     0.064 A 
ATOM     74  C   UNL A   1      45.707  25.092  35.391  1.00  0.00     0.173 A 
ATOM     75  C   UNL A   1      44.351  23.745  33.964  1.00  0.00     0.173 A 
ATOM     76  F   UNL A   1      46.271  26.254  35.756  1.00  0.00    -0.203 F 
ATOM     77  C   UNL A   1      46.052  23.957  36.128  1.00  0.00     0.198 A 
ATOM     78  C   UNL A   1      44.655  22.623  34.734  1.00  0.00     0.198 A 
ATOM     79  F   UNL A   1      43.614  23.507  32.874  1.00  0.00    -0.203 F 
ATOM     80  F   UNL A   1      46.947  24.053  37.120  1.00  0.00    -0.200 F 
ATOM     81  C   UNL A   1      45.534  22.720  35.791  1.00  0.00     0.200 A 
ATOM     82  F   UNL A   1      44.153  21.430  34.383  1.00  0.00    -0.200 F 
ATOM     83  F   UNL A   1      45.918  21.619  36.450  1.00  0.00    -0.200 F 
ENDBRANCH  59  73
BRANCH  60  84
ATOM     84  C   UNL A   1      40.243  23.415  27.248  1.00  0.00     0.064 A 
ATOM     85  C   UNL A   1      38.975  23.886  26.873  1.00  0.00     0.173 A 
ATOM     86  C   UNL A   1      40.561  22.097  26.863  1.00  0.00     0.173 A 
ATOM     87  F   UNL A   1      38.607  25.141  27.168  1.00  0.00    -0.203 F 
ATOM     88  C   UNL A   1      38.092  23.100  26.127  1.00  0.00     0.198 A 
ATOM     89  C   UNL A   1      39.675  21.311  26.125  1.00  0.00     0.198 A 
ATOM     90  F   UNL A   1      41.772  21.579  27.114  1.00  0.00    -0.203 F 
ATOM     91  F   UNL A   1      36.917  23.609  25.729  1.00  0.00    -0.200 F 
ATOM     92  C   UNL A   1      38.448  21.818  25.742  1.00  0.00     0.200 A 
ATOM     93  F   UNL A   1      40.046  20.083  25.733  1.00  0.00    -0.200 F 
ATOM     94  F   UNL A   1      37.630  21.089  24.972  1.00  0.00    -0.200 F 
ENDBRANCH  60  84
BRANCH  72  95
ATOM     95  C   UNL A   1      45.915  26.052  27.606  1.00  0.00     0.064 A 
ATOM     96  C   UNL A   1      46.746  25.481  26.625  1.00  0.00     0.173 A 
ATOM     97  C   UNL A   1      45.278  27.256  27.280  1.00  0.00     0.173 A 
ATOM     98  F   UNL A   1      47.309  24.281  26.808  1.00  0.00    -0.203 F 
ATOM     99  C   UNL A   1      46.966  26.110  25.401  1.00  0.00     0.198 A 
ATOM    100  C   UNL A   1      45.468  27.865  26.042  1.00  0.00     0.198 A 
ATOM    101  F   UNL A   1      44.426  27.821  28.150  1.00  0.00    -0.203 F 
ATOM    102  F   UNL A   1      47.775  25.547  24.490  1.00  0.00    -0.200 F 
ATOM    103  C   UNL A   1      46.321  27.299  25.108  1.00  0.00     0.200 A 
ATOM    104  F   UNL A   1      44.802  28.989  25.744  1.00  0.00    -0.200 F 
ATOM    105  F   UNL A   1      46.499  27.886  23.916  1.00  0.00    -0.200 F 
ENDBRANCH  72  95
ENDBRANCH  46  47
ENDBRANCH  38  41
ENDBRANCH  36  37
ENDBRANCH  35  36
ENDBRANCH  34  35
ENDBRANCH   1  34
TORSDOF 16
ENDMDL
