MODEL 1
REMARK VINA RESULT:     -11.2      0.000      0.000
REMARK SMILES COC[C@@H](C)CC(=O)Nc1cccc(/C=C/C(=O)NCCCCNC(=O)c2ccc(-c3c4nc(c(-c5c(F)c(F)c(F)c(F)c5F)c5ccc([nH]5)c(-c5c(F)c(F)c(F)c(F)c5F)c5nc(c(-c6c(F)c(F)c(F)c(F)c6F)c6ccc3[nH]6)C=C5)C=C4)cc2)c1
REMARK SMILES IDX 17 1 18 2 19 3 16 5 15 6 14 7 10 8 11 9 90 10 12 11 13 12
REMARK SMILES IDX 9 13 7 14 8 15 6 17 4 18 5 19 3 20 2 21 1 22 20 23 21 24
REMARK SMILES IDX 22 25 23 26 24 27 25 28 26 30 27 31 28 32 89 33 29 34 88 35
REMARK SMILES IDX 30 36 31 37 32 38 82 39 33 40 87 41 81 42 83 43 34 44 86 45
REMARK SMILES IDX 80 46 79 47 35 49 67 50 47 51 66 52 48 53 51 54 65 55 84 56
REMARK SMILES IDX 49 57 50 58 64 60 85 61 52 62 36 63 37 64 45 65 38 66 39 67
REMARK SMILES IDX 43 68 46 69 40 70 41 71 44 72 42 73 68 74 69 75 77 76 70 77
REMARK SMILES IDX 71 78 75 79 78 80 72 81 73 82 76 83 74 84 53 85 54 86 62 87
REMARK SMILES IDX 55 88 56 89 60 90 63 91 57 92 58 93 61 94 59 95
REMARK H PARENT 19 4 9 16 24 29 83 48 51 59
REMARK Flexibility Score: inf
ROOT
ATOM      1  C   UNL A   1      29.819  29.253  22.607  1.00  0.00     0.243 C 
ATOM      2  O   UNL A   1      29.065  29.664  21.729  1.00  0.00    -0.270 OA
ATOM      3  N   UNL A   1      30.416  30.129  23.466  1.00  0.00    -0.353 N 
ATOM      4  H   UNL A   1      30.391  31.075  23.195  1.00  0.00     0.163 HD
ENDROOT
BRANCH   1   5
ATOM      5  C   UNL A   1      30.001  27.794  22.786  1.00  0.00     0.072 C 
ATOM      6  C   UNL A   1      31.156  27.166  22.518  1.00  0.00     0.014 C 
BRANCH   6   7
ATOM      7  C   UNL A   1      31.340  25.724  22.733  1.00  0.00    -0.023 A 
ATOM      8  C   UNL A   1      32.805  23.783  22.597  1.00  0.00     0.041 A 
ATOM      9  C   UNL A   1      31.801  22.977  23.121  1.00  0.00     0.026 A 
ATOM     10  C   UNL A   1      32.546  25.132  22.341  1.00  0.00     0.034 A 
ATOM     11  C   UNL A   1      30.583  23.551  23.498  1.00  0.00     0.003 A 
ATOM     12  C   UNL A   1      30.358  24.921  23.320  1.00  0.00     0.008 A 
BRANCH   8  13
ATOM     13  N   UNL A   1      34.044  23.223  22.259  1.00  0.00    -0.326 N 
ATOM     14  C   UNL A   1      35.089  22.954  23.112  1.00  0.00     0.224 C 
ATOM     15  O   UNL A   1      36.249  23.002  22.703  1.00  0.00    -0.275 OA
ATOM     16  H   UNL A   1      34.181  22.999  21.310  1.00  0.00     0.169 HD
BRANCH  14  17
ATOM     17  C   UNL A   1      34.752  22.364  24.481  1.00  0.00     0.106 C 
BRANCH  17  18
ATOM     18  C   UNL A   1      35.019  23.272  25.695  1.00  0.00     0.021 C 
ATOM     19  C   UNL A   1      34.850  24.745  25.308  1.00  0.00     0.010 C 
BRANCH  18  20
ATOM     20  C   UNL A   1      36.408  22.977  26.286  1.00  0.00     0.163 C 
BRANCH  20  21
ATOM     21  O   UNL A   1      36.980  21.748  25.842  1.00  0.00    -0.384 OA
ATOM     22  C   UNL A   1      38.368  21.896  25.540  1.00  0.00     0.194 C 
ENDBRANCH  20  21
ENDBRANCH  18  20
ENDBRANCH  17  18
ENDBRANCH  14  17
ENDBRANCH   8  13
ENDBRANCH   6   7
ENDBRANCH   1   5
BRANCH   3  23
ATOM     23  C   UNL A   1      31.084  29.852  24.724  1.00  0.00     0.116 C 
BRANCH  23  24
ATOM     24  C   UNL A   1      31.116  31.050  25.670  1.00  0.00     0.023 C 
BRANCH  24  25
ATOM     25  C   UNL A   1      31.938  30.842  26.943  1.00  0.00     0.023 C 
BRANCH  25  26
ATOM     26  C   UNL A   1      33.082  31.835  27.158  1.00  0.00     0.116 C 
BRANCH  26  27
ATOM     27  N   UNL A   1      32.634  33.203  27.390  1.00  0.00    -0.352 N 
ATOM     28  C   UNL A   1      33.079  34.145  28.290  1.00  0.00     0.251 C 
ATOM     29  H   UNL A   1      31.895  33.500  26.812  1.00  0.00     0.163 HD
ATOM     30  O   UNL A   1      32.488  35.213  28.417  1.00  0.00    -0.269 OA
BRANCH  28  31
ATOM     31  C   UNL A   1      34.253  33.858  29.143  1.00  0.00     0.039 A 
ATOM     32  C   UNL A   1      34.102  32.998  30.234  1.00  0.00     0.014 A 
ATOM     33  C   UNL A   1      35.503  34.407  28.851  1.00  0.00     0.014 A 
ATOM     34  C   UNL A   1      35.229  32.582  30.949  1.00  0.00     0.010 A 
ATOM     35  C   UNL A   1      36.634  33.938  29.518  1.00  0.00     0.010 A 
ATOM     36  C   UNL A   1      36.511  32.993  30.548  1.00  0.00    -0.014 A 
BRANCH  36  37
ATOM     37  C   UNL A   1      37.740  32.386  31.124  1.00  0.00     0.031 A 
ATOM     38  C   UNL A   1      38.459  31.283  30.402  1.00  0.00     0.074 A 
ATOM     39  C   UNL A   1      38.144  32.761  32.355  1.00  0.00     0.049 A 
ATOM     40  N   UNL A   1      39.442  30.526  30.819  1.00  0.00    -0.248 NA
ATOM     41  C   UNL A   1      37.998  30.975  29.040  1.00  0.00     0.031 C 
ATOM     42  C   UNL A   1      37.513  33.796  33.177  1.00  0.00     0.029 A 
ATOM     43  N   UNL A   1      39.169  32.296  33.144  1.00  0.00    -0.354 N 
ATOM     44  C   UNL A   1      39.715  29.652  29.776  1.00  0.00     0.074 A 
ATOM     45  C   UNL A   1      38.764  29.941  28.723  1.00  0.00     0.031 C 
ATOM     46  C   UNL A   1      38.164  33.893  34.345  1.00  0.00     0.029 A 
ATOM     47  C   UNL A   1      39.226  32.894  34.381  1.00  0.00     0.049 A 
ATOM     48  H   UNL A   1      39.802  31.602  32.851  1.00  0.00     0.167 HD
ATOM     49  C   UNL A   1      40.683  28.708  29.698  1.00  0.00     0.037 A 
ATOM     50  C   UNL A   1      40.025  32.645  35.437  1.00  0.00     0.037 A 
ATOM     51  C   UNL A   1      41.638  28.430  30.739  1.00  0.00     0.049 A 
ATOM     52  C   UNL A   1      41.055  31.553  35.339  1.00  0.00     0.074 A 
ATOM     53  C   UNL A   1      42.682  27.521  30.732  1.00  0.00     0.029 A 
ATOM     54  N   UNL A   1      41.665  29.060  31.975  1.00  0.00    -0.354 N 
ATOM     55  N   UNL A   1      41.335  30.766  34.329  1.00  0.00    -0.248 NA
ATOM     56  C   UNL A   1      41.880  31.309  36.533  1.00  0.00     0.031 C 
ATOM     57  C   UNL A   1      43.318  27.573  31.977  1.00  0.00     0.029 A 
ATOM     58  C   UNL A   1      42.693  28.541  32.746  1.00  0.00     0.049 A 
ATOM     59  H   UNL A   1      41.045  29.768  32.262  1.00  0.00     0.167 HD
ATOM     60  C   UNL A   1      42.373  29.952  34.756  1.00  0.00     0.074 A 
ATOM     61  C   UNL A   1      42.693  30.351  36.110  1.00  0.00     0.031 C 
ATOM     62  C   UNL A   1      43.004  28.957  34.088  1.00  0.00     0.037 A 
BRANCH  49  63
ATOM     63  C   UNL A   1      40.779  27.909  28.433  1.00  0.00     0.064 A 
ATOM     64  C   UNL A   1      41.597  28.325  27.372  1.00  0.00     0.173 A 
ATOM     65  C   UNL A   1      40.110  26.683  28.308  1.00  0.00     0.173 A 
ATOM     66  F   UNL A   1      42.250  29.494  27.441  1.00  0.00    -0.203 F 
ATOM     67  C   UNL A   1      41.732  27.547  26.226  1.00  0.00     0.198 A 
ATOM     68  C   UNL A   1      40.266  25.896  27.170  1.00  0.00     0.198 A 
ATOM     69  F   UNL A   1      39.321  26.238  29.297  1.00  0.00    -0.203 F 
ATOM     70  F   UNL A   1      42.497  27.976  25.213  1.00  0.00    -0.200 F 
ATOM     71  C   UNL A   1      41.074  26.329  26.129  1.00  0.00     0.200 A 
ATOM     72  F   UNL A   1      39.642  24.714  27.083  1.00  0.00    -0.200 F 
ATOM     73  F   UNL A   1      41.218  25.574  25.031  1.00  0.00    -0.200 F 
ENDBRANCH  49  63
BRANCH  50  74
ATOM     74  C   UNL A   1      39.876  33.426  36.692  1.00  0.00     0.064 A 
ATOM     75  C   UNL A   1      38.947  33.043  37.671  1.00  0.00     0.173 A 
ATOM     76  C   UNL A   1      40.623  34.591  36.923  1.00  0.00     0.173 A 
ATOM     77  F   UNL A   1      38.191  31.951  37.484  1.00  0.00    -0.203 F 
ATOM     78  C   UNL A   1      38.752  33.811  38.818  1.00  0.00     0.198 A 
ATOM     79  C   UNL A   1      40.447  35.340  38.084  1.00  0.00     0.198 A 
ATOM     80  F   UNL A   1      41.525  35.001  36.019  1.00  0.00    -0.203 F 
ATOM     81  F   UNL A   1      37.816  33.454  39.708  1.00  0.00    -0.200 F 
ATOM     82  C   UNL A   1      39.505  34.956  39.026  1.00  0.00     0.200 A 
ATOM     83  F   UNL A   1      41.186  36.441  38.286  1.00  0.00    -0.200 F 
ATOM     84  F   UNL A   1      39.311  35.697  40.125  1.00  0.00    -0.200 F 
ENDBRANCH  50  74
BRANCH  62  85
ATOM     85  C   UNL A   1      44.115  28.244  34.802  1.00  0.00     0.064 A 
ATOM     86  C   UNL A   1      43.876  27.080  35.545  1.00  0.00     0.173 A 
ATOM     87  C   UNL A   1      45.435  28.706  34.703  1.00  0.00     0.173 A 
ATOM     88  F   UNL A   1      42.627  26.611  35.683  1.00  0.00    -0.203 F 
ATOM     89  C   UNL A   1      44.920  26.410  36.178  1.00  0.00     0.198 A 
ATOM     90  C   UNL A   1      46.479  28.020  35.315  1.00  0.00     0.198 A 
ATOM     91  F   UNL A   1      45.715  29.814  34.001  1.00  0.00    -0.203 F 
ATOM     92  F   UNL A   1      44.665  25.321  36.915  1.00  0.00    -0.200 F 
ATOM     93  C   UNL A   1      46.221  26.876  36.056  1.00  0.00     0.200 A 
ATOM     94  F   UNL A   1      47.737  28.464  35.188  1.00  0.00    -0.200 F 
ATOM     95  F   UNL A   1      47.225  26.225  36.658  1.00  0.00    -0.200 F 
ENDBRANCH  62  85
ENDBRANCH  36  37
ENDBRANCH  28  31
ENDBRANCH  26  27
ENDBRANCH  25  26
ENDBRANCH  24  25
ENDBRANCH  23  24
ENDBRANCH   3  23
TORSDOF 17
ENDMDL
MODEL 2
REMARK VINA RESULT:     -11.2      3.509      8.003
REMARK SMILES COC[C@@H](C)CC(=O)Nc1cccc(/C=C/C(=O)NCCCCNC(=O)c2ccc(-c3c4nc(c(-c5c(F)c(F)c(F)c(F)c5F)c5ccc([nH]5)c(-c5c(F)c(F)c(F)c(F)c5F)c5nc(c(-c6c(F)c(F)c(F)c(F)c6F)c6ccc3[nH]6)C=C5)C=C4)cc2)c1
REMARK SMILES IDX 17 1 18 2 19 3 16 5 15 6 14 7 10 8 11 9 90 10 12 11 13 12
REMARK SMILES IDX 9 13 7 14 8 15 6 17 4 18 5 19 3 20 2 21 1 22 20 23 21 24
REMARK SMILES IDX 22 25 23 26 24 27 25 28 26 30 27 31 28 32 89 33 29 34 88 35
REMARK SMILES IDX 30 36 31 37 32 38 82 39 33 40 87 41 81 42 83 43 34 44 86 45
REMARK SMILES IDX 80 46 79 47 35 49 67 50 47 51 66 52 48 53 51 54 65 55 84 56
REMARK SMILES IDX 49 57 50 58 64 60 85 61 52 62 36 63 37 64 45 65 38 66 39 67
REMARK SMILES IDX 43 68 46 69 40 70 41 71 44 72 42 73 68 74 69 75 77 76 70 77
REMARK SMILES IDX 71 78 75 79 78 80 72 81 73 82 76 83 74 84 53 85 54 86 62 87
REMARK SMILES IDX 55 88 56 89 60 90 63 91 57 92 58 93 61 94 59 95
REMARK H PARENT 19 4 9 16 24 29 83 48 51 59
REMARK Flexibility Score: inf
ROOT
ATOM      1  C   UNL A   1      31.509  23.440  26.739  1.00  0.00     0.243 C 
ATOM      2  O   UNL A   1      30.426  23.219  27.273  1.00  0.00    -0.270 OA
ATOM      3  N   UNL A   1      32.356  22.410  26.448  1.00  0.00    -0.353 N 
ATOM      4  H   UNL A   1      32.152  21.554  26.890  1.00  0.00     0.163 HD
ENDROOT
BRANCH   1   5
ATOM      5  C   UNL A   1      31.849  24.822  26.328  1.00  0.00     0.072 C 
ATOM      6  C   UNL A   1      31.835  25.860  27.178  1.00  0.00     0.014 C 
BRANCH   6   7
ATOM      7  C   UNL A   1      32.210  27.220  26.771  1.00  0.00    -0.023 A 
ATOM      8  C   UNL A   1      33.220  28.673  25.097  1.00  0.00     0.041 A 
ATOM      9  C   UNL A   1      32.958  29.785  25.890  1.00  0.00     0.026 A 
ATOM     10  C   UNL A   1      32.910  27.396  25.571  1.00  0.00     0.034 A 
ATOM     11  C   UNL A   1      32.278  29.622  27.101  1.00  0.00     0.003 A 
ATOM     12  C   UNL A   1      31.892  28.347  27.533  1.00  0.00     0.008 A 
BRANCH   8  13
ATOM     13  N   UNL A   1      33.860  28.834  23.861  1.00  0.00    -0.326 N 
ATOM     14  C   UNL A   1      33.348  28.538  22.620  1.00  0.00     0.224 C 
ATOM     15  O   UNL A   1      34.097  28.185  21.710  1.00  0.00    -0.275 OA
ATOM     16  H   UNL A   1      34.775  29.197  23.884  1.00  0.00     0.169 HD
BRANCH  14  17
ATOM     17  C   UNL A   1      31.886  28.896  22.354  1.00  0.00     0.106 C 
BRANCH  17  18
ATOM     18  C   UNL A   1      30.903  27.715  22.263  1.00  0.00     0.021 C 
ATOM     19  C   UNL A   1      30.173  27.525  23.596  1.00  0.00     0.010 C 
BRANCH  18  20
ATOM     20  C   UNL A   1      31.639  26.442  21.813  1.00  0.00     0.163 C 
BRANCH  20  21
ATOM     21  O   UNL A   1      31.413  25.312  22.654  1.00  0.00    -0.384 OA
ATOM     22  C   UNL A   1      32.599  24.532  22.811  1.00  0.00     0.194 C 
ENDBRANCH  20  21
ENDBRANCH  18  20
ENDBRANCH  17  18
ENDBRANCH  14  17
ENDBRANCH   8  13
ENDBRANCH   6   7
ENDBRANCH   1   5
BRANCH   3  23
ATOM     23  C   UNL A   1      33.515  22.409  25.575  1.00  0.00     0.116 C 
BRANCH  23  24
ATOM     24  C   UNL A   1      34.751  23.043  26.208  1.00  0.00     0.023 C 
BRANCH  24  25
ATOM     25  C   UNL A   1      36.048  22.256  26.014  1.00  0.00     0.023 C 
BRANCH  25  26
ATOM     26  C   UNL A   1      37.257  23.078  25.563  1.00  0.00     0.116 C 
BRANCH  26  27
ATOM     27  N   UNL A   1      38.535  22.417  25.797  1.00  0.00    -0.352 N 
ATOM     28  C   UNL A   1      39.708  22.907  26.325  1.00  0.00     0.251 C 
ATOM     29  H   UNL A   1      38.564  21.469  25.534  1.00  0.00     0.163 HD
ATOM     30  O   UNL A   1      40.725  22.219  26.330  1.00  0.00    -0.269 OA
BRANCH  28  31
ATOM     31  C   UNL A   1      39.762  24.287  26.855  1.00  0.00     0.039 A 
ATOM     32  C   UNL A   1      39.306  24.531  28.154  1.00  0.00     0.014 A 
ATOM     33  C   UNL A   1      40.288  25.329  26.090  1.00  0.00     0.014 A 
ATOM     34  C   UNL A   1      39.503  25.788  28.732  1.00  0.00     0.010 A 
ATOM     35  C   UNL A   1      40.548  26.560  26.690  1.00  0.00     0.010 A 
ATOM     36  C   UNL A   1      40.192  26.789  28.028  1.00  0.00    -0.014 A 
BRANCH  36  37
ATOM     37  C   UNL A   1      40.632  28.045  28.690  1.00  0.00     0.031 A 
ATOM     38  C   UNL A   1      42.032  28.183  29.215  1.00  0.00     0.074 A 
ATOM     39  C   UNL A   1      39.730  29.023  28.912  1.00  0.00     0.049 A 
ATOM     40  N   UNL A   1      42.547  29.130  29.958  1.00  0.00    -0.248 NA
ATOM     41  C   UNL A   1      42.974  27.104  28.877  1.00  0.00     0.031 C 
ATOM     42  C   UNL A   1      38.330  28.998  28.485  1.00  0.00     0.029 A 
ATOM     43  N   UNL A   1      39.848  30.220  29.578  1.00  0.00    -0.354 N 
ATOM     44  C   UNL A   1      43.866  28.761  30.181  1.00  0.00     0.074 A 
ATOM     45  C   UNL A   1      44.063  27.481  29.532  1.00  0.00     0.031 C 
ATOM     46  C   UNL A   1      37.722  30.124  28.889  1.00  0.00     0.029 A 
ATOM     47  C   UNL A   1      38.672  30.928  29.650  1.00  0.00     0.049 A 
ATOM     48  H   UNL A   1      40.695  30.540  29.965  1.00  0.00     0.167 HD
ATOM     49  C   UNL A   1      44.829  29.438  30.850  1.00  0.00     0.037 A 
ATOM     50  C   UNL A   1      38.383  32.082  30.283  1.00  0.00     0.037 A 
ATOM     51  C   UNL A   1      44.639  30.717  31.483  1.00  0.00     0.049 A 
ATOM     52  C   UNL A   1      39.461  32.783  31.063  1.00  0.00     0.074 A 
ATOM     53  C   UNL A   1      45.569  31.499  32.147  1.00  0.00     0.029 A 
ATOM     54  N   UNL A   1      43.434  31.403  31.530  1.00  0.00    -0.354 N 
ATOM     55  N   UNL A   1      40.718  32.448  31.226  1.00  0.00    -0.248 NA
ATOM     56  C   UNL A   1      39.079  34.024  31.757  1.00  0.00     0.031 C 
ATOM     57  C   UNL A   1      44.920  32.640  32.629  1.00  0.00     0.029 A 
ATOM     58  C   UNL A   1      43.593  32.587  32.233  1.00  0.00     0.049 A 
ATOM     59  H   UNL A   1      42.592  31.095  31.127  1.00  0.00     0.167 HD
ATOM     60  C   UNL A   1      41.278  33.440  32.018  1.00  0.00     0.074 A 
ATOM     61  C   UNL A   1      40.232  34.403  32.288  1.00  0.00     0.031 C 
ATOM     62  C   UNL A   1      42.545  33.540  32.485  1.00  0.00     0.037 A 
BRANCH  49  63
ATOM     63  C   UNL A   1      46.195  28.822  30.920  1.00  0.00     0.064 A 
ATOM     64  C   UNL A   1      46.539  27.935  31.951  1.00  0.00     0.173 A 
ATOM     65  C   UNL A   1      47.140  29.060  29.912  1.00  0.00     0.173 A 
ATOM     66  F   UNL A   1      45.672  27.682  32.942  1.00  0.00    -0.203 F 
ATOM     67  C   UNL A   1      47.786  27.317  31.976  1.00  0.00     0.198 A 
ATOM     68  C   UNL A   1      48.378  28.422  29.927  1.00  0.00     0.198 A 
ATOM     69  F   UNL A   1      46.857  29.895  28.901  1.00  0.00    -0.203 F 
ATOM     70  F   UNL A   1      48.104  26.495  32.984  1.00  0.00    -0.200 F 
ATOM     71  C   UNL A   1      48.701  27.554  30.960  1.00  0.00     0.200 A 
ATOM     72  F   UNL A   1      49.255  28.639  28.938  1.00  0.00    -0.200 F 
ATOM     73  F   UNL A   1      49.895  26.946  30.977  1.00  0.00    -0.200 F 
ENDBRANCH  49  63
BRANCH  50  74
ATOM     74  C   UNL A   1      37.008  32.644  30.229  1.00  0.00     0.064 A 
ATOM     75  C   UNL A   1      36.613  33.476  29.171  1.00  0.00     0.173 A 
ATOM     76  C   UNL A   1      36.076  32.399  31.249  1.00  0.00     0.173 A 
ATOM     77  F   UNL A   1      37.477  33.761  28.186  1.00  0.00    -0.203 F 
ATOM     78  C   UNL A   1      35.349  34.064  29.151  1.00  0.00     0.198 A 
ATOM     79  C   UNL A   1      34.803  32.963  31.211  1.00  0.00     0.198 A 
ATOM     80  F   UNL A   1      36.403  31.610  32.283  1.00  0.00    -0.203 F 
ATOM     81  F   UNL A   1      35.020  34.902  28.159  1.00  0.00    -0.200 F 
ATOM     82  C   UNL A   1      34.444  33.803  30.168  1.00  0.00     0.200 A 
ATOM     83  F   UNL A   1      33.927  32.699  32.191  1.00  0.00    -0.200 F 
ATOM     84  F   UNL A   1      33.233  34.375  30.152  1.00  0.00    -0.200 F 
ENDBRANCH  50  74
BRANCH  62  85
ATOM     85  C   UNL A   1      42.878  34.742  33.319  1.00  0.00     0.064 A 
ATOM     86  C   UNL A   1      43.252  35.958  32.729  1.00  0.00     0.173 A 
ATOM     87  C   UNL A   1      42.777  34.689  34.716  1.00  0.00     0.173 A 
ATOM     88  F   UNL A   1      43.380  36.052  31.397  1.00  0.00    -0.203 F 
ATOM     89  C   UNL A   1      43.529  37.076  33.512  1.00  0.00     0.198 A 
ATOM     90  C   UNL A   1      43.029  35.815  35.494  1.00  0.00     0.198 A 
ATOM     91  F   UNL A   1      42.419  33.550  35.327  1.00  0.00    -0.203 F 
ATOM     92  F   UNL A   1      43.922  38.217  32.931  1.00  0.00    -0.200 F 
ATOM     93  C   UNL A   1      43.410  37.006  34.892  1.00  0.00     0.200 A 
ATOM     94  F   UNL A   1      42.903  35.750  36.827  1.00  0.00    -0.200 F 
ATOM     95  F   UNL A   1      43.667  38.085  35.643  1.00  0.00    -0.200 F 
ENDBRANCH  62  85
ENDBRANCH  36  37
ENDBRANCH  28  31
ENDBRANCH  26  27
ENDBRANCH  25  26
ENDBRANCH  24  25
ENDBRANCH  23  24
ENDBRANCH   3  23
TORSDOF 17
ENDMDL
MODEL 3
REMARK VINA RESULT:     -11.1      1.360      2.046
REMARK SMILES COC[C@@H](C)CC(=O)Nc1cccc(/C=C/C(=O)NCCCCNC(=O)c2ccc(-c3c4nc(c(-c5c(F)c(F)c(F)c(F)c5F)c5ccc([nH]5)c(-c5c(F)c(F)c(F)c(F)c5F)c5nc(c(-c6c(F)c(F)c(F)c(F)c6F)c6ccc3[nH]6)C=C5)C=C4)cc2)c1
REMARK SMILES IDX 17 1 18 2 19 3 16 5 15 6 14 7 10 8 11 9 90 10 12 11 13 12
REMARK SMILES IDX 9 13 7 14 8 15 6 17 4 18 5 19 3 20 2 21 1 22 20 23 21 24
REMARK SMILES IDX 22 25 23 26 24 27 25 28 26 30 27 31 28 32 89 33 29 34 88 35
REMARK SMILES IDX 30 36 31 37 32 38 82 39 33 40 87 41 81 42 83 43 34 44 86 45
REMARK SMILES IDX 80 46 79 47 35 49 67 50 47 51 66 52 48 53 51 54 65 55 84 56
REMARK SMILES IDX 49 57 50 58 64 60 85 61 52 62 36 63 37 64 45 65 38 66 39 67
REMARK SMILES IDX 43 68 46 69 40 70 41 71 44 72 42 73 68 74 69 75 77 76 70 77
REMARK SMILES IDX 71 78 75 79 78 80 72 81 73 82 76 83 74 84 53 85 54 86 62 87
REMARK SMILES IDX 55 88 56 89 60 90 63 91 57 92 58 93 61 94 59 95
REMARK H PARENT 19 4 9 16 24 29 83 48 51 59
REMARK Flexibility Score: inf
ROOT
ATOM      1  C   UNL A   1      30.239  28.662  23.449  1.00  0.00     0.243 C 
ATOM      2  O   UNL A   1      29.492  28.777  22.482  1.00  0.00    -0.270 OA
ATOM      3  N   UNL A   1      30.943  29.738  23.906  1.00  0.00    -0.353 N 
ATOM      4  H   UNL A   1      30.989  30.508  23.295  1.00  0.00     0.163 HD
ENDROOT
BRANCH   1   5
ATOM      5  C   UNL A   1      30.301  27.370  24.172  1.00  0.00     0.072 C 
ATOM      6  C   UNL A   1      31.451  26.834  24.608  1.00  0.00     0.014 C 
BRANCH   6   7
ATOM      7  C   UNL A   1      31.499  25.571  25.357  1.00  0.00    -0.023 A 
ATOM      8  C   UNL A   1      32.844  23.751  26.258  1.00  0.00     0.041 A 
ATOM      9  C   UNL A   1      31.704  23.158  26.788  1.00  0.00     0.026 A 
ATOM     10  C   UNL A   1      32.727  24.911  25.488  1.00  0.00     0.034 A 
ATOM     11  C   UNL A   1      30.467  23.795  26.647  1.00  0.00     0.003 A 
ATOM     12  C   UNL A   1      30.367  25.004  25.948  1.00  0.00     0.008 A 
BRANCH   8  13
ATOM     13  N   UNL A   1      34.093  23.141  26.435  1.00  0.00    -0.326 N 
ATOM     14  C   UNL A   1      34.568  22.027  25.784  1.00  0.00     0.224 C 
ATOM     15  O   UNL A   1      35.359  21.271  26.348  1.00  0.00    -0.275 OA
ATOM     16  H   UNL A   1      34.695  23.555  27.095  1.00  0.00     0.169 HD
BRANCH  14  17
ATOM     17  C   UNL A   1      34.279  21.902  24.289  1.00  0.00     0.106 C 
BRANCH  17  18
ATOM     18  C   UNL A   1      33.091  21.004  23.899  1.00  0.00     0.021 C 
ATOM     19  C   UNL A   1      32.025  21.818  23.160  1.00  0.00     0.010 C 
BRANCH  18  20
ATOM     20  C   UNL A   1      32.529  20.295  25.142  1.00  0.00     0.163 C 
BRANCH  20  21
ATOM     21  O   UNL A   1      32.280  18.902  24.955  1.00  0.00    -0.384 OA
ATOM     22  C   UNL A   1      33.377  18.258  24.306  1.00  0.00     0.194 C 
ENDBRANCH  20  21
ENDBRANCH  18  20
ENDBRANCH  17  18
ENDBRANCH  14  17
ENDBRANCH   8  13
ENDBRANCH   6   7
ENDBRANCH   1   5
BRANCH   3  23
ATOM     23  C   UNL A   1      31.630  29.898  25.175  1.00  0.00     0.116 C 
BRANCH  23  24
ATOM     24  C   UNL A   1      31.291  31.205  25.886  1.00  0.00     0.023 C 
BRANCH  24  25
ATOM     25  C   UNL A   1      31.962  31.389  27.248  1.00  0.00     0.023 C 
BRANCH  25  26
ATOM     26  C   UNL A   1      33.078  32.436  27.297  1.00  0.00     0.116 C 
BRANCH  26  27
ATOM     27  N   UNL A   1      32.605  33.782  27.598  1.00  0.00    -0.352 N 
ATOM     28  C   UNL A   1      33.063  34.703  28.512  1.00  0.00     0.251 C 
ATOM     29  H   UNL A   1      31.834  34.078  27.062  1.00  0.00     0.163 HD
ATOM     30  O   UNL A   1      32.450  35.749  28.703  1.00  0.00    -0.269 OA
BRANCH  28  31
ATOM     31  C   UNL A   1      34.280  34.419  29.303  1.00  0.00     0.039 A 
ATOM     32  C   UNL A   1      34.142  33.878  30.585  1.00  0.00     0.014 A 
ATOM     33  C   UNL A   1      35.551  34.653  28.775  1.00  0.00     0.014 A 
ATOM     34  C   UNL A   1      35.275  33.447  31.280  1.00  0.00     0.010 A 
ATOM     35  C   UNL A   1      36.673  34.160  29.437  1.00  0.00     0.010 A 
ATOM     36  C   UNL A   1      36.542  33.518  30.678  1.00  0.00    -0.014 A 
BRANCH  36  37
ATOM     37  C   UNL A   1      37.729  32.853  31.279  1.00  0.00     0.031 A 
ATOM     38  C   UNL A   1      38.372  31.677  30.602  1.00  0.00     0.074 A 
ATOM     39  C   UNL A   1      38.160  33.248  32.494  1.00  0.00     0.049 A 
ATOM     40  N   UNL A   1      39.303  30.873  31.048  1.00  0.00    -0.248 NA
ATOM     41  C   UNL A   1      37.889  31.347  29.252  1.00  0.00     0.031 C 
ATOM     42  C   UNL A   1      37.600  34.355  33.274  1.00  0.00     0.029 A 
ATOM     43  N   UNL A   1      39.152  32.748  33.302  1.00  0.00    -0.354 N 
ATOM     44  C   UNL A   1      39.515  29.942  30.041  1.00  0.00     0.074 A 
ATOM     45  C   UNL A   1      38.584  30.253  28.976  1.00  0.00     0.031 C 
ATOM     46  C   UNL A   1      38.259  34.454  34.439  1.00  0.00     0.029 A 
ATOM     47  C   UNL A   1      39.251  33.388  34.514  1.00  0.00     0.049 A 
ATOM     48  H   UNL A   1      39.737  32.002  33.037  1.00  0.00     0.167 HD
ATOM     49  C   UNL A   1      40.417  28.934  30.001  1.00  0.00     0.037 A 
ATOM     50  C   UNL A   1      40.034  33.128  35.580  1.00  0.00     0.037 A 
ATOM     51  C   UNL A   1      41.354  28.634  31.053  1.00  0.00     0.049 A 
ATOM     52  C   UNL A   1      40.989  31.967  35.526  1.00  0.00     0.074 A 
ATOM     53  C   UNL A   1      42.335  27.657  31.083  1.00  0.00     0.029 A 
ATOM     54  N   UNL A   1      41.425  29.309  32.263  1.00  0.00    -0.354 N 
ATOM     55  N   UNL A   1      41.213  31.124  34.548  1.00  0.00    -0.248 NA
ATOM     56  C   UNL A   1      41.797  31.715  36.730  1.00  0.00     0.031 C 
ATOM     57  C   UNL A   1      42.975  27.716  32.325  1.00  0.00     0.029 A 
ATOM     58  C   UNL A   1      42.418  28.753  33.055  1.00  0.00     0.049 A 
ATOM     59  H   UNL A   1      40.855  30.067  32.522  1.00  0.00     0.167 HD
ATOM     60  C   UNL A   1      42.196  30.260  35.008  1.00  0.00     0.074 A 
ATOM     61  C   UNL A   1      42.544  30.690  36.346  1.00  0.00     0.031 C 
ATOM     62  C   UNL A   1      42.757  29.199  34.380  1.00  0.00     0.037 A 
BRANCH  49  63
ATOM     63  C   UNL A   1      40.458  28.082  28.768  1.00  0.00     0.064 A 
ATOM     64  C   UNL A   1      41.240  28.443  27.660  1.00  0.00     0.173 A 
ATOM     65  C   UNL A   1      39.773  26.859  28.721  1.00  0.00     0.173 A 
ATOM     66  F   UNL A   1      41.906  29.606  27.656  1.00  0.00    -0.203 F 
ATOM     67  C   UNL A   1      41.323  27.615  26.544  1.00  0.00     0.198 A 
ATOM     68  C   UNL A   1      39.879  26.022  27.612  1.00  0.00     0.198 A 
ATOM     69  F   UNL A   1      39.018  26.465  29.757  1.00  0.00    -0.203 F 
ATOM     70  F   UNL A   1      42.054  27.993  25.486  1.00  0.00    -0.200 F 
ATOM     71  C   UNL A   1      40.650  26.403  26.524  1.00  0.00     0.200 A 
ATOM     72  F   UNL A   1      39.240  24.845  27.599  1.00  0.00    -0.200 F 
ATOM     73  F   UNL A   1      40.746  25.600  25.455  1.00  0.00    -0.200 F 
ENDBRANCH  49  63
BRANCH  50  74
ATOM     74  C   UNL A   1      39.939  33.967  36.804  1.00  0.00     0.064 A 
ATOM     75  C   UNL A   1      39.073  33.616  37.850  1.00  0.00     0.173 A 
ATOM     76  C   UNL A   1      40.676  35.153  36.937  1.00  0.00     0.173 A 
ATOM     77  F   UNL A   1      38.329  32.504  37.757  1.00  0.00    -0.203 F 
ATOM     78  C   UNL A   1      38.927  34.435  38.969  1.00  0.00     0.198 A 
ATOM     79  C   UNL A   1      40.550  35.954  38.070  1.00  0.00     0.198 A 
ATOM     80  F   UNL A   1      41.519  35.534  35.966  1.00  0.00    -0.203 F 
ATOM     81  F   UNL A   1      38.049  34.105  39.925  1.00  0.00    -0.200 F 
ATOM     82  C   UNL A   1      39.669  35.601  39.079  1.00  0.00     0.200 A 
ATOM     83  F   UNL A   1      41.278  37.075  38.178  1.00  0.00    -0.200 F 
ATOM     84  F   UNL A   1      39.522  36.391  40.151  1.00  0.00    -0.200 F 
ENDBRANCH  50  74
BRANCH  62  85
ATOM     85  C   UNL A   1      43.820  28.443  35.122  1.00  0.00     0.064 A 
ATOM     86  C   UNL A   1      45.169  28.817  35.047  1.00  0.00     0.173 A 
ATOM     87  C   UNL A   1      43.478  27.364  35.950  1.00  0.00     0.173 A 
ATOM     88  F   UNL A   1      45.546  29.830  34.254  1.00  0.00    -0.203 F 
ATOM     89  C   UNL A   1      46.142  28.126  35.765  1.00  0.00     0.198 A 
ATOM     90  C   UNL A   1      44.450  26.693  36.686  1.00  0.00     0.198 A 
ATOM     91  F   UNL A   1      42.200  26.971  36.058  1.00  0.00    -0.203 F 
ATOM     92  F   UNL A   1      47.430  28.475  35.649  1.00  0.00    -0.200 F 
ATOM     93  C   UNL A   1      45.781  27.071  36.589  1.00  0.00     0.200 A 
ATOM     94  F   UNL A   1      44.099  25.680  37.491  1.00  0.00    -0.200 F 
ATOM     95  F   UNL A   1      46.718  26.414  37.286  1.00  0.00    -0.200 F 
ENDBRANCH  62  85
ENDBRANCH  36  37
ENDBRANCH  28  31
ENDBRANCH  26  27
ENDBRANCH  25  26
ENDBRANCH  24  25
ENDBRANCH  23  24
ENDBRANCH   3  23
TORSDOF 17
ENDMDL
