MODEL 1
REMARK VINA RESULT:     -12.3      0.000      0.000
REMARK SMILES Cc1n[nH]c(C(=O)N[C@H](C(=O)NCCCCNC(=O)c2ccc(-c3c4nc(c(-c5c(F)c(F)c(F)c(F)c5F)c5ccc([nH]5)c(-c5c(F)c(F)c(F)c(F)c5F)c5nc(c(-c6c(F)c(F)c(F)c(F)c6F)c6ccc3[nH]6)C=C5)C=C4)cc2)C(C)C)n1
REMARK SMILES IDX 14 1 13 2 12 3 10 4 11 5 9 7 8 8 6 9 7 10 5 12 1 13 2 14
REMARK SMILES IDX 3 15 86 16 4 17 83 19 84 20 85 21 15 22 16 23 17 24 18 25
REMARK SMILES IDX 19 27 20 28 21 29 82 30 22 31 81 32 23 33 24 34 25 35 75 36
REMARK SMILES IDX 26 37 80 38 74 39 76 40 27 41 79 42 73 43 72 44 28 46 60 47
REMARK SMILES IDX 40 48 59 49 41 50 44 51 58 52 77 53 42 54 43 55 57 57 78 58
REMARK SMILES IDX 45 59 29 60 30 61 38 62 31 63 32 64 36 65 39 66 33 67 34 68
REMARK SMILES IDX 37 69 35 70 61 71 62 72 70 73 63 74 64 75 68 76 71 77 65 78
REMARK SMILES IDX 66 79 69 80 67 81 46 82 47 83 55 84 48 85 49 86 53 87 56 88
REMARK SMILES IDX 50 89 51 90 54 91 52 92
REMARK H PARENT 12 6 8 11 4 18 17 26 76 45 44 56
REMARK Flexibility Score: inf
ROOT
ATOM      1  C   UNL A   1      37.076  20.406  24.813  1.00  0.00     0.023 C 
ENDROOT
BRANCH   1   2
ATOM      2  C   UNL A   1      37.402  21.836  25.235  1.00  0.00     0.116 C 
BRANCH   2   3
ATOM      3  N   UNL A   1      36.468  22.389  26.197  1.00  0.00    -0.354 N 
ATOM      4  C   UNL A   1      35.145  22.677  26.156  1.00  0.00     0.242 C 
ATOM      5  O   UNL A   1      34.632  22.985  27.242  1.00  0.00    -0.273 OA
ATOM      6  H   UNL A   1      36.885  22.602  27.064  1.00  0.00     0.163 HD
BRANCH   4   7
ATOM      7  C   UNL A   1      34.272  22.820  24.880  1.00  0.00     0.174 C 
BRANCH   7   8
ATOM      8  N   UNL A   1      32.882  22.618  25.289  1.00  0.00    -0.337 N 
ATOM      9  C   UNL A   1      32.100  21.485  25.416  1.00  0.00     0.289 C 
ATOM     10  O   UNL A   1      30.935  21.724  25.750  1.00  0.00    -0.266 OA
ATOM     11  H   UNL A   1      32.412  23.453  25.518  1.00  0.00     0.164 HD
BRANCH   9  12
ATOM     12  C   UNL A   1      32.585  20.129  25.181  1.00  0.00     0.214 A 
ATOM     13  C   UNL A   1      33.276  17.313  23.124  1.00  0.00     0.092 C 
ATOM     14  C   UNL A   1      33.114  18.312  24.199  1.00  0.00     0.148 A 
ATOM     15  N   UNL A   1      33.297  18.012  25.485  1.00  0.00    -0.159 NA
ATOM     16  N   UNL A   1      32.710  19.601  23.969  1.00  0.00    -0.207 NA
ATOM     17  N   UNL A   1      32.901  19.148  26.078  1.00  0.00    -0.255 N 
ATOM     18  H   UNL A   1      32.842  19.262  27.055  1.00  0.00     0.192 HD
ENDBRANCH   9  12
ENDBRANCH   7   8
BRANCH   7  19
ATOM     19  C   UNL A   1      34.481  24.074  24.010  1.00  0.00     0.015 C 
ATOM     20  C   UNL A   1      33.491  24.088  22.838  1.00  0.00     0.010 C 
ATOM     21  C   UNL A   1      34.321  25.377  24.805  1.00  0.00     0.010 C 
ENDBRANCH   7  19
ENDBRANCH   4   7
ENDBRANCH   2   3
ENDBRANCH   1   2
BRANCH   1  22
ATOM     22  C   UNL A   1      38.203  19.379  24.997  1.00  0.00     0.023 C 
BRANCH  22  23
ATOM     23  C   UNL A   1      39.403  19.870  25.798  1.00  0.00     0.116 C 
BRANCH  23  24
ATOM     24  N   UNL A   1      40.552  18.961  25.751  1.00  0.00    -0.352 N 
ATOM     25  C   UNL A   1      41.899  19.293  25.787  1.00  0.00     0.251 C 
ATOM     26  H   UNL A   1      40.343  18.002  25.686  1.00  0.00     0.163 HD
ATOM     27  O   UNL A   1      42.759  18.535  25.380  1.00  0.00    -0.269 OA
BRANCH  25  28
ATOM     28  C   UNL A   1      42.268  20.591  26.378  1.00  0.00     0.039 A 
ATOM     29  C   UNL A   1      42.855  21.621  25.635  1.00  0.00     0.014 A 
ATOM     30  C   UNL A   1      41.952  20.764  27.719  1.00  0.00     0.014 A 
ATOM     31  C   UNL A   1      43.047  22.861  26.243  1.00  0.00     0.010 A 
ATOM     32  C   UNL A   1      41.958  22.019  28.249  1.00  0.00     0.010 A 
ATOM     33  C   UNL A   1      42.582  23.050  27.551  1.00  0.00    -0.014 A 
BRANCH  33  34
ATOM     34  C   UNL A   1      42.624  24.344  28.225  1.00  0.00     0.031 A 
ATOM     35  C   UNL A   1      41.403  25.182  28.045  1.00  0.00     0.074 A 
ATOM     36  C   UNL A   1      43.554  24.565  29.183  1.00  0.00     0.049 A 
ATOM     37  N   UNL A   1      41.323  26.398  27.612  1.00  0.00    -0.248 NA
ATOM     38  C   UNL A   1      40.088  24.552  28.276  1.00  0.00     0.031 C 
ATOM     39  C   UNL A   1      44.612  23.651  29.643  1.00  0.00     0.029 A 
ATOM     40  N   UNL A   1      43.668  25.597  30.060  1.00  0.00    -0.354 N 
ATOM     41  C   UNL A   1      39.976  26.751  27.702  1.00  0.00     0.074 A 
ATOM     42  C   UNL A   1      39.249  25.533  27.936  1.00  0.00     0.031 C 
ATOM     43  C   UNL A   1      45.080  24.054  30.843  1.00  0.00     0.029 A 
ATOM     44  C   UNL A   1      44.487  25.337  31.157  1.00  0.00     0.049 A 
ATOM     45  H   UNL A   1      43.208  26.458  29.931  1.00  0.00     0.167 HD
ATOM     46  C   UNL A   1      39.597  28.052  27.840  1.00  0.00     0.037 A 
ATOM     47  C   UNL A   1      44.630  26.111  32.261  1.00  0.00     0.037 A 
ATOM     48  C   UNL A   1      40.658  28.943  27.447  1.00  0.00     0.049 A 
ATOM     49  C   UNL A   1      44.136  27.465  31.902  1.00  0.00     0.074 A 
ATOM     50  C   UNL A   1      41.344  29.178  26.272  1.00  0.00     0.029 A 
ATOM     51  N   UNL A   1      41.424  29.501  28.440  1.00  0.00    -0.354 N 
ATOM     52  N   UNL A   1      44.711  28.229  31.014  1.00  0.00    -0.248 NA
ATOM     53  C   UNL A   1      42.735  27.752  32.167  1.00  0.00     0.031 C 
ATOM     54  C   UNL A   1      42.693  29.410  26.674  1.00  0.00     0.029 A 
ATOM     55  C   UNL A   1      42.738  29.380  28.069  1.00  0.00     0.049 A 
ATOM     56  H   UNL A   1      41.090  29.914  29.269  1.00  0.00     0.167 HD
ATOM     57  C   UNL A   1      43.662  28.800  30.308  1.00  0.00     0.074 A 
ATOM     58  C   UNL A   1      42.470  28.523  31.108  1.00  0.00     0.031 C 
ATOM     59  C   UNL A   1      43.819  29.180  29.006  1.00  0.00     0.037 A 
BRANCH  46  60
ATOM     60  C   UNL A   1      38.435  28.518  28.691  1.00  0.00     0.064 A 
ATOM     61  C   UNL A   1      37.560  29.497  28.177  1.00  0.00     0.173 A 
ATOM     62  C   UNL A   1      38.330  28.283  30.080  1.00  0.00     0.173 A 
ATOM     63  F   UNL A   1      37.581  29.816  26.875  1.00  0.00    -0.203 F 
ATOM     64  C   UNL A   1      36.712  30.240  29.005  1.00  0.00     0.198 A 
ATOM     65  C   UNL A   1      37.444  28.987  30.894  1.00  0.00     0.198 A 
ATOM     66  F   UNL A   1      39.150  27.451  30.730  1.00  0.00    -0.203 F 
ATOM     67  F   UNL A   1      35.998  31.250  28.492  1.00  0.00    -0.200 F 
ATOM     68  C   UNL A   1      36.662  29.990  30.364  1.00  0.00     0.200 A 
ATOM     69  F   UNL A   1      37.425  28.742  32.211  1.00  0.00    -0.200 F 
ATOM     70  F   UNL A   1      35.903  30.744  31.170  1.00  0.00    -0.200 F 
ENDBRANCH  46  60
BRANCH  47  71
ATOM     71  C   UNL A   1      44.833  25.676  33.666  1.00  0.00     0.064 A 
ATOM     72  C   UNL A   1      44.103  24.606  34.210  1.00  0.00     0.173 A 
ATOM     73  C   UNL A   1      45.939  26.120  34.417  1.00  0.00     0.173 A 
ATOM     74  F   UNL A   1      43.065  24.090  33.537  1.00  0.00    -0.203 F 
ATOM     75  C   UNL A   1      44.468  24.007  35.421  1.00  0.00     0.198 A 
ATOM     76  C   UNL A   1      46.300  25.525  35.628  1.00  0.00     0.198 A 
ATOM     77  F   UNL A   1      46.749  27.082  33.948  1.00  0.00    -0.203 F 
ATOM     78  F   UNL A   1      43.781  22.952  35.882  1.00  0.00    -0.200 F 
ATOM     79  C   UNL A   1      45.573  24.461  36.125  1.00  0.00     0.200 A 
ATOM     80  F   UNL A   1      47.392  25.953  36.279  1.00  0.00    -0.200 F 
ATOM     81  F   UNL A   1      45.957  23.852  37.254  1.00  0.00    -0.200 F 
ENDBRANCH  47  71
BRANCH  59  82
ATOM     82  C   UNL A   1      45.212  29.165  28.433  1.00  0.00     0.064 A 
ATOM     83  C   UNL A   1      45.761  28.080  27.727  1.00  0.00     0.173 A 
ATOM     84  C   UNL A   1      45.953  30.351  28.457  1.00  0.00     0.173 A 
ATOM     85  F   UNL A   1      45.077  26.943  27.571  1.00  0.00    -0.203 F 
ATOM     86  C   UNL A   1      47.005  28.169  27.105  1.00  0.00     0.198 A 
ATOM     87  C   UNL A   1      47.181  30.451  27.806  1.00  0.00     0.198 A 
ATOM     88  F   UNL A   1      45.457  31.439  29.065  1.00  0.00    -0.203 F 
ATOM     89  F   UNL A   1      47.503  27.114  26.440  1.00  0.00    -0.200 F 
ATOM     90  C   UNL A   1      47.711  29.359  27.137  1.00  0.00     0.200 A 
ATOM     91  F   UNL A   1      47.836  31.620  27.797  1.00  0.00    -0.200 F 
ATOM     92  F   UNL A   1      48.885  29.462  26.500  1.00  0.00    -0.200 F 
ENDBRANCH  59  82
ENDBRANCH  33  34
ENDBRANCH  25  28
ENDBRANCH  23  24
ENDBRANCH  22  23
ENDBRANCH   1  22
TORSDOF 14
ENDMDL
MODEL 2
REMARK VINA RESULT:     -11.8      5.400     10.596
REMARK SMILES Cc1n[nH]c(C(=O)N[C@H](C(=O)NCCCCNC(=O)c2ccc(-c3c4nc(c(-c5c(F)c(F)c(F)c(F)c5F)c5ccc([nH]5)c(-c5c(F)c(F)c(F)c(F)c5F)c5nc(c(-c6c(F)c(F)c(F)c(F)c6F)c6ccc3[nH]6)C=C5)C=C4)cc2)C(C)C)n1
REMARK SMILES IDX 14 1 13 2 12 3 10 4 11 5 9 7 8 8 6 9 7 10 5 12 1 13 2 14
REMARK SMILES IDX 3 15 86 16 4 17 83 19 84 20 85 21 15 22 16 23 17 24 18 25
REMARK SMILES IDX 19 27 20 28 21 29 82 30 22 31 81 32 23 33 24 34 25 35 75 36
REMARK SMILES IDX 26 37 80 38 74 39 76 40 27 41 79 42 73 43 72 44 28 46 60 47
REMARK SMILES IDX 40 48 59 49 41 50 44 51 58 52 77 53 42 54 43 55 57 57 78 58
REMARK SMILES IDX 45 59 29 60 30 61 38 62 31 63 32 64 36 65 39 66 33 67 34 68
REMARK SMILES IDX 37 69 35 70 61 71 62 72 70 73 63 74 64 75 68 76 71 77 65 78
REMARK SMILES IDX 66 79 69 80 67 81 46 82 47 83 55 84 48 85 49 86 53 87 56 88
REMARK SMILES IDX 50 89 51 90 54 91 52 92
REMARK H PARENT 12 6 8 11 4 18 17 26 76 45 44 56
REMARK Flexibility Score: inf
ROOT
ATOM      1  C   UNL A   1      36.191  32.199  33.166  1.00  0.00     0.023 C 
ENDROOT
BRANCH   1   2
ATOM      2  C   UNL A   1      37.274  31.127  33.078  1.00  0.00     0.116 C 
BRANCH   2   3
ATOM      3  N   UNL A   1      37.630  30.548  34.359  1.00  0.00    -0.354 N 
ATOM      4  C   UNL A   1      38.485  30.914  35.345  1.00  0.00     0.242 C 
ATOM      5  O   UNL A   1      38.402  30.258  36.394  1.00  0.00    -0.273 OA
ATOM      6  H   UNL A   1      37.149  29.712  34.554  1.00  0.00     0.163 HD
BRANCH   4   7
ATOM      7  C   UNL A   1      39.646  31.939  35.226  1.00  0.00     0.174 C 
BRANCH   7   8
ATOM      8  N   UNL A   1      39.036  33.264  35.123  1.00  0.00    -0.337 N 
ATOM      9  C   UNL A   1      39.290  34.349  34.304  1.00  0.00     0.289 C 
ATOM     10  O   UNL A   1      38.581  35.331  34.550  1.00  0.00    -0.266 OA
ATOM     11  H   UNL A   1      38.301  33.413  35.762  1.00  0.00     0.164 HD
BRANCH   9  12
ATOM     12  C   UNL A   1      40.295  34.355  33.247  1.00  0.00     0.214 A 
ATOM     13  C   UNL A   1      41.714  33.181  30.205  1.00  0.00     0.092 C 
ATOM     14  C   UNL A   1      41.355  33.868  31.462  1.00  0.00     0.148 A 
ATOM     15  N   UNL A   1      42.178  34.728  32.065  1.00  0.00    -0.159 NA
ATOM     16  N   UNL A   1      40.185  33.637  32.135  1.00  0.00    -0.207 NA
ATOM     17  N   UNL A   1      41.516  34.968  33.207  1.00  0.00    -0.255 N 
ATOM     18  H   UNL A   1      41.871  35.525  33.937  1.00  0.00     0.192 HD
ENDBRANCH   9  12
ENDBRANCH   7   8
BRANCH   7  19
ATOM     19  C   UNL A   1      40.776  31.860  36.270  1.00  0.00     0.015 C 
ATOM     20  C   UNL A   1      42.121  32.235  35.635  1.00  0.00     0.010 C 
ATOM     21  C   UNL A   1      40.529  32.776  37.476  1.00  0.00     0.010 C 
ENDBRANCH   7  19
ENDBRANCH   4   7
ENDBRANCH   2   3
ENDBRANCH   1   2
BRANCH   1  22
ATOM     22  C   UNL A   1      34.987  32.013  32.232  1.00  0.00     0.023 C 
BRANCH  22  23
ATOM     23  C   UNL A   1      34.901  33.008  31.080  1.00  0.00     0.116 C 
BRANCH  23  24
ATOM     24  N   UNL A   1      34.363  32.431  29.845  1.00  0.00    -0.352 N 
ATOM     25  C   UNL A   1      35.049  31.715  28.873  1.00  0.00     0.251 C 
ATOM     26  H   UNL A   1      33.402  32.568  29.685  1.00  0.00     0.163 HD
ATOM     27  O   UNL A   1      34.624  31.601  27.739  1.00  0.00    -0.269 OA
BRANCH  25  28
ATOM     28  C   UNL A   1      36.305  31.055  29.269  1.00  0.00     0.039 A 
ATOM     29  C   UNL A   1      36.389  29.684  29.533  1.00  0.00     0.014 A 
ATOM     30  C   UNL A   1      37.432  31.866  29.316  1.00  0.00     0.014 A 
ATOM     31  C   UNL A   1      37.642  29.123  29.771  1.00  0.00     0.010 A 
ATOM     32  C   UNL A   1      38.666  31.290  29.352  1.00  0.00     0.010 A 
ATOM     33  C   UNL A   1      38.777  29.937  29.665  1.00  0.00    -0.014 A 
BRANCH  33  34
ATOM     34  C   UNL A   1      40.136  29.416  29.771  1.00  0.00     0.031 A 
ATOM     35  C   UNL A   1      40.651  29.291  31.166  1.00  0.00     0.074 A 
ATOM     36  C   UNL A   1      40.698  28.801  28.704  1.00  0.00     0.049 A 
ATOM     37  N   UNL A   1      41.739  29.779  31.664  1.00  0.00    -0.248 NA
ATOM     38  C   UNL A   1      39.793  28.626  32.166  1.00  0.00     0.031 C 
ATOM     39  C   UNL A   1      40.117  28.605  27.365  1.00  0.00     0.029 A 
ATOM     40  N   UNL A   1      41.852  28.087  28.622  1.00  0.00    -0.354 N 
ATOM     41  C   UNL A   1      41.801  29.320  32.981  1.00  0.00     0.074 A 
ATOM     42  C   UNL A   1      40.503  28.779  33.285  1.00  0.00     0.031 C 
ATOM     43  C   UNL A   1      40.791  27.638  26.708  1.00  0.00     0.029 A 
ATOM     44  C   UNL A   1      41.947  27.268  27.498  1.00  0.00     0.049 A 
ATOM     45  H   UNL A   1      42.562  28.144  29.301  1.00  0.00     0.167 HD
ATOM     46  C   UNL A   1      42.993  29.183  33.624  1.00  0.00     0.037 A 
ATOM     47  C   UNL A   1      42.893  26.325  27.262  1.00  0.00     0.037 A 
ATOM     48  C   UNL A   1      44.023  29.948  32.970  1.00  0.00     0.049 A 
ATOM     49  C   UNL A   1      44.035  26.631  28.161  1.00  0.00     0.074 A 
ATOM     50  C   UNL A   1      44.220  31.290  32.709  1.00  0.00     0.029 A 
ATOM     51  N   UNL A   1      44.880  29.280  32.130  1.00  0.00    -0.354 N 
ATOM     52  N   UNL A   1      44.761  27.710  28.059  1.00  0.00    -0.248 NA
ATOM     53  C   UNL A   1      44.047  25.984  29.463  1.00  0.00     0.031 C 
ATOM     54  C   UNL A   1      44.799  31.331  31.406  1.00  0.00     0.029 A 
ATOM     55  C   UNL A   1      44.992  30.016  30.980  1.00  0.00     0.049 A 
ATOM     56  H   UNL A   1      45.331  28.426  32.321  1.00  0.00     0.167 HD
ATOM     57  C   UNL A   1      44.976  28.115  29.369  1.00  0.00     0.074 A 
ATOM     58  C   UNL A   1      44.571  26.975  30.191  1.00  0.00     0.031 C 
ATOM     59  C   UNL A   1      45.177  29.431  29.672  1.00  0.00     0.037 A 
BRANCH  46  60
ATOM     60  C   UNL A   1      43.319  28.065  34.591  1.00  0.00     0.064 A 
ATOM     61  C   UNL A   1      43.728  28.390  35.900  1.00  0.00     0.173 A 
ATOM     62  C   UNL A   1      43.548  26.727  34.201  1.00  0.00     0.173 A 
ATOM     63  F   UNL A   1      43.576  29.636  36.374  1.00  0.00    -0.203 F 
ATOM     64  C   UNL A   1      44.393  27.471  36.718  1.00  0.00     0.198 A 
ATOM     65  C   UNL A   1      44.161  25.797  35.040  1.00  0.00     0.198 A 
ATOM     66  F   UNL A   1      43.297  26.287  32.964  1.00  0.00    -0.203 F 
ATOM     67  F   UNL A   1      44.882  27.865  37.902  1.00  0.00    -0.200 F 
ATOM     68  C   UNL A   1      44.616  26.178  36.284  1.00  0.00     0.200 A 
ATOM     69  F   UNL A   1      44.384  24.554  34.592  1.00  0.00    -0.200 F 
ATOM     70  F   UNL A   1      45.311  25.314  37.036  1.00  0.00    -0.200 F 
ENDBRANCH  46  60
BRANCH  47  71
ATOM     71  C   UNL A   1      42.731  25.015  26.584  1.00  0.00     0.064 A 
ATOM     72  C   UNL A   1      43.470  24.694  25.432  1.00  0.00     0.173 A 
ATOM     73  C   UNL A   1      42.054  23.948  27.205  1.00  0.00     0.173 A 
ATOM     74  F   UNL A   1      44.184  25.641  24.807  1.00  0.00    -0.203 F 
ATOM     75  C   UNL A   1      43.541  23.384  24.945  1.00  0.00     0.198 A 
ATOM     76  C   UNL A   1      42.120  22.642  26.715  1.00  0.00     0.198 A 
ATOM     77  F   UNL A   1      41.386  24.132  28.354  1.00  0.00    -0.203 F 
ATOM     78  F   UNL A   1      44.301  23.106  23.876  1.00  0.00    -0.200 F 
ATOM     79  C   UNL A   1      42.873  22.357  25.593  1.00  0.00     0.200 A 
ATOM     80  F   UNL A   1      41.498  21.653  27.374  1.00  0.00    -0.200 F 
ATOM     81  F   UNL A   1      42.987  21.093  25.161  1.00  0.00    -0.200 F 
ENDBRANCH  47  71
BRANCH  59  82
ATOM     82  C   UNL A   1      45.379  30.391  28.529  1.00  0.00     0.064 A 
ATOM     83  C   UNL A   1      44.338  31.103  27.905  1.00  0.00     0.173 A 
ATOM     84  C   UNL A   1      46.688  30.727  28.165  1.00  0.00     0.173 A 
ATOM     85  F   UNL A   1      43.065  30.915  28.264  1.00  0.00    -0.203 F 
ATOM     86  C   UNL A   1      44.595  32.076  26.941  1.00  0.00     0.198 A 
ATOM     87  C   UNL A   1      46.946  31.724  27.227  1.00  0.00     0.198 A 
ATOM     88  F   UNL A   1      47.725  30.124  28.766  1.00  0.00    -0.203 F 
ATOM     89  F   UNL A   1      43.579  32.736  26.363  1.00  0.00    -0.200 F 
ATOM     90  C   UNL A   1      45.901  32.393  26.609  1.00  0.00     0.200 A 
ATOM     91  F   UNL A   1      48.211  32.061  26.946  1.00  0.00    -0.200 F 
ATOM     92  F   UNL A   1      46.152  33.361  25.718  1.00  0.00    -0.200 F 
ENDBRANCH  59  82
ENDBRANCH  33  34
ENDBRANCH  25  28
ENDBRANCH  23  24
ENDBRANCH  22  23
ENDBRANCH   1  22
TORSDOF 14
ENDMDL
MODEL 3
REMARK VINA RESULT:     -11.8      4.305     10.212
REMARK SMILES Cc1n[nH]c(C(=O)N[C@H](C(=O)NCCCCNC(=O)c2ccc(-c3c4nc(c(-c5c(F)c(F)c(F)c(F)c5F)c5ccc([nH]5)c(-c5c(F)c(F)c(F)c(F)c5F)c5nc(c(-c6c(F)c(F)c(F)c(F)c6F)c6ccc3[nH]6)C=C5)C=C4)cc2)C(C)C)n1
REMARK SMILES IDX 14 1 13 2 12 3 10 4 11 5 9 7 8 8 6 9 7 10 5 12 1 13 2 14
REMARK SMILES IDX 3 15 86 16 4 17 83 19 84 20 85 21 15 22 16 23 17 24 18 25
REMARK SMILES IDX 19 27 20 28 21 29 82 30 22 31 81 32 23 33 24 34 25 35 75 36
REMARK SMILES IDX 26 37 80 38 74 39 76 40 27 41 79 42 73 43 72 44 28 46 60 47
REMARK SMILES IDX 40 48 59 49 41 50 44 51 58 52 77 53 42 54 43 55 57 57 78 58
REMARK SMILES IDX 45 59 29 60 30 61 38 62 31 63 32 64 36 65 39 66 33 67 34 68
REMARK SMILES IDX 37 69 35 70 61 71 62 72 70 73 63 74 64 75 68 76 71 77 65 78
REMARK SMILES IDX 66 79 69 80 67 81 46 82 47 83 55 84 48 85 49 86 53 87 56 88
REMARK SMILES IDX 50 89 51 90 54 91 52 92
REMARK H PARENT 12 6 8 11 4 18 17 26 76 45 44 56
REMARK Flexibility Score: inf
ROOT
ATOM      1  C   UNL A   1      45.009  21.463  24.811  1.00  0.00     0.023 C 
ENDROOT
BRANCH   1   2
ATOM      2  C   UNL A   1      45.909  22.494  25.487  1.00  0.00     0.116 C 
BRANCH   2   3
ATOM      3  N   UNL A   1      46.552  23.406  24.561  1.00  0.00    -0.354 N 
ATOM      4  C   UNL A   1      46.852  24.727  24.608  1.00  0.00     0.242 C 
ATOM      5  O   UNL A   1      47.573  25.142  23.688  1.00  0.00    -0.273 OA
ATOM      6  H   UNL A   1      46.829  22.975  23.721  1.00  0.00     0.163 HD
BRANCH   4   7
ATOM      7  C   UNL A   1      46.252  25.775  25.583  1.00  0.00     0.174 C 
BRANCH   7   8
ATOM      8  N   UNL A   1      46.308  27.070  24.906  1.00  0.00    -0.337 N 
ATOM      9  C   UNL A   1      46.896  28.276  25.240  1.00  0.00     0.289 C 
ATOM     10  O   UNL A   1      46.684  29.174  24.418  1.00  0.00    -0.266 OA
ATOM     11  H   UNL A   1      45.835  27.086  24.042  1.00  0.00     0.164 HD
BRANCH   9  12
ATOM     12  C   UNL A   1      47.694  28.488  26.444  1.00  0.00     0.214 A 
ATOM     13  C   UNL A   1      50.746  28.533  28.266  1.00  0.00     0.092 C 
ATOM     14  C   UNL A   1      49.358  28.617  27.770  1.00  0.00     0.148 A 
ATOM     15  N   UNL A   1      48.320  28.810  28.585  1.00  0.00    -0.159 NA
ATOM     16  N   UNL A   1      49.021  28.447  26.453  1.00  0.00    -0.207 NA
ATOM     17  N   UNL A   1      47.290  28.663  27.737  1.00  0.00    -0.255 N 
ATOM     18  H   UNL A   1      46.346  28.680  28.017  1.00  0.00     0.192 HD
ENDBRANCH   9  12
ENDBRANCH   7   8
BRANCH   7  19
ATOM     19  C   UNL A   1      44.877  25.465  26.206  1.00  0.00     0.015 C 
ATOM     20  C   UNL A   1      44.753  26.119  27.588  1.00  0.00     0.010 C 
ATOM     21  C   UNL A   1      43.712  25.942  25.328  1.00  0.00     0.010 C 
ENDBRANCH   7  19
ENDBRANCH   4   7
ENDBRANCH   2   3
ENDBRANCH   1   2
BRANCH   1  22
ATOM     22  C   UNL A   1      43.651  21.215  25.482  1.00  0.00     0.023 C 
BRANCH  22  23
ATOM     23  C   UNL A   1      42.748  22.439  25.590  1.00  0.00     0.116 C 
BRANCH  23  24
ATOM     24  N   UNL A   1      41.328  22.109  25.740  1.00  0.00    -0.352 N 
ATOM     25  C   UNL A   1      40.390  22.741  26.546  1.00  0.00     0.251 C 
ATOM     26  H   UNL A   1      41.000  21.350  25.206  1.00  0.00     0.163 HD
ATOM     27  O   UNL A   1      39.360  22.190  26.886  1.00  0.00    -0.269 OA
BRANCH  25  28
ATOM     28  C   UNL A   1      40.663  24.130  26.953  1.00  0.00     0.039 A 
ATOM     29  C   UNL A   1      40.128  25.234  26.282  1.00  0.00     0.014 A 
ATOM     30  C   UNL A   1      41.449  24.290  28.087  1.00  0.00     0.014 A 
ATOM     31  C   UNL A   1      40.331  26.506  26.816  1.00  0.00     0.010 A 
ATOM     32  C   UNL A   1      41.480  25.502  28.710  1.00  0.00     0.010 A 
ATOM     33  C   UNL A   1      41.000  26.625  28.040  1.00  0.00    -0.014 A 
BRANCH  33  34
ATOM     34  C   UNL A   1      41.150  27.897  28.738  1.00  0.00     0.031 A 
ATOM     35  C   UNL A   1      42.267  28.754  28.245  1.00  0.00     0.074 A 
ATOM     36  C   UNL A   1      40.138  28.353  29.514  1.00  0.00     0.049 A 
ATOM     37  N   UNL A   1      43.239  29.271  28.924  1.00  0.00    -0.248 NA
ATOM     38  C   UNL A   1      42.381  28.978  26.792  1.00  0.00     0.031 C 
ATOM     39  C   UNL A   1      38.852  27.696  29.800  1.00  0.00     0.029 A 
ATOM     40  N   UNL A   1      39.974  29.569  30.099  1.00  0.00    -0.354 N 
ATOM     41  C   UNL A   1      43.972  30.043  28.022  1.00  0.00     0.074 A 
ATOM     42  C   UNL A   1      43.513  29.680  26.708  1.00  0.00     0.031 C 
ATOM     43  C   UNL A   1      37.970  28.599  30.277  1.00  0.00     0.029 A 
ATOM     44  C   UNL A   1      38.667  29.849  30.494  1.00  0.00     0.049 A 
ATOM     45  H   UNL A   1      40.717  30.200  30.233  1.00  0.00     0.167 HD
ATOM     46  C   UNL A   1      44.707  31.110  28.442  1.00  0.00     0.037 A 
ATOM     47  C   UNL A   1      38.192  31.042  30.930  1.00  0.00     0.037 A 
ATOM     48  C   UNL A   1      44.962  31.035  29.858  1.00  0.00     0.049 A 
ATOM     49  C   UNL A   1      39.369  31.847  31.342  1.00  0.00     0.074 A 
ATOM     50  C   UNL A   1      45.622  30.144  30.682  1.00  0.00     0.029 A 
ATOM     51  N   UNL A   1      44.171  31.789  30.690  1.00  0.00    -0.354 N 
ATOM     52  N   UNL A   1      40.141  31.531  32.346  1.00  0.00    -0.248 NA
ATOM     53  C   UNL A   1      39.965  32.714  30.339  1.00  0.00     0.031 C 
ATOM     54  C   UNL A   1      44.829  30.080  31.866  1.00  0.00     0.029 A 
ATOM     55  C   UNL A   1      43.777  30.988  31.729  1.00  0.00     0.049 A 
ATOM     56  H   UNL A   1      43.931  32.736  30.562  1.00  0.00     0.167 HD
ATOM     57  C   UNL A   1      41.428  31.798  31.899  1.00  0.00     0.074 A 
ATOM     58  C   UNL A   1      41.251  32.589  30.682  1.00  0.00     0.031 C 
ATOM     59  C   UNL A   1      42.497  31.105  32.388  1.00  0.00     0.037 A 
BRANCH  46  60
ATOM     60  C   UNL A   1      44.858  32.402  27.670  1.00  0.00     0.064 A 
ATOM     61  C   UNL A   1      46.046  32.633  26.946  1.00  0.00     0.173 A 
ATOM     62  C   UNL A   1      44.038  33.536  27.863  1.00  0.00     0.173 A 
ATOM     63  F   UNL A   1      46.910  31.634  26.716  1.00  0.00    -0.203 F 
ATOM     64  C   UNL A   1      46.421  33.913  26.528  1.00  0.00     0.198 A 
ATOM     65  C   UNL A   1      44.389  34.802  27.395  1.00  0.00     0.198 A 
ATOM     66  F   UNL A   1      42.925  33.499  28.602  1.00  0.00    -0.203 F 
ATOM     67  F   UNL A   1      47.621  34.104  25.963  1.00  0.00    -0.200 F 
ATOM     68  C   UNL A   1      45.596  34.998  26.761  1.00  0.00     0.200 A 
ATOM     69  F   UNL A   1      43.583  35.843  27.648  1.00  0.00    -0.200 F 
ATOM     70  F   UNL A   1      45.982  36.235  26.422  1.00  0.00    -0.200 F 
ENDBRANCH  46  60
BRANCH  47  71
ATOM     71  C   UNL A   1      36.854  31.639  30.689  1.00  0.00     0.064 A 
ATOM     72  C   UNL A   1      35.981  31.926  31.753  1.00  0.00     0.173 A 
ATOM     73  C   UNL A   1      36.514  32.193  29.440  1.00  0.00     0.173 A 
ATOM     74  F   UNL A   1      36.256  31.478  32.987  1.00  0.00    -0.203 F 
ATOM     75  C   UNL A   1      34.849  32.731  31.580  1.00  0.00     0.198 A 
ATOM     76  C   UNL A   1      35.381  32.992  29.266  1.00  0.00     0.198 A 
ATOM     77  F   UNL A   1      37.322  32.047  28.379  1.00  0.00    -0.203 F 
ATOM     78  F   UNL A   1      34.071  33.028  32.630  1.00  0.00    -0.200 F 
ATOM     79  C   UNL A   1      34.556  33.271  30.337  1.00  0.00     0.200 A 
ATOM     80  F   UNL A   1      35.131  33.537  28.066  1.00  0.00    -0.200 F 
ATOM     81  F   UNL A   1      33.506  34.089  30.183  1.00  0.00    -0.200 F 
ENDBRANCH  47  71
BRANCH  59  82
ATOM     82  C   UNL A   1      42.268  30.207  33.576  1.00  0.00     0.064 A 
ATOM     83  C   UNL A   1      41.942  28.842  33.479  1.00  0.00     0.173 A 
ATOM     84  C   UNL A   1      42.551  30.706  34.852  1.00  0.00     0.173 A 
ATOM     85  F   UNL A   1      41.754  28.262  32.291  1.00  0.00    -0.203 F 
ATOM     86  C   UNL A   1      41.871  28.028  34.609  1.00  0.00     0.198 A 
ATOM     87  C   UNL A   1      42.514  29.884  35.976  1.00  0.00     0.198 A 
ATOM     88  F   UNL A   1      42.925  31.986  35.003  1.00  0.00    -0.203 F 
ATOM     89  F   UNL A   1      41.555  26.729  34.483  1.00  0.00    -0.200 F 
ATOM     90  C   UNL A   1      42.166  28.548  35.856  1.00  0.00     0.200 A 
ATOM     91  F   UNL A   1      42.850  30.380  37.174  1.00  0.00    -0.200 F 
ATOM     92  F   UNL A   1      42.145  27.756  36.937  1.00  0.00    -0.200 F 
ENDBRANCH  59  82
ENDBRANCH  33  34
ENDBRANCH  25  28
ENDBRANCH  23  24
ENDBRANCH  22  23
ENDBRANCH   1  22
TORSDOF 14
ENDMDL
