MODEL 1
REMARK VINA RESULT:     -13.2      0.000      0.000
REMARK SMILES O=C(CCn1c(N2CC[NH2+]CC2)nc2ccccc2c1=O)NCCCCNC(=O)c1ccc(-c2c3nc(c(-c4c(F)c(F)c(F)c(F)c4F)c4ccc([nH]4)c(-c4c(F)c(F)c(F)c(F)c4F)c4nc(c(-c5c(F)c(F)c(F)c(F)c5F)c5ccc2[nH]5)C=C4)C=C3)cc1
REMARK SMILES IDX 24 1 23 2 22 3 1 4 2 5 3 7 4 8 5 9 6 10 20 11 13 12 19 13
REMARK SMILES IDX 21 14 14 15 18 16 15 17 17 18 16 19 7 20 8 21 12 22 9 23
REMARK SMILES IDX 11 24 10 25 25 28 26 29 27 30 28 31 29 33 30 34 31 35 92 36
REMARK SMILES IDX 32 37 91 38 33 39 34 40 35 41 85 42 36 43 90 44 84 45 86 46
REMARK SMILES IDX 37 47 89 48 83 49 82 50 38 52 70 53 50 54 69 55 51 56 54 57
REMARK SMILES IDX 68 58 87 59 52 60 53 61 67 63 88 64 55 65 39 66 40 67 48 68
REMARK SMILES IDX 41 69 42 70 46 71 49 72 43 73 44 74 47 75 45 76 71 77 72 78
REMARK SMILES IDX 80 79 73 80 74 81 78 82 81 83 75 84 76 85 79 86 77 87 56 88
REMARK SMILES IDX 57 89 65 90 58 91 59 92 63 93 66 94 60 95 61 96 64 97 62 98
REMARK H PARENT 22 6 10 26 10 27 27 32 86 51 54 62
REMARK Flexibility Score: inf
ROOT
ATOM      1  C   UNL A   1      33.762  28.259  24.889  1.00  0.00     0.023 C 
ENDROOT
BRANCH   1   2
ATOM      2  C   UNL A   1      33.292  26.953  24.247  1.00  0.00     0.116 C 
BRANCH   2   3
ATOM      3  N   UNL A   1      34.013  25.794  24.737  1.00  0.00    -0.356 N 
ATOM      4  O   UNL A   1      34.149  24.722  22.701  1.00  0.00    -0.275 OA
ATOM      5  C   UNL A   1      34.442  24.793  23.890  1.00  0.00     0.221 C 
ATOM      6  H   UNL A   1      34.202  25.719  25.700  1.00  0.00     0.163 HD
BRANCH   5   7
ATOM      7  C   UNL A   1      35.335  23.768  24.552  1.00  0.00     0.122 C 
BRANCH   7   8
ATOM      8  C   UNL A   1      34.577  22.974  25.614  1.00  0.00     0.139 C 
BRANCH   8   9
ATOM      9  N   UNL A   1      34.002  21.724  25.092  1.00  0.00    -0.278 N 
ATOM     10  C   UNL A   1      32.646  21.597  24.787  1.00  0.00     0.209 A 
ATOM     11  C   UNL A   1      34.877  20.642  24.985  1.00  0.00     0.262 A 
ATOM     12  N   UNL A   1      32.108  20.440  24.521  1.00  0.00    -0.214 NA
ATOM     13  C   UNL A   1      34.284  19.346  24.644  1.00  0.00     0.066 A 
ATOM     14  O   UNL A   1      36.088  20.703  25.177  1.00  0.00    -0.269 OA
ATOM     15  C   UNL A   1      32.912  19.303  24.442  1.00  0.00     0.080 A 
ATOM     16  C   UNL A   1      35.075  18.197  24.529  1.00  0.00     0.016 A 
ATOM     17  C   UNL A   1      32.327  18.083  24.096  1.00  0.00     0.029 A 
ATOM     18  C   UNL A   1      34.485  16.989  24.168  1.00  0.00     0.001 A 
ATOM     19  C   UNL A   1      33.111  16.937  23.938  1.00  0.00     0.002 A 
BRANCH  10  20
ATOM     20  N   UNL A   1      31.841  22.719  24.764  1.00  0.00    -0.331 N 
ATOM     21  C   UNL A   1      31.056  23.071  25.965  1.00  0.00     0.181 C 
ATOM     22  C   UNL A   1      31.095  23.029  23.526  1.00  0.00     0.181 C 
ATOM     23  C   UNL A   1      30.622  24.554  25.910  1.00  0.00     0.282 C 
ATOM     24  C   UNL A   1      30.720  24.523  23.502  1.00  0.00     0.282 C 
ATOM     25  N   UNL A   1      29.913  24.934  24.669  1.00  0.00    -0.343 N 
ATOM     26  H   UNL A   1      29.777  25.945  24.650  1.00  0.00     0.346 HD
ATOM     27  H   UNL A   1      29.006  24.470  24.637  1.00  0.00     0.346 HD
ENDBRANCH  10  20
ENDBRANCH   8   9
ENDBRANCH   7   8
ENDBRANCH   5   7
ENDBRANCH   2   3
ENDBRANCH   1   2
BRANCH   1  28
ATOM     28  C   UNL A   1      32.690  29.342  25.031  1.00  0.00     0.023 C 
BRANCH  28  29
ATOM     29  C   UNL A   1      32.318  29.711  26.464  1.00  0.00     0.116 C 
BRANCH  29  30
ATOM     30  N   UNL A   1      32.244  31.147  26.692  1.00  0.00    -0.352 N 
ATOM     31  C   UNL A   1      33.129  32.002  27.323  1.00  0.00     0.251 C 
ATOM     32  H   UNL A   1      31.432  31.579  26.339  1.00  0.00     0.163 HD
ATOM     33  O   UNL A   1      32.823  33.170  27.509  1.00  0.00    -0.269 OA
BRANCH  31  34
ATOM     34  C   UNL A   1      34.439  31.502  27.814  1.00  0.00     0.039 A 
ATOM     35  C   UNL A   1      34.625  30.156  28.108  1.00  0.00     0.014 A 
ATOM     36  C   UNL A   1      35.496  32.400  28.000  1.00  0.00     0.014 A 
ATOM     37  C   UNL A   1      35.771  29.744  28.782  1.00  0.00     0.010 A 
ATOM     38  C   UNL A   1      36.691  31.963  28.591  1.00  0.00     0.010 A 
ATOM     39  C   UNL A   1      36.813  30.642  29.049  1.00  0.00    -0.014 A 
BRANCH  39  40
ATOM     40  C   UNL A   1      37.961  30.189  29.884  1.00  0.00     0.031 A 
ATOM     41  C   UNL A   1      39.027  29.308  29.281  1.00  0.00     0.074 A 
ATOM     42  C   UNL A   1      38.122  30.658  31.138  1.00  0.00     0.049 A 
ATOM     43  N   UNL A   1      40.095  28.795  29.842  1.00  0.00    -0.248 NA
ATOM     44  C   UNL A   1      38.882  28.966  27.857  1.00  0.00     0.031 C 
ATOM     45  C   UNL A   1      37.210  31.579  31.819  1.00  0.00     0.029 A 
ATOM     46  N   UNL A   1      39.128  30.454  32.053  1.00  0.00    -0.354 N 
ATOM     47  C   UNL A   1      40.728  28.056  28.851  1.00  0.00     0.074 A 
ATOM     48  C   UNL A   1      39.921  28.167  27.657  1.00  0.00     0.031 C 
ATOM     49  C   UNL A   1      37.722  31.901  33.017  1.00  0.00     0.029 A 
ATOM     50  C   UNL A   1      38.959  31.151  33.225  1.00  0.00     0.049 A 
ATOM     51  H   UNL A   1      39.897  29.864  31.884  1.00  0.00     0.167 HD
ATOM     52  C   UNL A   1      41.887  27.360  28.925  1.00  0.00     0.037 A 
ATOM     53  C   UNL A   1      39.699  31.166  34.351  1.00  0.00     0.037 A 
ATOM     54  C   UNL A   1      42.715  27.274  30.100  1.00  0.00     0.049 A 
ATOM     55  C   UNL A   1      40.932  30.307  34.434  1.00  0.00     0.074 A 
ATOM     56  C   UNL A   1      43.894  26.571  30.271  1.00  0.00     0.029 A 
ATOM     57  N   UNL A   1      42.458  27.925  31.295  1.00  0.00    -0.354 N 
ATOM     58  N   UNL A   1      41.493  29.574  33.505  1.00  0.00    -0.248 NA
ATOM     59  C   UNL A   1      41.625  30.263  35.730  1.00  0.00     0.031 C 
ATOM     60  C   UNL A   1      44.334  26.766  31.583  1.00  0.00     0.029 A 
ATOM     61  C   UNL A   1      43.451  27.627  32.214  1.00  0.00     0.049 A 
ATOM     62  H   UNL A   1      41.685  28.510  31.467  1.00  0.00     0.167 HD
ATOM     63  C   UNL A   1      42.609  28.996  34.097  1.00  0.00     0.074 A 
ATOM     64  C   UNL A   1      42.661  29.482  35.459  1.00  0.00     0.031 C 
ATOM     65  C   UNL A   1      43.503  28.132  33.561  1.00  0.00     0.037 A 
BRANCH  52  66
ATOM     66  C   UNL A   1      42.341  26.617  27.704  1.00  0.00     0.064 A 
ATOM     67  C   UNL A   1      43.252  27.180  26.800  1.00  0.00     0.173 A 
ATOM     68  C   UNL A   1      41.929  25.294  27.486  1.00  0.00     0.173 A 
ATOM     69  F   UNL A   1      43.665  28.447  26.957  1.00  0.00    -0.203 F 
ATOM     70  C   UNL A   1      43.732  26.446  25.718  1.00  0.00     0.198 A 
ATOM     71  C   UNL A   1      42.430  24.554  26.419  1.00  0.00     0.198 A 
ATOM     72  F   UNL A   1      41.064  24.708  28.327  1.00  0.00    -0.203 F 
ATOM     73  F   UNL A   1      44.585  27.011  24.853  1.00  0.00    -0.200 F 
ATOM     74  C   UNL A   1      43.329  25.131  25.535  1.00  0.00     0.200 A 
ATOM     75  F   UNL A   1      42.051  23.279  26.251  1.00  0.00    -0.200 F 
ATOM     76  F   UNL A   1      43.810  24.419  24.506  1.00  0.00    -0.200 F 
ENDBRANCH  52  66
BRANCH  53  77
ATOM     77  C   UNL A   1      39.282  31.999  35.512  1.00  0.00     0.064 A 
ATOM     78  C   UNL A   1      38.458  31.476  36.519  1.00  0.00     0.173 A 
ATOM     79  C   UNL A   1      39.673  33.342  35.625  1.00  0.00     0.173 A 
ATOM     80  F   UNL A   1      38.033  30.206  36.443  1.00  0.00    -0.203 F 
ATOM     81  C   UNL A   1      38.028  32.267  37.582  1.00  0.00     0.198 A 
ATOM     82  C   UNL A   1      39.270  34.123  36.705  1.00  0.00     0.198 A 
ATOM     83  F   UNL A   1      40.455  33.895  34.686  1.00  0.00    -0.203 F 
ATOM     84  F   UNL A   1      37.200  31.757  38.502  1.00  0.00    -0.200 F 
ATOM     85  C   UNL A   1      38.441  33.588  37.678  1.00  0.00     0.200 A 
ATOM     86  F   UNL A   1      39.682  35.395  36.800  1.00  0.00    -0.200 F 
ATOM     87  F   UNL A   1      38.029  34.348  38.703  1.00  0.00    -0.200 F 
ENDBRANCH  53  77
BRANCH  65  88
ATOM     88  C   UNL A   1      44.634  27.669  34.430  1.00  0.00     0.064 A 
ATOM     89  C   UNL A   1      45.800  28.434  34.583  1.00  0.00     0.173 A 
ATOM     90  C   UNL A   1      44.520  26.488  35.179  1.00  0.00     0.173 A 
ATOM     91  F   UNL A   1      45.963  29.564  33.879  1.00  0.00    -0.203 F 
ATOM     92  C   UNL A   1      46.814  28.026  35.445  1.00  0.00     0.198 A 
ATOM     93  C   UNL A   1      45.523  26.098  36.061  1.00  0.00     0.198 A 
ATOM     94  F   UNL A   1      43.421  25.726  35.075  1.00  0.00    -0.203 F 
ATOM     95  F   UNL A   1      47.933  28.757  35.552  1.00  0.00    -0.200 F 
ATOM     96  C   UNL A   1      46.671  26.866  36.190  1.00  0.00     0.200 A 
ATOM     97  F   UNL A   1      45.376  24.984  36.792  1.00  0.00    -0.200 F 
ATOM     98  F   UNL A   1      47.641  26.484  37.034  1.00  0.00    -0.200 F 
ENDBRANCH  65  88
ENDBRANCH  39  40
ENDBRANCH  31  34
ENDBRANCH  29  30
ENDBRANCH  28  29
ENDBRANCH   1  28
TORSDOF 14
ENDMDL
MODEL 2
REMARK VINA RESULT:     -13.1      0.382      1.620
REMARK SMILES O=C(CCn1c(N2CC[NH2+]CC2)nc2ccccc2c1=O)NCCCCNC(=O)c1ccc(-c2c3nc(c(-c4c(F)c(F)c(F)c(F)c4F)c4ccc([nH]4)c(-c4c(F)c(F)c(F)c(F)c4F)c4nc(c(-c5c(F)c(F)c(F)c(F)c5F)c5ccc2[nH]5)C=C4)C=C3)cc1
REMARK SMILES IDX 24 1 23 2 22 3 1 4 2 5 3 7 4 8 5 9 6 10 20 11 13 12 19 13
REMARK SMILES IDX 21 14 14 15 18 16 15 17 17 18 16 19 7 20 8 21 12 22 9 23
REMARK SMILES IDX 11 24 10 25 25 28 26 29 27 30 28 31 29 33 30 34 31 35 92 36
REMARK SMILES IDX 32 37 91 38 33 39 34 40 35 41 85 42 36 43 90 44 84 45 86 46
REMARK SMILES IDX 37 47 89 48 83 49 82 50 38 52 70 53 50 54 69 55 51 56 54 57
REMARK SMILES IDX 68 58 87 59 52 60 53 61 67 63 88 64 55 65 39 66 40 67 48 68
REMARK SMILES IDX 41 69 42 70 46 71 49 72 43 73 44 74 47 75 45 76 71 77 72 78
REMARK SMILES IDX 80 79 73 80 74 81 78 82 81 83 75 84 76 85 79 86 77 87 56 88
REMARK SMILES IDX 57 89 65 90 58 91 59 92 63 93 66 94 60 95 61 96 64 97 62 98
REMARK H PARENT 22 6 10 26 10 27 27 32 86 51 54 62
REMARK Flexibility Score: inf
ROOT
ATOM      1  C   UNL A   1      32.271  27.344  26.344  1.00  0.00     0.023 C 
ENDROOT
BRANCH   1   2
ATOM      2  C   UNL A   1      33.556  27.183  25.531  1.00  0.00     0.116 C 
BRANCH   2   3
ATOM      3  N   UNL A   1      34.175  25.884  25.707  1.00  0.00    -0.356 N 
ATOM      4  O   UNL A   1      34.018  25.245  23.498  1.00  0.00    -0.275 OA
ATOM      5  C   UNL A   1      34.413  25.042  24.640  1.00  0.00     0.221 C 
ATOM      6  H   UNL A   1      34.433  25.595  26.611  1.00  0.00     0.163 HD
BRANCH   5   7
ATOM      7  C   UNL A   1      35.233  23.821  24.992  1.00  0.00     0.122 C 
BRANCH   7   8
ATOM      8  C   UNL A   1      34.480  22.906  25.957  1.00  0.00     0.139 C 
BRANCH   8   9
ATOM      9  N   UNL A   1      33.932  21.708  25.300  1.00  0.00    -0.278 N 
ATOM     10  C   UNL A   1      32.587  21.601  24.946  1.00  0.00     0.209 A 
ATOM     11  C   UNL A   1      34.822  20.649  25.115  1.00  0.00     0.262 A 
ATOM     12  N   UNL A   1      32.069  20.471  24.554  1.00  0.00    -0.214 NA
ATOM     13  C   UNL A   1      34.251  19.387  24.632  1.00  0.00     0.066 A 
ATOM     14  O   UNL A   1      36.026  20.700  25.346  1.00  0.00    -0.269 OA
ATOM     15  C   UNL A   1      32.886  19.353  24.388  1.00  0.00     0.080 A 
ATOM     16  C   UNL A   1      35.058  18.261  24.430  1.00  0.00     0.016 A 
ATOM     17  C   UNL A   1      32.323  18.168  23.910  1.00  0.00     0.029 A 
ATOM     18  C   UNL A   1      34.490  17.090  23.937  1.00  0.00     0.001 A 
ATOM     19  C   UNL A   1      33.124  17.049  23.664  1.00  0.00     0.002 A 
BRANCH  10  20
ATOM     20  N   UNL A   1      31.771  22.714  25.008  1.00  0.00    -0.331 N 
ATOM     21  C   UNL A   1      30.886  22.896  26.177  1.00  0.00     0.181 C 
ATOM     22  C   UNL A   1      31.124  23.188  23.767  1.00  0.00     0.181 C 
ATOM     23  C   UNL A   1      30.437  24.372  26.288  1.00  0.00     0.282 C 
ATOM     24  C   UNL A   1      30.732  24.670  23.914  1.00  0.00     0.282 C 
ATOM     25  N   UNL A   1      29.827  24.916  25.055  1.00  0.00    -0.343 N 
ATOM     26  H   UNL A   1      29.679  25.919  25.163  1.00  0.00     0.346 HD
ATOM     27  H   UNL A   1      28.932  24.458  24.886  1.00  0.00     0.346 HD
ENDBRANCH  10  20
ENDBRANCH   8   9
ENDBRANCH   7   8
ENDBRANCH   5   7
ENDBRANCH   2   3
ENDBRANCH   1   2
BRANCH   1  28
ATOM     28  C   UNL A   1      31.814  28.787  26.570  1.00  0.00     0.023 C 
BRANCH  28  29
ATOM     29  C   UNL A   1      32.633  29.853  25.849  1.00  0.00     0.116 C 
BRANCH  29  30
ATOM     30  N   UNL A   1      32.401  31.200  26.350  1.00  0.00    -0.352 N 
ATOM     31  C   UNL A   1      33.144  31.973  27.224  1.00  0.00     0.251 C 
ATOM     32  H   UNL A   1      31.582  31.630  26.013  1.00  0.00     0.163 HD
ATOM     33  O   UNL A   1      32.711  33.048  27.608  1.00  0.00    -0.269 OA
BRANCH  31  34
ATOM     34  C   UNL A   1      34.452  31.487  27.732  1.00  0.00     0.039 A 
ATOM     35  C   UNL A   1      34.656  30.140  28.012  1.00  0.00     0.014 A 
ATOM     36  C   UNL A   1      35.491  32.399  27.950  1.00  0.00     0.014 A 
ATOM     37  C   UNL A   1      35.796  29.738  28.701  1.00  0.00     0.010 A 
ATOM     38  C   UNL A   1      36.683  31.974  28.557  1.00  0.00     0.010 A 
ATOM     39  C   UNL A   1      36.818  30.649  29.000  1.00  0.00    -0.014 A 
BRANCH  39  40
ATOM     40  C   UNL A   1      37.958  30.203  29.849  1.00  0.00     0.031 A 
ATOM     41  C   UNL A   1      39.041  29.336  29.258  1.00  0.00     0.074 A 
ATOM     42  C   UNL A   1      38.095  30.667  31.108  1.00  0.00     0.049 A 
ATOM     43  N   UNL A   1      40.106  28.830  29.833  1.00  0.00    -0.248 NA
ATOM     44  C   UNL A   1      38.921  28.999  27.830  1.00  0.00     0.031 C 
ATOM     45  C   UNL A   1      37.164  31.576  31.779  1.00  0.00     0.029 A 
ATOM     46  N   UNL A   1      39.089  30.469  32.037  1.00  0.00    -0.354 N 
ATOM     47  C   UNL A   1      40.761  28.103  28.848  1.00  0.00     0.074 A 
ATOM     48  C   UNL A   1      39.971  28.211  27.642  1.00  0.00     0.031 C 
ATOM     49  C   UNL A   1      37.655  31.896  32.986  1.00  0.00     0.029 A 
ATOM     50  C   UNL A   1      38.895  31.158  33.210  1.00  0.00     0.049 A 
ATOM     51  H   UNL A   1      39.866  29.886  31.877  1.00  0.00     0.167 HD
ATOM     52  C   UNL A   1      41.926  27.417  28.936  1.00  0.00     0.037 A 
ATOM     53  C   UNL A   1      39.618  31.175  34.347  1.00  0.00     0.037 A 
ATOM     54  C   UNL A   1      42.736  27.334  30.122  1.00  0.00     0.049 A 
ATOM     55  C   UNL A   1      40.859  30.327  34.444  1.00  0.00     0.074 A 
ATOM     56  C   UNL A   1      43.920  26.641  30.308  1.00  0.00     0.029 A 
ATOM     57  N   UNL A   1      42.456  27.976  31.317  1.00  0.00    -0.354 N 
ATOM     58  N   UNL A   1      41.441  29.604  33.520  1.00  0.00    -0.248 NA
ATOM     59  C   UNL A   1      41.533  30.284  35.750  1.00  0.00     0.031 C 
ATOM     60  C   UNL A   1      44.338  26.834  31.627  1.00  0.00     0.029 A 
ATOM     61  C   UNL A   1      43.438  27.683  32.249  1.00  0.00     0.049 A 
ATOM     62  H   UNL A   1      41.674  28.553  31.480  1.00  0.00     0.167 HD
ATOM     63  C   UNL A   1      42.553  29.035  34.126  1.00  0.00     0.074 A 
ATOM     64  C   UNL A   1      42.581  29.515  35.491  1.00  0.00     0.031 C 
ATOM     65  C   UNL A   1      43.465  28.182  33.599  1.00  0.00     0.037 A 
BRANCH  52  66
ATOM     66  C   UNL A   1      42.405  26.686  27.718  1.00  0.00     0.064 A 
ATOM     67  C   UNL A   1      43.308  27.270  26.819  1.00  0.00     0.173 A 
ATOM     68  C   UNL A   1      42.027  25.352  27.499  1.00  0.00     0.173 A 
ATOM     69  F   UNL A   1      43.688  28.547  26.978  1.00  0.00    -0.203 F 
ATOM     70  C   UNL A   1      43.812  26.547  25.741  1.00  0.00     0.198 A 
ATOM     71  C   UNL A   1      42.553  24.624  26.435  1.00  0.00     0.198 A 
ATOM     72  F   UNL A   1      41.171  24.746  28.335  1.00  0.00    -0.203 F 
ATOM     73  F   UNL A   1      44.656  27.132  24.881  1.00  0.00    -0.200 F 
ATOM     74  C   UNL A   1      43.443  25.222  25.556  1.00  0.00     0.200 A 
ATOM     75  F   UNL A   1      42.206  23.340  26.266  1.00  0.00    -0.200 F 
ATOM     76  F   UNL A   1      43.947  24.522  24.531  1.00  0.00    -0.200 F 
ENDBRANCH  52  66
BRANCH  53  77
ATOM     77  C   UNL A   1      39.176  31.998  35.505  1.00  0.00     0.064 A 
ATOM     78  C   UNL A   1      39.588  33.331  35.644  1.00  0.00     0.173 A 
ATOM     79  C   UNL A   1      38.360  31.462  36.513  1.00  0.00     0.173 A 
ATOM     80  F   UNL A   1      40.393  33.882  34.723  1.00  0.00    -0.203 F 
ATOM     81  C   UNL A   1      39.214  34.089  36.751  1.00  0.00     0.198 A 
ATOM     82  C   UNL A   1      37.959  32.230  37.603  1.00  0.00     0.198 A 
ATOM     83  F   UNL A   1      37.943  30.189  36.434  1.00  0.00    -0.203 F 
ATOM     84  F   UNL A   1      39.663  35.344  36.884  1.00  0.00    -0.200 F 
ATOM     85  C   UNL A   1      38.394  33.541  37.726  1.00  0.00     0.200 A 
ATOM     86  F   UNL A   1      37.157  31.699  38.535  1.00  0.00    -0.200 F 
ATOM     87  F   UNL A   1      38.032  34.272  38.790  1.00  0.00    -0.200 F 
ENDBRANCH  53  77
BRANCH  65  88
ATOM     88  C   UNL A   1      44.587  27.726  34.483  1.00  0.00     0.064 A 
ATOM     89  C   UNL A   1      44.501  26.535  35.219  1.00  0.00     0.173 A 
ATOM     90  C   UNL A   1      45.790  28.446  34.534  1.00  0.00     0.173 A 
ATOM     91  F   UNL A   1      43.367  25.818  35.213  1.00  0.00    -0.203 F 
ATOM     92  C   UNL A   1      45.576  26.088  35.983  1.00  0.00     0.198 A 
ATOM     93  C   UNL A   1      46.872  27.982  35.277  1.00  0.00     0.198 A 
ATOM     94  F   UNL A   1      45.925  29.586  33.841  1.00  0.00    -0.203 F 
ATOM     95  F   UNL A   1      45.461  24.964  36.704  1.00  0.00    -0.200 F 
ATOM     96  C   UNL A   1      46.762  26.806  36.003  1.00  0.00     0.200 A 
ATOM     97  F   UNL A   1      48.024  28.668  35.283  1.00  0.00    -0.200 F 
ATOM     98  F   UNL A   1      47.802  26.365  36.725  1.00  0.00    -0.200 F 
ENDBRANCH  65  88
ENDBRANCH  39  40
ENDBRANCH  31  34
ENDBRANCH  29  30
ENDBRANCH  28  29
ENDBRANCH   1  28
TORSDOF 14
ENDMDL
MODEL 3
REMARK VINA RESULT:     -13.1      0.404      7.355
REMARK SMILES O=C(CCn1c(N2CC[NH2+]CC2)nc2ccccc2c1=O)NCCCCNC(=O)c1ccc(-c2c3nc(c(-c4c(F)c(F)c(F)c(F)c4F)c4ccc([nH]4)c(-c4c(F)c(F)c(F)c(F)c4F)c4nc(c(-c5c(F)c(F)c(F)c(F)c5F)c5ccc2[nH]5)C=C4)C=C3)cc1
REMARK SMILES IDX 24 1 23 2 22 3 1 4 2 5 3 7 4 8 5 9 6 10 20 11 13 12 19 13
REMARK SMILES IDX 21 14 14 15 18 16 15 17 17 18 16 19 7 20 8 21 12 22 9 23
REMARK SMILES IDX 11 24 10 25 25 28 26 29 27 30 28 31 29 33 30 34 31 35 92 36
REMARK SMILES IDX 32 37 91 38 33 39 34 40 35 41 85 42 36 43 90 44 84 45 86 46
REMARK SMILES IDX 37 47 89 48 83 49 82 50 38 52 70 53 50 54 69 55 51 56 54 57
REMARK SMILES IDX 68 58 87 59 52 60 53 61 67 63 88 64 55 65 39 66 40 67 48 68
REMARK SMILES IDX 41 69 42 70 46 71 49 72 43 73 44 74 47 75 45 76 71 77 72 78
REMARK SMILES IDX 80 79 73 80 74 81 78 82 81 83 75 84 76 85 79 86 77 87 56 88
REMARK SMILES IDX 57 89 65 90 58 91 59 92 63 93 66 94 60 95 61 96 64 97 62 98
REMARK H PARENT 22 6 10 26 10 27 27 32 86 51 54 62
REMARK Flexibility Score: inf
ROOT
ATOM      1  C   UNL A   1      33.756  28.316  24.932  1.00  0.00     0.023 C 
ENDROOT
BRANCH   1   2
ATOM      2  C   UNL A   1      33.311  27.012  24.270  1.00  0.00     0.116 C 
BRANCH   2   3
ATOM      3  N   UNL A   1      34.034  25.855  24.762  1.00  0.00    -0.356 N 
ATOM      4  O   UNL A   1      34.072  24.727  22.753  1.00  0.00    -0.275 OA
ATOM      5  C   UNL A   1      34.414  24.826  23.926  1.00  0.00     0.221 C 
ATOM      6  H   UNL A   1      34.261  25.803  25.718  1.00  0.00     0.163 HD
BRANCH   5   7
ATOM      7  C   UNL A   1      35.319  23.805  24.579  1.00  0.00     0.122 C 
BRANCH   7   8
ATOM      8  C   UNL A   1      34.572  23.000  25.641  1.00  0.00     0.139 C 
BRANCH   8   9
ATOM      9  N   UNL A   1      33.996  21.752  25.113  1.00  0.00    -0.278 N 
ATOM     10  C   UNL A   1      32.640  21.624  24.816  1.00  0.00     0.209 A 
ATOM     11  C   UNL A   1      34.875  20.673  24.995  1.00  0.00     0.262 A 
ATOM     12  N   UNL A   1      32.104  20.467  24.545  1.00  0.00    -0.214 NA
ATOM     13  C   UNL A   1      34.283  19.378  24.647  1.00  0.00     0.066 A 
ATOM     14  O   UNL A   1      36.086  20.736  25.180  1.00  0.00    -0.269 OA
ATOM     15  C   UNL A   1      32.910  19.332  24.453  1.00  0.00     0.080 A 
ATOM     16  C   UNL A   1      35.077  18.232  24.520  1.00  0.00     0.016 A 
ATOM     17  C   UNL A   1      32.326  18.113  24.102  1.00  0.00     0.029 A 
ATOM     18  C   UNL A   1      34.488  17.026  24.154  1.00  0.00     0.001 A 
ATOM     19  C   UNL A   1      33.113  16.970  23.932  1.00  0.00     0.002 A 
BRANCH  10  20
ATOM     20  N   UNL A   1      31.831  22.743  24.805  1.00  0.00    -0.331 N 
ATOM     21  C   UNL A   1      31.063  23.092  26.018  1.00  0.00     0.181 C 
ATOM     22  C   UNL A   1      31.066  23.052  23.579  1.00  0.00     0.181 C 
ATOM     23  C   UNL A   1      30.624  24.574  25.970  1.00  0.00     0.282 C 
ATOM     24  C   UNL A   1      30.687  24.545  23.561  1.00  0.00     0.282 C 
ATOM     25  N   UNL A   1      29.896  24.953  24.740  1.00  0.00    -0.343 N 
ATOM     26  H   UNL A   1      29.757  25.963  24.724  1.00  0.00     0.346 HD
ATOM     27  H   UNL A   1      28.990  24.487  24.721  1.00  0.00     0.346 HD
ENDBRANCH  10  20
ENDBRANCH   8   9
ENDBRANCH   7   8
ENDBRANCH   5   7
ENDBRANCH   2   3
ENDBRANCH   1   2
BRANCH   1  28
ATOM     28  C   UNL A   1      32.655  29.360  25.130  1.00  0.00     0.023 C 
BRANCH  28  29
ATOM     29  C   UNL A   1      32.341  29.714  26.581  1.00  0.00     0.116 C 
BRANCH  29  30
ATOM     30  N   UNL A   1      32.248  31.147  26.820  1.00  0.00    -0.352 N 
ATOM     31  C   UNL A   1      33.152  32.023  27.392  1.00  0.00     0.251 C 
ATOM     32  H   UNL A   1      31.402  31.560  26.527  1.00  0.00     0.163 HD
ATOM     33  O   UNL A   1      32.831  33.182  27.604  1.00  0.00    -0.269 OA
BRANCH  31  34
ATOM     34  C   UNL A   1      34.505  31.555  27.787  1.00  0.00     0.039 A 
ATOM     35  C   UNL A   1      34.751  30.209  28.041  1.00  0.00     0.014 A 
ATOM     36  C   UNL A   1      35.545  32.481  27.925  1.00  0.00     0.014 A 
ATOM     37  C   UNL A   1      35.949  29.820  28.631  1.00  0.00     0.010 A 
ATOM     38  C   UNL A   1      36.789  32.070  28.430  1.00  0.00     0.010 A 
ATOM     39  C   UNL A   1      36.979  30.745  28.851  1.00  0.00    -0.014 A 
BRANCH  39  40
ATOM     40  C   UNL A   1      38.191  30.312  29.601  1.00  0.00     0.031 A 
ATOM     41  C   UNL A   1      38.395  30.764  31.026  1.00  0.00     0.074 A 
ATOM     42  C   UNL A   1      39.049  29.423  29.060  1.00  0.00     0.049 A 
ATOM     43  N   UNL A   1      39.388  30.511  31.843  1.00  0.00    -0.248 NA
ATOM     44  C   UNL A   1      37.338  31.601  31.617  1.00  0.00     0.031 C 
ATOM     45  C   UNL A   1      38.931  28.843  27.721  1.00  0.00     0.029 A 
ATOM     46  N   UNL A   1      40.170  28.822  29.582  1.00  0.00    -0.354 N 
ATOM     47  C   UNL A   1      39.087  31.174  33.026  1.00  0.00     0.074 A 
ATOM     48  C   UNL A   1      37.829  31.858  32.821  1.00  0.00     0.031 C 
ATOM     49  C   UNL A   1      39.904  27.935  27.548  1.00  0.00     0.029 A 
ATOM     50  C   UNL A   1      40.763  27.922  28.729  1.00  0.00     0.049 A 
ATOM     51  H   UNL A   1      40.516  29.019  30.482  1.00  0.00     0.167 HD
ATOM     52  C   UNL A   1      39.787  31.199  34.184  1.00  0.00     0.037 A 
ATOM     53  C   UNL A   1      41.884  27.188  28.870  1.00  0.00     0.037 A 
ATOM     54  C   UNL A   1      41.021  30.492  34.407  1.00  0.00     0.049 A 
ATOM     55  C   UNL A   1      42.692  27.310  30.135  1.00  0.00     0.074 A 
ATOM     56  C   UNL A   1      41.812  30.479  35.543  1.00  0.00     0.029 A 
ATOM     57  N   UNL A   1      41.634  29.661  33.483  1.00  0.00    -0.354 N 
ATOM     58  N   UNL A   1      42.420  27.980  31.227  1.00  0.00    -0.248 NA
ATOM     59  C   UNL A   1      43.971  26.588  30.178  1.00  0.00     0.031 C 
ATOM     60  C   UNL A   1      42.923  29.670  35.294  1.00  0.00     0.029 A 
ATOM     61  C   UNL A   1      42.801  29.143  34.019  1.00  0.00     0.049 A 
ATOM     62  H   UNL A   1      41.291  29.469  32.580  1.00  0.00     0.167 HD
ATOM     63  C   UNL A   1      43.483  27.748  32.090  1.00  0.00     0.074 A 
ATOM     64  C   UNL A   1      44.394  26.856  31.405  1.00  0.00     0.031 C 
ATOM     65  C   UNL A   1      43.690  28.240  33.335  1.00  0.00     0.037 A 
BRANCH  52  66
ATOM     66  C   UNL A   1      39.250  32.025  35.314  1.00  0.00     0.064 A 
ATOM     67  C   UNL A   1      38.477  31.455  36.336  1.00  0.00     0.173 A 
ATOM     68  C   UNL A   1      39.589  33.382  35.423  1.00  0.00     0.173 A 
ATOM     69  F   UNL A   1      38.115  30.165  36.269  1.00  0.00    -0.203 F 
ATOM     70  C   UNL A   1      38.059  32.217  37.424  1.00  0.00     0.198 A 
ATOM     71  C   UNL A   1      39.191  34.134  36.525  1.00  0.00     0.198 A 
ATOM     72  F   UNL A   1      40.333  33.971  34.474  1.00  0.00    -0.203 F 
ATOM     73  F   UNL A   1      37.302  31.658  38.378  1.00  0.00    -0.200 F 
ATOM     74  C   UNL A   1      38.425  33.551  37.523  1.00  0.00     0.200 A 
ATOM     75  F   UNL A   1      39.558  35.419  36.626  1.00  0.00    -0.200 F 
ATOM     76  F   UNL A   1      38.041  34.276  38.583  1.00  0.00    -0.200 F 
ENDBRANCH  52  66
BRANCH  53  77
ATOM     77  C   UNL A   1      42.337  26.292  27.772  1.00  0.00     0.064 A 
ATOM     78  C   UNL A   1      43.310  26.709  26.852  1.00  0.00     0.173 A 
ATOM     79  C   UNL A   1      41.786  25.013  27.599  1.00  0.00     0.173 A 
ATOM     80  F   UNL A   1      43.848  27.934  26.956  1.00  0.00    -0.203 F 
ATOM     81  C   UNL A   1      43.702  25.889  25.796  1.00  0.00     0.198 A 
ATOM     82  C   UNL A   1      42.202  24.181  26.562  1.00  0.00     0.198 A 
ATOM     83  F   UNL A   1      40.846  24.567  28.446  1.00  0.00    -0.203 F 
ATOM     84  F   UNL A   1      44.596  26.333  24.903  1.00  0.00    -0.200 F 
ATOM     85  C   UNL A   1      43.153  24.624  25.656  1.00  0.00     0.200 A 
ATOM     86  F   UNL A   1      41.677  22.955  26.439  1.00  0.00    -0.200 F 
ATOM     87  F   UNL A   1      43.532  23.834  24.641  1.00  0.00    -0.200 F 
ENDBRANCH  53  77
BRANCH  65  88
ATOM     88  C   UNL A   1      44.932  27.812  34.058  1.00  0.00     0.064 A 
ATOM     89  C   UNL A   1      44.957  26.650  34.844  1.00  0.00     0.173 A 
ATOM     90  C   UNL A   1      46.129  28.526  33.902  1.00  0.00     0.173 A 
ATOM     91  F   UNL A   1      43.835  25.940  35.035  1.00  0.00    -0.203 F 
ATOM     92  C   UNL A   1      46.134  26.226  35.455  1.00  0.00     0.198 A 
ATOM     93  C   UNL A   1      47.310  28.085  34.491  1.00  0.00     0.198 A 
ATOM     94  F   UNL A   1      46.159  29.639  33.153  1.00  0.00    -0.203 F 
ATOM     95  F   UNL A   1      46.128  25.131  36.227  1.00  0.00    -0.200 F 
ATOM     96  C   UNL A   1      47.310  26.938  35.270  1.00  0.00     0.200 A 
ATOM     97  F   UNL A   1      48.450  28.764  34.299  1.00  0.00    -0.200 F 
ATOM     98  F   UNL A   1      48.446  26.518  35.845  1.00  0.00    -0.200 F 
ENDBRANCH  65  88
ENDBRANCH  39  40
ENDBRANCH  31  34
ENDBRANCH  29  30
ENDBRANCH  28  29
ENDBRANCH   1  28
TORSDOF 14
ENDMDL
