MODEL 1
REMARK VINA RESULT:     -11.7      0.000      0.000
REMARK SMILES CCCCCNC(=O)Oc1cccc(-c2ccc([C@@H](C)C(=O)NCCCCNC(=O)c3ccc(-c4c5nc(c(-c6c(F)c(F)c(F)c(F)c6F)c6ccc([nH]6)c(-c6c(F)c(F)c(F)c(F)c6F)c6nc(c(-c7c(F)c(F)c(F)c(F)c7F)c7ccc4[nH]7)C=C6)C=C5)cc3)cc2F)c1
REMARK SMILES IDX 19 1 20 2 18 3 15 4 16 5 95 6 17 7 94 8 96 9 14 10 10 11
REMARK SMILES IDX 11 12 97 13 12 14 13 15 9 16 7 17 6 18 8 20 5 21 4 22 3 23
REMARK SMILES IDX 2 24 1 25 21 26 22 27 23 28 24 30 25 31 26 32 27 33 28 34
REMARK SMILES IDX 29 35 30 37 31 38 32 39 93 40 33 41 92 42 34 43 35 44 36 45
REMARK SMILES IDX 86 46 37 47 91 48 85 49 87 50 38 51 90 52 84 53 83 54 39 56
REMARK SMILES IDX 71 57 51 58 70 59 52 60 55 61 69 62 88 63 53 64 54 65 68 67
REMARK SMILES IDX 89 68 56 69 40 70 41 71 49 72 42 73 43 74 47 75 50 76 44 77
REMARK SMILES IDX 45 78 48 79 46 80 72 81 73 82 81 83 74 84 75 85 79 86 82 87
REMARK SMILES IDX 76 88 77 89 80 90 78 91 57 92 58 93 66 94 59 95 60 96 64 97
REMARK SMILES IDX 67 98 61 99 62 100 65 101 63 102
REMARK H PARENT 6 19 23 29 28 36 87 55 55 66
REMARK Flexibility Score: inf
ROOT
ATOM      1  C   UNL A   1      33.610  30.548  26.892  1.00  0.00     0.105 C 
ATOM      2  C   UNL A   1      32.373  31.362  27.272  1.00  0.00     0.023 C 
ENDROOT
BRANCH   1   3
ATOM      3  C   UNL A   1      33.354  29.115  26.455  1.00  0.00    -0.033 A 
ATOM      4  C   UNL A   1      32.701  26.480  25.517  1.00  0.00     0.018 A 
ATOM      5  C   UNL A   1      33.887  27.134  25.142  1.00  0.00     0.012 A 
ATOM      6  C   UNL A   1      31.875  27.177  26.414  1.00  0.00     0.131 A 
ATOM      7  C   UNL A   1      34.227  28.400  25.635  1.00  0.00     0.005 A 
ATOM      8  C   UNL A   1      32.175  28.471  26.854  1.00  0.00     0.044 A 
ATOM      9  F   UNL A   1      30.754  26.614  26.895  1.00  0.00    -0.206 F 
BRANCH   4  10
ATOM     10  C   UNL A   1      32.369  25.137  24.976  1.00  0.00    -0.012 A 
ATOM     11  C   UNL A   1      32.764  22.738  24.800  1.00  0.00     0.133 A 
ATOM     12  C   UNL A   1      31.692  22.585  23.927  1.00  0.00     0.047 A 
ATOM     13  C   UNL A   1      33.102  23.988  25.326  1.00  0.00     0.056 A 
ATOM     14  C   UNL A   1      30.944  23.700  23.576  1.00  0.00     0.004 A 
ATOM     15  C   UNL A   1      31.289  24.957  24.083  1.00  0.00     0.009 A 
BRANCH  11  16
ATOM     16  O   UNL A   1      33.572  21.605  24.991  1.00  0.00    -0.410 OA
BRANCH  16  17
ATOM     17  C   UNL A   1      33.603  20.961  26.218  1.00  0.00     0.412 C 
ATOM     18  N   UNL A   1      33.210  19.653  26.132  1.00  0.00    -0.321 N 
ATOM     19  H   UNL A   1      33.191  19.138  26.971  1.00  0.00     0.167 HD
ATOM     20  O   UNL A   1      33.922  21.462  27.288  1.00  0.00    -0.224 OA
BRANCH  18  21
ATOM     21  C   UNL A   1      32.815  18.952  24.926  1.00  0.00     0.119 C 
BRANCH  21  22
ATOM     22  C   UNL A   1      33.991  18.230  24.270  1.00  0.00     0.021 C 
BRANCH  22  23
ATOM     23  C   UNL A   1      33.764  16.737  24.006  1.00  0.00     0.002 C 
BRANCH  23  24
ATOM     24  C   UNL A   1      33.841  15.829  25.236  1.00  0.00    -0.003 C 
ATOM     25  C   UNL A   1      32.541  15.098  25.536  1.00  0.00     0.004 C 
ENDBRANCH  23  24
ENDBRANCH  22  23
ENDBRANCH  21  22
ENDBRANCH  18  21
ENDBRANCH  16  17
ENDBRANCH  11  16
ENDBRANCH   4  10
ENDBRANCH   1   3
BRANCH   1  26
ATOM     26  C   UNL A   1      34.774  30.694  27.886  1.00  0.00     0.227 C 
ATOM     27  O   UNL A   1      35.251  29.691  28.430  1.00  0.00    -0.274 OA
ATOM     28  N   UNL A   1      35.350  31.885  28.211  1.00  0.00    -0.356 N 
ATOM     29  H   UNL A   1      36.135  31.808  28.799  1.00  0.00     0.163 HD
BRANCH  28  30
ATOM     30  C   UNL A   1      35.013  33.242  27.843  1.00  0.00     0.116 C 
BRANCH  30  31
ATOM     31  C   UNL A   1      34.705  34.109  29.065  1.00  0.00     0.023 C 
BRANCH  31  32
ATOM     32  C   UNL A   1      33.298  34.702  29.101  1.00  0.00     0.023 C 
BRANCH  32  33
ATOM     33  C   UNL A   1      33.205  36.102  29.691  1.00  0.00     0.116 C 
BRANCH  33  34
ATOM     34  N   UNL A   1      32.272  36.222  30.801  1.00  0.00    -0.352 N 
ATOM     35  C   UNL A   1      32.404  35.738  32.081  1.00  0.00     0.251 C 
ATOM     36  H   UNL A   1      31.439  36.711  30.611  1.00  0.00     0.163 HD
ATOM     37  O   UNL A   1      31.487  35.851  32.887  1.00  0.00    -0.269 OA
BRANCH  35  38
ATOM     38  C   UNL A   1      33.650  35.041  32.469  1.00  0.00     0.039 A 
ATOM     39  C   UNL A   1      33.578  33.705  32.872  1.00  0.00     0.014 A 
ATOM     40  C   UNL A   1      34.883  35.693  32.413  1.00  0.00     0.014 A 
ATOM     41  C   UNL A   1      34.750  33.012  33.174  1.00  0.00     0.010 A 
ATOM     42  C   UNL A   1      36.056  34.976  32.621  1.00  0.00     0.010 A 
ATOM     43  C   UNL A   1      36.000  33.637  33.030  1.00  0.00    -0.014 A 
BRANCH  43  44
ATOM     44  C   UNL A   1      37.257  32.924  33.361  1.00  0.00     0.031 A 
ATOM     45  C   UNL A   1      37.960  33.217  34.659  1.00  0.00     0.074 A 
ATOM     46  C   UNL A   1      37.788  32.055  32.483  1.00  0.00     0.049 A 
ATOM     47  N   UNL A   1      39.070  32.711  35.134  1.00  0.00    -0.248 NA
ATOM     48  C   UNL A   1      37.355  34.245  35.519  1.00  0.00     0.031 C 
ATOM     49  C   UNL A   1      37.234  31.734  31.167  1.00  0.00     0.029 A 
ATOM     50  N   UNL A   1      38.916  31.278  32.568  1.00  0.00    -0.354 N 
ATOM     51  C   UNL A   1      39.303  33.375  36.332  1.00  0.00     0.074 A 
ATOM     52  C   UNL A   1      38.261  34.368  36.476  1.00  0.00     0.031 C 
ATOM     53  C   UNL A   1      37.995  30.791  30.588  1.00  0.00     0.029 A 
ATOM     54  C   UNL A   1      39.103  30.462  31.480  1.00  0.00     0.049 A 
ATOM     55  H   UNL A   1      39.531  31.302  33.335  1.00  0.00     0.167 HD
ATOM     56  C   UNL A   1      40.276  33.156  37.247  1.00  0.00     0.037 A 
ATOM     57  C   UNL A   1      40.051  29.536  31.244  1.00  0.00     0.037 A 
ATOM     58  C   UNL A   1      41.284  32.139  37.118  1.00  0.00     0.049 A 
ATOM     59  C   UNL A   1      41.107  29.288  32.287  1.00  0.00     0.074 A 
ATOM     60  C   UNL A   1      42.275  31.782  38.014  1.00  0.00     0.029 A 
ATOM     61  N   UNL A   1      41.428  31.313  36.011  1.00  0.00    -0.354 N 
ATOM     62  N   UNL A   1      41.270  29.859  33.456  1.00  0.00    -0.248 NA
ATOM     63  C   UNL A   1      42.101  28.251  31.982  1.00  0.00     0.031 C 
ATOM     64  C   UNL A   1      43.044  30.766  37.433  1.00  0.00     0.029 A 
ATOM     65  C   UNL A   1      42.500  30.456  36.196  1.00  0.00     0.049 A 
ATOM     66  H   UNL A   1      40.852  31.333  35.214  1.00  0.00     0.167 HD
ATOM     67  C   UNL A   1      42.356  29.226  34.044  1.00  0.00     0.074 A 
ATOM     68  C   UNL A   1      42.809  28.221  33.103  1.00  0.00     0.031 C 
ATOM     69  C   UNL A   1      42.924  29.451  35.255  1.00  0.00     0.037 A 
BRANCH  56  70
ATOM     70  C   UNL A   1      40.284  34.036  38.465  1.00  0.00     0.064 A 
ATOM     71  C   UNL A   1      41.038  35.219  38.518  1.00  0.00     0.173 A 
ATOM     72  C   UNL A   1      39.542  33.684  39.602  1.00  0.00     0.173 A 
ATOM     73  F   UNL A   1      41.779  35.595  37.463  1.00  0.00    -0.203 F 
ATOM     74  C   UNL A   1      41.089  35.989  39.677  1.00  0.00     0.198 A 
ATOM     75  C   UNL A   1      39.566  34.475  40.748  1.00  0.00     0.198 A 
ATOM     76  F   UNL A   1      38.799  32.567  39.607  1.00  0.00    -0.203 F 
ATOM     77  F   UNL A   1      41.877  37.073  39.726  1.00  0.00    -0.200 F 
ATOM     78  C   UNL A   1      40.350  35.619  40.789  1.00  0.00     0.200 A 
ATOM     79  F   UNL A   1      38.843  34.123  41.820  1.00  0.00    -0.200 F 
ATOM     80  F   UNL A   1      40.404  36.356  41.907  1.00  0.00    -0.200 F 
ENDBRANCH  56  70
BRANCH  57  81
ATOM     81  C   UNL A   1      39.995  28.718  30.005  1.00  0.00     0.064 A 
ATOM     82  C   UNL A   1      39.355  27.470  30.006  1.00  0.00     0.173 A 
ATOM     83  C   UNL A   1      40.562  29.160  28.803  1.00  0.00     0.173 A 
ATOM     84  F   UNL A   1      38.814  26.997  31.138  1.00  0.00    -0.203 F 
ATOM     85  C   UNL A   1      39.300  26.688  28.855  1.00  0.00     0.198 A 
ATOM     86  C   UNL A   1      40.485  28.388  27.645  1.00  0.00     0.198 A 
ATOM     87  F   UNL A   1      41.180  30.350  28.749  1.00  0.00    -0.203 F 
ATOM     88  F   UNL A   1      38.716  25.483  28.895  1.00  0.00    -0.200 F 
ATOM     89  C   UNL A   1      39.860  27.150  27.675  1.00  0.00     0.200 A 
ATOM     90  F   UNL A   1      41.016  28.842  26.502  1.00  0.00    -0.200 F 
ATOM     91  F   UNL A   1      39.802  26.400  26.565  1.00  0.00    -0.200 F 
ENDBRANCH  57  81
BRANCH  69  92
ATOM     92  C   UNL A   1      44.061  28.556  35.654  1.00  0.00     0.064 A 
ATOM     93  C   UNL A   1      43.853  27.366  36.367  1.00  0.00     0.173 A 
ATOM     94  C   UNL A   1      45.376  28.885  35.292  1.00  0.00     0.173 A 
ATOM     95  F   UNL A   1      42.616  27.016  36.748  1.00  0.00    -0.203 F 
ATOM     96  C   UNL A   1      44.924  26.555  36.731  1.00  0.00     0.198 A 
ATOM     97  C   UNL A   1      46.442  28.055  35.630  1.00  0.00     0.198 A 
ATOM     98  F   UNL A   1      45.629  30.007  34.602  1.00  0.00    -0.203 F 
ATOM     99  F   UNL A   1      44.709  25.452  37.459  1.00  0.00    -0.200 F 
ATOM    100  C   UNL A   1      46.216  26.896  36.358  1.00  0.00     0.200 A 
ATOM    101  F   UNL A   1      47.687  28.380  35.256  1.00  0.00    -0.200 F 
ATOM    102  F   UNL A   1      47.245  26.113  36.706  1.00  0.00    -0.200 F 
ENDBRANCH  69  92
ENDBRANCH  43  44
ENDBRANCH  35  38
ENDBRANCH  33  34
ENDBRANCH  32  33
ENDBRANCH  31  32
ENDBRANCH  30  31
ENDBRANCH  28  30
ENDBRANCH   1  26
TORSDOF 19
ENDMDL
MODEL 2
REMARK VINA RESULT:     -11.6      1.081      2.225
REMARK SMILES CCCCCNC(=O)Oc1cccc(-c2ccc([C@@H](C)C(=O)NCCCCNC(=O)c3ccc(-c4c5nc(c(-c6c(F)c(F)c(F)c(F)c6F)c6ccc([nH]6)c(-c6c(F)c(F)c(F)c(F)c6F)c6nc(c(-c7c(F)c(F)c(F)c(F)c7F)c7ccc4[nH]7)C=C6)C=C5)cc3)cc2F)c1
REMARK SMILES IDX 19 1 20 2 18 3 15 4 16 5 95 6 17 7 94 8 96 9 14 10 10 11
REMARK SMILES IDX 11 12 97 13 12 14 13 15 9 16 7 17 6 18 8 20 5 21 4 22 3 23
REMARK SMILES IDX 2 24 1 25 21 26 22 27 23 28 24 30 25 31 26 32 27 33 28 34
REMARK SMILES IDX 29 35 30 37 31 38 32 39 93 40 33 41 92 42 34 43 35 44 36 45
REMARK SMILES IDX 86 46 37 47 91 48 85 49 87 50 38 51 90 52 84 53 83 54 39 56
REMARK SMILES IDX 71 57 51 58 70 59 52 60 55 61 69 62 88 63 53 64 54 65 68 67
REMARK SMILES IDX 89 68 56 69 40 70 41 71 49 72 42 73 43 74 47 75 50 76 44 77
REMARK SMILES IDX 45 78 48 79 46 80 72 81 73 82 81 83 74 84 75 85 79 86 82 87
REMARK SMILES IDX 76 88 77 89 80 90 78 91 57 92 58 93 66 94 59 95 60 96 64 97
REMARK SMILES IDX 67 98 61 99 62 100 65 101 63 102
REMARK H PARENT 6 19 23 29 28 36 87 55 55 66
REMARK Flexibility Score: inf
ROOT
ATOM      1  C   UNL A   1      33.674  30.545  26.868  1.00  0.00     0.105 C 
ATOM      2  C   UNL A   1      32.514  31.443  27.298  1.00  0.00     0.023 C 
ENDROOT
BRANCH   1   3
ATOM      3  C   UNL A   1      33.296  29.146  26.409  1.00  0.00    -0.033 A 
ATOM      4  C   UNL A   1      32.412  26.590  25.442  1.00  0.00     0.018 A 
ATOM      5  C   UNL A   1      33.621  27.171  25.022  1.00  0.00     0.012 A 
ATOM      6  C   UNL A   1      31.683  27.316  26.397  1.00  0.00     0.131 A 
ATOM      7  C   UNL A   1      34.075  28.395  25.528  1.00  0.00     0.005 A 
ATOM      8  C   UNL A   1      32.096  28.573  26.853  1.00  0.00     0.044 A 
ATOM      9  F   UNL A   1      30.551  26.819  26.922  1.00  0.00    -0.206 F 
BRANCH   4  10
ATOM     10  C   UNL A   1      31.960  25.288  24.886  1.00  0.00    -0.012 A 
ATOM     11  C   UNL A   1      31.554  22.894  25.089  1.00  0.00     0.133 A 
ATOM     12  C   UNL A   1      31.074  22.824  23.786  1.00  0.00     0.047 A 
ATOM     13  C   UNL A   1      31.987  24.103  25.642  1.00  0.00     0.056 A 
ATOM     14  C   UNL A   1      31.025  23.981  23.023  1.00  0.00     0.004 A 
ATOM     15  C   UNL A   1      31.475  25.190  23.563  1.00  0.00     0.009 A 
BRANCH  11  16
ATOM     16  O   UNL A   1      31.725  21.667  25.753  1.00  0.00    -0.410 OA
BRANCH  16  17
ATOM     17  C   UNL A   1      32.668  20.752  25.311  1.00  0.00     0.412 C 
ATOM     18  N   UNL A   1      33.787  20.731  26.100  1.00  0.00    -0.321 N 
ATOM     19  H   UNL A   1      34.507  20.115  25.834  1.00  0.00     0.167 HD
ATOM     20  O   UNL A   1      32.569  20.033  24.326  1.00  0.00    -0.224 OA
BRANCH  18  21
ATOM     21  C   UNL A   1      34.015  21.530  27.288  1.00  0.00     0.119 C 
BRANCH  21  22
ATOM     22  C   UNL A   1      34.928  22.723  27.012  1.00  0.00     0.021 C 
BRANCH  22  23
ATOM     23  C   UNL A   1      35.687  22.660  25.681  1.00  0.00     0.002 C 
BRANCH  23  24
ATOM     24  C   UNL A   1      35.320  23.738  24.658  1.00  0.00    -0.003 C 
ATOM     25  C   UNL A   1      34.935  23.179  23.297  1.00  0.00     0.004 C 
ENDBRANCH  23  24
ENDBRANCH  22  23
ENDBRANCH  21  22
ENDBRANCH  18  21
ENDBRANCH  16  17
ENDBRANCH  11  16
ENDBRANCH   4  10
ENDBRANCH   1   3
BRANCH   1  26
ATOM     26  C   UNL A   1      34.871  30.578  27.833  1.00  0.00     0.227 C 
ATOM     27  O   UNL A   1      35.325  29.522  28.290  1.00  0.00    -0.274 OA
ATOM     28  N   UNL A   1      35.501  31.721  28.221  1.00  0.00    -0.356 N 
ATOM     29  H   UNL A   1      36.300  31.574  28.777  1.00  0.00     0.163 HD
BRANCH  28  30
ATOM     30  C   UNL A   1      35.206  33.113  27.959  1.00  0.00     0.116 C 
BRANCH  30  31
ATOM     31  C   UNL A   1      34.733  33.846  29.215  1.00  0.00     0.023 C 
BRANCH  31  32
ATOM     32  C   UNL A   1      33.412  34.599  29.068  1.00  0.00     0.023 C 
BRANCH  32  33
ATOM     33  C   UNL A   1      33.391  35.988  29.689  1.00  0.00     0.116 C 
BRANCH  33  34
ATOM     34  N   UNL A   1      32.474  36.127  30.810  1.00  0.00    -0.352 N 
ATOM     35  C   UNL A   1      32.625  35.664  32.096  1.00  0.00     0.251 C 
ATOM     36  H   UNL A   1      31.639  36.614  30.624  1.00  0.00     0.163 HD
ATOM     37  O   UNL A   1      31.720  35.791  32.913  1.00  0.00    -0.269 OA
BRANCH  35  38
ATOM     38  C   UNL A   1      33.875  34.971  32.477  1.00  0.00     0.039 A 
ATOM     39  C   UNL A   1      33.821  33.616  32.810  1.00  0.00     0.014 A 
ATOM     40  C   UNL A   1      35.096  35.649  32.482  1.00  0.00     0.014 A 
ATOM     41  C   UNL A   1      35.000  32.930  33.103  1.00  0.00     0.010 A 
ATOM     42  C   UNL A   1      36.278  34.945  32.681  1.00  0.00     0.010 A 
ATOM     43  C   UNL A   1      36.240  33.586  33.020  1.00  0.00    -0.014 A 
BRANCH  43  44
ATOM     44  C   UNL A   1      37.504  32.881  33.344  1.00  0.00     0.031 A 
ATOM     45  C   UNL A   1      38.210  33.174  34.639  1.00  0.00     0.074 A 
ATOM     46  C   UNL A   1      38.038  32.018  32.460  1.00  0.00     0.049 A 
ATOM     47  N   UNL A   1      39.325  32.674  35.109  1.00  0.00    -0.248 NA
ATOM     48  C   UNL A   1      37.601  34.194  35.506  1.00  0.00     0.031 C 
ATOM     49  C   UNL A   1      37.480  31.698  31.146  1.00  0.00     0.029 A 
ATOM     50  N   UNL A   1      39.171  31.248  32.537  1.00  0.00    -0.354 N 
ATOM     51  C   UNL A   1      39.558  33.336  36.308  1.00  0.00     0.074 A 
ATOM     52  C   UNL A   1      38.510  34.320  36.459  1.00  0.00     0.031 C 
ATOM     53  C   UNL A   1      38.246  30.762  30.560  1.00  0.00     0.029 A 
ATOM     54  C   UNL A   1      39.359  30.438  31.446  1.00  0.00     0.049 A 
ATOM     55  H   UNL A   1      39.789  31.274  33.303  1.00  0.00     0.167 HD
ATOM     56  C   UNL A   1      40.536  33.120  37.218  1.00  0.00     0.037 A 
ATOM     57  C   UNL A   1      40.313  29.520  31.203  1.00  0.00     0.037 A 
ATOM     58  C   UNL A   1      41.552  32.110  37.081  1.00  0.00     0.049 A 
ATOM     59  C   UNL A   1      41.375  29.275  32.241  1.00  0.00     0.074 A 
ATOM     60  C   UNL A   1      42.548  31.758  37.972  1.00  0.00     0.029 A 
ATOM     61  N   UNL A   1      41.696  31.289  35.971  1.00  0.00    -0.354 N 
ATOM     62  N   UNL A   1      41.538  29.843  33.411  1.00  0.00    -0.248 NA
ATOM     63  C   UNL A   1      42.376  28.246  31.928  1.00  0.00     0.031 C 
ATOM     64  C   UNL A   1      43.322  30.749  37.385  1.00  0.00     0.029 A 
ATOM     65  C   UNL A   1      42.776  30.440  36.149  1.00  0.00     0.049 A 
ATOM     66  H   UNL A   1      41.117  31.308  35.176  1.00  0.00     0.167 HD
ATOM     67  C   UNL A   1      42.631  29.216  33.993  1.00  0.00     0.074 A 
ATOM     68  C   UNL A   1      43.088  28.218  33.046  1.00  0.00     0.031 C 
ATOM     69  C   UNL A   1      43.203  29.441  35.202  1.00  0.00     0.037 A 
BRANCH  56  70
ATOM     70  C   UNL A   1      40.543  33.996  38.440  1.00  0.00     0.064 A 
ATOM     71  C   UNL A   1      39.808  33.668  39.589  1.00  0.00     0.173 A 
ATOM     72  C   UNL A   1      41.282  35.188  38.455  1.00  0.00     0.173 A 
ATOM     73  F   UNL A   1      39.071  32.546  39.623  1.00  0.00    -0.203 F 
ATOM     74  C   UNL A   1      39.771  34.523  40.688  1.00  0.00     0.198 A 
ATOM     75  C   UNL A   1      41.271  36.024  39.569  1.00  0.00     0.198 A 
ATOM     76  F   UNL A   1      42.007  35.550  37.386  1.00  0.00    -0.203 F 
ATOM     77  F   UNL A   1      39.000  34.223  41.743  1.00  0.00    -0.200 F 
ATOM     78  C   UNL A   1      40.505  35.698  40.678  1.00  0.00     0.200 A 
ATOM     79  F   UNL A   1      41.990  37.155  39.563  1.00  0.00    -0.200 F 
ATOM     80  F   UNL A   1      40.464  36.524  41.733  1.00  0.00    -0.200 F 
ENDBRANCH  56  70
BRANCH  57  81
ATOM     81  C   UNL A   1      40.258  28.706  29.962  1.00  0.00     0.064 A 
ATOM     82  C   UNL A   1      39.563  27.488  29.941  1.00  0.00     0.173 A 
ATOM     83  C   UNL A   1      40.881  29.123  28.778  1.00  0.00     0.173 A 
ATOM     84  F   UNL A   1      38.966  27.039  31.055  1.00  0.00    -0.203 F 
ATOM     85  C   UNL A   1      39.507  26.710  28.788  1.00  0.00     0.198 A 
ATOM     86  C   UNL A   1      40.804  28.355  27.617  1.00  0.00     0.198 A 
ATOM     87  F   UNL A   1      41.553  30.283  28.745  1.00  0.00    -0.203 F 
ATOM     88  F   UNL A   1      38.868  25.532  28.806  1.00  0.00    -0.200 F 
ATOM     89  C   UNL A   1      40.123  27.147  27.625  1.00  0.00     0.200 A 
ATOM     90  F   UNL A   1      41.390  28.786  26.491  1.00  0.00    -0.200 F 
ATOM     91  F   UNL A   1      40.066  26.401  26.513  1.00  0.00    -0.200 F 
ENDBRANCH  57  81
BRANCH  69  92
ATOM     92  C   UNL A   1      44.348  28.553  35.594  1.00  0.00     0.064 A 
ATOM     93  C   UNL A   1      45.679  28.892  35.310  1.00  0.00     0.173 A 
ATOM     94  C   UNL A   1      44.106  27.358  36.288  1.00  0.00     0.173 A 
ATOM     95  F   UNL A   1      45.960  30.017  34.637  1.00  0.00    -0.203 F 
ATOM     96  C   UNL A   1      46.725  28.050  35.679  1.00  0.00     0.198 A 
ATOM     97  C   UNL A   1      45.157  26.533  36.683  1.00  0.00     0.198 A 
ATOM     98  F   UNL A   1      42.852  26.992  36.591  1.00  0.00    -0.203 F 
ATOM     99  F   UNL A   1      47.984  28.365  35.349  1.00  0.00    -0.200 F 
ATOM    100  C   UNL A   1      46.464  26.875  36.369  1.00  0.00     0.200 A 
ATOM    101  F   UNL A   1      44.903  25.406  37.362  1.00  0.00    -0.200 F 
ATOM    102  F   UNL A   1      47.471  26.067  36.725  1.00  0.00    -0.200 F 
ENDBRANCH  69  92
ENDBRANCH  43  44
ENDBRANCH  35  38
ENDBRANCH  33  34
ENDBRANCH  32  33
ENDBRANCH  31  32
ENDBRANCH  30  31
ENDBRANCH  28  30
ENDBRANCH   1  26
TORSDOF 19
ENDMDL
MODEL 3
REMARK VINA RESULT:     -11.6      3.726      6.109
REMARK SMILES CCCCCNC(=O)Oc1cccc(-c2ccc([C@@H](C)C(=O)NCCCCNC(=O)c3ccc(-c4c5nc(c(-c6c(F)c(F)c(F)c(F)c6F)c6ccc([nH]6)c(-c6c(F)c(F)c(F)c(F)c6F)c6nc(c(-c7c(F)c(F)c(F)c(F)c7F)c7ccc4[nH]7)C=C6)C=C5)cc3)cc2F)c1
REMARK SMILES IDX 19 1 20 2 18 3 15 4 16 5 95 6 17 7 94 8 96 9 14 10 10 11
REMARK SMILES IDX 11 12 97 13 12 14 13 15 9 16 7 17 6 18 8 20 5 21 4 22 3 23
REMARK SMILES IDX 2 24 1 25 21 26 22 27 23 28 24 30 25 31 26 32 27 33 28 34
REMARK SMILES IDX 29 35 30 37 31 38 32 39 93 40 33 41 92 42 34 43 35 44 36 45
REMARK SMILES IDX 86 46 37 47 91 48 85 49 87 50 38 51 90 52 84 53 83 54 39 56
REMARK SMILES IDX 71 57 51 58 70 59 52 60 55 61 69 62 88 63 53 64 54 65 68 67
REMARK SMILES IDX 89 68 56 69 40 70 41 71 49 72 42 73 43 74 47 75 50 76 44 77
REMARK SMILES IDX 45 78 48 79 46 80 72 81 73 82 81 83 74 84 75 85 79 86 82 87
REMARK SMILES IDX 76 88 77 89 80 90 78 91 57 92 58 93 66 94 59 95 60 96 64 97
REMARK SMILES IDX 67 98 61 99 62 100 65 101 63 102
REMARK H PARENT 6 19 23 29 28 36 87 55 55 66
REMARK Flexibility Score: inf
ROOT
ATOM      1  C   UNL A   1      32.047  23.827  24.915  1.00  0.00     0.105 C 
ATOM      2  C   UNL A   1      31.381  22.836  23.961  1.00  0.00     0.023 C 
ENDROOT
BRANCH   1   3
ATOM      3  C   UNL A   1      33.509  23.560  25.234  1.00  0.00    -0.033 A 
ATOM      4  C   UNL A   1      36.316  23.253  25.762  1.00  0.00     0.018 A 
ATOM      5  C   UNL A   1      35.361  23.295  26.794  1.00  0.00     0.012 A 
ATOM      6  C   UNL A   1      35.808  23.327  24.455  1.00  0.00     0.131 A 
ATOM      7  C   UNL A   1      33.989  23.399  26.534  1.00  0.00     0.005 A 
ATOM      8  C   UNL A   1      34.445  23.502  24.192  1.00  0.00     0.044 A 
ATOM      9  F   UNL A   1      36.625  23.221  23.394  1.00  0.00    -0.206 F 
BRANCH   4  10
ATOM     10  C   UNL A   1      37.764  23.141  26.071  1.00  0.00    -0.012 A 
ATOM     11  C   UNL A   1      39.848  21.880  26.157  1.00  0.00     0.133 A 
ATOM     12  C   UNL A   1      40.537  22.976  26.665  1.00  0.00     0.047 A 
ATOM     13  C   UNL A   1      38.485  21.952  25.856  1.00  0.00     0.056 A 
ATOM     14  C   UNL A   1      39.853  24.164  26.874  1.00  0.00     0.004 A 
ATOM     15  C   UNL A   1      38.485  24.238  26.594  1.00  0.00     0.009 A 
BRANCH  11  16
ATOM     16  O   UNL A   1      40.557  20.668  26.116  1.00  0.00    -0.410 OA
BRANCH  16  17
ATOM     17  C   UNL A   1      41.234  20.209  27.236  1.00  0.00     0.412 C 
ATOM     18  N   UNL A   1      42.582  20.106  27.027  1.00  0.00    -0.321 N 
ATOM     19  H   UNL A   1      43.124  19.769  27.776  1.00  0.00     0.167 HD
ATOM     20  O   UNL A   1      40.729  19.902  28.308  1.00  0.00    -0.224 OA
BRANCH  18  21
ATOM     21  C   UNL A   1      43.290  20.442  25.807  1.00  0.00     0.119 C 
BRANCH  21  22
ATOM     22  C   UNL A   1      43.750  19.199  25.048  1.00  0.00     0.021 C 
BRANCH  22  23
ATOM     23  C   UNL A   1      45.142  19.309  24.414  1.00  0.00     0.002 C 
BRANCH  23  24
ATOM     24  C   UNL A   1      46.060  20.376  25.015  1.00  0.00    -0.003 C 
ATOM     25  C   UNL A   1      45.839  21.765  24.437  1.00  0.00     0.004 C 
ENDBRANCH  23  24
ENDBRANCH  22  23
ENDBRANCH  21  22
ENDBRANCH  18  21
ENDBRANCH  16  17
ENDBRANCH  11  16
ENDBRANCH   4  10
ENDBRANCH   1   3
BRANCH   1  26
ATOM     26  C   UNL A   1      31.195  24.165  26.149  1.00  0.00     0.227 C 
ATOM     27  O   UNL A   1      30.796  23.259  26.890  1.00  0.00    -0.274 OA
ATOM     28  N   UNL A   1      30.849  25.432  26.509  1.00  0.00    -0.356 N 
ATOM     29  H   UNL A   1      30.370  25.493  27.366  1.00  0.00     0.163 HD
BRANCH  28  30
ATOM     30  C   UNL A   1      31.062  26.704  25.855  1.00  0.00     0.116 C 
BRANCH  30  31
ATOM     31  C   UNL A   1      32.045  27.588  26.625  1.00  0.00     0.023 C 
BRANCH  31  32
ATOM     32  C   UNL A   1      33.495  27.510  26.152  1.00  0.00     0.023 C 
BRANCH  32  33
ATOM     33  C   UNL A   1      34.081  28.823  25.653  1.00  0.00     0.116 C 
BRANCH  33  34
ATOM     34  N   UNL A   1      33.353  30.005  26.089  1.00  0.00    -0.352 N 
ATOM     35  C   UNL A   1      33.683  30.888  27.091  1.00  0.00     0.251 C 
ATOM     36  H   UNL A   1      32.518  30.198  25.604  1.00  0.00     0.163 HD
ATOM     37  O   UNL A   1      32.920  31.798  27.394  1.00  0.00    -0.269 OA
BRANCH  35  38
ATOM     38  C   UNL A   1      34.951  30.706  27.830  1.00  0.00     0.039 A 
ATOM     39  C   UNL A   1      35.187  29.489  28.476  1.00  0.00     0.014 A 
ATOM     40  C   UNL A   1      35.911  31.719  27.867  1.00  0.00     0.014 A 
ATOM     41  C   UNL A   1      36.406  29.275  29.119  1.00  0.00     0.010 A 
ATOM     42  C   UNL A   1      37.160  31.470  28.425  1.00  0.00     0.010 A 
ATOM     43  C   UNL A   1      37.410  30.257  29.080  1.00  0.00    -0.014 A 
BRANCH  43  44
ATOM     44  C   UNL A   1      38.706  30.057  29.771  1.00  0.00     0.031 A 
ATOM     45  C   UNL A   1      38.899  30.589  31.164  1.00  0.00     0.074 A 
ATOM     46  C   UNL A   1      39.719  29.441  29.134  1.00  0.00     0.049 A 
ATOM     47  N   UNL A   1      39.952  30.527  31.939  1.00  0.00    -0.248 NA
ATOM     48  C   UNL A   1      37.768  31.324  31.751  1.00  0.00     0.031 C 
ATOM     49  C   UNL A   1      39.675  28.937  27.761  1.00  0.00     0.029 A 
ATOM     50  N   UNL A   1      40.986  29.133  29.561  1.00  0.00    -0.354 N 
ATOM     51  C   UNL A   1      39.615  31.233  33.088  1.00  0.00     0.074 A 
ATOM     52  C   UNL A   1      38.290  31.773  32.880  1.00  0.00     0.031 C 
ATOM     53  C   UNL A   1      40.843  28.339  27.475  1.00  0.00     0.029 A 
ATOM     54  C   UNL A   1      41.725  28.441  28.634  1.00  0.00     0.049 A 
ATOM     55  H   UNL A   1      41.332  29.383  30.448  1.00  0.00     0.167 HD
ATOM     56  C   UNL A   1      40.331  31.387  34.226  1.00  0.00     0.037 A 
ATOM     57  C   UNL A   1      42.966  27.928  28.724  1.00  0.00     0.037 A 
ATOM     58  C   UNL A   1      41.631  30.812  34.442  1.00  0.00     0.049 A 
ATOM     59  C   UNL A   1      43.733  28.087  30.009  1.00  0.00     0.074 A 
ATOM     60  C   UNL A   1      42.416  30.846  35.580  1.00  0.00     0.029 A 
ATOM     61  N   UNL A   1      42.339  30.094  33.487  1.00  0.00    -0.354 N 
ATOM     62  N   UNL A   1      43.374  28.680  31.121  1.00  0.00    -0.248 NA
ATOM     63  C   UNL A   1      45.073  27.487  30.053  1.00  0.00     0.031 C 
ATOM     64  C   UNL A   1      43.617  30.183  35.301  1.00  0.00     0.029 A 
ATOM     65  C   UNL A   1      43.559  29.693  34.006  1.00  0.00     0.049 A 
ATOM     66  H   UNL A   1      42.021  29.900  32.577  1.00  0.00     0.167 HD
ATOM     67  C   UNL A   1      44.422  28.491  32.011  1.00  0.00     0.074 A 
ATOM     68  C   UNL A   1      45.429  27.722  31.308  1.00  0.00     0.031 C 
ATOM     69  C   UNL A   1      44.540  28.911  33.296  1.00  0.00     0.037 A 
BRANCH  56  70
ATOM     70  C   UNL A   1      39.711  32.212  35.320  1.00  0.00     0.064 A 
ATOM     71  C   UNL A   1      38.865  31.643  36.285  1.00  0.00     0.173 A 
ATOM     72  C   UNL A   1      39.952  33.591  35.394  1.00  0.00     0.173 A 
ATOM     73  F   UNL A   1      38.588  30.330  36.252  1.00  0.00    -0.203 F 
ATOM     74  C   UNL A   1      38.245  32.431  37.252  1.00  0.00     0.198 A 
ATOM     75  C   UNL A   1      39.358  34.371  36.384  1.00  0.00     0.198 A 
ATOM     76  F   UNL A   1      40.756  34.188  34.501  1.00  0.00    -0.203 F 
ATOM     77  F   UNL A   1      37.382  31.875  38.114  1.00  0.00    -0.200 F 
ATOM     78  C   UNL A   1      38.495  33.793  37.302  1.00  0.00     0.200 A 
ATOM     79  F   UNL A   1      39.610  35.687  36.439  1.00  0.00    -0.200 F 
ATOM     80  F   UNL A   1      37.893  34.552  38.229  1.00  0.00    -0.200 F 
ENDBRANCH  56  70
BRANCH  57  81
ATOM     81  C   UNL A   1      43.526  27.145  27.593  1.00  0.00     0.064 A 
ATOM     82  C   UNL A   1      43.302  25.763  27.505  1.00  0.00     0.173 A 
ATOM     83  C   UNL A   1      44.280  27.749  26.579  1.00  0.00     0.173 A 
ATOM     84  F   UNL A   1      42.601  25.137  28.462  1.00  0.00    -0.203 F 
ATOM     85  C   UNL A   1      43.826  25.013  26.456  1.00  0.00     0.198 A 
ATOM     86  C   UNL A   1      44.784  27.002  25.515  1.00  0.00     0.198 A 
ATOM     87  F   UNL A   1      44.518  29.069  26.614  1.00  0.00    -0.203 F 
ATOM     88  F   UNL A   1      43.628  23.688  26.418  1.00  0.00    -0.200 F 
ATOM     89  C   UNL A   1      44.561  25.634  25.458  1.00  0.00     0.200 A 
ATOM     90  F   UNL A   1      45.484  27.607  24.546  1.00  0.00    -0.200 F 
ATOM     91  F   UNL A   1      45.061  24.914  24.445  1.00  0.00    -0.200 F 
ENDBRANCH  57  81
BRANCH  69  92
ATOM     92  C   UNL A   1      45.775  28.498  34.041  1.00  0.00     0.064 A 
ATOM     93  C   UNL A   1      46.924  29.302  34.076  1.00  0.00     0.173 A 
ATOM     94  C   UNL A   1      45.796  27.289  34.754  1.00  0.00     0.173 A 
ATOM     95  F   UNL A   1      46.957  30.460  33.399  1.00  0.00    -0.203 F 
ATOM     96  C   UNL A   1      48.060  28.895  34.769  1.00  0.00     0.198 A 
ATOM     97  C   UNL A   1      46.923  26.900  35.472  1.00  0.00     0.198 A 
ATOM     98  F   UNL A   1      44.721  26.488  34.760  1.00  0.00    -0.203 F 
ATOM     99  F   UNL A   1      49.165  29.652  34.743  1.00  0.00    -0.200 F 
ATOM    100  C   UNL A   1      48.057  27.699  35.471  1.00  0.00     0.200 A 
ATOM    101  F   UNL A   1      46.913  25.751  36.162  1.00  0.00    -0.200 F 
ATOM    102  F   UNL A   1      49.151  27.310  36.141  1.00  0.00    -0.200 F 
ENDBRANCH  69  92
ENDBRANCH  43  44
ENDBRANCH  35  38
ENDBRANCH  33  34
ENDBRANCH  32  33
ENDBRANCH  31  32
ENDBRANCH  30  31
ENDBRANCH  28  30
ENDBRANCH   1  26
TORSDOF 19
ENDMDL
