MODEL 1
REMARK VINA RESULT:     -12.5      0.000      0.000
REMARK SMILES CC(C)=CCc1cccc2c(C(=O)NCCCCNC(=O)c3ccc(-c4c5nc(c(-c6c(F)c(F)c(F)c(F)c6F)c6ccc([nH]6)c(-c6c(F)c(F)c(F)c(F)c6F)c6nc(c(-c7c(F)c(F)c(F)c(F)c7F)c7ccc4[nH]7)C=C6)C=C5)cc3)c[nH]c12
REMARK SMILES IDX 16 1 15 2 14 3 12 4 13 5 11 7 6 8 7 9 87 10 8 11 10 12 86 13
REMARK SMILES IDX 9 14 85 15 5 17 4 18 1 19 2 20 3 21 17 22 18 23 19 24 20 25
REMARK SMILES IDX 21 27 22 28 23 29 84 30 24 31 83 32 25 33 26 34 27 35 77 36
REMARK SMILES IDX 28 37 82 38 76 39 78 40 29 41 81 42 75 43 74 44 30 46 62 47
REMARK SMILES IDX 42 48 61 49 43 50 46 51 60 52 79 53 44 54 45 55 59 57 80 58
REMARK SMILES IDX 47 59 31 60 32 61 40 62 33 63 34 64 38 65 41 66 35 67 36 68
REMARK SMILES IDX 39 69 37 70 63 71 64 72 72 73 65 74 66 75 70 76 73 77 67 78
REMARK SMILES IDX 68 79 71 80 69 81 48 82 49 83 57 84 50 85 51 86 55 87 58 88
REMARK SMILES IDX 52 89 53 90 56 91 54 92
REMARK H PARENT 14 6 86 16 19 26 78 45 46 56
REMARK Flexibility Score: inf
ROOT
ATOM      1  C   UNL A   1      32.352  27.790  26.839  1.00  0.00     0.023 C 
ENDROOT
BRANCH   1   2
ATOM      2  C   UNL A   1      33.699  27.588  26.161  1.00  0.00     0.116 C 
BRANCH   2   3
ATOM      3  N   UNL A   1      33.772  26.502  25.207  1.00  0.00    -0.352 N 
ATOM      4  C   UNL A   1      33.186  26.392  23.962  1.00  0.00     0.253 C 
ATOM      5  O   UNL A   1      33.386  25.351  23.335  1.00  0.00    -0.269 OA
ATOM      6  H   UNL A   1      34.316  25.731  25.486  1.00  0.00     0.163 HD
BRANCH   4   7
ATOM      7  C   UNL A   1      32.282  27.429  23.454  1.00  0.00     0.065 A 
ATOM      8  C   UNL A   1      29.160  28.973  22.358  1.00  0.00    -0.020 A 
ATOM      9  C   UNL A   1      28.181  28.114  22.906  1.00  0.00     0.006 A 
ATOM     10  C   UNL A   1      30.498  28.648  22.676  1.00  0.00     0.050 A 
ATOM     11  C   UNL A   1      28.493  27.138  23.840  1.00  0.00     0.001 A 
ATOM     12  C   UNL A   1      30.855  27.591  23.525  1.00  0.00     0.012 A 
ATOM     13  N   UNL A   1      31.676  29.246  22.290  1.00  0.00    -0.360 N 
ATOM     14  C   UNL A   1      29.817  26.918  24.203  1.00  0.00     0.011 A 
ATOM     15  C   UNL A   1      32.746  28.529  22.747  1.00  0.00     0.097 A 
ATOM     16  H   UNL A   1      31.739  30.074  21.760  1.00  0.00     0.166 HD
BRANCH   8  17
ATOM     17  C   UNL A   1      28.764  30.129  21.455  1.00  0.00     0.065 C 
BRANCH  17  18
ATOM     18  C   UNL A   1      29.200  31.471  21.989  1.00  0.00    -0.024 C 
ATOM     19  C   UNL A   1      27.516  31.628  23.841  1.00  0.00     0.039 C 
ATOM     20  C   UNL A   1      28.633  32.167  22.994  1.00  0.00    -0.080 C 
ATOM     21  C   UNL A   1      29.053  33.588  23.258  1.00  0.00     0.039 C 
ENDBRANCH  17  18
ENDBRANCH   8  17
ENDBRANCH   4   7
ENDBRANCH   2   3
ENDBRANCH   1   2
BRANCH   1  22
ATOM     22  C   UNL A   1      31.776  29.203  26.806  1.00  0.00     0.023 C 
BRANCH  22  23
ATOM     23  C   UNL A   1      32.596  30.265  26.081  1.00  0.00     0.116 C 
BRANCH  23  24
ATOM     24  N   UNL A   1      32.462  31.609  26.629  1.00  0.00    -0.352 N 
ATOM     25  C   UNL A   1      33.300  32.318  27.461  1.00  0.00     0.251 C 
ATOM     26  H   UNL A   1      31.641  32.083  26.364  1.00  0.00     0.163 HD
ATOM     27  O   UNL A   1      32.973  33.434  27.857  1.00  0.00    -0.269 OA
BRANCH  25  28
ATOM     28  C   UNL A   1      34.571  31.722  27.925  1.00  0.00     0.039 A 
ATOM     29  C   UNL A   1      35.694  32.547  28.053  1.00  0.00     0.014 A 
ATOM     30  C   UNL A   1      34.656  30.372  28.269  1.00  0.00     0.014 A 
ATOM     31  C   UNL A   1      36.862  32.043  28.631  1.00  0.00     0.010 A 
ATOM     32  C   UNL A   1      35.787  29.897  28.927  1.00  0.00     0.010 A 
ATOM     33  C   UNL A   1      36.899  30.730  29.128  1.00  0.00    -0.014 A 
BRANCH  33  34
ATOM     34  C   UNL A   1      38.076  30.215  29.878  1.00  0.00     0.031 A 
ATOM     35  C   UNL A   1      38.333  30.672  31.288  1.00  0.00     0.074 A 
ATOM     36  C   UNL A   1      38.962  29.407  29.261  1.00  0.00     0.049 A 
ATOM     37  N   UNL A   1      39.355  30.420  32.067  1.00  0.00    -0.248 NA
ATOM     38  C   UNL A   1      37.323  31.554  31.893  1.00  0.00     0.031 C 
ATOM     39  C   UNL A   1      38.863  28.937  27.878  1.00  0.00     0.029 A 
ATOM     40  N   UNL A   1      40.133  28.847  29.714  1.00  0.00    -0.354 N 
ATOM     41  C   UNL A   1      39.122  31.131  33.237  1.00  0.00     0.074 A 
ATOM     42  C   UNL A   1      37.888  31.861  33.051  1.00  0.00     0.031 C 
ATOM     43  C   UNL A   1      39.914  28.148  27.602  1.00  0.00     0.029 A 
ATOM     44  C   UNL A   1      40.783  28.085  28.773  1.00  0.00     0.049 A 
ATOM     45  H   UNL A   1      40.475  28.980  30.628  1.00  0.00     0.167 HD
ATOM     46  C   UNL A   1      39.858  31.153  34.374  1.00  0.00     0.037 A 
ATOM     47  C   UNL A   1      41.952  27.420  28.842  1.00  0.00     0.037 A 
ATOM     48  C   UNL A   1      41.063  30.391  34.576  1.00  0.00     0.049 A 
ATOM     49  C   UNL A   1      42.739  27.449  30.125  1.00  0.00     0.074 A 
ATOM     50  C   UNL A   1      41.836  30.290  35.719  1.00  0.00     0.029 A 
ATOM     51  N   UNL A   1      41.666  29.599  33.612  1.00  0.00    -0.354 N 
ATOM     52  N   UNL A   1      42.467  28.063  31.250  1.00  0.00    -0.248 NA
ATOM     53  C   UNL A   1      43.995  26.683  30.150  1.00  0.00     0.031 C 
ATOM     54  C   UNL A   1      42.931  29.467  35.435  1.00  0.00     0.029 A 
ATOM     55  C   UNL A   1      42.813  29.017  34.130  1.00  0.00     0.049 A 
ATOM     56  H   UNL A   1      41.329  29.467  32.696  1.00  0.00     0.167 HD
ATOM     57  C   UNL A   1      43.496  27.734  32.123  1.00  0.00     0.074 A 
ATOM     58  C   UNL A   1      44.391  26.854  31.403  1.00  0.00     0.031 C 
ATOM     59  C   UNL A   1      43.682  28.127  33.406  1.00  0.00     0.037 A 
BRANCH  46  60
ATOM     60  C   UNL A   1      39.376  32.017  35.502  1.00  0.00     0.064 A 
ATOM     61  C   UNL A   1      38.477  31.535  36.464  1.00  0.00     0.173 A 
ATOM     62  C   UNL A   1      39.864  33.324  35.656  1.00  0.00     0.173 A 
ATOM     63  F   UNL A   1      37.973  30.296  36.356  1.00  0.00    -0.203 F 
ATOM     64  C   UNL A   1      38.068  32.335  37.528  1.00  0.00     0.198 A 
ATOM     65  C   UNL A   1      39.475  34.111  36.737  1.00  0.00     0.198 A 
ATOM     66  F   UNL A   1      40.730  33.832  34.766  1.00  0.00    -0.203 F 
ATOM     67  F   UNL A   1      37.177  31.865  38.413  1.00  0.00    -0.200 F 
ATOM     68  C   UNL A   1      38.574  33.619  37.668  1.00  0.00     0.200 A 
ATOM     69  F   UNL A   1      39.975  35.347  36.879  1.00  0.00    -0.200 F 
ATOM     70  F   UNL A   1      38.190  34.381  38.700  1.00  0.00    -0.200 F 
ENDBRANCH  46  60
BRANCH  47  71
ATOM     71  C   UNL A   1      42.448  26.651  27.670  1.00  0.00     0.064 A 
ATOM     72  C   UNL A   1      42.037  25.329  27.451  1.00  0.00     0.173 A 
ATOM     73  C   UNL A   1      43.366  27.205  26.765  1.00  0.00     0.173 A 
ATOM     74  F   UNL A   1      41.178  24.746  28.301  1.00  0.00    -0.203 F 
ATOM     75  C   UNL A   1      42.546  24.581  26.391  1.00  0.00     0.198 A 
ATOM     76  C   UNL A   1      43.851  26.466  25.688  1.00  0.00     0.198 A 
ATOM     77  F   UNL A   1      43.790  28.467  26.927  1.00  0.00    -0.203 F 
ATOM     78  F   UNL A   1      42.178  23.301  26.240  1.00  0.00    -0.200 F 
ATOM     79  C   UNL A   1      43.450  25.151  25.508  1.00  0.00     0.200 A 
ATOM     80  F   UNL A   1      44.715  27.026  24.829  1.00  0.00    -0.200 F 
ATOM     81  F   UNL A   1      43.942  24.431  24.491  1.00  0.00    -0.200 F 
ENDBRANCH  47  71
BRANCH  59  82
ATOM     82  C   UNL A   1      44.875  27.574  34.131  1.00  0.00     0.064 A 
ATOM     83  C   UNL A   1      44.813  26.366  34.838  1.00  0.00     0.173 A 
ATOM     84  C   UNL A   1      46.107  28.244  34.079  1.00  0.00     0.173 A 
ATOM     85  F   UNL A   1      43.653  25.695  34.929  1.00  0.00    -0.203 F 
ATOM     86  C   UNL A   1      45.935  25.859  35.487  1.00  0.00     0.198 A 
ATOM     87  C   UNL A   1      47.234  27.720  34.704  1.00  0.00     0.198 A 
ATOM     88  F   UNL A   1      46.220  29.402  33.410  1.00  0.00    -0.203 F 
ATOM     89  F   UNL A   1      45.842  24.726  36.196  1.00  0.00    -0.200 F 
ATOM     90  C   UNL A   1      47.146  26.532  35.414  1.00  0.00     0.200 A 
ATOM     91  F   UNL A   1      48.406  28.364  34.621  1.00  0.00    -0.200 F 
ATOM     92  F   UNL A   1      48.226  26.038  36.033  1.00  0.00    -0.200 F 
ENDBRANCH  59  82
ENDBRANCH  33  34
ENDBRANCH  25  28
ENDBRANCH  23  24
ENDBRANCH  22  23
ENDBRANCH   1  22
TORSDOF 13
ENDMDL
MODEL 2
REMARK VINA RESULT:     -12.5      0.696      2.121
REMARK SMILES CC(C)=CCc1cccc2c(C(=O)NCCCCNC(=O)c3ccc(-c4c5nc(c(-c6c(F)c(F)c(F)c(F)c6F)c6ccc([nH]6)c(-c6c(F)c(F)c(F)c(F)c6F)c6nc(c(-c7c(F)c(F)c(F)c(F)c7F)c7ccc4[nH]7)C=C6)C=C5)cc3)c[nH]c12
REMARK SMILES IDX 16 1 15 2 14 3 12 4 13 5 11 7 6 8 7 9 87 10 8 11 10 12 86 13
REMARK SMILES IDX 9 14 85 15 5 17 4 18 1 19 2 20 3 21 17 22 18 23 19 24 20 25
REMARK SMILES IDX 21 27 22 28 23 29 84 30 24 31 83 32 25 33 26 34 27 35 77 36
REMARK SMILES IDX 28 37 82 38 76 39 78 40 29 41 81 42 75 43 74 44 30 46 62 47
REMARK SMILES IDX 42 48 61 49 43 50 46 51 60 52 79 53 44 54 45 55 59 57 80 58
REMARK SMILES IDX 47 59 31 60 32 61 40 62 33 63 34 64 38 65 41 66 35 67 36 68
REMARK SMILES IDX 39 69 37 70 63 71 64 72 72 73 65 74 66 75 70 76 73 77 67 78
REMARK SMILES IDX 68 79 71 80 69 81 48 82 49 83 57 84 50 85 51 86 55 87 58 88
REMARK SMILES IDX 52 89 53 90 56 91 54 92
REMARK H PARENT 14 6 86 16 19 26 78 45 46 56
REMARK Flexibility Score: inf
ROOT
ATOM      1  C   UNL A   1      33.988  28.334  25.612  1.00  0.00     0.023 C 
ENDROOT
BRANCH   1   2
ATOM      2  C   UNL A   1      33.565  26.919  25.245  1.00  0.00     0.116 C 
BRANCH   2   3
ATOM      3  N   UNL A   1      33.859  26.502  23.890  1.00  0.00    -0.352 N 
ATOM      4  C   UNL A   1      33.234  26.857  22.712  1.00  0.00     0.253 C 
ATOM      5  O   UNL A   1      33.664  26.354  21.673  1.00  0.00    -0.269 OA
ATOM      6  H   UNL A   1      34.612  25.876  23.796  1.00  0.00     0.163 HD
BRANCH   4   7
ATOM      7  C   UNL A   1      32.047  27.717  22.710  1.00  0.00     0.065 A 
ATOM      8  C   UNL A   1      28.517  28.633  22.892  1.00  0.00    -0.020 A 
ATOM      9  C   UNL A   1      27.934  27.499  23.498  1.00  0.00     0.006 A 
ATOM     10  C   UNL A   1      29.922  28.587  22.744  1.00  0.00     0.050 A 
ATOM     11  C   UNL A   1      28.696  26.495  24.078  1.00  0.00     0.001 A 
ATOM     12  C   UNL A   1      30.712  27.529  23.213  1.00  0.00     0.012 A 
ATOM     13  N   UNL A   1      30.789  29.494  22.178  1.00  0.00    -0.360 N 
ATOM     14  C   UNL A   1      30.084  26.540  23.998  1.00  0.00     0.011 A 
ATOM     15  C   UNL A   1      32.058  28.987  22.152  1.00  0.00     0.097 A 
ATOM     16  H   UNL A   1      30.531  30.382  21.840  1.00  0.00     0.166 HD
BRANCH   8  17
ATOM     17  C   UNL A   1      27.655  29.785  22.403  1.00  0.00     0.065 C 
BRANCH  17  18
ATOM     18  C   UNL A   1      28.030  31.108  23.025  1.00  0.00    -0.024 C 
ATOM     19  C   UNL A   1      28.026  32.456  20.910  1.00  0.00     0.039 C 
ATOM     20  C   UNL A   1      28.252  32.272  22.383  1.00  0.00    -0.080 C 
ATOM     21  C   UNL A   1      28.832  33.444  23.127  1.00  0.00     0.039 C 
ENDBRANCH  17  18
ENDBRANCH   8  17
ENDBRANCH   4   7
ENDBRANCH   2   3
ENDBRANCH   1   2
BRANCH   1  22
ATOM     22  C   UNL A   1      32.881  29.383  25.674  1.00  0.00     0.023 C 
BRANCH  22  23
ATOM     23  C   UNL A   1      32.544  29.949  27.050  1.00  0.00     0.116 C 
BRANCH  23  24
ATOM     24  N   UNL A   1      32.653  31.399  27.148  1.00  0.00    -0.352 N 
ATOM     25  C   UNL A   1      33.687  32.184  27.609  1.00  0.00     0.251 C 
ATOM     26  H   UNL A   1      31.862  31.896  26.837  1.00  0.00     0.163 HD
ATOM     27  O   UNL A   1      33.557  33.404  27.659  1.00  0.00    -0.269 OA
BRANCH  25  28
ATOM     28  C   UNL A   1      34.937  31.561  28.096  1.00  0.00     0.039 A 
ATOM     29  C   UNL A   1      36.068  32.367  28.268  1.00  0.00     0.014 A 
ATOM     30  C   UNL A   1      34.993  30.205  28.419  1.00  0.00     0.014 A 
ATOM     31  C   UNL A   1      37.213  31.837  28.868  1.00  0.00     0.010 A 
ATOM     32  C   UNL A   1      36.100  29.702  29.099  1.00  0.00     0.010 A 
ATOM     33  C   UNL A   1      37.218  30.516  29.343  1.00  0.00    -0.014 A 
BRANCH  33  34
ATOM     34  C   UNL A   1      38.367  29.971  30.114  1.00  0.00     0.031 A 
ATOM     35  C   UNL A   1      38.610  30.421  31.529  1.00  0.00     0.074 A 
ATOM     36  C   UNL A   1      39.244  29.140  29.514  1.00  0.00     0.049 A 
ATOM     37  N   UNL A   1      39.610  30.144  32.327  1.00  0.00    -0.248 NA
ATOM     38  C   UNL A   1      37.611  31.329  32.115  1.00  0.00     0.031 C 
ATOM     39  C   UNL A   1      39.158  28.672  28.129  1.00  0.00     0.029 A 
ATOM     40  N   UNL A   1      40.391  28.551  29.989  1.00  0.00    -0.354 N 
ATOM     41  C   UNL A   1      39.374  30.861  33.493  1.00  0.00     0.074 A 
ATOM     42  C   UNL A   1      38.162  31.622  33.283  1.00  0.00     0.031 C 
ATOM     43  C   UNL A   1      40.193  27.856  27.873  1.00  0.00     0.029 A 
ATOM     44  C   UNL A   1      41.039  27.772  29.059  1.00  0.00     0.049 A 
ATOM     45  H   UNL A   1      40.719  28.675  30.909  1.00  0.00     0.167 HD
ATOM     46  C   UNL A   1      40.089  30.864  34.643  1.00  0.00     0.037 A 
ATOM     47  C   UNL A   1      42.189  27.077  29.150  1.00  0.00     0.037 A 
ATOM     48  C   UNL A   1      41.269  30.072  34.867  1.00  0.00     0.049 A 
ATOM     49  C   UNL A   1      42.952  27.086  30.447  1.00  0.00     0.074 A 
ATOM     50  C   UNL A   1      42.018  29.951  36.024  1.00  0.00     0.029 A 
ATOM     51  N   UNL A   1      41.870  29.264  33.915  1.00  0.00    -0.354 N 
ATOM     52  N   UNL A   1      42.675  27.707  31.567  1.00  0.00    -0.248 NA
ATOM     53  C   UNL A   1      44.187  26.289  30.496  1.00  0.00     0.031 C 
ATOM     54  C   UNL A   1      43.097  29.100  35.761  1.00  0.00     0.029 A 
ATOM     55  C   UNL A   1      42.992  28.653  34.453  1.00  0.00     0.049 A 
ATOM     56  H   UNL A   1      41.547  29.141  32.993  1.00  0.00     0.167 HD
ATOM     57  C   UNL A   1      43.679  27.352  32.460  1.00  0.00     0.074 A 
ATOM     58  C   UNL A   1      44.564  26.449  31.756  1.00  0.00     0.031 C 
ATOM     59  C   UNL A   1      43.852  27.741  33.746  1.00  0.00     0.037 A 
BRANCH  46  60
ATOM     60  C   UNL A   1      39.608  31.741  35.762  1.00  0.00     0.064 A 
ATOM     61  C   UNL A   1      40.131  33.026  35.965  1.00  0.00     0.173 A 
ATOM     62  C   UNL A   1      38.572  31.313  36.606  1.00  0.00     0.173 A 
ATOM     63  F   UNL A   1      41.131  33.477  35.193  1.00  0.00    -0.203 F 
ATOM     64  C   UNL A   1      39.649  33.844  36.984  1.00  0.00     0.198 A 
ATOM     65  C   UNL A   1      38.072  32.144  37.605  1.00  0.00     0.198 A 
ATOM     66  F   UNL A   1      38.032  30.094  36.451  1.00  0.00    -0.203 F 
ATOM     67  F   UNL A   1      40.192  35.053  37.183  1.00  0.00    -0.200 F 
ATOM     68  C   UNL A   1      38.615  33.406  37.797  1.00  0.00     0.200 A 
ATOM     69  F   UNL A   1      37.063  31.725  38.381  1.00  0.00    -0.200 F 
ATOM     70  F   UNL A   1      38.142  34.200  38.767  1.00  0.00    -0.200 F 
ENDBRANCH  46  60
BRANCH  47  71
ATOM     71  C   UNL A   1      42.687  26.295  27.988  1.00  0.00     0.064 A 
ATOM     72  C   UNL A   1      43.538  26.879  27.039  1.00  0.00     0.173 A 
ATOM     73  C   UNL A   1      42.299  24.962  27.782  1.00  0.00     0.173 A 
ATOM     74  F   UNL A   1      43.918  28.157  27.178  1.00  0.00    -0.203 F 
ATOM     75  C   UNL A   1      43.957  26.171  25.914  1.00  0.00     0.198 A 
ATOM     76  C   UNL A   1      42.745  24.247  26.672  1.00  0.00     0.198 A 
ATOM     77  F   UNL A   1      41.490  24.355  28.661  1.00  0.00    -0.203 F 
ATOM     78  F   UNL A   1      44.724  26.774  24.994  1.00  0.00    -0.200 F 
ATOM     79  C   UNL A   1      43.564  24.854  25.733  1.00  0.00     0.200 A 
ATOM     80  F   UNL A   1      42.372  22.969  26.509  1.00  0.00    -0.200 F 
ATOM     81  F   UNL A   1      43.965  24.175  24.650  1.00  0.00    -0.200 F 
ENDBRANCH  47  71
BRANCH  59  82
ATOM     82  C   UNL A   1      45.016  27.158  34.493  1.00  0.00     0.064 A 
ATOM     83  C   UNL A   1      46.260  27.801  34.537  1.00  0.00     0.173 A 
ATOM     84  C   UNL A   1      44.867  25.960  35.209  1.00  0.00     0.173 A 
ATOM     85  F   UNL A   1      46.455  28.942  33.857  1.00  0.00    -0.203 F 
ATOM     86  C   UNL A   1      47.322  27.254  35.253  1.00  0.00     0.198 A 
ATOM     87  C   UNL A   1      45.922  25.432  35.947  1.00  0.00     0.198 A 
ATOM     88  F   UNL A   1      43.694  25.309  35.204  1.00  0.00    -0.203 F 
ATOM     89  F   UNL A   1      48.516  27.861  35.243  1.00  0.00    -0.200 F 
ATOM     90  C   UNL A   1      47.150  26.074  35.962  1.00  0.00     0.200 A 
ATOM     91  F   UNL A   1      45.750  24.299  36.643  1.00  0.00    -0.200 F 
ATOM     92  F   UNL A   1      48.172  25.554  36.655  1.00  0.00    -0.200 F 
ENDBRANCH  59  82
ENDBRANCH  33  34
ENDBRANCH  25  28
ENDBRANCH  23  24
ENDBRANCH  22  23
ENDBRANCH   1  22
TORSDOF 13
ENDMDL
MODEL 3
REMARK VINA RESULT:     -12.5      0.464      7.573
REMARK SMILES CC(C)=CCc1cccc2c(C(=O)NCCCCNC(=O)c3ccc(-c4c5nc(c(-c6c(F)c(F)c(F)c(F)c6F)c6ccc([nH]6)c(-c6c(F)c(F)c(F)c(F)c6F)c6nc(c(-c7c(F)c(F)c(F)c(F)c7F)c7ccc4[nH]7)C=C6)C=C5)cc3)c[nH]c12
REMARK SMILES IDX 16 1 15 2 14 3 12 4 13 5 11 7 6 8 7 9 87 10 8 11 10 12 86 13
REMARK SMILES IDX 9 14 85 15 5 17 4 18 1 19 2 20 3 21 17 22 18 23 19 24 20 25
REMARK SMILES IDX 21 27 22 28 23 29 84 30 24 31 83 32 25 33 26 34 27 35 77 36
REMARK SMILES IDX 28 37 82 38 76 39 78 40 29 41 81 42 75 43 74 44 30 46 62 47
REMARK SMILES IDX 42 48 61 49 43 50 46 51 60 52 79 53 44 54 45 55 59 57 80 58
REMARK SMILES IDX 47 59 31 60 32 61 40 62 33 63 34 64 38 65 41 66 35 67 36 68
REMARK SMILES IDX 39 69 37 70 63 71 64 72 72 73 65 74 66 75 70 76 73 77 67 78
REMARK SMILES IDX 68 79 71 80 69 81 48 82 49 83 57 84 50 85 51 86 55 87 58 88
REMARK SMILES IDX 52 89 53 90 56 91 54 92
REMARK H PARENT 14 6 86 16 19 26 78 45 46 56
REMARK Flexibility Score: inf
ROOT
ATOM      1  C   UNL A   1      32.582  27.538  26.666  1.00  0.00     0.023 C 
ENDROOT
BRANCH   1   2
ATOM      2  C   UNL A   1      33.876  27.372  25.882  1.00  0.00     0.116 C 
BRANCH   2   3
ATOM      3  N   UNL A   1      33.889  26.310  24.898  1.00  0.00    -0.352 N 
ATOM      4  C   UNL A   1      33.241  26.238  23.682  1.00  0.00     0.253 C 
ATOM      5  O   UNL A   1      33.398  25.212  23.019  1.00  0.00    -0.269 OA
ATOM      6  H   UNL A   1      34.439  25.527  25.130  1.00  0.00     0.163 HD
BRANCH   4   7
ATOM      7  C   UNL A   1      32.324  27.296  23.247  1.00  0.00     0.065 A 
ATOM      8  C   UNL A   1      29.165  28.902  22.365  1.00  0.00    -0.020 A 
ATOM      9  C   UNL A   1      28.208  28.046  22.955  1.00  0.00     0.006 A 
ATOM     10  C   UNL A   1      30.514  28.553  22.598  1.00  0.00     0.050 A 
ATOM     11  C   UNL A   1      28.560  27.049  23.852  1.00  0.00     0.001 A 
ATOM     12  C   UNL A   1      30.905  27.476  23.405  1.00  0.00     0.012 A 
ATOM     13  N   UNL A   1      31.676  29.142  22.153  1.00  0.00    -0.360 N 
ATOM     14  C   UNL A   1      29.900  26.805  24.132  1.00  0.00     0.011 A 
ATOM     15  C   UNL A   1      32.761  28.402  22.533  1.00  0.00     0.097 A 
ATOM     16  H   UNL A   1      31.720  29.978  21.634  1.00  0.00     0.166 HD
BRANCH   8  17
ATOM     17  C   UNL A   1      28.733  30.079  21.507  1.00  0.00     0.065 C 
BRANCH  17  18
ATOM     18  C   UNL A   1      29.200  31.407  22.051  1.00  0.00    -0.024 C 
ATOM     19  C   UNL A   1      27.432  31.660  23.811  1.00  0.00     0.039 C 
ATOM     20  C   UNL A   1      28.613  32.140  23.018  1.00  0.00    -0.080 C 
ATOM     21  C   UNL A   1      29.082  33.544  23.290  1.00  0.00     0.039 C 
ENDBRANCH  17  18
ENDBRANCH   8  17
ENDBRANCH   4   7
ENDBRANCH   2   3
ENDBRANCH   1   2
BRANCH   1  22
ATOM     22  C   UNL A   1      31.886  28.892  26.555  1.00  0.00     0.023 C 
BRANCH  22  23
ATOM     23  C   UNL A   1      32.676  30.022  25.902  1.00  0.00     0.116 C 
BRANCH  23  24
ATOM     24  N   UNL A   1      32.388  31.346  26.438  1.00  0.00    -0.352 N 
ATOM     25  C   UNL A   1      33.124  32.140  27.289  1.00  0.00     0.251 C 
ATOM     26  H   UNL A   1      31.532  31.734  26.145  1.00  0.00     0.163 HD
ATOM     27  O   UNL A   1      32.673  33.218  27.669  1.00  0.00    -0.269 OA
BRANCH  25  28
ATOM     28  C   UNL A   1      34.436  31.679  27.794  1.00  0.00     0.039 A 
ATOM     29  C   UNL A   1      35.468  32.612  27.936  1.00  0.00     0.014 A 
ATOM     30  C   UNL A   1      34.643  30.349  28.163  1.00  0.00     0.014 A 
ATOM     31  C   UNL A   1      36.665  32.234  28.551  1.00  0.00     0.010 A 
ATOM     32  C   UNL A   1      35.799  29.998  28.857  1.00  0.00     0.010 A 
ATOM     33  C   UNL A   1      36.818  30.939  29.070  1.00  0.00    -0.014 A 
BRANCH  33  34
ATOM     34  C   UNL A   1      38.019  30.553  29.857  1.00  0.00     0.031 A 
ATOM     35  C   UNL A   1      39.011  29.573  29.293  1.00  0.00     0.074 A 
ATOM     36  C   UNL A   1      38.173  31.015  31.116  1.00  0.00     0.049 A 
ATOM     37  N   UNL A   1      40.059  29.033  29.862  1.00  0.00    -0.248 NA
ATOM     38  C   UNL A   1      38.775  29.112  27.915  1.00  0.00     0.031 C 
ATOM     39  C   UNL A   1      37.254  31.923  31.804  1.00  0.00     0.029 A 
ATOM     40  N   UNL A   1      39.153  30.770  32.048  1.00  0.00    -0.354 N 
ATOM     41  C   UNL A   1      40.589  28.156  28.925  1.00  0.00     0.074 A 
ATOM     42  C   UNL A   1      39.723  28.198  27.768  1.00  0.00     0.031 C 
ATOM     43  C   UNL A   1      37.722  32.175  33.037  1.00  0.00     0.029 A 
ATOM     44  C   UNL A   1      38.951  31.417  33.244  1.00  0.00     0.049 A 
ATOM     45  H   UNL A   1      39.927  30.187  31.875  1.00  0.00     0.167 HD
ATOM     46  C   UNL A   1      41.711  27.403  29.012  1.00  0.00     0.037 A 
ATOM     47  C   UNL A   1      39.671  31.392  34.383  1.00  0.00     0.037 A 
ATOM     48  C   UNL A   1      42.598  27.395  30.146  1.00  0.00     0.049 A 
ATOM     49  C   UNL A   1      40.923  30.559  34.443  1.00  0.00     0.074 A 
ATOM     50  C   UNL A   1      43.798  26.722  30.296  1.00  0.00     0.029 A 
ATOM     51  N   UNL A   1      42.381  28.095  31.322  1.00  0.00    -0.354 N 
ATOM     52  N   UNL A   1      41.454  29.794  33.521  1.00  0.00    -0.248 NA
ATOM     53  C   UNL A   1      41.681  30.592  35.703  1.00  0.00     0.031 C 
ATOM     54  C   UNL A   1      44.288  26.983  31.579  1.00  0.00     0.029 A 
ATOM     55  C   UNL A   1      43.418  27.857  32.211  1.00  0.00     0.049 A 
ATOM     56  H   UNL A   1      41.606  28.676  31.500  1.00  0.00     0.167 HD
ATOM     57  C   UNL A   1      42.621  29.282  34.075  1.00  0.00     0.074 A 
ATOM     58  C   UNL A   1      42.729  29.834  35.408  1.00  0.00     0.031 C 
ATOM     59  C   UNL A   1      43.521  28.430  33.527  1.00  0.00     0.037 A 
BRANCH  46  60
ATOM     60  C   UNL A   1      42.060  26.531  27.842  1.00  0.00     0.064 A 
ATOM     61  C   UNL A   1      42.987  26.939  26.872  1.00  0.00     0.173 A 
ATOM     62  C   UNL A   1      41.504  25.248  27.720  1.00  0.00     0.173 A 
ATOM     63  F   UNL A   1      43.538  28.160  26.938  1.00  0.00    -0.203 F 
ATOM     64  C   UNL A   1      43.331  26.104  25.812  1.00  0.00     0.198 A 
ATOM     65  C   UNL A   1      41.872  24.404  26.675  1.00  0.00     0.198 A 
ATOM     66  F   UNL A   1      40.616  24.806  28.624  1.00  0.00    -0.203 F 
ATOM     67  F   UNL A   1      44.189  26.532  24.876  1.00  0.00    -0.200 F 
ATOM     68  C   UNL A   1      42.779  24.835  25.719  1.00  0.00     0.200 A 
ATOM     69  F   UNL A   1      41.349  23.173  26.594  1.00  0.00    -0.200 F 
ATOM     70  F   UNL A   1      43.123  24.028  24.707  1.00  0.00    -0.200 F 
ENDBRANCH  46  60
BRANCH  47  71
ATOM     71  C   UNL A   1      39.243  32.195  35.558  1.00  0.00     0.064 A 
ATOM     72  C   UNL A   1      39.653  33.528  35.707  1.00  0.00     0.173 A 
ATOM     73  C   UNL A   1      38.445  31.643  36.572  1.00  0.00     0.173 A 
ATOM     74  F   UNL A   1      40.435  34.095  34.777  1.00  0.00    -0.203 F 
ATOM     75  C   UNL A   1      39.307  34.267  36.837  1.00  0.00     0.198 A 
ATOM     76  C   UNL A   1      38.075  32.393  37.686  1.00  0.00     0.198 A 
ATOM     77  F   UNL A   1      38.022  30.374  36.477  1.00  0.00    -0.203 F 
ATOM     78  F   UNL A   1      39.762  35.520  36.980  1.00  0.00    -0.200 F 
ATOM     79  C   UNL A   1      38.516  33.701  37.824  1.00  0.00     0.200 A 
ATOM     80  F   UNL A   1      37.299  31.845  38.632  1.00  0.00    -0.200 F 
ATOM     81  F   UNL A   1      38.187  34.410  38.912  1.00  0.00    -0.200 F 
ENDBRANCH  47  71
BRANCH  59  82
ATOM     82  C   UNL A   1      44.725  28.076  34.350  1.00  0.00     0.064 A 
ATOM     83  C   UNL A   1      45.890  28.855  34.324  1.00  0.00     0.173 A 
ATOM     84  C   UNL A   1      44.693  26.967  35.209  1.00  0.00     0.173 A 
ATOM     85  F   UNL A   1      45.975  29.918  33.509  1.00  0.00    -0.203 F 
ATOM     86  C   UNL A   1      46.990  28.522  35.111  1.00  0.00     0.198 A 
ATOM     87  C   UNL A   1      45.783  26.654  36.015  1.00  0.00     0.198 A 
ATOM     88  F   UNL A   1      43.599  26.194  35.275  1.00  0.00    -0.203 F 
ATOM     89  F   UNL A   1      48.111  29.252  35.035  1.00  0.00    -0.200 F 
ATOM     90  C   UNL A   1      46.933  27.426  35.960  1.00  0.00     0.200 A 
ATOM     91  F   UNL A   1      45.721  25.604  36.846  1.00  0.00    -0.200 F 
ATOM     92  F   UNL A   1      47.990  27.112  36.721  1.00  0.00    -0.200 F 
ENDBRANCH  59  82
ENDBRANCH  33  34
ENDBRANCH  25  28
ENDBRANCH  23  24
ENDBRANCH  22  23
ENDBRANCH   1  22
TORSDOF 13
ENDMDL
