MODEL 1
REMARK VINA RESULT:     -10.6      0.000      0.000
REMARK SMILES O=C(NCCCCNC(=O)c1ccc(-c2ccn(C(F)F)c(=O)c2)cc1O)c1ccc(-c2c3nc(c(-c4c(F)c(F)c(F)c(F)c4F)c4ccc([nH]4)c(-c4c(F)c(F)c(F)c(F)c4F)c4nc(c(-c5c(F)c(F)c(F)c(F)c5F)c5ccc2[nH]5)C=C4)C=C3)cc1
REMARK SMILES IDX 5 1 4 2 3 3 1 4 2 5 28 7 29 8 90 9 30 10 89 11 31 12 32 13
REMARK SMILES IDX 33 14 83 15 34 16 88 17 82 18 84 19 35 20 87 21 81 22 80 23
REMARK SMILES IDX 36 25 68 26 48 27 67 28 49 29 52 30 66 31 85 32 50 33 51 34
REMARK SMILES IDX 65 36 86 37 53 38 37 39 38 40 46 41 39 42 40 43 44 44 47 45
REMARK SMILES IDX 41 46 42 47 45 48 43 49 69 50 70 51 78 52 71 53 72 54 76 55
REMARK SMILES IDX 79 56 73 57 74 58 77 59 75 60 54 61 55 62 63 63 56 64 57 65
REMARK SMILES IDX 61 66 64 67 58 68 59 69 62 70 60 71 6 72 7 73 8 74 9 75
REMARK SMILES IDX 10 77 11 78 12 79 26 80 13 81 25 82 14 83 27 84 15 86 16 87
REMARK SMILES IDX 24 88 17 89 22 90 18 91 23 92 19 93 20 94 21 95
REMARK H PARENT 3 6 84 24 52 35 8 76 27 85
REMARK Flexibility Score: inf
ROOT
ATOM      1  C   UNL A   1      34.988  33.800  28.373  1.00  0.00     0.023 C 
ENDROOT
BRANCH   1   2
ATOM      2  C   UNL A   1      34.678  32.558  29.203  1.00  0.00     0.116 C 
BRANCH   2   3
ATOM      3  N   UNL A   1      34.014  31.519  28.433  1.00  0.00    -0.352 N 
ATOM      4  O   UNL A   1      33.817  29.685  27.146  1.00  0.00    -0.269 OA
ATOM      5  C   UNL A   1      34.522  30.367  27.888  1.00  0.00     0.251 C 
ATOM      6  H   UNL A   1      33.053  31.663  28.280  1.00  0.00     0.163 HD
BRANCH   5   7
ATOM      7  C   UNL A   1      35.910  29.935  28.169  1.00  0.00     0.039 A 
ATOM      8  C   UNL A   1      36.190  29.359  29.414  1.00  0.00     0.014 A 
ATOM      9  C   UNL A   1      36.943  30.150  27.254  1.00  0.00     0.014 A 
ATOM     10  C   UNL A   1      37.494  28.963  29.724  1.00  0.00     0.010 A 
ATOM     11  C   UNL A   1      38.234  29.709  27.543  1.00  0.00     0.010 A 
ATOM     12  C   UNL A   1      38.524  29.120  28.784  1.00  0.00    -0.014 A 
BRANCH  12  13
ATOM     13  C   UNL A   1      39.923  28.730  29.097  1.00  0.00     0.031 A 
ATOM     14  C   UNL A   1      40.791  29.657  29.902  1.00  0.00     0.074 A 
ATOM     15  C   UNL A   1      40.424  27.568  28.638  1.00  0.00     0.049 A 
ATOM     16  N   UNL A   1      42.070  29.573  30.171  1.00  0.00    -0.248 NA
ATOM     17  C   UNL A   1      40.135  30.845  30.473  1.00  0.00     0.031 C 
ATOM     18  C   UNL A   1      39.682  26.572  27.864  1.00  0.00     0.029 A 
ATOM     19  N   UNL A   1      41.682  27.030  28.753  1.00  0.00    -0.354 N 
ATOM     20  C   UNL A   1      42.371  30.696  30.929  1.00  0.00     0.074 A 
ATOM     21  C   UNL A   1      41.152  31.467  31.051  1.00  0.00     0.031 C 
ATOM     22  C   UNL A   1      40.493  25.537  27.591  1.00  0.00     0.029 A 
ATOM     23  C   UNL A   1      41.822  25.814  28.130  1.00  0.00     0.049 A 
ATOM     24  H   UNL A   1      42.415  27.475  29.237  1.00  0.00     0.167 HD
ATOM     25  C   UNL A   1      43.554  31.045  31.487  1.00  0.00     0.037 A 
ATOM     26  C   UNL A   1      42.903  25.021  28.000  1.00  0.00     0.037 A 
ATOM     27  C   UNL A   1      44.763  30.270  31.384  1.00  0.00     0.049 A 
ATOM     28  C   UNL A   1      44.215  25.455  28.597  1.00  0.00     0.074 A 
ATOM     29  C   UNL A   1      46.019  30.560  31.889  1.00  0.00     0.029 A 
ATOM     30  N   UNL A   1      44.859  29.043  30.748  1.00  0.00    -0.354 N 
ATOM     31  N   UNL A   1      44.495  26.534  29.285  1.00  0.00    -0.248 NA
ATOM     32  C   UNL A   1      45.363  24.558  28.398  1.00  0.00     0.031 C 
ATOM     33  C   UNL A   1      46.880  29.514  31.544  1.00  0.00     0.029 A 
ATOM     34  C   UNL A   1      46.152  28.558  30.857  1.00  0.00     0.049 A 
ATOM     35  H   UNL A   1      44.119  28.585  30.287  1.00  0.00     0.167 HD
ATOM     36  C   UNL A   1      45.836  26.429  29.630  1.00  0.00     0.074 A 
ATOM     37  C   UNL A   1      46.314  25.178  29.082  1.00  0.00     0.031 C 
ATOM     38  C   UNL A   1      46.600  27.293  30.339  1.00  0.00     0.037 A 
BRANCH  25  39
ATOM     39  C   UNL A   1      43.605  32.315  32.280  1.00  0.00     0.064 A 
ATOM     40  C   UNL A   1      43.833  33.550  31.656  1.00  0.00     0.173 A 
ATOM     41  C   UNL A   1      43.346  32.309  33.658  1.00  0.00     0.173 A 
ATOM     42  F   UNL A   1      44.100  33.603  30.343  1.00  0.00    -0.203 F 
ATOM     43  C   UNL A   1      43.802  34.736  32.385  1.00  0.00     0.198 A 
ATOM     44  C   UNL A   1      43.293  33.499  34.380  1.00  0.00     0.198 A 
ATOM     45  F   UNL A   1      43.119  31.153  34.300  1.00  0.00    -0.203 F 
ATOM     46  F   UNL A   1      44.043  35.903  31.773  1.00  0.00    -0.200 F 
ATOM     47  C   UNL A   1      43.522  34.710  33.743  1.00  0.00     0.200 A 
ATOM     48  F   UNL A   1      43.012  33.475  35.690  1.00  0.00    -0.200 F 
ATOM     49  F   UNL A   1      43.473  35.854  34.440  1.00  0.00    -0.200 F 
ENDBRANCH  25  39
BRANCH  26  50
ATOM     50  C   UNL A   1      42.795  23.720  27.291  1.00  0.00     0.064 A 
ATOM     51  C   UNL A   1      42.297  22.587  27.951  1.00  0.00     0.173 A 
ATOM     52  C   UNL A   1      43.206  23.572  25.959  1.00  0.00     0.173 A 
ATOM     53  F   UNL A   1      41.917  22.675  29.235  1.00  0.00    -0.203 F 
ATOM     54  C   UNL A   1      42.234  21.351  27.313  1.00  0.00     0.198 A 
ATOM     55  C   UNL A   1      43.118  22.341  25.313  1.00  0.00     0.198 A 
ATOM     56  F   UNL A   1      43.691  24.624  25.285  1.00  0.00    -0.203 F 
ATOM     57  F   UNL A   1      41.800  20.275  27.982  1.00  0.00    -0.200 F 
ATOM     58  C   UNL A   1      42.641  21.230  25.993  1.00  0.00     0.200 A 
ATOM     59  F   UNL A   1      43.503  22.228  24.035  1.00  0.00    -0.200 F 
ATOM     60  F   UNL A   1      42.582  20.040  25.378  1.00  0.00    -0.200 F 
ENDBRANCH  26  50
BRANCH  38  61
ATOM     61  C   UNL A   1      48.017  26.893  30.622  1.00  0.00     0.064 A 
ATOM     62  C   UNL A   1      49.073  27.285  29.789  1.00  0.00     0.173 A 
ATOM     63  C   UNL A   1      48.324  26.158  31.777  1.00  0.00     0.173 A 
ATOM     64  F   UNL A   1      48.828  27.980  28.668  1.00  0.00    -0.203 F 
ATOM     65  C   UNL A   1      50.388  26.939  30.093  1.00  0.00     0.198 A 
ATOM     66  C   UNL A   1      49.641  25.834  32.090  1.00  0.00     0.198 A 
ATOM     67  F   UNL A   1      47.348  25.767  32.609  1.00  0.00    -0.203 F 
ATOM     68  F   UNL A   1      51.381  27.294  29.266  1.00  0.00    -0.200 F 
ATOM     69  C   UNL A   1      50.670  26.220  31.245  1.00  0.00     0.200 A 
ATOM     70  F   UNL A   1      49.913  25.150  33.210  1.00  0.00    -0.200 F 
ATOM     71  F   UNL A   1      51.937  25.896  31.541  1.00  0.00    -0.200 F 
ENDBRANCH  38  61
ENDBRANCH  12  13
ENDBRANCH   5   7
ENDBRANCH   2   3
ENDBRANCH   1   2
BRANCH   1  72
ATOM     72  C   UNL A   1      34.237  35.072  28.773  1.00  0.00     0.023 C 
BRANCH  72  73
ATOM     73  C   UNL A   1      33.134  34.895  29.812  1.00  0.00     0.116 C 
BRANCH  73  74
ATOM     74  N   UNL A   1      33.168  35.915  30.843  1.00  0.00    -0.352 N 
ATOM     75  C   UNL A   1      33.917  35.954  31.992  1.00  0.00     0.255 C 
ATOM     76  H   UNL A   1      32.570  36.684  30.700  1.00  0.00     0.163 HD
ATOM     77  O   UNL A   1      33.778  36.884  32.785  1.00  0.00    -0.269 OA
BRANCH  75  78
ATOM     78  C   UNL A   1      34.834  34.847  32.332  1.00  0.00     0.081 A 
ATOM     79  C   UNL A   1      36.178  35.000  31.973  1.00  0.00     0.018 A 
ATOM     80  C   UNL A   1      34.411  33.667  32.950  1.00  0.00     0.128 A 
ATOM     81  C   UNL A   1      37.104  34.000  32.281  1.00  0.00     0.010 A 
ATOM     82  C   UNL A   1      35.338  32.672  33.269  1.00  0.00     0.055 A 
ATOM     83  C   UNL A   1      36.695  32.838  32.949  1.00  0.00    -0.014 A 
BRANCH  80  84
ATOM     84  O   UNL A   1      33.091  33.475  33.250  1.00  0.00    -0.507 OA
ATOM     85  H   UNL A   1      32.458  33.417  32.561  1.00  0.00     0.293 HD
ENDBRANCH  80  84
BRANCH  83  86
ATOM     86  C   UNL A   1      37.668  31.786  33.313  1.00  0.00    -0.011 A 
ATOM     87  C   UNL A   1      38.932  32.078  33.963  1.00  0.00     0.027 A 
ATOM     88  C   UNL A   1      37.379  30.512  32.997  1.00  0.00     0.080 A 
ATOM     89  C   UNL A   1      39.801  31.099  34.234  1.00  0.00     0.095 A 
ATOM     90  C   UNL A   1      38.331  29.408  33.304  1.00  0.00     0.255 A 
ATOM     91  N   UNL A   1      39.517  29.784  33.912  1.00  0.00    -0.258 N 
ATOM     92  O   UNL A   1      38.014  28.262  32.998  1.00  0.00    -0.269 OA
BRANCH  91  93
ATOM     93  C   UNL A   1      40.461  28.737  34.205  1.00  0.00     0.451 C 
ATOM     94  F   UNL A   1      41.317  28.547  33.173  1.00  0.00    -0.185 F 
ATOM     95  F   UNL A   1      41.189  29.036  35.309  1.00  0.00    -0.185 F 
ENDBRANCH  91  93
ENDBRANCH  83  86
ENDBRANCH  75  78
ENDBRANCH  73  74
ENDBRANCH  72  73
ENDBRANCH   1  72
TORSDOF 14
ENDMDL
MODEL 2
REMARK VINA RESULT:     -10.5      4.310      7.209
REMARK SMILES O=C(NCCCCNC(=O)c1ccc(-c2ccn(C(F)F)c(=O)c2)cc1O)c1ccc(-c2c3nc(c(-c4c(F)c(F)c(F)c(F)c4F)c4ccc([nH]4)c(-c4c(F)c(F)c(F)c(F)c4F)c4nc(c(-c5c(F)c(F)c(F)c(F)c5F)c5ccc2[nH]5)C=C4)C=C3)cc1
REMARK SMILES IDX 5 1 4 2 3 3 1 4 2 5 28 7 29 8 90 9 30 10 89 11 31 12 32 13
REMARK SMILES IDX 33 14 83 15 34 16 88 17 82 18 84 19 35 20 87 21 81 22 80 23
REMARK SMILES IDX 36 25 68 26 48 27 67 28 49 29 52 30 66 31 85 32 50 33 51 34
REMARK SMILES IDX 65 36 86 37 53 38 37 39 38 40 46 41 39 42 40 43 44 44 47 45
REMARK SMILES IDX 41 46 42 47 45 48 43 49 69 50 70 51 78 52 71 53 72 54 76 55
REMARK SMILES IDX 79 56 73 57 74 58 77 59 75 60 54 61 55 62 63 63 56 64 57 65
REMARK SMILES IDX 61 66 64 67 58 68 59 69 62 70 60 71 6 72 7 73 8 74 9 75
REMARK SMILES IDX 10 77 11 78 12 79 26 80 13 81 25 82 14 83 27 84 15 86 16 87
REMARK SMILES IDX 24 88 17 89 22 90 18 91 23 92 19 93 20 94 21 95
REMARK H PARENT 3 6 84 24 52 35 8 76 27 85
REMARK Flexibility Score: inf
ROOT
ATOM      1  C   UNL A   1      33.667  28.000  25.550  1.00  0.00     0.023 C 
ENDROOT
BRANCH   1   2
ATOM      2  C   UNL A   1      33.692  28.271  27.051  1.00  0.00     0.116 C 
BRANCH   2   3
ATOM      3  N   UNL A   1      33.581  29.686  27.368  1.00  0.00    -0.352 N 
ATOM      4  O   UNL A   1      34.133  31.663  28.285  1.00  0.00    -0.269 OA
ATOM      5  C   UNL A   1      34.478  30.523  27.982  1.00  0.00     0.251 C 
ATOM      6  H   UNL A   1      32.733  30.107  27.102  1.00  0.00     0.163 HD
BRANCH   5   7
ATOM      7  C   UNL A   1      35.853  30.073  28.294  1.00  0.00     0.039 A 
ATOM      8  C   UNL A   1      36.116  29.569  29.573  1.00  0.00     0.014 A 
ATOM      9  C   UNL A   1      36.893  30.202  27.371  1.00  0.00     0.014 A 
ATOM     10  C   UNL A   1      37.408  29.158  29.912  1.00  0.00     0.010 A 
ATOM     11  C   UNL A   1      38.172  29.746  27.691  1.00  0.00     0.010 A 
ATOM     12  C   UNL A   1      38.444  29.228  28.968  1.00  0.00    -0.014 A 
BRANCH  12  13
ATOM     13  C   UNL A   1      39.831  28.821  29.310  1.00  0.00     0.031 A 
ATOM     14  C   UNL A   1      40.674  29.711  30.181  1.00  0.00     0.074 A 
ATOM     15  C   UNL A   1      40.344  27.677  28.819  1.00  0.00     0.049 A 
ATOM     16  N   UNL A   1      41.943  29.611  30.487  1.00  0.00    -0.248 NA
ATOM     17  C   UNL A   1      40.001  30.876  30.779  1.00  0.00     0.031 C 
ATOM     18  C   UNL A   1      39.626  26.717  27.980  1.00  0.00     0.029 A 
ATOM     19  N   UNL A   1      41.597  27.131  28.953  1.00  0.00    -0.354 N 
ATOM     20  C   UNL A   1      42.221  30.701  31.301  1.00  0.00     0.074 A 
ATOM     21  C   UNL A   1      41.000  31.470  31.416  1.00  0.00     0.031 C 
ATOM     22  C   UNL A   1      40.444  25.691  27.691  1.00  0.00     0.029 A 
ATOM     23  C   UNL A   1      41.755  25.941  28.285  1.00  0.00     0.049 A 
ATOM     24  H   UNL A   1      42.315  27.553  29.479  1.00  0.00     0.167 HD
ATOM     25  C   UNL A   1      43.386  31.022  31.912  1.00  0.00     0.037 A 
ATOM     26  C   UNL A   1      42.838  25.152  28.157  1.00  0.00     0.037 A 
ATOM     27  C   UNL A   1      44.597  30.249  31.815  1.00  0.00     0.049 A 
ATOM     28  C   UNL A   1      44.131  25.556  28.814  1.00  0.00     0.074 A 
ATOM     29  C   UNL A   1      45.836  30.513  32.373  1.00  0.00     0.029 A 
ATOM     30  N   UNL A   1      44.711  29.049  31.133  1.00  0.00    -0.354 N 
ATOM     31  N   UNL A   1      44.390  26.604  29.555  1.00  0.00    -0.248 NA
ATOM     32  C   UNL A   1      45.283  24.664  28.614  1.00  0.00     0.031 C 
ATOM     33  C   UNL A   1      46.706  29.479  32.013  1.00  0.00     0.029 A 
ATOM     34  C   UNL A   1      45.998  28.555  31.264  1.00  0.00     0.049 A 
ATOM     35  H   UNL A   1      43.986  28.613  30.629  1.00  0.00     0.167 HD
ATOM     36  C   UNL A   1      45.719  26.481  29.939  1.00  0.00     0.074 A 
ATOM     37  C   UNL A   1      46.212  25.253  29.354  1.00  0.00     0.031 C 
ATOM     38  C   UNL A   1      46.461  27.312  30.708  1.00  0.00     0.037 A 
BRANCH  25  39
ATOM     39  C   UNL A   1      43.414  32.258  32.758  1.00  0.00     0.064 A 
ATOM     40  C   UNL A   1      43.146  32.200  34.134  1.00  0.00     0.173 A 
ATOM     41  C   UNL A   1      43.789  33.493  32.211  1.00  0.00     0.173 A 
ATOM     42  F   UNL A   1      42.770  31.043  34.699  1.00  0.00    -0.203 F 
ATOM     43  C   UNL A   1      43.249  33.337  34.931  1.00  0.00     0.198 A 
ATOM     44  C   UNL A   1      43.912  34.623  33.014  1.00  0.00     0.198 A 
ATOM     45  F   UNL A   1      44.057  33.599  30.900  1.00  0.00    -0.203 F 
ATOM     46  F   UNL A   1      42.968  33.264  36.238  1.00  0.00    -0.200 F 
ATOM     47  C   UNL A   1      43.642  34.544  34.372  1.00  0.00     0.200 A 
ATOM     48  F   UNL A   1      44.303  35.787  32.476  1.00  0.00    -0.200 F 
ATOM     49  F   UNL A   1      43.759  35.633  35.144  1.00  0.00    -0.200 F 
ENDBRANCH  25  39
BRANCH  26  50
ATOM     50  C   UNL A   1      42.751  23.882  27.391  1.00  0.00     0.064 A 
ATOM     51  C   UNL A   1      42.334  22.698  28.017  1.00  0.00     0.173 A 
ATOM     52  C   UNL A   1      43.103  23.814  26.035  1.00  0.00     0.173 A 
ATOM     53  F   UNL A   1      42.012  22.709  29.320  1.00  0.00    -0.203 F 
ATOM     54  C   UNL A   1      42.292  21.491  27.323  1.00  0.00     0.198 A 
ATOM     55  C   UNL A   1      43.036  22.612  25.335  1.00  0.00     0.198 A 
ATOM     56  F   UNL A   1      43.510  24.917  25.392  1.00  0.00    -0.203 F 
ATOM     57  F   UNL A   1      41.936  20.367  27.958  1.00  0.00    -0.200 F 
ATOM     58  C   UNL A   1      42.639  21.450  25.981  1.00  0.00     0.200 A 
ATOM     59  F   UNL A   1      43.364  22.576  24.037  1.00  0.00    -0.200 F 
ATOM     60  F   UNL A   1      42.601  20.289  25.313  1.00  0.00    -0.200 F 
ENDBRANCH  26  50
BRANCH  38  61
ATOM     61  C   UNL A   1      47.867  26.896  31.020  1.00  0.00     0.064 A 
ATOM     62  C   UNL A   1      48.160  26.031  32.083  1.00  0.00     0.173 A 
ATOM     63  C   UNL A   1      48.925  27.324  30.205  1.00  0.00     0.173 A 
ATOM     64  F   UNL A   1      47.183  25.605  32.897  1.00  0.00    -0.203 F 
ATOM     65  C   UNL A   1      49.469  25.623  32.330  1.00  0.00     0.198 A 
ATOM     66  C   UNL A   1      50.229  26.895  30.440  1.00  0.00     0.198 A 
ATOM     67  F   UNL A   1      48.693  28.145  29.170  1.00  0.00    -0.203 F 
ATOM     68  F   UNL A   1      49.734  24.823  33.372  1.00  0.00    -0.200 F 
ATOM     69  C   UNL A   1      50.499  26.050  31.505  1.00  0.00     0.200 A 
ATOM     70  F   UNL A   1      51.221  27.299  29.635  1.00  0.00    -0.200 F 
ATOM     71  F   UNL A   1      51.757  25.649  31.739  1.00  0.00    -0.200 F 
ENDBRANCH  38  61
ENDBRANCH  12  13
ENDBRANCH   5   7
ENDBRANCH   2   3
ENDBRANCH   1   2
BRANCH   1  72
ATOM     72  C   UNL A   1      33.437  29.222  24.657  1.00  0.00     0.023 C 
BRANCH  72  73
ATOM     73  C   UNL A   1      33.392  28.949  23.156  1.00  0.00     0.116 C 
BRANCH  73  74
ATOM     74  N   UNL A   1      32.053  29.058  22.608  1.00  0.00    -0.352 N 
ATOM     75  C   UNL A   1      31.155  28.059  22.325  1.00  0.00     0.255 C 
ATOM     76  H   UNL A   1      31.747  29.972  22.410  1.00  0.00     0.163 HD
ATOM     77  O   UNL A   1      30.072  28.335  21.811  1.00  0.00    -0.269 OA
BRANCH  75  78
ATOM     78  C   UNL A   1      31.506  26.643  22.555  1.00  0.00     0.081 A 
ATOM     79  C   UNL A   1      30.834  25.979  23.588  1.00  0.00     0.018 A 
ATOM     80  C   UNL A   1      32.486  25.970  21.819  1.00  0.00     0.128 A 
ATOM     81  C   UNL A   1      31.102  24.633  23.847  1.00  0.00     0.010 A 
ATOM     82  C   UNL A   1      32.747  24.621  22.070  1.00  0.00     0.055 A 
ATOM     83  C   UNL A   1      32.046  23.938  23.078  1.00  0.00    -0.014 A 
BRANCH  80  84
ATOM     84  O   UNL A   1      33.196  26.621  20.849  1.00  0.00    -0.507 OA
ATOM     85  H   UNL A   1      34.044  26.309  20.599  1.00  0.00     0.293 HD
ENDBRANCH  80  84
BRANCH  83  86
ATOM     86  C   UNL A   1      32.317  22.506  23.318  1.00  0.00    -0.011 A 
ATOM     87  C   UNL A   1      31.962  21.470  22.365  1.00  0.00     0.027 A 
ATOM     88  C   UNL A   1      32.887  22.149  24.482  1.00  0.00     0.080 A 
ATOM     89  C   UNL A   1      32.187  20.182  22.644  1.00  0.00     0.095 A 
ATOM     90  C   UNL A   1      33.155  20.719  24.801  1.00  0.00     0.255 A 
ATOM     91  N   UNL A   1      32.770  19.802  23.838  1.00  0.00    -0.258 N 
ATOM     92  O   UNL A   1      33.683  20.451  25.877  1.00  0.00    -0.269 OA
BRANCH  91  93
ATOM     93  C   UNL A   1      33.005  18.411  24.131  1.00  0.00     0.451 C 
ATOM     94  F   UNL A   1      32.039  17.910  24.936  1.00  0.00    -0.185 F 
ATOM     95  F   UNL A   1      33.031  17.675  22.993  1.00  0.00    -0.185 F 
ENDBRANCH  91  93
ENDBRANCH  83  86
ENDBRANCH  75  78
ENDBRANCH  73  74
ENDBRANCH  72  73
ENDBRANCH   1  72
TORSDOF 14
ENDMDL
MODEL 3
REMARK VINA RESULT:     -10.5      3.956      9.901
REMARK SMILES O=C(NCCCCNC(=O)c1ccc(-c2ccn(C(F)F)c(=O)c2)cc1O)c1ccc(-c2c3nc(c(-c4c(F)c(F)c(F)c(F)c4F)c4ccc([nH]4)c(-c4c(F)c(F)c(F)c(F)c4F)c4nc(c(-c5c(F)c(F)c(F)c(F)c5F)c5ccc2[nH]5)C=C4)C=C3)cc1
REMARK SMILES IDX 5 1 4 2 3 3 1 4 2 5 28 7 29 8 90 9 30 10 89 11 31 12 32 13
REMARK SMILES IDX 33 14 83 15 34 16 88 17 82 18 84 19 35 20 87 21 81 22 80 23
REMARK SMILES IDX 36 25 68 26 48 27 67 28 49 29 52 30 66 31 85 32 50 33 51 34
REMARK SMILES IDX 65 36 86 37 53 38 37 39 38 40 46 41 39 42 40 43 44 44 47 45
REMARK SMILES IDX 41 46 42 47 45 48 43 49 69 50 70 51 78 52 71 53 72 54 76 55
REMARK SMILES IDX 79 56 73 57 74 58 77 59 75 60 54 61 55 62 63 63 56 64 57 65
REMARK SMILES IDX 61 66 64 67 58 68 59 69 62 70 60 71 6 72 7 73 8 74 9 75
REMARK SMILES IDX 10 77 11 78 12 79 26 80 13 81 25 82 14 83 27 84 15 86 16 87
REMARK SMILES IDX 24 88 17 89 22 90 18 91 23 92 19 93 20 94 21 95
REMARK H PARENT 3 6 84 24 52 35 8 76 27 85
REMARK Flexibility Score: inf
ROOT
ATOM      1  C   UNL A   1      33.049  28.939  23.750  1.00  0.00     0.023 C 
ENDROOT
BRANCH   1   2
ATOM      2  C   UNL A   1      33.511  29.311  25.156  1.00  0.00     0.116 C 
BRANCH   2   3
ATOM      3  N   UNL A   1      32.844  30.496  25.671  1.00  0.00    -0.352 N 
ATOM      4  O   UNL A   1      32.331  32.129  27.129  1.00  0.00    -0.269 OA
ATOM      5  C   UNL A   1      33.108  31.238  26.794  1.00  0.00     0.251 C 
ATOM      6  H   UNL A   1      32.086  30.815  25.130  1.00  0.00     0.163 HD
BRANCH   5   7
ATOM      7  C   UNL A   1      34.310  30.976  27.617  1.00  0.00     0.039 A 
ATOM      8  C   UNL A   1      35.187  32.036  27.874  1.00  0.00     0.014 A 
ATOM      9  C   UNL A   1      34.616  29.693  28.080  1.00  0.00     0.014 A 
ATOM     10  C   UNL A   1      36.345  31.820  28.627  1.00  0.00     0.010 A 
ATOM     11  C   UNL A   1      35.745  29.488  28.873  1.00  0.00     0.010 A 
ATOM     12  C   UNL A   1      36.625  30.547  29.145  1.00  0.00    -0.014 A 
BRANCH  12  13
ATOM     13  C   UNL A   1      37.861  30.284  29.927  1.00  0.00     0.031 A 
ATOM     14  C   UNL A   1      38.958  29.450  29.326  1.00  0.00     0.074 A 
ATOM     15  C   UNL A   1      37.989  30.765  31.178  1.00  0.00     0.049 A 
ATOM     16  N   UNL A   1      40.051  28.991  29.881  1.00  0.00    -0.248 NA
ATOM     17  C   UNL A   1      38.797  29.069  27.912  1.00  0.00     0.031 C 
ATOM     18  C   UNL A   1      37.009  31.603  31.869  1.00  0.00     0.029 A 
ATOM     19  N   UNL A   1      39.000  30.609  32.095  1.00  0.00    -0.354 N 
ATOM     20  C   UNL A   1      40.700  28.264  28.893  1.00  0.00     0.074 A 
ATOM     21  C   UNL A   1      39.865  28.311  27.712  1.00  0.00     0.031 C 
ATOM     22  C   UNL A   1      37.475  31.904  33.092  1.00  0.00     0.029 A 
ATOM     23  C   UNL A   1      38.763  31.245  33.290  1.00  0.00     0.049 A 
ATOM     24  H   UNL A   1      39.817  30.091  31.913  1.00  0.00     0.167 HD
ATOM     25  C   UNL A   1      41.894  27.628  28.959  1.00  0.00     0.037 A 
ATOM     26  C   UNL A   1      39.498  31.279  34.418  1.00  0.00     0.037 A 
ATOM     27  C   UNL A   1      42.736  27.596  30.126  1.00  0.00     0.049 A 
ATOM     28  C   UNL A   1      40.802  30.529  34.476  1.00  0.00     0.074 A 
ATOM     29  C   UNL A   1      43.947  26.950  30.299  1.00  0.00     0.029 A 
ATOM     30  N   UNL A   1      42.461  28.256  31.313  1.00  0.00    -0.354 N 
ATOM     31  N   UNL A   1      41.390  29.819  33.545  1.00  0.00    -0.248 NA
ATOM     32  C   UNL A   1      41.544  30.585  35.744  1.00  0.00     0.031 C 
ATOM     33  C   UNL A   1      44.399  27.207  31.597  1.00  0.00     0.029 A 
ATOM     34  C   UNL A   1      43.486  28.042  32.218  1.00  0.00     0.049 A 
ATOM     35  H   UNL A   1      41.656  28.798  31.486  1.00  0.00     0.167 HD
ATOM     36  C   UNL A   1      42.583  29.376  34.100  1.00  0.00     0.074 A 
ATOM     37  C   UNL A   1      42.640  29.901  35.447  1.00  0.00     0.031 C 
ATOM     38  C   UNL A   1      43.545  28.604  33.541  1.00  0.00     0.037 A 
BRANCH  25  39
ATOM     39  C   UNL A   1      42.380  26.923  27.730  1.00  0.00     0.064 A 
ATOM     40  C   UNL A   1      43.233  27.561  26.818  1.00  0.00     0.173 A 
ATOM     41  C   UNL A   1      42.058  25.577  27.502  1.00  0.00     0.173 A 
ATOM     42  F   UNL A   1      43.557  28.852  26.988  1.00  0.00    -0.203 F 
ATOM     43  C   UNL A   1      43.744  26.878  25.718  1.00  0.00     0.198 A 
ATOM     44  C   UNL A   1      42.588  24.890  26.413  1.00  0.00     0.198 A 
ATOM     45  F   UNL A   1      41.247  24.923  28.347  1.00  0.00    -0.203 F 
ATOM     46  F   UNL A   1      44.540  27.512  24.848  1.00  0.00    -0.200 F 
ATOM     47  C   UNL A   1      43.430  25.541  25.523  1.00  0.00     0.200 A 
ATOM     48  F   UNL A   1      42.294  23.596  26.231  1.00  0.00    -0.200 F 
ATOM     49  F   UNL A   1      43.938  24.879  24.474  1.00  0.00    -0.200 F 
ENDBRANCH  25  39
BRANCH  26  50
ATOM     50  C   UNL A   1      39.035  32.069  35.587  1.00  0.00     0.064 A 
ATOM     51  C   UNL A   1      39.372  33.425  35.712  1.00  0.00     0.173 A 
ATOM     52  C   UNL A   1      38.274  31.489  36.613  1.00  0.00     0.173 A 
ATOM     53  F   UNL A   1      40.121  34.016  34.768  1.00  0.00    -0.203 F 
ATOM     54  C   UNL A   1      38.984  34.165  36.826  1.00  0.00     0.198 A 
ATOM     55  C   UNL A   1      37.864  32.237  37.714  1.00  0.00     0.198 A 
ATOM     56  F   UNL A   1      37.928  30.196  36.542  1.00  0.00    -0.203 F 
ATOM     57  F   UNL A   1      39.361  35.445  36.942  1.00  0.00    -0.200 F 
ATOM     58  C   UNL A   1      38.226  33.571  37.824  1.00  0.00     0.200 A 
ATOM     59  F   UNL A   1      37.125  31.664  38.673  1.00  0.00    -0.200 F 
ATOM     60  F   UNL A   1      37.854  34.282  38.897  1.00  0.00    -0.200 F 
ENDBRANCH  26  50
BRANCH  38  61
ATOM     61  C   UNL A   1      44.773  28.329  34.355  1.00  0.00     0.064 A 
ATOM     62  C   UNL A   1      44.874  27.197  35.176  1.00  0.00     0.173 A 
ATOM     63  C   UNL A   1      45.884  29.180  34.264  1.00  0.00     0.173 A 
ATOM     64  F   UNL A   1      43.833  26.360  35.305  1.00  0.00    -0.203 F 
ATOM     65  C   UNL A   1      46.041  26.938  35.892  1.00  0.00     0.198 A 
ATOM     66  C   UNL A   1      47.056  28.905  34.962  1.00  0.00     0.198 A 
ATOM     67  F   UNL A   1      45.838  30.271  33.485  1.00  0.00    -0.203 F 
ATOM     68  F   UNL A   1      46.105  25.869  36.699  1.00  0.00    -0.200 F 
ATOM     69  C   UNL A   1      47.131  27.787  35.779  1.00  0.00     0.200 A 
ATOM     70  F   UNL A   1      48.113  29.720  34.843  1.00  0.00    -0.200 F 
ATOM     71  F   UNL A   1      48.256  27.530  36.462  1.00  0.00    -0.200 F 
ENDBRANCH  38  61
ENDBRANCH  12  13
ENDBRANCH   5   7
ENDBRANCH   2   3
ENDBRANCH   1   2
BRANCH   1  72
ATOM     72  C   UNL A   1      34.045  28.129  22.916  1.00  0.00     0.023 C 
BRANCH  72  73
ATOM     73  C   UNL A   1      33.434  27.122  21.946  1.00  0.00     0.116 C 
BRANCH  73  74
ATOM     74  N   UNL A   1      32.272  26.449  22.496  1.00  0.00    -0.352 N 
ATOM     75  C   UNL A   1      32.222  25.360  23.329  1.00  0.00     0.255 C 
ATOM     76  H   UNL A   1      31.400  26.824  22.234  1.00  0.00     0.163 HD
ATOM     77  O   UNL A   1      31.135  24.888  23.658  1.00  0.00    -0.269 OA
BRANCH  75  78
ATOM     78  C   UNL A   1      33.463  24.692  23.772  1.00  0.00     0.081 A 
ATOM     79  C   UNL A   1      33.984  25.075  25.013  1.00  0.00     0.018 A 
ATOM     80  C   UNL A   1      34.137  23.742  22.999  1.00  0.00     0.128 A 
ATOM     81  C   UNL A   1      35.144  24.470  25.503  1.00  0.00     0.010 A 
ATOM     82  C   UNL A   1      35.290  23.129  23.493  1.00  0.00     0.055 A 
ATOM     83  C   UNL A   1      35.795  23.479  24.755  1.00  0.00    -0.014 A 
BRANCH  80  84
ATOM     84  O   UNL A   1      33.676  23.403  21.758  1.00  0.00    -0.507 OA
ATOM     85  H   UNL A   1      33.064  23.961  21.317  1.00  0.00     0.293 HD
ENDBRANCH  80  84
BRANCH  83  86
ATOM     86  C   UNL A   1      37.004  22.805  25.274  1.00  0.00    -0.011 A 
ATOM     87  C   UNL A   1      37.999  23.490  26.079  1.00  0.00     0.027 A 
ATOM     88  C   UNL A   1      37.201  21.514  24.959  1.00  0.00     0.080 A 
ATOM     89  C   UNL A   1      39.099  22.851  26.491  1.00  0.00     0.095 A 
ATOM     90  C   UNL A   1      38.416  20.785  25.421  1.00  0.00     0.255 A 
ATOM     91  N   UNL A   1      39.315  21.523  26.171  1.00  0.00    -0.258 N 
ATOM     92  O   UNL A   1      38.542  19.604  25.107  1.00  0.00    -0.269 OA
BRANCH  91  93
ATOM     93  C   UNL A   1      40.505  20.845  26.617  1.00  0.00     0.451 C 
ATOM     94  F   UNL A   1      41.512  20.987  25.723  1.00  0.00    -0.185 F 
ATOM     95  F   UNL A   1      40.924  21.337  27.808  1.00  0.00    -0.185 F 
ENDBRANCH  91  93
ENDBRANCH  83  86
ENDBRANCH  75  78
ENDBRANCH  73  74
ENDBRANCH  72  73
ENDBRANCH   1  72
TORSDOF 14
ENDMDL
