MODEL 1
REMARK VINA RESULT:     -11.0      0.000      0.000
REMARK SMILES O=C(NCCCCNC(=O)c1ccc2nc(Cl)sc2c1)c1ccc(-c2c3nc(c(-c4c(F)c(F)c(F)c(F)c4F)c4ccc([nH]4)c(-c4c(F)c(F)c(F)c(F)c4F)c4nc(c(-c5c(F)c(F)c(F)c(F)c5F)c5ccc2[nH]5)C=C4)C=C3)cc1
REMARK SMILES IDX 4 1 3 2 1 3 2 4 21 6 22 7 83 8 23 9 82 10 24 11 25 12 26 13
REMARK SMILES IDX 76 14 27 15 81 16 75 17 77 18 28 19 80 20 74 21 73 22 29 24
REMARK SMILES IDX 61 25 41 26 60 27 42 28 45 29 59 30 78 31 43 32 44 33 58 35
REMARK SMILES IDX 79 36 46 37 30 38 31 39 39 40 32 41 33 42 37 43 40 44 34 45
REMARK SMILES IDX 35 46 38 47 36 48 62 49 63 50 71 51 64 52 65 53 69 54 72 55
REMARK SMILES IDX 66 56 67 57 70 58 68 59 47 60 48 61 56 62 49 63 50 64 54 65
REMARK SMILES IDX 57 66 51 67 52 68 55 69 53 70 5 71 6 72 7 73 8 74 9 75 10 77
REMARK SMILES IDX 11 78 12 79 20 80 13 81 19 82 14 83 18 84 15 85 16 86 17 87
REMARK H PARENT 3 5 77 23 45 34 8 76
REMARK Flexibility Score: inf
ROOT
ATOM      1  C   UNL A   1      41.686  24.999  36.155  1.00  0.00     0.116 C 
ENDROOT
BRANCH   1   2
ATOM      2  N   UNL A   1      42.935  24.379  36.561  1.00  0.00    -0.352 N 
ATOM      3  O   UNL A   1      44.898  23.338  36.385  1.00  0.00    -0.269 OA
ATOM      4  C   UNL A   1      44.079  24.101  35.868  1.00  0.00     0.251 C 
ATOM      5  H   UNL A   1      42.962  24.111  37.508  1.00  0.00     0.163 HD
BRANCH   4   6
ATOM      6  C   UNL A   1      44.391  24.687  34.546  1.00  0.00     0.039 A 
ATOM      7  C   UNL A   1      44.947  25.975  34.524  1.00  0.00     0.014 A 
ATOM      8  C   UNL A   1      43.993  24.089  33.348  1.00  0.00     0.014 A 
ATOM      9  C   UNL A   1      45.110  26.660  33.319  1.00  0.00     0.010 A 
ATOM     10  C   UNL A   1      44.156  24.778  32.140  1.00  0.00     0.010 A 
ATOM     11  C   UNL A   1      44.712  26.069  32.116  1.00  0.00    -0.014 A 
BRANCH  11  12
ATOM     12  C   UNL A   1      44.916  26.801  30.849  1.00  0.00     0.031 A 
ATOM     13  C   UNL A   1      44.925  25.979  29.613  1.00  0.00     0.074 A 
ATOM     14  C   UNL A   1      44.632  28.112  30.697  1.00  0.00     0.049 A 
ATOM     15  N   UNL A   1      43.821  25.602  29.043  1.00  0.00    -0.248 NA
ATOM     16  C   UNL A   1      46.126  25.370  29.048  1.00  0.00     0.031 C 
ATOM     17  C   UNL A   1      43.794  28.894  31.612  1.00  0.00     0.029 A 
ATOM     18  N   UNL A   1      44.848  28.956  29.629  1.00  0.00    -0.354 N 
ATOM     19  C   UNL A   1      44.152  24.637  28.118  1.00  0.00     0.074 A 
ATOM     20  C   UNL A   1      45.596  24.551  28.124  1.00  0.00     0.031 C 
ATOM     21  C   UNL A   1      43.453  30.050  31.006  1.00  0.00     0.029 A 
ATOM     22  C   UNL A   1      44.163  30.160  29.734  1.00  0.00     0.049 A 
ATOM     23  H   UNL A   1      45.430  28.729  28.868  1.00  0.00     0.167 HD
ATOM     24  C   UNL A   1      43.202  23.974  27.412  1.00  0.00     0.037 A 
ATOM     25  C   UNL A   1      43.726  30.938  28.712  1.00  0.00     0.037 A 
ATOM     26  C   UNL A   1      41.853  24.414  27.626  1.00  0.00     0.049 A 
ATOM     27  C   UNL A   1      42.839  30.016  27.927  1.00  0.00     0.074 A 
ATOM     28  C   UNL A   1      40.701  23.981  28.240  1.00  0.00     0.029 A 
ATOM     29  N   UNL A   1      41.582  25.666  27.142  1.00  0.00    -0.354 N 
ATOM     30  N   UNL A   1      41.597  29.730  28.217  1.00  0.00    -0.248 NA
ATOM     31  C   UNL A   1      43.414  29.208  26.843  1.00  0.00     0.031 C 
ATOM     32  C   UNL A   1      39.840  25.125  28.328  1.00  0.00     0.029 A 
ATOM     33  C   UNL A   1      40.513  26.220  27.791  1.00  0.00     0.049 A 
ATOM     34  H   UNL A   1      42.088  26.107  26.424  1.00  0.00     0.167 HD
ATOM     35  C   UNL A   1      41.332  28.547  27.534  1.00  0.00     0.074 A 
ATOM     36  C   UNL A   1      42.400  28.395  26.574  1.00  0.00     0.031 C 
ATOM     37  C   UNL A   1      40.392  27.655  27.955  1.00  0.00     0.037 A 
BRANCH  24  38
ATOM     38  C   UNL A   1      43.494  23.061  26.297  1.00  0.00     0.064 A 
ATOM     39  C   UNL A   1      43.272  21.688  26.483  1.00  0.00     0.173 A 
ATOM     40  C   UNL A   1      44.157  23.480  25.143  1.00  0.00     0.173 A 
ATOM     41  F   UNL A   1      42.632  21.254  27.583  1.00  0.00    -0.203 F 
ATOM     42  C   UNL A   1      43.738  20.757  25.565  1.00  0.00     0.198 A 
ATOM     43  C   UNL A   1      44.617  22.543  24.218  1.00  0.00     0.198 A 
ATOM     44  F   UNL A   1      44.393  24.783  24.934  1.00  0.00    -0.203 F 
ATOM     45  F   UNL A   1      43.551  19.450  25.787  1.00  0.00    -0.200 F 
ATOM     46  C   UNL A   1      44.421  21.185  24.437  1.00  0.00     0.200 A 
ATOM     47  F   UNL A   1      45.276  22.953  23.126  1.00  0.00    -0.200 F 
ATOM     48  F   UNL A   1      44.897  20.287  23.564  1.00  0.00    -0.200 F 
ENDBRANCH  24  38
BRANCH  25  49
ATOM     49  C   UNL A   1      44.732  31.850  28.075  1.00  0.00     0.064 A 
ATOM     50  C   UNL A   1      44.475  33.236  28.008  1.00  0.00     0.173 A 
ATOM     51  C   UNL A   1      45.932  31.427  27.478  1.00  0.00     0.173 A 
ATOM     52  F   UNL A   1      43.301  33.728  28.429  1.00  0.00    -0.203 F 
ATOM     53  C   UNL A   1      45.409  34.142  27.497  1.00  0.00     0.198 A 
ATOM     54  C   UNL A   1      46.881  32.333  27.001  1.00  0.00     0.198 A 
ATOM     55  F   UNL A   1      46.215  30.125  27.340  1.00  0.00    -0.203 F 
ATOM     56  F   UNL A   1      45.128  35.452  27.472  1.00  0.00    -0.200 F 
ATOM     57  C   UNL A   1      46.628  33.691  27.023  1.00  0.00     0.200 A 
ATOM     58  F   UNL A   1      48.052  31.879  26.528  1.00  0.00    -0.200 F 
ATOM     59  F   UNL A   1      47.546  34.557  26.577  1.00  0.00    -0.200 F 
ENDBRANCH  25  49
BRANCH  37  60
ATOM     60  C   UNL A   1      39.335  28.239  28.822  1.00  0.00     0.064 A 
ATOM     61  C   UNL A   1      38.315  28.999  28.230  1.00  0.00     0.173 A 
ATOM     62  C   UNL A   1      39.297  28.047  30.209  1.00  0.00     0.173 A 
ATOM     63  F   UNL A   1      38.301  29.193  26.902  1.00  0.00    -0.203 F 
ATOM     64  C   UNL A   1      37.291  29.544  28.995  1.00  0.00     0.198 A 
ATOM     65  C   UNL A   1      38.258  28.579  30.969  1.00  0.00     0.198 A 
ATOM     66  F   UNL A   1      40.247  27.333  30.830  1.00  0.00    -0.203 F 
ATOM     67  F   UNL A   1      36.324  30.262  28.405  1.00  0.00    -0.200 F 
ATOM     68  C   UNL A   1      37.259  29.327  30.363  1.00  0.00     0.200 A 
ATOM     69  F   UNL A   1      38.214  28.355  32.291  1.00  0.00    -0.200 F 
ATOM     70  F   UNL A   1      36.254  29.826  31.097  1.00  0.00    -0.200 F 
ENDBRANCH  37  60
ENDBRANCH  11  12
ENDBRANCH   4   6
ENDBRANCH   1   2
BRANCH   1  71
ATOM     71  C   UNL A   1      41.771  26.530  36.236  1.00  0.00     0.023 C 
BRANCH  71  72
ATOM     72  C   UNL A   1      41.556  27.288  34.914  1.00  0.00     0.023 C 
BRANCH  72  73
ATOM     73  C   UNL A   1      41.590  28.813  35.011  1.00  0.00     0.116 C 
BRANCH  73  74
ATOM     74  N   UNL A   1      40.497  29.326  35.819  1.00  0.00    -0.352 N 
ATOM     75  C   UNL A   1      39.611  30.341  35.568  1.00  0.00     0.251 C 
ATOM     76  H   UNL A   1      40.373  28.873  36.685  1.00  0.00     0.163 HD
ATOM     77  O   UNL A   1      38.891  30.755  36.480  1.00  0.00    -0.269 OA
BRANCH  75  78
ATOM     78  C   UNL A   1      39.494  30.961  34.229  1.00  0.00     0.041 A 
ATOM     79  C   UNL A   1      40.507  30.832  33.278  1.00  0.00     0.016 A 
ATOM     80  C   UNL A   1      38.282  31.590  33.904  1.00  0.00     0.035 A 
ATOM     81  C   UNL A   1      40.352  31.380  31.999  1.00  0.00     0.031 A 
ATOM     82  C   UNL A   1      38.137  32.127  32.614  1.00  0.00     0.057 A 
ATOM     83  C   UNL A   1      39.154  32.038  31.656  1.00  0.00     0.083 A 
ATOM     84  S   UNL A   1      36.788  32.950  31.919  1.00  0.00    -0.102 S 
ATOM     85  N   UNL A   1      38.868  32.614  30.429  1.00  0.00    -0.225 NA
ATOM     86  C   UNL A   1      37.658  33.109  30.473  1.00  0.00     0.184 A 
ATOM     87  Cl  UNL A   1      36.943  33.903  29.130  1.00  0.00    -0.050 Cl
ENDBRANCH  75  78
ENDBRANCH  73  74
ENDBRANCH  72  73
ENDBRANCH  71  72
ENDBRANCH   1  71
TORSDOF 11
ENDMDL
MODEL 2
REMARK VINA RESULT:     -10.8      4.742      9.098
REMARK SMILES O=C(NCCCCNC(=O)c1ccc2nc(Cl)sc2c1)c1ccc(-c2c3nc(c(-c4c(F)c(F)c(F)c(F)c4F)c4ccc([nH]4)c(-c4c(F)c(F)c(F)c(F)c4F)c4nc(c(-c5c(F)c(F)c(F)c(F)c5F)c5ccc2[nH]5)C=C4)C=C3)cc1
REMARK SMILES IDX 4 1 3 2 1 3 2 4 21 6 22 7 83 8 23 9 82 10 24 11 25 12 26 13
REMARK SMILES IDX 76 14 27 15 81 16 75 17 77 18 28 19 80 20 74 21 73 22 29 24
REMARK SMILES IDX 61 25 41 26 60 27 42 28 45 29 59 30 78 31 43 32 44 33 58 35
REMARK SMILES IDX 79 36 46 37 30 38 31 39 39 40 32 41 33 42 37 43 40 44 34 45
REMARK SMILES IDX 35 46 38 47 36 48 62 49 63 50 71 51 64 52 65 53 69 54 72 55
REMARK SMILES IDX 66 56 67 57 70 58 68 59 47 60 48 61 56 62 49 63 50 64 54 65
REMARK SMILES IDX 57 66 51 67 52 68 55 69 53 70 5 71 6 72 7 73 8 74 9 75 10 77
REMARK SMILES IDX 11 78 12 79 20 80 13 81 19 82 14 83 18 84 15 85 16 86 17 87
REMARK H PARENT 3 5 77 23 45 34 8 76
REMARK Flexibility Score: inf
ROOT
ATOM      1  C   UNL A   1      38.250  22.338  25.877  1.00  0.00     0.116 C 
ENDROOT
BRANCH   1   2
ATOM      2  N   UNL A   1      39.189  21.401  26.469  1.00  0.00    -0.352 N 
ATOM      3  O   UNL A   1      41.138  20.515  27.085  1.00  0.00    -0.269 OA
ATOM      4  C   UNL A   1      40.495  21.539  26.846  1.00  0.00     0.251 C 
ATOM      5  H   UNL A   1      38.815  20.504  26.628  1.00  0.00     0.163 HD
BRANCH   4   6
ATOM      6  C   UNL A   1      41.163  22.849  27.000  1.00  0.00     0.039 A 
ATOM      7  C   UNL A   1      40.743  23.667  28.061  1.00  0.00     0.014 A 
ATOM      8  C   UNL A   1      42.043  23.360  26.044  1.00  0.00     0.014 A 
ATOM      9  C   UNL A   1      41.201  24.981  28.172  1.00  0.00     0.010 A 
ATOM     10  C   UNL A   1      42.501  24.678  26.156  1.00  0.00     0.010 A 
ATOM     11  C   UNL A   1      42.082  25.499  27.217  1.00  0.00    -0.014 A 
BRANCH  11  12
ATOM     12  C   UNL A   1      42.575  26.885  27.366  1.00  0.00     0.031 A 
ATOM     13  C   UNL A   1      41.537  27.943  27.447  1.00  0.00     0.074 A 
ATOM     14  C   UNL A   1      43.785  27.189  27.882  1.00  0.00     0.049 A 
ATOM     15  N   UNL A   1      40.919  28.202  28.560  1.00  0.00    -0.248 NA
ATOM     16  C   UNL A   1      40.987  28.636  26.286  1.00  0.00     0.031 C 
ATOM     17  C   UNL A   1      44.616  26.262  28.657  1.00  0.00     0.029 A 
ATOM     18  N   UNL A   1      44.426  28.403  28.003  1.00  0.00    -0.354 N 
ATOM     19  C   UNL A   1      39.844  29.003  28.249  1.00  0.00     0.074 A 
ATOM     20  C   UNL A   1      39.944  29.282  26.834  1.00  0.00     0.031 C 
ATOM     21  C   UNL A   1      45.580  26.966  29.285  1.00  0.00     0.029 A 
ATOM     22  C   UNL A   1      45.530  28.359  28.844  1.00  0.00     0.049 A 
ATOM     23  H   UNL A   1      44.132  29.219  27.538  1.00  0.00     0.167 HD
ATOM     24  C   UNL A   1      38.941  29.377  29.190  1.00  0.00     0.037 A 
ATOM     25  C   UNL A   1      46.034  29.382  29.579  1.00  0.00     0.037 A 
ATOM     26  C   UNL A   1      39.240  28.964  30.532  1.00  0.00     0.049 A 
ATOM     27  C   UNL A   1      44.872  29.802  30.432  1.00  0.00     0.074 A 
ATOM     28  C   UNL A   1      38.791  28.062  31.468  1.00  0.00     0.029 A 
ATOM     29  N   UNL A   1      40.329  29.581  31.086  1.00  0.00    -0.354 N 
ATOM     30  N   UNL A   1      44.493  29.218  31.537  1.00  0.00    -0.248 NA
ATOM     31  C   UNL A   1      43.950  30.834  29.938  1.00  0.00     0.031 C 
ATOM     32  C   UNL A   1      39.811  27.988  32.473  1.00  0.00     0.029 A 
ATOM     33  C   UNL A   1      40.859  28.826  32.096  1.00  0.00     0.049 A 
ATOM     34  H   UNL A   1      40.684  30.452  30.796  1.00  0.00     0.167 HD
ATOM     35  C   UNL A   1      43.176  29.627  31.726  1.00  0.00     0.074 A 
ATOM     36  C   UNL A   1      42.978  30.748  30.838  1.00  0.00     0.031 C 
ATOM     37  C   UNL A   1      42.270  28.879  32.416  1.00  0.00     0.037 A 
BRANCH  24  38
ATOM     38  C   UNL A   1      37.874  30.363  28.960  1.00  0.00     0.064 A 
ATOM     39  C   UNL A   1      36.715  29.946  28.288  1.00  0.00     0.173 A 
ATOM     40  C   UNL A   1      38.048  31.724  29.209  1.00  0.00     0.173 A 
ATOM     41  F   UNL A   1      36.517  28.640  28.038  1.00  0.00    -0.203 F 
ATOM     42  C   UNL A   1      35.778  30.866  27.838  1.00  0.00     0.198 A 
ATOM     43  C   UNL A   1      37.102  32.647  28.763  1.00  0.00     0.198 A 
ATOM     44  F   UNL A   1      39.146  32.161  29.842  1.00  0.00    -0.203 F 
ATOM     45  F   UNL A   1      34.701  30.447  27.162  1.00  0.00    -0.200 F 
ATOM     46  C   UNL A   1      35.978  32.219  28.066  1.00  0.00     0.200 A 
ATOM     47  F   UNL A   1      37.291  33.954  28.983  1.00  0.00    -0.200 F 
ATOM     48  F   UNL A   1      35.091  33.112  27.607  1.00  0.00    -0.200 F 
ENDBRANCH  24  38
BRANCH  25  49
ATOM     49  C   UNL A   1      46.926  30.355  28.866  1.00  0.00     0.064 A 
ATOM     50  C   UNL A   1      48.275  30.484  29.258  1.00  0.00     0.173 A 
ATOM     51  C   UNL A   1      46.511  31.212  27.833  1.00  0.00     0.173 A 
ATOM     52  F   UNL A   1      48.739  29.807  30.320  1.00  0.00    -0.203 F 
ATOM     53  C   UNL A   1      49.170  31.316  28.581  1.00  0.00     0.198 A 
ATOM     54  C   UNL A   1      47.412  32.017  27.132  1.00  0.00     0.198 A 
ATOM     55  F   UNL A   1      45.223  31.296  27.477  1.00  0.00    -0.203 F 
ATOM     56  F   UNL A   1      50.448  31.390  28.979  1.00  0.00    -0.200 F 
ATOM     57  C   UNL A   1      48.744  32.059  27.495  1.00  0.00     0.200 A 
ATOM     58  F   UNL A   1      46.979  32.745  26.092  1.00  0.00    -0.200 F 
ATOM     59  F   UNL A   1      49.607  32.821  26.812  1.00  0.00    -0.200 F 
ENDBRANCH  25  49
BRANCH  37  60
ATOM     60  C   UNL A   1      42.872  27.920  33.380  1.00  0.00     0.064 A 
ATOM     61  C   UNL A   1      42.901  28.255  34.742  1.00  0.00     0.173 A 
ATOM     62  C   UNL A   1      43.397  26.681  32.992  1.00  0.00     0.173 A 
ATOM     63  F   UNL A   1      42.392  29.425  35.162  1.00  0.00    -0.203 F 
ATOM     64  C   UNL A   1      43.429  27.382  35.685  1.00  0.00     0.198 A 
ATOM     65  C   UNL A   1      43.909  25.800  33.943  1.00  0.00     0.198 A 
ATOM     66  F   UNL A   1      43.400  26.309  31.704  1.00  0.00    -0.203 F 
ATOM     67  F   UNL A   1      43.439  27.721  36.981  1.00  0.00    -0.200 F 
ATOM     68  C   UNL A   1      43.925  26.151  35.285  1.00  0.00     0.200 A 
ATOM     69  F   UNL A   1      44.372  24.601  33.562  1.00  0.00    -0.200 F 
ATOM     70  F   UNL A   1      44.407  25.295  36.197  1.00  0.00    -0.200 F 
ENDBRANCH  37  60
ENDBRANCH  11  12
ENDBRANCH   4   6
ENDBRANCH   1   2
BRANCH   1  71
ATOM     71  C   UNL A   1      37.462  21.688  24.730  1.00  0.00     0.023 C 
BRANCH  71  72
ATOM     72  C   UNL A   1      36.323  20.739  25.147  1.00  0.00     0.023 C 
BRANCH  72  73
ATOM     73  C   UNL A   1      35.324  21.307  26.155  1.00  0.00     0.116 C 
BRANCH  73  74
ATOM     74  N   UNL A   1      33.982  20.795  25.929  1.00  0.00    -0.352 N 
ATOM     75  C   UNL A   1      32.951  21.312  25.189  1.00  0.00     0.251 C 
ATOM     76  H   UNL A   1      33.782  19.943  26.380  1.00  0.00     0.163 HD
ATOM     77  O   UNL A   1      31.824  20.826  25.301  1.00  0.00    -0.269 OA
BRANCH  75  78
ATOM     78  C   UNL A   1      33.151  22.445  24.257  1.00  0.00     0.041 A 
ATOM     79  C   UNL A   1      33.133  22.258  22.874  1.00  0.00     0.016 A 
ATOM     80  C   UNL A   1      33.247  23.734  24.806  1.00  0.00     0.035 A 
ATOM     81  C   UNL A   1      33.269  23.353  22.011  1.00  0.00     0.031 A 
ATOM     82  C   UNL A   1      33.373  24.822  23.927  1.00  0.00     0.057 A 
ATOM     83  C   UNL A   1      33.392  24.655  22.538  1.00  0.00     0.083 A 
ATOM     84  S   UNL A   1      33.511  26.505  24.287  1.00  0.00    -0.102 S 
ATOM     85  N   UNL A   1      33.523  25.819  21.799  1.00  0.00    -0.225 NA
ATOM     86  C   UNL A   1      33.589  26.831  22.625  1.00  0.00     0.184 A 
ATOM     87  Cl  UNL A   1      33.749  28.450  22.079  1.00  0.00    -0.050 Cl
ENDBRANCH  75  78
ENDBRANCH  73  74
ENDBRANCH  72  73
ENDBRANCH  71  72
ENDBRANCH   1  71
TORSDOF 11
ENDMDL
MODEL 3
REMARK VINA RESULT:     -10.6      4.541      8.999
REMARK SMILES O=C(NCCCCNC(=O)c1ccc2nc(Cl)sc2c1)c1ccc(-c2c3nc(c(-c4c(F)c(F)c(F)c(F)c4F)c4ccc([nH]4)c(-c4c(F)c(F)c(F)c(F)c4F)c4nc(c(-c5c(F)c(F)c(F)c(F)c5F)c5ccc2[nH]5)C=C4)C=C3)cc1
REMARK SMILES IDX 4 1 3 2 1 3 2 4 21 6 22 7 83 8 23 9 82 10 24 11 25 12 26 13
REMARK SMILES IDX 76 14 27 15 81 16 75 17 77 18 28 19 80 20 74 21 73 22 29 24
REMARK SMILES IDX 61 25 41 26 60 27 42 28 45 29 59 30 78 31 43 32 44 33 58 35
REMARK SMILES IDX 79 36 46 37 30 38 31 39 39 40 32 41 33 42 37 43 40 44 34 45
REMARK SMILES IDX 35 46 38 47 36 48 62 49 63 50 71 51 64 52 65 53 69 54 72 55
REMARK SMILES IDX 66 56 67 57 70 58 68 59 47 60 48 61 56 62 49 63 50 64 54 65
REMARK SMILES IDX 57 66 51 67 52 68 55 69 53 70 5 71 6 72 7 73 8 74 9 75 10 77
REMARK SMILES IDX 11 78 12 79 20 80 13 81 19 82 14 83 18 84 15 85 16 86 17 87
REMARK H PARENT 3 5 77 23 45 34 8 76
REMARK Flexibility Score: inf
ROOT
ATOM      1  C   UNL A   1      37.782  22.754  25.265  1.00  0.00     0.116 C 
ENDROOT
BRANCH   1   2
ATOM      2  N   UNL A   1      38.543  21.914  26.173  1.00  0.00    -0.352 N 
ATOM      3  O   UNL A   1      40.271  21.169  27.366  1.00  0.00    -0.269 OA
ATOM      4  C   UNL A   1      39.699  22.139  26.865  1.00  0.00     0.251 C 
ATOM      5  H   UNL A   1      38.155  21.021  26.315  1.00  0.00     0.163 HD
BRANCH   4   6
ATOM      6  C   UNL A   1      40.281  23.485  27.061  1.00  0.00     0.039 A 
ATOM      7  C   UNL A   1      39.544  24.403  27.824  1.00  0.00     0.014 A 
ATOM      8  C   UNL A   1      41.420  23.916  26.378  1.00  0.00     0.014 A 
ATOM      9  C   UNL A   1      39.941  25.738  27.912  1.00  0.00     0.010 A 
ATOM     10  C   UNL A   1      41.818  25.255  26.465  1.00  0.00     0.010 A 
ATOM     11  C   UNL A   1      41.080  26.177  27.229  1.00  0.00    -0.014 A 
BRANCH  11  12
ATOM     12  C   UNL A   1      41.498  27.589  27.355  1.00  0.00     0.031 A 
ATOM     13  C   UNL A   1      40.415  28.571  27.613  1.00  0.00     0.074 A 
ATOM     14  C   UNL A   1      42.746  27.964  27.709  1.00  0.00     0.049 A 
ATOM     15  N   UNL A   1      39.944  28.760  28.808  1.00  0.00    -0.248 NA
ATOM     16  C   UNL A   1      39.664  29.252  26.563  1.00  0.00     0.031 C 
ATOM     17  C   UNL A   1      43.736  27.078  28.330  1.00  0.00     0.029 A 
ATOM     18  N   UNL A   1      43.318  29.215  27.780  1.00  0.00    -0.354 N 
ATOM     19  C   UNL A   1      38.786  29.492  28.676  1.00  0.00     0.074 A 
ATOM     20  C   UNL A   1      38.669  29.811  27.270  1.00  0.00     0.031 C 
ATOM     21  C   UNL A   1      44.731  27.832  28.842  1.00  0.00     0.029 A 
ATOM     22  C   UNL A   1      44.530  29.227  28.459  1.00  0.00     0.049 A 
ATOM     23  H   UNL A   1      42.909  30.021  27.388  1.00  0.00     0.167 HD
ATOM     24  C   UNL A   1      38.001  29.781  29.744  1.00  0.00     0.037 A 
ATOM     25  C   UNL A   1      45.063  30.265  29.151  1.00  0.00     0.037 A 
ATOM     26  C   UNL A   1      38.511  29.357  31.018  1.00  0.00     0.049 A 
ATOM     27  C   UNL A   1      44.008  30.584  30.169  1.00  0.00     0.074 A 
ATOM     28  C   UNL A   1      38.257  28.404  31.976  1.00  0.00     0.029 A 
ATOM     29  N   UNL A   1      39.625  30.034  31.436  1.00  0.00    -0.354 N 
ATOM     30  N   UNL A   1      43.826  29.949  31.297  1.00  0.00    -0.248 NA
ATOM     31  C   UNL A   1      42.960  31.561  29.842  1.00  0.00     0.031 C 
ATOM     32  C   UNL A   1      39.411  28.377  32.828  1.00  0.00     0.029 A 
ATOM     33  C   UNL A   1      40.338  29.294  32.338  1.00  0.00     0.049 A 
ATOM     34  H   UNL A   1      39.878  30.934  31.129  1.00  0.00     0.167 HD
ATOM     35  C   UNL A   1      42.525  30.262  31.678  1.00  0.00     0.074 A 
ATOM     36  C   UNL A   1      42.131  31.387  30.864  1.00  0.00     0.031 C 
ATOM     37  C   UNL A   1      41.775  29.437  32.462  1.00  0.00     0.037 A 
BRANCH  24  38
ATOM     38  C   UNL A   1      36.851  30.696  29.697  1.00  0.00     0.064 A 
ATOM     39  C   UNL A   1      35.727  30.314  28.949  1.00  0.00     0.173 A 
ATOM     40  C   UNL A   1      36.909  31.995  30.200  1.00  0.00     0.173 A 
ATOM     41  F   UNL A   1      35.640  29.067  28.454  1.00  0.00    -0.203 F 
ATOM     42  C   UNL A   1      34.710  31.219  28.674  1.00  0.00     0.198 A 
ATOM     43  C   UNL A   1      35.882  32.900  29.929  1.00  0.00     0.198 A 
ATOM     44  F   UNL A   1      37.970  32.398  30.913  1.00  0.00    -0.203 F 
ATOM     45  F   UNL A   1      33.667  30.842  27.922  1.00  0.00    -0.200 F 
ATOM     46  C   UNL A   1      34.794  32.516  29.156  1.00  0.00     0.200 A 
ATOM     47  F   UNL A   1      35.959  34.154  30.395  1.00  0.00    -0.200 F 
ATOM     48  F   UNL A   1      33.828  33.398  28.867  1.00  0.00    -0.200 F 
ENDBRANCH  24  38
BRANCH  25  49
ATOM     49  C   UNL A   1      45.782  31.314  28.354  1.00  0.00     0.064 A 
ATOM     50  C   UNL A   1      47.108  31.662  28.690  1.00  0.00     0.173 A 
ATOM     51  C   UNL A   1      45.216  32.040  27.292  1.00  0.00     0.173 A 
ATOM     52  F   UNL A   1      47.695  31.124  29.770  1.00  0.00    -0.203 F 
ATOM     53  C   UNL A   1      47.851  32.574  27.937  1.00  0.00     0.198 A 
ATOM     54  C   UNL A   1      45.968  32.924  26.516  1.00  0.00     0.198 A 
ATOM     55  F   UNL A   1      43.920  31.913  26.979  1.00  0.00    -0.203 F 
ATOM     56  F   UNL A   1      49.114  32.857  28.283  1.00  0.00    -0.200 F 
ATOM     57  C   UNL A   1      47.290  33.181  26.828  1.00  0.00     0.200 A 
ATOM     58  F   UNL A   1      45.404  33.519  25.454  1.00  0.00    -0.200 F 
ATOM     59  F   UNL A   1      48.011  34.019  26.074  1.00  0.00    -0.200 F 
ENDBRANCH  25  49
BRANCH  37  60
ATOM     60  C   UNL A   1      42.567  28.499  33.301  1.00  0.00     0.064 A 
ATOM     61  C   UNL A   1      42.804  28.826  34.645  1.00  0.00     0.173 A 
ATOM     62  C   UNL A   1      43.073  27.287  32.816  1.00  0.00     0.173 A 
ATOM     63  F   UNL A   1      42.320  29.969  35.158  1.00  0.00    -0.203 F 
ATOM     64  C   UNL A   1      43.516  27.970  35.476  1.00  0.00     0.198 A 
ATOM     65  C   UNL A   1      43.770  26.423  33.657  1.00  0.00     0.198 A 
ATOM     66  F   UNL A   1      42.881  26.924  31.539  1.00  0.00    -0.203 F 
ATOM     67  F   UNL A   1      43.723  28.301  36.758  1.00  0.00    -0.200 F 
ATOM     68  C   UNL A   1      43.991  26.765  34.984  1.00  0.00     0.200 A 
ATOM     69  F   UNL A   1      44.216  25.248  33.189  1.00  0.00    -0.200 F 
ATOM     70  F   UNL A   1      44.652  25.925  35.793  1.00  0.00    -0.200 F 
ENDBRANCH  37  60
ENDBRANCH  11  12
ENDBRANCH   4   6
ENDBRANCH   1   2
BRANCH   1  71
ATOM     71  C   UNL A   1      36.407  23.107  25.853  1.00  0.00     0.023 C 
BRANCH  71  72
ATOM     72  C   UNL A   1      35.380  23.688  24.864  1.00  0.00     0.023 C 
BRANCH  72  73
ATOM     73  C   UNL A   1      34.471  24.784  25.420  1.00  0.00     0.116 C 
BRANCH  73  74
ATOM     74  N   UNL A   1      33.321  24.229  26.116  1.00  0.00    -0.352 N 
ATOM     75  C   UNL A   1      32.148  24.823  26.500  1.00  0.00     0.251 C 
ATOM     76  H   UNL A   1      33.399  23.275  26.348  1.00  0.00     0.163 HD
ATOM     77  O   UNL A   1      31.391  24.225  27.268  1.00  0.00    -0.269 OA
BRANCH  75  78
ATOM     78  C   UNL A   1      31.762  26.170  26.022  1.00  0.00     0.041 A 
ATOM     79  C   UNL A   1      32.290  27.324  26.602  1.00  0.00     0.016 A 
ATOM     80  C   UNL A   1      30.933  26.250  24.892  1.00  0.00     0.035 A 
ATOM     81  C   UNL A   1      31.953  28.587  26.099  1.00  0.00     0.031 A 
ATOM     82  C   UNL A   1      30.612  27.522  24.392  1.00  0.00     0.057 A 
ATOM     83  C   UNL A   1      31.103  28.695  24.979  1.00  0.00     0.083 A 
ATOM     84  S   UNL A   1      29.630  27.947  23.038  1.00  0.00    -0.102 S 
ATOM     85  N   UNL A   1      30.700  29.876  24.379  1.00  0.00    -0.225 NA
ATOM     86  C   UNL A   1      29.935  29.583  23.358  1.00  0.00     0.184 A 
ATOM     87  Cl  UNL A   1      29.243  30.793  22.356  1.00  0.00    -0.050 Cl
ENDBRANCH  75  78
ENDBRANCH  73  74
ENDBRANCH  72  73
ENDBRANCH  71  72
ENDBRANCH   1  71
TORSDOF 11
ENDMDL
