MODEL 1
REMARK VINA RESULT:     -14.0      0.000      0.000
REMARK SMILES Cc1cccc(-c2cc(C(=O)NCCCCNC(=O)c3ccc(-c4c5nc(c(-c6c(F)c(F)c(F)c(F)c6F)c6ccc([nH]6)c(-c6c(F)c(F)c(F)c(F)c6F)c6nc(c(-c7c(F)c(F)c(F)c(F)c7F)c7ccc4[nH]7)C=C6)C=C5)cc3)ccn2)c1
REMARK SMILES IDX 15 1 14 2 13 3 12 4 10 5 11 6 9 8 7 9 8 10 85 11 84 12 83 13
REMARK SMILES IDX 6 14 1 15 2 16 3 17 86 18 4 19 5 20 16 21 17 22 18 23 19 25
REMARK SMILES IDX 20 26 21 27 82 28 22 29 81 30 23 31 24 32 25 33 75 34 26 35
REMARK SMILES IDX 80 36 74 37 76 38 27 39 79 40 73 41 72 42 28 44 60 45 40 46
REMARK SMILES IDX 59 47 41 48 44 49 58 50 77 51 42 52 43 53 57 55 78 56 45 57
REMARK SMILES IDX 29 58 30 59 38 60 31 61 32 62 36 63 39 64 33 65 34 66 37 67
REMARK SMILES IDX 35 68 61 69 62 70 70 71 63 72 64 73 68 74 71 75 65 76 66 77
REMARK SMILES IDX 69 78 67 79 46 80 47 81 55 82 48 83 49 84 53 85 56 86 50 87
REMARK SMILES IDX 51 88 54 89 52 90
REMARK H PARENT 12 7 17 24 76 43 44 54
REMARK Flexibility Score: inf
ROOT
ATOM      1  C   UNL A   1      32.690  30.569  27.093  1.00  0.00     0.023 C 
ENDROOT
BRANCH   1   2
ATOM      2  C   UNL A   1      31.787  29.342  27.271  1.00  0.00     0.023 C 
BRANCH   2   3
ATOM      3  C   UNL A   1      32.501  27.991  27.088  1.00  0.00     0.116 C 
BRANCH   3   4
ATOM      4  N   UNL A   1      31.572  26.881  26.954  1.00  0.00    -0.352 N 
ATOM      5  C   UNL A   1      30.774  26.413  25.939  1.00  0.00     0.251 C 
ATOM      6  O   UNL A   1      30.145  25.377  26.166  1.00  0.00    -0.269 OA
ATOM      7  H   UNL A   1      31.496  26.345  27.776  1.00  0.00     0.163 HD
BRANCH   5   8
ATOM      8  C   UNL A   1      30.639  27.044  24.596  1.00  0.00     0.043 A 
ATOM      9  C   UNL A   1      29.926  28.746  23.056  1.00  0.00     0.071 A 
ATOM     10  C   UNL A   1      29.941  28.213  24.341  1.00  0.00     0.042 A 
ATOM     11  N   UNL A   1      30.503  28.132  22.003  1.00  0.00    -0.256 NA
ATOM     12  C   UNL A   1      31.145  26.971  22.252  1.00  0.00     0.112 A 
ATOM     13  C   UNL A   1      31.249  26.403  23.512  1.00  0.00     0.034 A 
BRANCH   9  14
ATOM     14  C   UNL A   1      29.328  30.064  22.831  1.00  0.00     0.000 A 
ATOM     15  C   UNL A   1      27.934  32.044  19.873  1.00  0.00     0.044 C 
ATOM     16  C   UNL A   1      28.398  31.693  21.254  1.00  0.00    -0.050 A 
ATOM     17  C   UNL A   1      28.370  32.646  22.277  1.00  0.00     0.003 A 
ATOM     18  C   UNL A   1      28.874  30.410  21.542  1.00  0.00     0.013 A 
ATOM     19  C   UNL A   1      28.796  32.314  23.565  1.00  0.00     0.001 A 
ATOM     20  C   UNL A   1      29.267  31.029  23.842  1.00  0.00     0.010 A 
ENDBRANCH   9  14
ENDBRANCH   5   8
ENDBRANCH   3   4
ENDBRANCH   2   3
ENDBRANCH   1   2
BRANCH   1  21
ATOM     21  C   UNL A   1      34.160  30.293  27.389  1.00  0.00     0.116 C 
BRANCH  21  22
ATOM     22  N   UNL A   1      34.794  31.243  28.297  1.00  0.00    -0.352 N 
ATOM     23  C   UNL A   1      35.923  31.062  29.079  1.00  0.00     0.251 C 
ATOM     24  H   UNL A   1      34.363  32.125  28.365  1.00  0.00     0.163 HD
ATOM     25  O   UNL A   1      36.307  31.945  29.842  1.00  0.00    -0.269 OA
BRANCH  23  26
ATOM     26  C   UNL A   1      36.742  29.845  28.885  1.00  0.00     0.039 A 
ATOM     27  C   UNL A   1      37.016  29.055  30.007  1.00  0.00     0.014 A 
ATOM     28  C   UNL A   1      37.423  29.635  27.687  1.00  0.00     0.014 A 
ATOM     29  C   UNL A   1      38.149  28.247  30.006  1.00  0.00     0.010 A 
ATOM     30  C   UNL A   1      38.597  28.905  27.714  1.00  0.00     0.010 A 
ATOM     31  C   UNL A   1      39.000  28.287  28.902  1.00  0.00    -0.014 A 
BRANCH  31  32
ATOM     32  C   UNL A   1      40.390  27.852  28.968  1.00  0.00     0.031 A 
ATOM     33  C   UNL A   1      40.776  26.484  28.572  1.00  0.00     0.074 A 
ATOM     34  C   UNL A   1      41.338  28.744  29.340  1.00  0.00     0.049 A 
ATOM     35  N   UNL A   1      41.892  25.928  28.909  1.00  0.00    -0.248 NA
ATOM     36  C   UNL A   1      39.896  25.588  27.829  1.00  0.00     0.031 C 
ATOM     37  C   UNL A   1      42.789  28.613  29.214  1.00  0.00     0.029 A 
ATOM     38  N   UNL A   1      41.163  29.889  30.140  1.00  0.00    -0.354 N 
ATOM     39  C   UNL A   1      42.013  24.769  28.183  1.00  0.00     0.074 A 
ATOM     40  C   UNL A   1      40.693  24.528  27.661  1.00  0.00     0.031 C 
ATOM     41  C   UNL A   1      43.374  29.402  30.128  1.00  0.00     0.029 A 
ATOM     42  C   UNL A   1      42.315  29.947  30.959  1.00  0.00     0.049 A 
ATOM     43  H   UNL A   1      40.403  30.514  30.132  1.00  0.00     0.167 HD
ATOM     44  C   UNL A   1      43.259  24.253  27.989  1.00  0.00     0.037 A 
ATOM     45  C   UNL A   1      42.237  29.814  32.315  1.00  0.00     0.037 A 
ATOM     46  C   UNL A   1      44.214  24.832  28.939  1.00  0.00     0.049 A 
ATOM     47  C   UNL A   1      43.059  28.675  32.875  1.00  0.00     0.074 A 
ATOM     48  C   UNL A   1      45.270  25.718  28.820  1.00  0.00     0.029 A 
ATOM     49  N   UNL A   1      43.974  24.688  30.304  1.00  0.00    -0.354 N 
ATOM     50  N   UNL A   1      43.525  27.692  32.157  1.00  0.00    -0.248 NA
ATOM     51  C   UNL A   1      43.375  28.531  34.293  1.00  0.00     0.031 C 
ATOM     52  C   UNL A   1      45.598  26.181  30.125  1.00  0.00     0.029 A 
ATOM     53  C   UNL A   1      44.771  25.544  31.036  1.00  0.00     0.049 A 
ATOM     54  H   UNL A   1      43.323  24.060  30.695  1.00  0.00     0.167 HD
ATOM     55  C   UNL A   1      44.145  26.783  32.974  1.00  0.00     0.074 A 
ATOM     56  C   UNL A   1      44.052  27.368  34.298  1.00  0.00     0.031 C 
ATOM     57  C   UNL A   1      44.653  25.612  32.488  1.00  0.00     0.037 A 
BRANCH  44  58
ATOM     58  C   UNL A   1      43.677  23.390  26.806  1.00  0.00     0.064 A 
ATOM     59  C   UNL A   1      43.256  22.042  26.727  1.00  0.00     0.173 A 
ATOM     60  C   UNL A   1      44.597  23.766  25.801  1.00  0.00     0.173 A 
ATOM     61  F   UNL A   1      42.381  21.535  27.607  1.00  0.00    -0.203 F 
ATOM     62  C   UNL A   1      43.740  21.152  25.758  1.00  0.00     0.198 A 
ATOM     63  C   UNL A   1      45.040  22.889  24.805  1.00  0.00     0.198 A 
ATOM     64  F   UNL A   1      45.161  24.973  25.756  1.00  0.00    -0.203 F 
ATOM     65  F   UNL A   1      43.353  19.869  25.780  1.00  0.00    -0.200 F 
ATOM     66  C   UNL A   1      44.628  21.578  24.794  1.00  0.00     0.200 A 
ATOM     67  F   UNL A   1      45.904  23.330  23.878  1.00  0.00    -0.200 F 
ATOM     68  F   UNL A   1      45.096  20.729  23.869  1.00  0.00    -0.200 F 
ENDBRANCH  44  58
BRANCH  45  69
ATOM     69  C   UNL A   1      40.955  30.302  32.885  1.00  0.00     0.064 A 
ATOM     70  C   UNL A   1      40.714  31.691  32.898  1.00  0.00     0.173 A 
ATOM     71  C   UNL A   1      39.857  29.456  33.073  1.00  0.00     0.173 A 
ATOM     72  F   UNL A   1      41.731  32.547  32.713  1.00  0.00    -0.203 F 
ATOM     73  C   UNL A   1      39.422  32.204  32.979  1.00  0.00     0.198 A 
ATOM     74  C   UNL A   1      38.563  29.974  33.172  1.00  0.00     0.198 A 
ATOM     75  F   UNL A   1      40.015  28.125  33.046  1.00  0.00    -0.203 F 
ATOM     76  F   UNL A   1      39.222  33.525  32.872  1.00  0.00    -0.200 F 
ATOM     77  C   UNL A   1      38.345  31.343  33.092  1.00  0.00     0.200 A 
ATOM     78  F   UNL A   1      37.516  29.141  33.244  1.00  0.00    -0.200 F 
ATOM     79  F   UNL A   1      37.095  31.826  33.077  1.00  0.00    -0.200 F 
ENDBRANCH  45  69
BRANCH  57  80
ATOM     80  C   UNL A   1      45.145  24.449  33.319  1.00  0.00     0.064 A 
ATOM     81  C   UNL A   1      44.398  23.284  33.567  1.00  0.00     0.173 A 
ATOM     82  C   UNL A   1      46.482  24.420  33.784  1.00  0.00     0.173 A 
ATOM     83  F   UNL A   1      43.163  23.129  33.072  1.00  0.00    -0.203 F 
ATOM     84  C   UNL A   1      44.923  22.205  34.285  1.00  0.00     0.198 A 
ATOM     85  C   UNL A   1      47.022  23.318  34.447  1.00  0.00     0.198 A 
ATOM     86  F   UNL A   1      47.313  25.453  33.582  1.00  0.00    -0.203 F 
ATOM     87  F   UNL A   1      44.153  21.136  34.534  1.00  0.00    -0.200 F 
ATOM     88  C   UNL A   1      46.236  22.217  34.715  1.00  0.00     0.200 A 
ATOM     89  F   UNL A   1      48.313  23.325  34.809  1.00  0.00    -0.200 F 
ATOM     90  F   UNL A   1      46.749  21.163  35.363  1.00  0.00    -0.200 F 
ENDBRANCH  57  80
ENDBRANCH  31  32
ENDBRANCH  23  26
ENDBRANCH  21  22
ENDBRANCH   1  21
TORSDOF 12
ENDMDL
MODEL 2
REMARK VINA RESULT:     -13.8      5.091     11.144
REMARK SMILES Cc1cccc(-c2cc(C(=O)NCCCCNC(=O)c3ccc(-c4c5nc(c(-c6c(F)c(F)c(F)c(F)c6F)c6ccc([nH]6)c(-c6c(F)c(F)c(F)c(F)c6F)c6nc(c(-c7c(F)c(F)c(F)c(F)c7F)c7ccc4[nH]7)C=C6)C=C5)cc3)ccn2)c1
REMARK SMILES IDX 15 1 14 2 13 3 12 4 10 5 11 6 9 8 7 9 8 10 85 11 84 12 83 13
REMARK SMILES IDX 6 14 1 15 2 16 3 17 86 18 4 19 5 20 16 21 17 22 18 23 19 25
REMARK SMILES IDX 20 26 21 27 82 28 22 29 81 30 23 31 24 32 25 33 75 34 26 35
REMARK SMILES IDX 80 36 74 37 76 38 27 39 79 40 73 41 72 42 28 44 60 45 40 46
REMARK SMILES IDX 59 47 41 48 44 49 58 50 77 51 42 52 43 53 57 55 78 56 45 57
REMARK SMILES IDX 29 58 30 59 38 60 31 61 32 62 36 63 39 64 33 65 34 66 37 67
REMARK SMILES IDX 35 68 61 69 62 70 70 71 63 72 64 73 68 74 71 75 65 76 66 77
REMARK SMILES IDX 69 78 67 79 46 80 47 81 55 82 48 83 49 84 53 85 56 86 50 87
REMARK SMILES IDX 51 88 54 89 52 90
REMARK H PARENT 12 7 17 24 76 43 44 54
REMARK Flexibility Score: inf
ROOT
ATOM      1  C   UNL A   1      38.468  21.492  25.527  1.00  0.00     0.023 C 
ENDROOT
BRANCH   1   2
ATOM      2  C   UNL A   1      37.321  21.821  24.563  1.00  0.00     0.023 C 
BRANCH   2   3
ATOM      3  C   UNL A   1      36.621  23.164  24.837  1.00  0.00     0.116 C 
BRANCH   3   4
ATOM      4  N   UNL A   1      35.735  23.564  23.755  1.00  0.00    -0.352 N 
ATOM      5  C   UNL A   1      34.467  23.205  23.370  1.00  0.00     0.251 C 
ATOM      6  O   UNL A   1      33.991  23.815  22.409  1.00  0.00    -0.269 OA
ATOM      7  H   UNL A   1      36.135  24.243  23.167  1.00  0.00     0.163 HD
BRANCH   5   8
ATOM      8  C   UNL A   1      33.631  22.167  24.035  1.00  0.00     0.043 A 
ATOM      9  C   UNL A   1      33.069  19.926  24.700  1.00  0.00     0.071 A 
ATOM     10  C   UNL A   1      33.885  20.806  23.994  1.00  0.00     0.042 A 
ATOM     11  N   UNL A   1      31.973  20.328  25.376  1.00  0.00    -0.256 NA
ATOM     12  C   UNL A   1      31.709  21.652  25.374  1.00  0.00     0.112 A 
ATOM     13  C   UNL A   1      32.502  22.595  24.740  1.00  0.00     0.034 A 
BRANCH   9  14
ATOM     14  C   UNL A   1      33.442  18.513  24.788  1.00  0.00     0.000 A 
ATOM     15  C   UNL A   1      31.896  15.283  26.125  1.00  0.00     0.044 C 
ATOM     16  C   UNL A   1      32.878  16.248  25.534  1.00  0.00    -0.050 A 
ATOM     17  C   UNL A   1      34.165  15.827  25.184  1.00  0.00     0.003 A 
ATOM     18  C   UNL A   1      32.528  17.586  25.329  1.00  0.00     0.013 A 
ATOM     19  C   UNL A   1      35.076  16.727  24.626  1.00  0.00     0.001 A 
ATOM     20  C   UNL A   1      34.714  18.061  24.424  1.00  0.00     0.010 A 
ENDBRANCH   9  14
ENDBRANCH   5   8
ENDBRANCH   3   4
ENDBRANCH   2   3
ENDBRANCH   1   2
BRANCH   1  21
ATOM     21  C   UNL A   1      38.961  22.696  26.322  1.00  0.00     0.116 C 
BRANCH  21  22
ATOM     22  N   UNL A   1      40.410  22.855  26.363  1.00  0.00    -0.352 N 
ATOM     23  C   UNL A   1      41.144  24.019  26.527  1.00  0.00     0.251 C 
ATOM     24  H   UNL A   1      40.936  22.029  26.260  1.00  0.00     0.163 HD
ATOM     25  O   UNL A   1      42.371  24.000  26.484  1.00  0.00    -0.269 OA
BRANCH  23  26
ATOM     26  C   UNL A   1      40.435  25.268  26.890  1.00  0.00     0.039 A 
ATOM     27  C   UNL A   1      40.774  26.436  26.199  1.00  0.00     0.014 A 
ATOM     28  C   UNL A   1      39.652  25.326  28.041  1.00  0.00     0.014 A 
ATOM     29  C   UNL A   1      40.559  27.668  26.807  1.00  0.00     0.010 A 
ATOM     30  C   UNL A   1      39.520  26.541  28.688  1.00  0.00     0.010 A 
ATOM     31  C   UNL A   1      40.054  27.696  28.107  1.00  0.00    -0.014 A 
BRANCH  31  32
ATOM     32  C   UNL A   1      40.203  28.853  28.982  1.00  0.00     0.031 A 
ATOM     33  C   UNL A   1      39.188  29.923  29.004  1.00  0.00     0.074 A 
ATOM     34  C   UNL A   1      41.260  28.903  29.825  1.00  0.00     0.049 A 
ATOM     35  N   UNL A   1      39.401  31.104  29.480  1.00  0.00    -0.248 NA
ATOM     36  C   UNL A   1      37.862  29.780  28.409  1.00  0.00     0.031 C 
ATOM     37  C   UNL A   1      41.460  29.806  30.958  1.00  0.00     0.029 A 
ATOM     38  N   UNL A   1      42.505  28.265  29.669  1.00  0.00    -0.354 N 
ATOM     39  C   UNL A   1      38.190  31.747  29.550  1.00  0.00     0.074 A 
ATOM     40  C   UNL A   1      37.309  30.953  28.733  1.00  0.00     0.031 C 
ATOM     41  C   UNL A   1      42.776  29.915  31.196  1.00  0.00     0.029 A 
ATOM     42  C   UNL A   1      43.461  29.201  30.133  1.00  0.00     0.049 A 
ATOM     43  H   UNL A   1      42.676  27.363  29.313  1.00  0.00     0.167 HD
ATOM     44  C   UNL A   1      38.055  32.783  30.425  1.00  0.00     0.037 A 
ATOM     45  C   UNL A   1      44.394  29.744  29.300  1.00  0.00     0.037 A 
ATOM     46  C   UNL A   1      39.369  33.274  30.853  1.00  0.00     0.049 A 
ATOM     47  C   UNL A   1      44.356  31.253  29.225  1.00  0.00     0.074 A 
ATOM     48  C   UNL A   1      40.077  33.214  32.040  1.00  0.00     0.029 A 
ATOM     49  N   UNL A   1      40.262  33.733  29.886  1.00  0.00    -0.354 N 
ATOM     50  N   UNL A   1      43.344  31.976  29.618  1.00  0.00    -0.248 NA
ATOM     51  C   UNL A   1      45.432  32.060  28.656  1.00  0.00     0.031 C 
ATOM     52  C   UNL A   1      41.431  33.548  31.757  1.00  0.00     0.029 A 
ATOM     53  C   UNL A   1      41.533  33.851  30.409  1.00  0.00     0.049 A 
ATOM     54  H   UNL A   1      40.019  33.945  28.956  1.00  0.00     0.167 HD
ATOM     55  C   UNL A   1      43.585  33.294  29.331  1.00  0.00     0.074 A 
ATOM     56  C   UNL A   1      44.918  33.299  28.759  1.00  0.00     0.031 C 
ATOM     57  C   UNL A   1      42.650  34.261  29.565  1.00  0.00     0.037 A 
BRANCH  44  58
ATOM     58  C   UNL A   1      36.749  33.221  31.073  1.00  0.00     0.064 A 
ATOM     59  C   UNL A   1      35.801  33.959  30.327  1.00  0.00     0.173 A 
ATOM     60  C   UNL A   1      36.425  33.084  32.441  1.00  0.00     0.173 A 
ATOM     61  F   UNL A   1      35.962  34.173  29.014  1.00  0.00    -0.203 F 
ATOM     62  C   UNL A   1      34.660  34.534  30.907  1.00  0.00     0.198 A 
ATOM     63  C   UNL A   1      35.262  33.616  33.008  1.00  0.00     0.198 A 
ATOM     64  F   UNL A   1      37.234  32.485  33.317  1.00  0.00    -0.203 F 
ATOM     65  F   UNL A   1      33.836  35.280  30.159  1.00  0.00    -0.200 F 
ATOM     66  C   UNL A   1      34.389  34.356  32.247  1.00  0.00     0.200 A 
ATOM     67  F   UNL A   1      35.022  33.428  34.315  1.00  0.00    -0.200 F 
ATOM     68  F   UNL A   1      33.304  34.908  32.806  1.00  0.00    -0.200 F 
ENDBRANCH  44  58
BRANCH  45  69
ATOM     69  C   UNL A   1      44.789  28.844  28.186  1.00  0.00     0.064 A 
ATOM     70  C   UNL A   1      45.612  27.738  28.479  1.00  0.00     0.173 A 
ATOM     71  C   UNL A   1      44.109  28.836  26.963  1.00  0.00     0.173 A 
ATOM     72  F   UNL A   1      46.279  27.691  29.643  1.00  0.00    -0.203 F 
ATOM     73  C   UNL A   1      45.662  26.626  27.640  1.00  0.00     0.198 A 
ATOM     74  C   UNL A   1      44.176  27.726  26.116  1.00  0.00     0.198 A 
ATOM     75  F   UNL A   1      43.291  29.846  26.635  1.00  0.00    -0.203 F 
ATOM     76  F   UNL A   1      46.365  25.546  28.008  1.00  0.00    -0.200 F 
ATOM     77  C   UNL A   1      44.924  26.612  26.471  1.00  0.00     0.200 A 
ATOM     78  F   UNL A   1      43.433  27.696  25.000  1.00  0.00    -0.200 F 
ATOM     79  F   UNL A   1      44.896  25.511  25.708  1.00  0.00    -0.200 F 
ENDBRANCH  45  69
BRANCH  57  80
ATOM     80  C   UNL A   1      42.718  35.692  29.083  1.00  0.00     0.064 A 
ATOM     81  C   UNL A   1      42.019  36.184  27.967  1.00  0.00     0.173 A 
ATOM     82  C   UNL A   1      43.403  36.670  29.846  1.00  0.00     0.173 A 
ATOM     83  F   UNL A   1      41.228  35.389  27.234  1.00  0.00    -0.203 F 
ATOM     84  C   UNL A   1      42.060  37.533  27.601  1.00  0.00     0.198 A 
ATOM     85  C   UNL A   1      43.393  38.024  29.512  1.00  0.00     0.198 A 
ATOM     86  F   UNL A   1      44.081  36.340  30.955  1.00  0.00    -0.203 F 
ATOM     87  F   UNL A   1      41.411  37.943  26.501  1.00  0.00    -0.200 F 
ATOM     88  C   UNL A   1      42.736  38.454  28.378  1.00  0.00     0.200 A 
ATOM     89  F   UNL A   1      44.009  38.910  30.308  1.00  0.00    -0.200 F 
ATOM     90  F   UNL A   1      42.735  39.752  28.049  1.00  0.00    -0.200 F 
ENDBRANCH  57  80
ENDBRANCH  31  32
ENDBRANCH  23  26
ENDBRANCH  21  22
ENDBRANCH   1  21
TORSDOF 12
ENDMDL
MODEL 3
REMARK VINA RESULT:     -13.7      1.898      3.669
REMARK SMILES Cc1cccc(-c2cc(C(=O)NCCCCNC(=O)c3ccc(-c4c5nc(c(-c6c(F)c(F)c(F)c(F)c6F)c6ccc([nH]6)c(-c6c(F)c(F)c(F)c(F)c6F)c6nc(c(-c7c(F)c(F)c(F)c(F)c7F)c7ccc4[nH]7)C=C6)C=C5)cc3)ccn2)c1
REMARK SMILES IDX 15 1 14 2 13 3 12 4 10 5 11 6 9 8 7 9 8 10 85 11 84 12 83 13
REMARK SMILES IDX 6 14 1 15 2 16 3 17 86 18 4 19 5 20 16 21 17 22 18 23 19 25
REMARK SMILES IDX 20 26 21 27 82 28 22 29 81 30 23 31 24 32 25 33 75 34 26 35
REMARK SMILES IDX 80 36 74 37 76 38 27 39 79 40 73 41 72 42 28 44 60 45 40 46
REMARK SMILES IDX 59 47 41 48 44 49 58 50 77 51 42 52 43 53 57 55 78 56 45 57
REMARK SMILES IDX 29 58 30 59 38 60 31 61 32 62 36 63 39 64 33 65 34 66 37 67
REMARK SMILES IDX 35 68 61 69 62 70 70 71 63 72 64 73 68 74 71 75 65 76 66 77
REMARK SMILES IDX 69 78 67 79 46 80 47 81 55 82 48 83 49 84 53 85 56 86 50 87
REMARK SMILES IDX 51 88 54 89 52 90
REMARK H PARENT 12 7 17 24 76 43 44 54
REMARK Flexibility Score: inf
ROOT
ATOM      1  C   UNL A   1      32.778  30.821  27.086  1.00  0.00     0.023 C 
ENDROOT
BRANCH   1   2
ATOM      2  C   UNL A   1      31.789  29.696  26.755  1.00  0.00     0.023 C 
BRANCH   2   3
ATOM      3  C   UNL A   1      32.161  28.324  27.345  1.00  0.00     0.116 C 
BRANCH   3   4
ATOM      4  N   UNL A   1      31.139  27.319  27.108  1.00  0.00    -0.352 N 
ATOM      5  C   UNL A   1      31.042  26.223  26.286  1.00  0.00     0.251 C 
ATOM      6  O   UNL A   1      30.021  25.540  26.397  1.00  0.00    -0.269 OA
ATOM      7  H   UNL A   1      30.336  27.454  27.660  1.00  0.00     0.163 HD
BRANCH   5   8
ATOM      8  C   UNL A   1      32.076  25.795  25.303  1.00  0.00     0.043 A 
ATOM      9  C   UNL A   1      33.816  24.365  24.463  1.00  0.00     0.071 A 
ATOM     10  C   UNL A   1      32.922  24.711  25.472  1.00  0.00     0.042 A 
ATOM     11  N   UNL A   1      33.963  25.091  23.335  1.00  0.00    -0.256 NA
ATOM     12  C   UNL A   1      33.165  26.171  23.199  1.00  0.00     0.112 A 
ATOM     13  C   UNL A   1      32.214  26.550  24.133  1.00  0.00     0.034 A 
BRANCH   9  14
ATOM     14  C   UNL A   1      34.585  23.124  24.577  1.00  0.00     0.000 A 
ATOM     15  C   UNL A   1      33.862  19.371  24.626  1.00  0.00     0.044 C 
ATOM     16  C   UNL A   1      34.592  20.677  24.706  1.00  0.00    -0.050 A 
ATOM     17  C   UNL A   1      35.958  20.710  25.001  1.00  0.00     0.003 A 
ATOM     18  C   UNL A   1      33.920  21.884  24.493  1.00  0.00     0.013 A 
ATOM     19  C   UNL A   1      36.638  21.928  25.067  1.00  0.00     0.001 A 
ATOM     20  C   UNL A   1      35.957  23.128  24.851  1.00  0.00     0.010 A 
ENDBRANCH   9  14
ENDBRANCH   5   8
ENDBRANCH   3   4
ENDBRANCH   2   3
ENDBRANCH   1   2
BRANCH   1  21
ATOM     21  C   UNL A   1      34.096  30.324  27.671  1.00  0.00     0.116 C 
BRANCH  21  22
ATOM     22  N   UNL A   1      34.777  31.270  28.548  1.00  0.00    -0.352 N 
ATOM     23  C   UNL A   1      35.955  31.092  29.255  1.00  0.00     0.251 C 
ATOM     24  H   UNL A   1      34.343  32.147  28.652  1.00  0.00     0.163 HD
ATOM     25  O   UNL A   1      36.378  31.971  30.002  1.00  0.00    -0.269 OA
BRANCH  23  26
ATOM     26  C   UNL A   1      36.772  29.885  28.996  1.00  0.00     0.039 A 
ATOM     27  C   UNL A   1      37.024  29.024  30.069  1.00  0.00     0.014 A 
ATOM     28  C   UNL A   1      37.470  29.749  27.798  1.00  0.00     0.014 A 
ATOM     29  C   UNL A   1      38.153  28.212  30.035  1.00  0.00     0.010 A 
ATOM     30  C   UNL A   1      38.641  29.012  27.797  1.00  0.00     0.010 A 
ATOM     31  C   UNL A   1      39.022  28.317  28.949  1.00  0.00    -0.014 A 
BRANCH  31  32
ATOM     32  C   UNL A   1      40.409  27.871  29.009  1.00  0.00     0.031 A 
ATOM     33  C   UNL A   1      40.783  26.502  28.607  1.00  0.00     0.074 A 
ATOM     34  C   UNL A   1      41.365  28.755  29.380  1.00  0.00     0.049 A 
ATOM     35  N   UNL A   1      41.895  25.936  28.939  1.00  0.00    -0.248 NA
ATOM     36  C   UNL A   1      39.892  25.614  27.865  1.00  0.00     0.031 C 
ATOM     37  C   UNL A   1      42.814  28.613  29.248  1.00  0.00     0.029 A 
ATOM     38  N   UNL A   1      41.202  29.898  30.183  1.00  0.00    -0.354 N 
ATOM     39  C   UNL A   1      42.004  24.778  28.209  1.00  0.00     0.074 A 
ATOM     40  C   UNL A   1      40.681  24.549  27.691  1.00  0.00     0.031 C 
ATOM     41  C   UNL A   1      43.408  29.394  30.162  1.00  0.00     0.029 A 
ATOM     42  C   UNL A   1      42.357  29.945  30.999  1.00  0.00     0.049 A 
ATOM     43  H   UNL A   1      40.446  30.530  30.180  1.00  0.00     0.167 HD
ATOM     44  C   UNL A   1      43.246  24.252  28.009  1.00  0.00     0.037 A 
ATOM     45  C   UNL A   1      42.283  29.809  32.354  1.00  0.00     0.037 A 
ATOM     46  C   UNL A   1      44.208  24.821  28.957  1.00  0.00     0.049 A 
ATOM     47  C   UNL A   1      43.098  28.663  32.908  1.00  0.00     0.074 A 
ATOM     48  C   UNL A   1      45.271  25.699  28.837  1.00  0.00     0.029 A 
ATOM     49  N   UNL A   1      43.972  24.676  30.323  1.00  0.00    -0.354 N 
ATOM     50  N   UNL A   1      43.554  27.678  32.186  1.00  0.00    -0.248 NA
ATOM     51  C   UNL A   1      43.418  28.512  34.325  1.00  0.00     0.031 C 
ATOM     52  C   UNL A   1      45.607  26.156  30.142  1.00  0.00     0.029 A 
ATOM     53  C   UNL A   1      44.779  25.523  31.054  1.00  0.00     0.049 A 
ATOM     54  H   UNL A   1      43.318  24.051  30.714  1.00  0.00     0.167 HD
ATOM     55  C   UNL A   1      44.169  26.762  32.998  1.00  0.00     0.074 A 
ATOM     56  C   UNL A   1      44.086  27.344  34.324  1.00  0.00     0.031 C 
ATOM     57  C   UNL A   1      44.667  25.588  32.507  1.00  0.00     0.037 A 
BRANCH  44  58
ATOM     58  C   UNL A   1      43.653  23.390  26.823  1.00  0.00     0.064 A 
ATOM     59  C   UNL A   1      43.233  22.041  26.749  1.00  0.00     0.173 A 
ATOM     60  C   UNL A   1      44.561  23.766  25.807  1.00  0.00     0.173 A 
ATOM     61  F   UNL A   1      42.368  21.533  27.638  1.00  0.00    -0.203 F 
ATOM     62  C   UNL A   1      43.708  21.151  25.775  1.00  0.00     0.198 A 
ATOM     63  C   UNL A   1      44.996  22.890  24.807  1.00  0.00     0.198 A 
ATOM     64  F   UNL A   1      45.123  24.975  25.756  1.00  0.00    -0.203 F 
ATOM     65  F   UNL A   1      43.324  19.867  25.801  1.00  0.00    -0.200 F 
ATOM     66  C   UNL A   1      44.585  21.578  24.801  1.00  0.00     0.200 A 
ATOM     67  F   UNL A   1      45.849  23.331  23.871  1.00  0.00    -0.200 F 
ATOM     68  F   UNL A   1      45.045  20.730  23.872  1.00  0.00    -0.200 F 
ENDBRANCH  44  58
BRANCH  45  69
ATOM     69  C   UNL A   1      41.007  30.306  32.930  1.00  0.00     0.064 A 
ATOM     70  C   UNL A   1      40.785  31.697  32.964  1.00  0.00     0.173 A 
ATOM     71  C   UNL A   1      39.897  29.471  33.103  1.00  0.00     0.173 A 
ATOM     72  F   UNL A   1      41.814  32.542  32.794  1.00  0.00    -0.203 F 
ATOM     73  C   UNL A   1      39.499  32.226  33.053  1.00  0.00     0.198 A 
ATOM     74  C   UNL A   1      38.611  30.006  33.209  1.00  0.00     0.198 A 
ATOM     75  F   UNL A   1      40.037  28.139  33.056  1.00  0.00    -0.203 F 
ATOM     76  F   UNL A   1      39.318  33.552  32.966  1.00  0.00    -0.200 F 
ATOM     77  C   UNL A   1      38.411  31.379  33.150  1.00  0.00     0.200 A 
ATOM     78  F   UNL A   1      37.552  29.186  33.267  1.00  0.00    -0.200 F 
ATOM     79  F   UNL A   1      37.168  31.879  33.142  1.00  0.00    -0.200 F 
ENDBRANCH  45  69
BRANCH  57  80
ATOM     80  C   UNL A   1      45.152  24.419  33.333  1.00  0.00     0.064 A 
ATOM     81  C   UNL A   1      44.405  23.251  33.564  1.00  0.00     0.173 A 
ATOM     82  C   UNL A   1      46.485  24.388  33.810  1.00  0.00     0.173 A 
ATOM     83  F   UNL A   1      43.175  23.098  33.056  1.00  0.00    -0.203 F 
ATOM     84  C   UNL A   1      44.925  22.167  34.278  1.00  0.00     0.198 A 
ATOM     85  C   UNL A   1      47.020  23.282  34.470  1.00  0.00     0.198 A 
ATOM     86  F   UNL A   1      47.316  25.425  33.626  1.00  0.00    -0.203 F 
ATOM     87  F   UNL A   1      44.154  21.094  34.510  1.00  0.00    -0.200 F 
ATOM     88  C   UNL A   1      46.234  22.177  34.721  1.00  0.00     0.200 A 
ATOM     89  F   UNL A   1      48.308  23.288  34.844  1.00  0.00    -0.200 F 
ATOM     90  F   UNL A   1      46.742  21.118  35.365  1.00  0.00    -0.200 F 
ENDBRANCH  57  80
ENDBRANCH  31  32
ENDBRANCH  23  26
ENDBRANCH  21  22
ENDBRANCH   1  21
TORSDOF 12
ENDMDL
