MODEL 1
REMARK VINA RESULT:     -12.4      0.000      0.000
REMARK SMILES COC(=O)c1cc(F)cc(-c2ccc(C(=O)NCCCCNC(=O)c3ccc(-c4c5nc(c(-c6c(F)c(F)c(F)c(F)c6F)c6ccc([nH]6)c(-c6c(F)c(F)c(F)c(F)c6F)c6nc(c(-c7c(F)c(F)c(F)c(F)c7F)c7ccc4[nH]7)C=C6)C=C5)cc3)cc2C)c1
REMARK SMILES IDX 19 1 18 2 17 3 15 4 16 5 14 7 11 8 12 9 89 10 13 11 88 12
REMARK SMILES IDX 90 13 10 14 5 15 6 16 91 17 7 18 8 19 9 20 3 21 4 22 2 23
REMARK SMILES IDX 1 24 20 25 21 26 22 27 23 28 24 30 25 31 26 32 87 33 27 34
REMARK SMILES IDX 86 35 28 36 29 37 30 38 80 39 31 40 85 41 79 42 81 43 32 44
REMARK SMILES IDX 84 45 78 46 77 47 33 49 65 50 45 51 64 52 46 53 49 54 63 55
REMARK SMILES IDX 82 56 47 57 48 58 62 60 83 61 50 62 34 63 35 64 43 65 36 66
REMARK SMILES IDX 37 67 41 68 44 69 38 70 39 71 42 72 40 73 66 74 67 75 75 76
REMARK SMILES IDX 68 77 69 78 73 79 76 80 70 81 71 82 74 83 72 84 51 85 52 86
REMARK SMILES IDX 60 87 53 88 54 89 58 90 61 91 55 92 56 93 59 94 57 95
REMARK H PARENT 17 6 22 29 81 48 49 59
REMARK Flexibility Score: inf
ROOT
ATOM      1  C   UNL A   1      34.123  33.504  29.146  1.00  0.00     0.023 C 
ENDROOT
BRANCH   1   2
ATOM      2  C   UNL A   1      35.021  33.078  27.989  1.00  0.00     0.116 C 
BRANCH   2   3
ATOM      3  N   UNL A   1      35.600  31.759  28.172  1.00  0.00    -0.352 N 
ATOM      4  C   UNL A   1      35.245  30.490  27.782  1.00  0.00     0.251 C 
ATOM      5  O   UNL A   1      35.969  29.576  28.183  1.00  0.00    -0.269 OA
ATOM      6  H   UNL A   1      36.435  31.779  28.692  1.00  0.00     0.163 HD
BRANCH   4   7
ATOM      7  C   UNL A   1      34.057  30.141  26.940  1.00  0.00     0.040 A 
ATOM      8  C   UNL A   1      31.920  29.362  25.207  1.00  0.00    -0.015 A 
ATOM      9  C   UNL A   1      31.723  30.225  26.300  1.00  0.00     0.010 A 
ATOM     10  C   UNL A   1      33.230  28.920  24.951  1.00  0.00    -0.042 A 
ATOM     11  C   UNL A   1      32.780  30.655  27.105  1.00  0.00     0.014 A 
ATOM     12  C   UNL A   1      34.269  29.284  25.843  1.00  0.00     0.018 A 
ATOM     13  C   UNL A   1      33.616  28.127  23.730  1.00  0.00     0.045 C 
BRANCH   8  14
ATOM     14  C   UNL A   1      30.746  29.049  24.376  1.00  0.00    -0.014 A 
ATOM     15  C   UNL A   1      28.826  29.867  23.098  1.00  0.00     0.063 A 
ATOM     16  C   UNL A   1      28.355  28.563  22.951  1.00  0.00     0.055 A 
ATOM     17  C   UNL A   1      30.023  30.100  23.784  1.00  0.00     0.024 A 
ATOM     18  C   UNL A   1      29.084  27.518  23.508  1.00  0.00     0.124 A 
ATOM     19  F   UNL A   1      28.634  26.263  23.372  1.00  0.00    -0.207 F 
ATOM     20  C   UNL A   1      30.259  27.746  24.225  1.00  0.00     0.048 A 
BRANCH  15  21
ATOM     21  C   UNL A   1      28.094  31.049  22.584  1.00  0.00     0.337 C 
ATOM     22  O   UNL A   1      27.273  31.665  23.236  1.00  0.00    -0.246 OA
BRANCH  21  23
ATOM     23  O   UNL A   1      28.410  31.256  21.281  1.00  0.00    -0.465 OA
ATOM     24  C   UNL A   1      27.912  32.491  20.763  1.00  0.00     0.282 C 
ENDBRANCH  21  23
ENDBRANCH  15  21
ENDBRANCH   8  14
ENDBRANCH   4   7
ENDBRANCH   2   3
ENDBRANCH   1   2
BRANCH   1  25
ATOM     25  C   UNL A   1      33.098  34.596  28.831  1.00  0.00     0.023 C 
BRANCH  25  26
ATOM     26  C   UNL A   1      33.357  35.948  29.494  1.00  0.00     0.116 C 
BRANCH  26  27
ATOM     27  N   UNL A   1      32.518  36.192  30.656  1.00  0.00    -0.352 N 
ATOM     28  C   UNL A   1      32.655  35.739  31.944  1.00  0.00     0.251 C 
ATOM     29  H   UNL A   1      31.737  36.769  30.495  1.00  0.00     0.163 HD
ATOM     30  O   UNL A   1      31.745  35.938  32.746  1.00  0.00    -0.269 OA
BRANCH  28  31
ATOM     31  C   UNL A   1      33.862  34.998  32.381  1.00  0.00     0.039 A 
ATOM     32  C   UNL A   1      35.111  35.603  32.204  1.00  0.00     0.014 A 
ATOM     33  C   UNL A   1      33.795  33.697  32.886  1.00  0.00     0.014 A 
ATOM     34  C   UNL A   1      36.280  34.917  32.547  1.00  0.00     0.010 A 
ATOM     35  C   UNL A   1      34.953  33.042  33.299  1.00  0.00     0.010 A 
ATOM     36  C   UNL A   1      36.208  33.634  33.110  1.00  0.00    -0.014 A 
BRANCH  36  37
ATOM     37  C   UNL A   1      37.433  32.876  33.465  1.00  0.00     0.031 A 
ATOM     38  C   UNL A   1      38.158  33.177  34.750  1.00  0.00     0.074 A 
ATOM     39  C   UNL A   1      37.917  31.955  32.612  1.00  0.00     0.049 A 
ATOM     40  N   UNL A   1      39.276  32.671  35.207  1.00  0.00    -0.248 NA
ATOM     41  C   UNL A   1      37.560  34.195  35.628  1.00  0.00     0.031 C 
ATOM     42  C   UNL A   1      37.317  31.601  31.326  1.00  0.00     0.029 A 
ATOM     43  N   UNL A   1      39.029  31.154  32.693  1.00  0.00    -0.354 N 
ATOM     44  C   UNL A   1      39.516  33.315  36.414  1.00  0.00     0.074 A 
ATOM     45  C   UNL A   1      38.461  34.287  36.595  1.00  0.00     0.031 C 
ATOM     46  C   UNL A   1      38.050  30.636  30.750  1.00  0.00     0.029 A 
ATOM     47  C   UNL A   1      39.196  30.334  31.604  1.00  0.00     0.049 A 
ATOM     48  H   UNL A   1      39.647  31.166  33.459  1.00  0.00     0.167 HD
ATOM     49  C   UNL A   1      40.514  33.094  37.301  1.00  0.00     0.037 A 
ATOM     50  C   UNL A   1      40.168  29.445  31.324  1.00  0.00     0.037 A 
ATOM     51  C   UNL A   1      41.545  32.106  37.125  1.00  0.00     0.049 A 
ATOM     52  C   UNL A   1      41.280  29.237  32.314  1.00  0.00     0.074 A 
ATOM     53  C   UNL A   1      42.569  31.768  37.991  1.00  0.00     0.029 A 
ATOM     54  N   UNL A   1      41.683  31.298  36.006  1.00  0.00    -0.354 N 
ATOM     55  N   UNL A   1      41.468  29.813  33.478  1.00  0.00    -0.248 NA
ATOM     56  C   UNL A   1      42.314  28.255  31.959  1.00  0.00     0.031 C 
ATOM     57  C   UNL A   1      43.361  30.797  37.373  1.00  0.00     0.029 A 
ATOM     58  C   UNL A   1      42.794  30.482  36.148  1.00  0.00     0.049 A 
ATOM     59  H   UNL A   1      41.082  31.304  35.225  1.00  0.00     0.167 HD
ATOM     60  C   UNL A   1      42.620  29.245  34.004  1.00  0.00     0.074 A 
ATOM     61  C   UNL A   1      43.084  28.271  33.038  1.00  0.00     0.031 C 
ATOM     62  C   UNL A   1      43.237  29.509  35.182  1.00  0.00     0.037 A 
BRANCH  49  63
ATOM     63  C   UNL A   1      40.542  33.920  38.556  1.00  0.00     0.064 A 
ATOM     64  C   UNL A   1      41.345  35.068  38.637  1.00  0.00     0.173 A 
ATOM     65  C   UNL A   1      39.844  33.528  39.708  1.00  0.00     0.173 A 
ATOM     66  F   UNL A   1      42.038  35.484  37.566  1.00  0.00    -0.203 F 
ATOM     67  C   UNL A   1      41.464  35.779  39.827  1.00  0.00     0.198 A 
ATOM     68  C   UNL A   1      39.940  34.260  40.890  1.00  0.00     0.198 A 
ATOM     69  F   UNL A   1      39.053  32.444  39.684  1.00  0.00    -0.203 F 
ATOM     70  F   UNL A   1      42.269  36.849  39.890  1.00  0.00    -0.200 F 
ATOM     71  C   UNL A   1      40.758  35.378  40.952  1.00  0.00     0.200 A 
ATOM     72  F   UNL A   1      39.238  33.884  41.968  1.00  0.00    -0.200 F 
ATOM     73  F   UNL A   1      40.869  36.066  42.095  1.00  0.00    -0.200 F 
ENDBRANCH  49  63
BRANCH  50  74
ATOM     74  C   UNL A   1      40.102  28.662  30.062  1.00  0.00     0.064 A 
ATOM     75  C   UNL A   1      39.465  27.413  30.005  1.00  0.00     0.173 A 
ATOM     76  C   UNL A   1      40.711  29.136  28.891  1.00  0.00     0.173 A 
ATOM     77  F   UNL A   1      38.873  26.911  31.099  1.00  0.00    -0.203 F 
ATOM     78  C   UNL A   1      39.463  26.658  28.835  1.00  0.00     0.198 A 
ATOM     79  C   UNL A   1      40.681  28.393  27.712  1.00  0.00     0.198 A 
ATOM     80  F   UNL A   1      41.314  30.333  28.889  1.00  0.00    -0.203 F 
ATOM     81  F   UNL A   1      38.883  25.450  28.820  1.00  0.00    -0.200 F 
ATOM     82  C   UNL A   1      40.066  27.151  27.687  1.00  0.00     0.200 A 
ATOM     83  F   UNL A   1      41.245  28.884  26.600  1.00  0.00    -0.200 F 
ATOM     84  F   UNL A   1      40.053  26.429  26.558  1.00  0.00    -0.200 F 
ENDBRANCH  50  74
BRANCH  62  85
ATOM     85  C   UNL A   1      44.470  28.722  35.519  1.00  0.00     0.064 A 
ATOM     86  C   UNL A   1      45.729  29.152  35.070  1.00  0.00     0.173 A 
ATOM     87  C   UNL A   1      44.398  27.500  36.202  1.00  0.00     0.173 A 
ATOM     88  F   UNL A   1      45.851  30.310  34.403  1.00  0.00    -0.203 F 
ATOM     89  C   UNL A   1      46.866  28.376  35.275  1.00  0.00     0.198 A 
ATOM     90  C   UNL A   1      45.542  26.742  36.433  1.00  0.00     0.198 A 
ATOM     91  F   UNL A   1      43.220  27.051  36.661  1.00  0.00    -0.203 F 
ATOM     92  F   UNL A   1      48.050  28.784  34.797  1.00  0.00    -0.200 F 
ATOM     93  C   UNL A   1      46.773  27.173  35.958  1.00  0.00     0.200 A 
ATOM     94  F   UNL A   1      45.454  25.592  37.116  1.00  0.00    -0.200 F 
ATOM     95  F   UNL A   1      47.868  26.429  36.160  1.00  0.00    -0.200 F 
ENDBRANCH  62  85
ENDBRANCH  36  37
ENDBRANCH  28  31
ENDBRANCH  26  27
ENDBRANCH  25  26
ENDBRANCH   1  25
TORSDOF 14
ENDMDL
MODEL 2
REMARK VINA RESULT:     -12.2      4.067      8.331
REMARK SMILES COC(=O)c1cc(F)cc(-c2ccc(C(=O)NCCCCNC(=O)c3ccc(-c4c5nc(c(-c6c(F)c(F)c(F)c(F)c6F)c6ccc([nH]6)c(-c6c(F)c(F)c(F)c(F)c6F)c6nc(c(-c7c(F)c(F)c(F)c(F)c7F)c7ccc4[nH]7)C=C6)C=C5)cc3)cc2C)c1
REMARK SMILES IDX 19 1 18 2 17 3 15 4 16 5 14 7 11 8 12 9 89 10 13 11 88 12
REMARK SMILES IDX 90 13 10 14 5 15 6 16 91 17 7 18 8 19 9 20 3 21 4 22 2 23
REMARK SMILES IDX 1 24 20 25 21 26 22 27 23 28 24 30 25 31 26 32 87 33 27 34
REMARK SMILES IDX 86 35 28 36 29 37 30 38 80 39 31 40 85 41 79 42 81 43 32 44
REMARK SMILES IDX 84 45 78 46 77 47 33 49 65 50 45 51 64 52 46 53 49 54 63 55
REMARK SMILES IDX 82 56 47 57 48 58 62 60 83 61 50 62 34 63 35 64 43 65 36 66
REMARK SMILES IDX 37 67 41 68 44 69 38 70 39 71 42 72 40 73 66 74 67 75 75 76
REMARK SMILES IDX 68 77 69 78 73 79 76 80 70 81 71 82 74 83 72 84 51 85 52 86
REMARK SMILES IDX 60 87 53 88 54 89 58 90 61 91 55 92 56 93 59 94 57 95
REMARK H PARENT 17 6 22 29 81 48 49 59
REMARK Flexibility Score: inf
ROOT
ATOM      1  C   UNL A   1      33.293  34.770  28.889  1.00  0.00     0.023 C 
ENDROOT
BRANCH   1   2
ATOM      2  C   UNL A   1      33.455  36.242  29.254  1.00  0.00     0.116 C 
BRANCH   2   3
ATOM      3  N   UNL A   1      32.775  36.604  30.484  1.00  0.00    -0.352 N 
ATOM      4  C   UNL A   1      32.863  36.186  31.791  1.00  0.00     0.251 C 
ATOM      5  O   UNL A   1      32.060  36.692  32.578  1.00  0.00    -0.269 OA
ATOM      6  H   UNL A   1      32.099  37.307  30.353  1.00  0.00     0.163 HD
BRANCH   4   7
ATOM      7  C   UNL A   1      33.827  35.168  32.314  1.00  0.00     0.040 A 
ATOM      8  C   UNL A   1      35.827  33.337  33.224  1.00  0.00    -0.015 A 
ATOM      9  C   UNL A   1      34.455  33.124  33.450  1.00  0.00     0.010 A 
ATOM     10  C   UNL A   1      36.198  34.472  32.481  1.00  0.00    -0.042 A 
ATOM     11  C   UNL A   1      33.478  33.985  32.948  1.00  0.00     0.014 A 
ATOM     12  C   UNL A   1      35.197  35.388  32.073  1.00  0.00     0.018 A 
ATOM     13  C   UNL A   1      37.608  34.743  32.027  1.00  0.00     0.045 C 
BRANCH   8  14
ATOM     14  C   UNL A   1      36.758  32.314  33.724  1.00  0.00    -0.014 A 
ATOM     15  C   UNL A   1      38.474  31.680  35.350  1.00  0.00     0.063 A 
ATOM     16  C   UNL A   1      38.728  30.507  34.641  1.00  0.00     0.055 A 
ATOM     17  C   UNL A   1      37.481  32.559  34.906  1.00  0.00     0.024 A 
ATOM     18  C   UNL A   1      37.995  30.244  33.489  1.00  0.00     0.124 A 
ATOM     19  F   UNL A   1      38.237  29.120  32.802  1.00  0.00    -0.207 F 
ATOM     20  C   UNL A   1      37.028  31.134  33.020  1.00  0.00     0.048 A 
BRANCH  15  21
ATOM     21  C   UNL A   1      39.238  32.071  36.559  1.00  0.00     0.337 C 
ATOM     22  O   UNL A   1      40.240  31.493  36.934  1.00  0.00    -0.246 OA
BRANCH  21  23
ATOM     23  O   UNL A   1      38.597  33.077  37.204  1.00  0.00    -0.465 OA
ATOM     24  C   UNL A   1      39.178  33.406  38.467  1.00  0.00     0.282 C 
ENDBRANCH  21  23
ENDBRANCH  15  21
ENDBRANCH   8  14
ENDBRANCH   4   7
ENDBRANCH   2   3
ENDBRANCH   1   2
BRANCH   1  25
ATOM     25  C   UNL A   1      34.590  33.974  28.729  1.00  0.00     0.023 C 
BRANCH  25  26
ATOM     26  C   UNL A   1      34.579  32.574  29.343  1.00  0.00     0.116 C 
BRANCH  26  27
ATOM     27  N   UNL A   1      33.968  31.572  28.486  1.00  0.00    -0.352 N 
ATOM     28  C   UNL A   1      34.525  30.462  27.902  1.00  0.00     0.251 C 
ATOM     29  H   UNL A   1      33.012  31.710  28.295  1.00  0.00     0.163 HD
ATOM     30  O   UNL A   1      33.868  29.824  27.082  1.00  0.00    -0.269 OA
BRANCH  28  31
ATOM     31  C   UNL A   1      35.907  30.030  28.221  1.00  0.00     0.039 A 
ATOM     32  C   UNL A   1      36.147  29.450  29.472  1.00  0.00     0.014 A 
ATOM     33  C   UNL A   1      36.977  30.254  27.353  1.00  0.00     0.014 A 
ATOM     34  C   UNL A   1      37.444  29.082  29.840  1.00  0.00     0.010 A 
ATOM     35  C   UNL A   1      38.258  29.818  27.686  1.00  0.00     0.010 A 
ATOM     36  C   UNL A   1      38.509  29.252  28.942  1.00  0.00    -0.014 A 
BRANCH  36  37
ATOM     37  C   UNL A   1      39.899  28.887  29.313  1.00  0.00     0.031 A 
ATOM     38  C   UNL A   1      40.710  29.805  30.187  1.00  0.00     0.074 A 
ATOM     39  C   UNL A   1      40.444  27.757  28.825  1.00  0.00     0.049 A 
ATOM     40  N   UNL A   1      41.957  29.695  30.569  1.00  0.00    -0.248 NA
ATOM     41  C   UNL A   1      40.038  31.017  30.682  1.00  0.00     0.031 C 
ATOM     42  C   UNL A   1      39.763  26.807  27.945  1.00  0.00     0.029 A 
ATOM     43  N   UNL A   1      41.696  27.220  28.991  1.00  0.00    -0.354 N 
ATOM     44  C   UNL A   1      42.219  30.824  31.335  1.00  0.00     0.074 A 
ATOM     45  C   UNL A   1      41.021  31.634  31.322  1.00  0.00     0.031 C 
ATOM     46  C   UNL A   1      40.596  25.791  27.669  1.00  0.00     0.029 A 
ATOM     47  C   UNL A   1      41.882  26.038  28.318  1.00  0.00     0.049 A 
ATOM     48  H   UNL A   1      42.394  27.643  29.542  1.00  0.00     0.167 HD
ATOM     49  C   UNL A   1      43.348  31.140  32.010  1.00  0.00     0.037 A 
ATOM     50  C   UNL A   1      42.968  25.248  28.226  1.00  0.00     0.037 A 
ATOM     51  C   UNL A   1      44.527  30.314  32.040  1.00  0.00     0.049 A 
ATOM     52  C   UNL A   1      44.220  25.635  28.965  1.00  0.00     0.074 A 
ATOM     53  C   UNL A   1      45.703  30.519  32.738  1.00  0.00     0.029 A 
ATOM     54  N   UNL A   1      44.678  29.126  31.340  1.00  0.00    -0.354 N 
ATOM     55  N   UNL A   1      44.439  26.677  29.731  1.00  0.00    -0.248 NA
ATOM     56  C   UNL A   1      45.376  24.738  28.832  1.00  0.00     0.031 C 
ATOM     57  C   UNL A   1      46.588  29.487  32.416  1.00  0.00     0.029 A 
ATOM     58  C   UNL A   1      45.940  28.603  31.568  1.00  0.00     0.049 A 
ATOM     59  H   UNL A   1      43.991  28.716  30.765  1.00  0.00     0.167 HD
ATOM     60  C   UNL A   1      45.741  26.548  30.192  1.00  0.00     0.074 A 
ATOM     61  C   UNL A   1      46.263  25.319  29.629  1.00  0.00     0.031 C 
ATOM     62  C   UNL A   1      46.441  27.373  31.008  1.00  0.00     0.037 A 
BRANCH  49  63
ATOM     63  C   UNL A   1      43.373  32.424  32.790  1.00  0.00     0.064 A 
ATOM     64  C   UNL A   1      42.864  32.475  34.096  1.00  0.00     0.173 A 
ATOM     65  C   UNL A   1      43.817  33.623  32.214  1.00  0.00     0.173 A 
ATOM     66  F   UNL A   1      42.420  31.359  34.693  1.00  0.00    -0.203 F 
ATOM     67  C   UNL A   1      42.782  33.680  34.788  1.00  0.00     0.198 A 
ATOM     68  C   UNL A   1      43.763  34.823  32.920  1.00  0.00     0.198 A 
ATOM     69  F   UNL A   1      44.323  33.629  30.970  1.00  0.00    -0.203 F 
ATOM     70  F   UNL A   1      42.254  33.710  36.020  1.00  0.00    -0.200 F 
ATOM     71  C   UNL A   1      43.235  34.852  34.202  1.00  0.00     0.200 A 
ATOM     72  F   UNL A   1      44.224  35.950  32.360  1.00  0.00    -0.200 F 
ATOM     73  F   UNL A   1      43.160  36.011  34.871  1.00  0.00    -0.200 F 
ENDBRANCH  49  63
BRANCH  50  74
ATOM     74  C   UNL A   1      42.898  23.995  27.431  1.00  0.00     0.064 A 
ATOM     75  C   UNL A   1      42.532  22.773  28.017  1.00  0.00     0.173 A 
ATOM     76  C   UNL A   1      43.233  23.989  26.069  1.00  0.00     0.173 A 
ATOM     77  F   UNL A   1      42.208  22.723  29.318  1.00  0.00    -0.203 F 
ATOM     78  C   UNL A   1      42.529  21.592  27.279  1.00  0.00     0.198 A 
ATOM     79  C   UNL A   1      43.199  22.812  25.325  1.00  0.00     0.198 A 
ATOM     80  F   UNL A   1      43.569  25.134  25.459  1.00  0.00    -0.203 F 
ATOM     81  F   UNL A   1      42.216  20.433  27.874  1.00  0.00    -0.200 F 
ATOM     82  C   UNL A   1      42.857  21.613  25.932  1.00  0.00     0.200 A 
ATOM     83  F   UNL A   1      43.495  22.841  24.018  1.00  0.00    -0.200 F 
ATOM     84  F   UNL A   1      42.843  20.478  25.219  1.00  0.00    -0.200 F 
ENDBRANCH  50  74
BRANCH  62  85
ATOM     85  C   UNL A   1      47.842  26.975  31.373  1.00  0.00     0.064 A 
ATOM     86  C   UNL A   1      48.927  27.420  30.602  1.00  0.00     0.173 A 
ATOM     87  C   UNL A   1      48.103  26.083  32.422  1.00  0.00     0.173 A 
ATOM     88  F   UNL A   1      48.730  28.266  29.579  1.00  0.00    -0.203 F 
ATOM     89  C   UNL A   1      50.219  26.969  30.856  1.00  0.00     0.198 A 
ATOM     90  C   UNL A   1      49.401  25.659  32.694  1.00  0.00     0.198 A 
ATOM     91  F   UNL A   1      47.101  25.638  33.196  1.00  0.00    -0.203 F 
ATOM     92  F   UNL A   1      51.234  27.371  30.077  1.00  0.00    -0.200 F 
ATOM     93  C   UNL A   1      50.456  26.091  31.903  1.00  0.00     0.200 A 
ATOM     94  F   UNL A   1      49.631  24.831  33.722  1.00  0.00    -0.200 F 
ATOM     95  F   UNL A   1      51.700  25.663  32.151  1.00  0.00    -0.200 F 
ENDBRANCH  62  85
ENDBRANCH  36  37
ENDBRANCH  28  31
ENDBRANCH  26  27
ENDBRANCH  25  26
ENDBRANCH   1  25
TORSDOF 14
ENDMDL
MODEL 3
REMARK VINA RESULT:     -12.2      0.509      7.428
REMARK SMILES COC(=O)c1cc(F)cc(-c2ccc(C(=O)NCCCCNC(=O)c3ccc(-c4c5nc(c(-c6c(F)c(F)c(F)c(F)c6F)c6ccc([nH]6)c(-c6c(F)c(F)c(F)c(F)c6F)c6nc(c(-c7c(F)c(F)c(F)c(F)c7F)c7ccc4[nH]7)C=C6)C=C5)cc3)cc2C)c1
REMARK SMILES IDX 19 1 18 2 17 3 15 4 16 5 14 7 11 8 12 9 89 10 13 11 88 12
REMARK SMILES IDX 90 13 10 14 5 15 6 16 91 17 7 18 8 19 9 20 3 21 4 22 2 23
REMARK SMILES IDX 1 24 20 25 21 26 22 27 23 28 24 30 25 31 26 32 87 33 27 34
REMARK SMILES IDX 86 35 28 36 29 37 30 38 80 39 31 40 85 41 79 42 81 43 32 44
REMARK SMILES IDX 84 45 78 46 77 47 33 49 65 50 45 51 64 52 46 53 49 54 63 55
REMARK SMILES IDX 82 56 47 57 48 58 62 60 83 61 50 62 34 63 35 64 43 65 36 66
REMARK SMILES IDX 37 67 41 68 44 69 38 70 39 71 42 72 40 73 66 74 67 75 75 76
REMARK SMILES IDX 68 77 69 78 73 79 76 80 70 81 71 82 74 83 72 84 51 85 52 86
REMARK SMILES IDX 60 87 53 88 54 89 58 90 61 91 55 92 56 93 59 94 57 95
REMARK H PARENT 17 6 22 29 81 48 49 59
REMARK Flexibility Score: inf
ROOT
ATOM      1  C   UNL A   1      34.247  33.604  29.158  1.00  0.00     0.023 C 
ENDROOT
BRANCH   1   2
ATOM      2  C   UNL A   1      34.973  32.945  27.989  1.00  0.00     0.116 C 
BRANCH   2   3
ATOM      3  N   UNL A   1      35.545  31.654  28.326  1.00  0.00    -0.352 N 
ATOM      4  C   UNL A   1      35.219  30.352  28.033  1.00  0.00     0.251 C 
ATOM      5  O   UNL A   1      35.921  29.485  28.559  1.00  0.00    -0.269 OA
ATOM      6  H   UNL A   1      36.346  31.729  28.892  1.00  0.00     0.163 HD
BRANCH   4   7
ATOM      7  C   UNL A   1      34.087  29.916  27.157  1.00  0.00     0.040 A 
ATOM      8  C   UNL A   1      32.063  28.964  25.373  1.00  0.00    -0.015 A 
ATOM      9  C   UNL A   1      31.792  29.905  26.383  1.00  0.00     0.010 A 
ATOM     10  C   UNL A   1      33.392  28.529  25.227  1.00  0.00    -0.042 A 
ATOM     11  C   UNL A   1      32.795  30.417  27.209  1.00  0.00     0.014 A 
ATOM     12  C   UNL A   1      34.373  28.980  26.144  1.00  0.00     0.018 A 
ATOM     13  C   UNL A   1      33.858  27.650  24.095  1.00  0.00     0.045 C 
BRANCH   8  14
ATOM     14  C   UNL A   1      30.944  28.566  24.506  1.00  0.00    -0.014 A 
ATOM     15  C   UNL A   1      29.186  29.236  22.940  1.00  0.00     0.063 A 
ATOM     16  C   UNL A   1      28.650  27.949  22.975  1.00  0.00     0.055 A 
ATOM     17  C   UNL A   1      30.336  29.529  23.680  1.00  0.00     0.024 A 
ATOM     18  C   UNL A   1      29.265  26.985  23.765  1.00  0.00     0.124 A 
ATOM     19  F   UNL A   1      28.752  25.748  23.804  1.00  0.00    -0.207 F 
ATOM     20  C   UNL A   1      30.391  27.281  24.535  1.00  0.00     0.048 A 
BRANCH  15  21
ATOM     21  C   UNL A   1      28.572  30.343  22.167  1.00  0.00     0.337 C 
ATOM     22  O   UNL A   1      28.370  30.293  20.970  1.00  0.00    -0.246 OA
BRANCH  21  23
ATOM     23  O   UNL A   1      28.378  31.415  22.975  1.00  0.00    -0.465 OA
ATOM     24  C   UNL A   1      28.602  32.667  22.324  1.00  0.00     0.282 C 
ENDBRANCH  21  23
ENDBRANCH  15  21
ENDBRANCH   8  14
ENDBRANCH   4   7
ENDBRANCH   2   3
ENDBRANCH   1   2
BRANCH   1  25
ATOM     25  C   UNL A   1      33.266  34.721  28.793  1.00  0.00     0.023 C 
BRANCH  25  26
ATOM     26  C   UNL A   1      33.376  35.989  29.638  1.00  0.00     0.116 C 
BRANCH  26  27
ATOM     27  N   UNL A   1      32.438  36.028  30.747  1.00  0.00    -0.352 N 
ATOM     28  C   UNL A   1      32.537  35.470  31.997  1.00  0.00     0.251 C 
ATOM     29  H   UNL A   1      31.608  36.530  30.577  1.00  0.00     0.163 HD
ATOM     30  O   UNL A   1      31.558  35.491  32.740  1.00  0.00    -0.269 OA
BRANCH  28  31
ATOM     31  C   UNL A   1      33.788  34.823  32.461  1.00  0.00     0.039 A 
ATOM     32  C   UNL A   1      34.986  35.535  32.337  1.00  0.00     0.014 A 
ATOM     33  C   UNL A   1      33.816  33.511  32.937  1.00  0.00     0.014 A 
ATOM     34  C   UNL A   1      36.197  34.944  32.706  1.00  0.00     0.010 A 
ATOM     35  C   UNL A   1      35.012  32.947  33.377  1.00  0.00     0.010 A 
ATOM     36  C   UNL A   1      36.217  33.647  33.241  1.00  0.00    -0.014 A 
BRANCH  36  37
ATOM     37  C   UNL A   1      37.491  32.988  33.623  1.00  0.00     0.031 A 
ATOM     38  C   UNL A   1      38.110  31.964  32.711  1.00  0.00     0.074 A 
ATOM     39  C   UNL A   1      38.060  33.275  34.808  1.00  0.00     0.049 A 
ATOM     40  N   UNL A   1      39.181  31.233  32.895  1.00  0.00    -0.248 NA
ATOM     41  C   UNL A   1      37.427  31.711  31.433  1.00  0.00     0.031 C 
ATOM     42  C   UNL A   1      37.533  34.227  35.786  1.00  0.00     0.029 A 
ATOM     43  N   UNL A   1      39.201  32.790  35.396  1.00  0.00    -0.354 N 
ATOM     44  C   UNL A   1      39.291  30.432  31.765  1.00  0.00     0.074 A 
ATOM     45  C   UNL A   1      38.151  30.724  30.925  1.00  0.00     0.031 C 
ATOM     46  C   UNL A   1      38.362  34.277  36.840  1.00  0.00     0.029 A 
ATOM     47  C   UNL A   1      39.455  33.330  36.633  1.00  0.00     0.049 A 
ATOM     48  H   UNL A   1      39.783  32.118  34.971  1.00  0.00     0.167 HD
ATOM     49  C   UNL A   1      40.270  29.554  31.447  1.00  0.00     0.037 A 
ATOM     50  C   UNL A   1      40.451  33.082  37.505  1.00  0.00     0.037 A 
ATOM     51  C   UNL A   1      41.416  29.290  32.277  1.00  0.00     0.049 A 
ATOM     52  C   UNL A   1      41.513  32.081  37.140  1.00  0.00     0.074 A 
ATOM     53  C   UNL A   1      42.491  28.458  32.021  1.00  0.00     0.029 A 
ATOM     54  N   UNL A   1      41.634  29.853  33.527  1.00  0.00    -0.354 N 
ATOM     55  N   UNL A   1      41.636  31.369  36.045  1.00  0.00    -0.248 NA
ATOM     56  C   UNL A   1      42.577  31.850  38.127  1.00  0.00     0.031 C 
ATOM     57  C   UNL A   1      43.331  28.472  33.137  1.00  0.00     0.029 A 
ATOM     58  C   UNL A   1      42.814  29.363  34.064  1.00  0.00     0.049 A 
ATOM     59  H   UNL A   1      41.039  30.503  33.967  1.00  0.00     0.167 HD
ATOM     60  C   UNL A   1      42.800  30.630  36.198  1.00  0.00     0.074 A 
ATOM     61  C   UNL A   1      43.355  30.987  37.488  1.00  0.00     0.031 C 
ATOM     62  C   UNL A   1      43.358  29.736  35.346  1.00  0.00     0.037 A 
BRANCH  49  63
ATOM     63  C   UNL A   1      40.166  28.817  30.142  1.00  0.00     0.064 A 
ATOM     64  C   UNL A   1      39.512  27.578  30.073  1.00  0.00     0.173 A 
ATOM     65  C   UNL A   1      40.790  29.293  28.979  1.00  0.00     0.173 A 
ATOM     66  F   UNL A   1      38.904  27.073  31.158  1.00  0.00    -0.203 F 
ATOM     67  C   UNL A   1      39.502  26.835  28.897  1.00  0.00     0.198 A 
ATOM     68  C   UNL A   1      40.752  28.562  27.794  1.00  0.00     0.198 A 
ATOM     69  F   UNL A   1      41.421  30.477  28.987  1.00  0.00    -0.203 F 
ATOM     70  F   UNL A   1      38.905  25.635  28.867  1.00  0.00    -0.200 F 
ATOM     71  C   UNL A   1      40.118  27.329  27.756  1.00  0.00     0.200 A 
ATOM     72  F   UNL A   1      41.327  29.053  26.687  1.00  0.00    -0.200 F 
ATOM     73  F   UNL A   1      40.104  26.616  26.622  1.00  0.00    -0.200 F 
ENDBRANCH  49  63
BRANCH  50  74
ATOM     74  C   UNL A   1      40.502  33.827  38.790  1.00  0.00     0.064 A 
ATOM     75  C   UNL A   1      41.311  34.964  38.947  1.00  0.00     0.173 A 
ATOM     76  C   UNL A   1      39.766  33.393  39.901  1.00  0.00     0.173 A 
ATOM     77  F   UNL A   1      42.039  35.417  37.917  1.00  0.00    -0.203 F 
ATOM     78  C   UNL A   1      41.400  35.619  40.173  1.00  0.00     0.198 A 
ATOM     79  C   UNL A   1      39.834  34.068  41.118  1.00  0.00     0.198 A 
ATOM     80  F   UNL A   1      38.964  32.324  39.795  1.00  0.00    -0.203 F 
ATOM     81  F   UNL A   1      42.212  36.677  40.307  1.00  0.00    -0.200 F 
ATOM     82  C   UNL A   1      40.658  35.174  41.256  1.00  0.00     0.200 A 
ATOM     83  F   UNL A   1      39.096  33.648  42.155  1.00  0.00    -0.200 F 
ATOM     84  F   UNL A   1      40.736  35.813  42.432  1.00  0.00    -0.200 F 
ENDBRANCH  50  74
BRANCH  62  85
ATOM     85  C   UNL A   1      44.650  29.090  35.754  1.00  0.00     0.064 A 
ATOM     86  C   UNL A   1      44.642  27.901  36.501  1.00  0.00     0.173 A 
ATOM     87  C   UNL A   1      45.889  29.692  35.491  1.00  0.00     0.173 A 
ATOM     88  F   UNL A   1      43.482  27.290  36.789  1.00  0.00    -0.203 F 
ATOM     89  C   UNL A   1      45.825  27.351  36.986  1.00  0.00     0.198 A 
ATOM     90  C   UNL A   1      47.073  29.122  35.950  1.00  0.00     0.198 A 
ATOM     91  F   UNL A   1      45.950  30.823  34.771  1.00  0.00    -0.203 F 
ATOM     92  F   UNL A   1      45.789  26.241  37.735  1.00  0.00    -0.200 F 
ATOM     93  C   UNL A   1      47.039  27.960  36.708  1.00  0.00     0.200 A 
ATOM     94  F   UNL A   1      48.247  29.697  35.659  1.00  0.00    -0.200 F 
ATOM     95  F   UNL A   1      48.178  27.427  37.170  1.00  0.00    -0.200 F 
ENDBRANCH  62  85
ENDBRANCH  36  37
ENDBRANCH  28  31
ENDBRANCH  26  27
ENDBRANCH  25  26
ENDBRANCH   1  25
TORSDOF 14
ENDMDL
