MODEL 1
REMARK VINA RESULT:     -12.2      0.000      0.000
REMARK SMILES N#C/C(=C/c1cccc(OCC(=O)NCCCCNC(=O)c2ccc(-c3c4nc(c(-c5c(F)c(F)c(F)c(F)c5F)c5ccc([nH]5)c(-c5c(F)c(F)c(F)c(F)c5F)c5nc(c(-c6c(F)c(F)c(F)c(F)c6F)c6ccc3[nH]6)C=C5)C=C4)cc2)c1)c1nc2ccccc2[nH]1
REMARK SMILES IDX 15 1 14 2 12 3 13 4 11 6 10 7 9 8 5 9 6 10 85 11 7 12 8 13
REMARK SMILES IDX 4 14 3 15 2 16 1 17 86 18 87 19 94 20 88 21 93 22 89 24
REMARK SMILES IDX 92 25 90 26 91 27 16 28 17 29 18 30 19 31 20 32 21 34 22 35
REMARK SMILES IDX 23 36 84 37 24 38 83 39 25 40 26 41 27 42 77 43 28 44 82 45
REMARK SMILES IDX 76 46 78 47 29 48 81 49 75 50 74 51 30 53 62 54 42 55 61 56
REMARK SMILES IDX 43 57 46 58 60 59 79 60 44 61 45 62 59 64 80 65 47 66 31 67
REMARK SMILES IDX 32 68 40 69 33 70 34 71 38 72 41 73 35 74 36 75 39 76 37 77
REMARK SMILES IDX 63 78 64 79 72 80 65 81 66 82 70 83 73 84 67 85 68 86 71 87
REMARK SMILES IDX 69 88 48 89 49 90 57 91 50 92 51 93 55 94 58 95 52 96 53 97
REMARK SMILES IDX 56 98 54 99
REMARK H PARENT 14 5 94 23 19 33 78 52 46 63
REMARK Flexibility Score: inf
ROOT
ATOM      1  C   UNL A   1      34.389  33.696  27.972  1.00  0.00     0.116 C 
ENDROOT
BRANCH   1   2
ATOM      2  N   UNL A   1      35.560  32.848  28.102  1.00  0.00    -0.353 N 
ATOM      3  C   UNL A   1      35.660  31.507  27.833  1.00  0.00     0.257 C 
ATOM      4  O   UNL A   1      36.772  30.989  27.706  1.00  0.00    -0.271 OA
ATOM      5  H   UNL A   1      36.381  33.288  28.421  1.00  0.00     0.163 HD
BRANCH   3   6
ATOM      6  C   UNL A   1      34.392  30.666  27.648  1.00  0.00     0.329 C 
BRANCH   6   7
ATOM      7  O   UNL A   1      34.566  29.260  27.671  1.00  0.00    -0.484 OA
BRANCH   7   8
ATOM      8  C   UNL A   1      33.690  28.489  26.953  1.00  0.00     0.120 A 
ATOM      9  C   UNL A   1      32.933  27.122  25.085  1.00  0.00    -0.021 A 
ATOM     10  C   UNL A   1      31.733  26.878  25.758  1.00  0.00     0.008 A 
ATOM     11  C   UNL A   1      33.900  27.952  25.680  1.00  0.00     0.054 A 
ATOM     12  C   UNL A   1      31.507  27.436  27.015  1.00  0.00     0.004 A 
ATOM     13  C   UNL A   1      32.484  28.236  27.608  1.00  0.00     0.046 A 
BRANCH   9  14
ATOM     14  C   UNL A   1      33.153  26.511  23.761  1.00  0.00     0.031 C 
ATOM     15  C   UNL A   1      32.355  26.642  22.683  1.00  0.00     0.095 C 
BRANCH  15  16
ATOM     16  C   UNL A   1      32.718  25.950  21.379  1.00  0.00     0.103 C 
ATOM     17  N   UNL A   1      33.019  25.377  20.297  1.00  0.00    -0.192 NA
ENDBRANCH  15  16
BRANCH  15  18
ATOM     18  C   UNL A   1      31.194  27.466  22.691  1.00  0.00     0.149 A 
ATOM     19  N   UNL A   1      29.972  27.230  23.131  1.00  0.00    -0.228 NA
ATOM     20  N   UNL A   1      31.277  28.736  22.160  1.00  0.00    -0.337 N 
ATOM     21  C   UNL A   1      29.242  28.353  22.832  1.00  0.00     0.089 A 
ATOM     22  C   UNL A   1      30.031  29.309  22.210  1.00  0.00     0.066 A 
ATOM     23  H   UNL A   1      32.092  29.159  21.804  1.00  0.00     0.168 HD
ATOM     24  C   UNL A   1      27.886  28.628  23.049  1.00  0.00     0.030 A 
ATOM     25  C   UNL A   1      29.538  30.532  21.748  1.00  0.00     0.028 A 
ATOM     26  C   UNL A   1      27.357  29.838  22.581  1.00  0.00     0.002 A 
ATOM     27  C   UNL A   1      28.172  30.769  21.932  1.00  0.00     0.002 A 
ENDBRANCH  15  18
ENDBRANCH   9  14
ENDBRANCH   7   8
ENDBRANCH   6   7
ENDBRANCH   3   6
ENDBRANCH   1   2
BRANCH   1  28
ATOM     28  C   UNL A   1      34.653  35.196  28.096  1.00  0.00     0.023 C 
BRANCH  28  29
ATOM     29  C   UNL A   1      33.662  36.047  28.902  1.00  0.00     0.023 C 
BRANCH  29  30
ATOM     30  C   UNL A   1      32.658  35.339  29.810  1.00  0.00     0.116 C 
BRANCH  30  31
ATOM     31  N   UNL A   1      32.290  36.112  30.982  1.00  0.00    -0.352 N 
ATOM     32  C   UNL A   1      32.811  36.073  32.256  1.00  0.00     0.251 C 
ATOM     33  H   UNL A   1      31.560  36.759  30.847  1.00  0.00     0.163 HD
ATOM     34  O   UNL A   1      32.264  36.721  33.150  1.00  0.00    -0.269 OA
BRANCH  32  35
ATOM     35  C   UNL A   1      34.005  35.254  32.592  1.00  0.00     0.039 A 
ATOM     36  C   UNL A   1      35.272  35.756  32.269  1.00  0.00     0.014 A 
ATOM     37  C   UNL A   1      33.901  33.978  33.156  1.00  0.00     0.014 A 
ATOM     38  C   UNL A   1      36.424  35.011  32.551  1.00  0.00     0.010 A 
ATOM     39  C   UNL A   1      35.055  33.254  33.484  1.00  0.00     0.010 A 
ATOM     40  C   UNL A   1      36.330  33.760  33.183  1.00  0.00    -0.014 A 
BRANCH  40  41
ATOM     41  C   UNL A   1      37.560  32.988  33.529  1.00  0.00     0.031 A 
ATOM     42  C   UNL A   1      38.315  33.266  34.802  1.00  0.00     0.074 A 
ATOM     43  C   UNL A   1      38.022  32.045  32.684  1.00  0.00     0.049 A 
ATOM     44  N   UNL A   1      39.406  32.702  35.261  1.00  0.00    -0.248 NA
ATOM     45  C   UNL A   1      37.784  34.330  35.666  1.00  0.00     0.031 C 
ATOM     46  C   UNL A   1      37.414  31.693  31.402  1.00  0.00     0.029 A 
ATOM     47  N   UNL A   1      39.114  31.214  32.774  1.00  0.00    -0.354 N 
ATOM     48  C   UNL A   1      39.693  33.342  36.460  1.00  0.00     0.074 A 
ATOM     49  C   UNL A   1      38.690  34.371  36.633  1.00  0.00     0.031 C 
ATOM     50  C   UNL A   1      38.127  30.707  30.833  1.00  0.00     0.029 A 
ATOM     51  C   UNL A   1      39.261  30.379  31.693  1.00  0.00     0.049 A 
ATOM     52  H   UNL A   1      39.731  31.218  33.540  1.00  0.00     0.167 HD
ATOM     53  C   UNL A   1      40.688  33.085  37.345  1.00  0.00     0.037 A 
ATOM     54  C   UNL A   1      40.204  29.455  31.419  1.00  0.00     0.037 A 
ATOM     55  C   UNL A   1      41.681  32.053  37.186  1.00  0.00     0.049 A 
ATOM     56  C   UNL A   1      41.311  29.202  32.408  1.00  0.00     0.074 A 
ATOM     57  C   UNL A   1      42.691  31.685  38.059  1.00  0.00     0.029 A 
ATOM     58  N   UNL A   1      41.797  31.228  36.076  1.00  0.00    -0.354 N 
ATOM     59  N   UNL A   1      41.527  29.766  33.572  1.00  0.00    -0.248 NA
ATOM     60  C   UNL A   1      42.301  28.176  32.048  1.00  0.00     0.031 C 
ATOM     61  C   UNL A   1      43.448  30.674  37.457  1.00  0.00     0.029 A 
ATOM     62  C   UNL A   1      42.877  30.373  36.232  1.00  0.00     0.049 A 
ATOM     63  H   UNL A   1      41.199  31.248  35.294  1.00  0.00     0.167 HD
ATOM     64  C   UNL A   1      42.655  29.146  34.094  1.00  0.00     0.074 A 
ATOM     65  C   UNL A   1      43.072  28.152  33.126  1.00  0.00     0.031 C 
ATOM     66  C   UNL A   1      43.285  29.381  35.270  1.00  0.00     0.037 A 
BRANCH  53  67
ATOM     67  C   UNL A   1      40.759  33.942  38.578  1.00  0.00     0.064 A 
ATOM     68  C   UNL A   1      41.538  35.108  38.618  1.00  0.00     0.173 A 
ATOM     69  C   UNL A   1      40.002  33.620  39.715  1.00  0.00     0.173 A 
ATOM     70  F   UNL A   1      42.285  35.459  37.561  1.00  0.00    -0.203 F 
ATOM     71  C   UNL A   1      41.583  35.901  39.763  1.00  0.00     0.198 A 
ATOM     72  C   UNL A   1      40.025  34.431  40.847  1.00  0.00     0.198 A 
ATOM     73  F   UNL A   1      39.229  32.523  39.725  1.00  0.00    -0.203 F 
ATOM     74  F   UNL A   1      42.374  36.982  39.797  1.00  0.00    -0.200 F 
ATOM     75  C   UNL A   1      40.823  35.565  40.873  1.00  0.00     0.200 A 
ATOM     76  F   UNL A   1      39.278  34.115  41.912  1.00  0.00    -0.200 F 
ATOM     77  F   UNL A   1      40.863  36.332  41.972  1.00  0.00    -0.200 F 
ENDBRANCH  53  67
BRANCH  54  78
ATOM     78  C   UNL A   1      40.130  28.677  30.154  1.00  0.00     0.064 A 
ATOM     79  C   UNL A   1      39.467  27.443  30.103  1.00  0.00     0.173 A 
ATOM     80  C   UNL A   1      40.726  29.146  28.975  1.00  0.00     0.173 A 
ATOM     81  F   UNL A   1      38.904  26.940  31.212  1.00  0.00    -0.203 F 
ATOM     82  C   UNL A   1      39.415  26.701  28.926  1.00  0.00     0.198 A 
ATOM     83  C   UNL A   1      40.650  28.417  27.790  1.00  0.00     0.198 A 
ATOM     84  F   UNL A   1      41.373  30.322  28.971  1.00  0.00    -0.203 F 
ATOM     85  F   UNL A   1      38.814  25.504  28.917  1.00  0.00    -0.200 F 
ATOM     86  C   UNL A   1      40.001  27.191  27.768  1.00  0.00     0.200 A 
ATOM     87  F   UNL A   1      41.206  28.901  26.671  1.00  0.00    -0.200 F 
ATOM     88  F   UNL A   1      39.946  26.480  26.634  1.00  0.00    -0.200 F 
ENDBRANCH  54  78
BRANCH  66  89
ATOM     89  C   UNL A   1      44.476  28.527  35.601  1.00  0.00     0.064 A 
ATOM     90  C   UNL A   1      45.779  28.907  35.250  1.00  0.00     0.173 A 
ATOM     91  C   UNL A   1      44.314  27.328  36.315  1.00  0.00     0.173 A 
ATOM     92  F   UNL A   1      45.989  30.036  34.555  1.00  0.00    -0.203 F 
ATOM     93  C   UNL A   1      46.873  28.110  35.581  1.00  0.00     0.198 A 
ATOM     94  C   UNL A   1      45.412  26.548  36.669  1.00  0.00     0.198 A 
ATOM     95  F   UNL A   1      43.090  26.919  36.680  1.00  0.00    -0.203 F 
ATOM     96  F   UNL A   1      48.105  28.472  35.194  1.00  0.00    -0.200 F 
ATOM     97  C   UNL A   1      46.689  26.935  36.295  1.00  0.00     0.200 A 
ATOM     98  F   UNL A   1      45.233  25.422  37.372  1.00  0.00    -0.200 F 
ATOM     99  F   UNL A   1      47.744  26.174  36.619  1.00  0.00    -0.200 F 
ENDBRANCH  66  89
ENDBRANCH  40  41
ENDBRANCH  32  35
ENDBRANCH  30  31
ENDBRANCH  29  30
ENDBRANCH  28  29
ENDBRANCH   1  28
TORSDOF 16
ENDMDL
MODEL 2
REMARK VINA RESULT:     -12.2      4.872      9.592
REMARK SMILES N#C/C(=C/c1cccc(OCC(=O)NCCCCNC(=O)c2ccc(-c3c4nc(c(-c5c(F)c(F)c(F)c(F)c5F)c5ccc([nH]5)c(-c5c(F)c(F)c(F)c(F)c5F)c5nc(c(-c6c(F)c(F)c(F)c(F)c6F)c6ccc3[nH]6)C=C5)C=C4)cc2)c1)c1nc2ccccc2[nH]1
REMARK SMILES IDX 15 1 14 2 12 3 13 4 11 6 10 7 9 8 5 9 6 10 85 11 7 12 8 13
REMARK SMILES IDX 4 14 3 15 2 16 1 17 86 18 87 19 94 20 88 21 93 22 89 24
REMARK SMILES IDX 92 25 90 26 91 27 16 28 17 29 18 30 19 31 20 32 21 34 22 35
REMARK SMILES IDX 23 36 84 37 24 38 83 39 25 40 26 41 27 42 77 43 28 44 82 45
REMARK SMILES IDX 76 46 78 47 29 48 81 49 75 50 74 51 30 53 62 54 42 55 61 56
REMARK SMILES IDX 43 57 46 58 60 59 79 60 44 61 45 62 59 64 80 65 47 66 31 67
REMARK SMILES IDX 32 68 40 69 33 70 34 71 38 72 41 73 35 74 36 75 39 76 37 77
REMARK SMILES IDX 63 78 64 79 72 80 65 81 66 82 70 83 73 84 67 85 68 86 71 87
REMARK SMILES IDX 69 88 48 89 49 90 57 91 50 92 51 93 55 94 58 95 52 96 53 97
REMARK SMILES IDX 56 98 54 99
REMARK H PARENT 14 5 94 23 19 33 78 52 46 63
REMARK Flexibility Score: inf
ROOT
ATOM      1  C   UNL A   1      35.217  21.476  25.913  1.00  0.00     0.116 C 
ENDROOT
BRANCH   1   2
ATOM      2  N   UNL A   1      33.963  20.747  25.952  1.00  0.00    -0.353 N 
ATOM      3  C   UNL A   1      32.888  20.880  25.112  1.00  0.00     0.257 C 
ATOM      4  O   UNL A   1      32.022  20.001  25.083  1.00  0.00    -0.271 OA
ATOM      5  H   UNL A   1      33.874  20.077  26.669  1.00  0.00     0.163 HD
BRANCH   3   6
ATOM      6  C   UNL A   1      32.786  22.094  24.183  1.00  0.00     0.329 C 
BRANCH   6   7
ATOM      7  O   UNL A   1      31.480  22.465  23.779  1.00  0.00    -0.484 OA
BRANCH   7   8
ATOM      8  C   UNL A   1      30.995  23.676  24.193  1.00  0.00     0.120 A 
ATOM      9  C   UNL A   1      30.122  25.936  23.939  1.00  0.00    -0.021 A 
ATOM     10  C   UNL A   1      29.946  26.017  25.324  1.00  0.00     0.008 A 
ATOM     11  C   UNL A   1      30.672  24.768  23.382  1.00  0.00     0.054 A 
ATOM     12  C   UNL A   1      30.295  24.942  26.139  1.00  0.00     0.004 A 
ATOM     13  C   UNL A   1      30.815  23.778  25.573  1.00  0.00     0.046 A 
BRANCH   9  14
ATOM     14  C   UNL A   1      29.735  27.082  23.096  1.00  0.00     0.031 C 
ATOM     15  C   UNL A   1      30.232  28.332  23.178  1.00  0.00     0.095 C 
BRANCH  15  16
ATOM     16  C   UNL A   1      29.733  29.413  22.232  1.00  0.00     0.103 C 
ATOM     17  N   UNL A   1      29.320  30.309  21.448  1.00  0.00    -0.192 NA
ENDBRANCH  15  16
BRANCH  15  18
ATOM     18  C   UNL A   1      31.271  28.680  24.087  1.00  0.00     0.149 A 
ATOM     19  N   UNL A   1      32.417  28.083  24.356  1.00  0.00    -0.228 NA
ATOM     20  N   UNL A   1      31.125  29.812  24.861  1.00  0.00    -0.337 N 
ATOM     21  C   UNL A   1      32.999  28.821  25.356  1.00  0.00     0.089 A 
ATOM     22  C   UNL A   1      32.204  29.903  25.704  1.00  0.00     0.066 A 
ATOM     23  H   UNL A   1      30.374  30.446  24.817  1.00  0.00     0.168 HD
ATOM     24  C   UNL A   1      34.207  28.618  26.036  1.00  0.00     0.030 A 
ATOM     25  C   UNL A   1      32.525  30.794  26.730  1.00  0.00     0.028 A 
ATOM     26  C   UNL A   1      34.548  29.485  27.083  1.00  0.00     0.002 A 
ATOM     27  C   UNL A   1      33.713  30.551  27.428  1.00  0.00     0.002 A 
ENDBRANCH  15  18
ENDBRANCH   9  14
ENDBRANCH   7   8
ENDBRANCH   6   7
ENDBRANCH   3   6
ENDBRANCH   1   2
BRANCH   1  28
ATOM     28  C   UNL A   1      35.195  22.850  26.584  1.00  0.00     0.023 C 
BRANCH  28  29
ATOM     29  C   UNL A   1      35.869  24.025  25.862  1.00  0.00     0.023 C 
BRANCH  29  30
ATOM     30  C   UNL A   1      37.020  23.732  24.901  1.00  0.00     0.116 C 
BRANCH  30  31
ATOM     31  N   UNL A   1      37.905  22.676  25.359  1.00  0.00    -0.352 N 
ATOM     32  C   UNL A   1      39.033  22.757  26.143  1.00  0.00     0.251 C 
ATOM     33  H   UNL A   1      37.662  21.768  25.066  1.00  0.00     0.163 HD
ATOM     34  O   UNL A   1      39.725  21.751  26.309  1.00  0.00    -0.269 OA
BRANCH  32  35
ATOM     35  C   UNL A   1      39.457  24.032  26.781  1.00  0.00     0.039 A 
ATOM     36  C   UNL A   1      40.179  24.955  26.015  1.00  0.00     0.014 A 
ATOM     37  C   UNL A   1      39.215  24.307  28.131  1.00  0.00     0.014 A 
ATOM     38  C   UNL A   1      40.614  26.160  26.580  1.00  0.00     0.010 A 
ATOM     39  C   UNL A   1      39.607  25.534  28.683  1.00  0.00     0.010 A 
ATOM     40  C   UNL A   1      40.313  26.475  27.915  1.00  0.00    -0.014 A 
BRANCH  40  41
ATOM     41  C   UNL A   1      40.732  27.781  28.502  1.00  0.00     0.031 A 
ATOM     42  C   UNL A   1      42.166  28.032  28.887  1.00  0.00     0.074 A 
ATOM     43  C   UNL A   1      39.815  28.746  28.719  1.00  0.00     0.049 A 
ATOM     44  N   UNL A   1      42.709  29.101  29.417  1.00  0.00    -0.248 NA
ATOM     45  C   UNL A   1      43.113  26.931  28.662  1.00  0.00     0.031 C 
ATOM     46  C   UNL A   1      38.387  28.630  28.427  1.00  0.00     0.029 A 
ATOM     47  N   UNL A   1      39.948  30.011  29.239  1.00  0.00    -0.354 N 
ATOM     48  C   UNL A   1      44.054  28.801  29.593  1.00  0.00     0.074 A 
ATOM     49  C   UNL A   1      44.236  27.432  29.158  1.00  0.00     0.031 C 
ATOM     50  C   UNL A   1      37.778  29.782  28.753  1.00  0.00     0.029 A 
ATOM     51  C   UNL A   1      38.764  30.706  29.308  1.00  0.00     0.049 A 
ATOM     52  H   UNL A   1      40.809  30.384  29.535  1.00  0.00     0.167 HD
ATOM     53  C   UNL A   1      45.051  29.597  30.054  1.00  0.00     0.037 A 
ATOM     54  C   UNL A   1      38.498  31.944  29.769  1.00  0.00     0.037 A 
ATOM     55  C   UNL A   1      44.880  30.965  30.475  1.00  0.00     0.049 A 
ATOM     56  C   UNL A   1      39.618  32.801  30.296  1.00  0.00     0.074 A 
ATOM     57  C   UNL A   1      45.843  31.863  30.903  1.00  0.00     0.029 A 
ATOM     58  N   UNL A   1      43.664  31.631  30.531  1.00  0.00    -0.354 N 
ATOM     59  N   UNL A   1      40.897  32.529  30.387  1.00  0.00    -0.248 NA
ATOM     60  C   UNL A   1      39.257  34.144  30.777  1.00  0.00     0.031 C 
ATOM     61  C   UNL A   1      45.206  33.054  31.265  1.00  0.00     0.029 A 
ATOM     62  C   UNL A   1      43.852  32.918  31.011  1.00  0.00     0.049 A 
ATOM     63  H   UNL A   1      42.797  31.246  30.267  1.00  0.00     0.167 HD
ATOM     64  C   UNL A   1      41.496  33.670  30.905  1.00  0.00     0.074 A 
ATOM     65  C   UNL A   1      40.442  34.645  31.097  1.00  0.00     0.031 C 
ATOM     66  C   UNL A   1      42.801  33.888  31.194  1.00  0.00     0.037 A 
BRANCH  53  67
ATOM     67  C   UNL A   1      46.430  29.005  30.134  1.00  0.00     0.064 A 
ATOM     68  C   UNL A   1      46.907  28.407  31.311  1.00  0.00     0.173 A 
ATOM     69  C   UNL A   1      47.268  28.993  29.008  1.00  0.00     0.173 A 
ATOM     70  F   UNL A   1      46.149  28.397  32.418  1.00  0.00    -0.203 F 
ATOM     71  C   UNL A   1      48.182  27.851  31.367  1.00  0.00     0.198 A 
ATOM     72  C   UNL A   1      48.531  28.408  29.058  1.00  0.00     0.198 A 
ATOM     73  F   UNL A   1      46.856  29.540  27.854  1.00  0.00    -0.203 F 
ATOM     74  F   UNL A   1      48.636  27.331  32.516  1.00  0.00    -0.200 F 
ATOM     75  C   UNL A   1      48.990  27.846  30.240  1.00  0.00     0.200 A 
ATOM     76  F   UNL A   1      49.303  28.391  27.965  1.00  0.00    -0.200 F 
ATOM     77  F   UNL A   1      50.216  27.305  30.293  1.00  0.00    -0.200 F 
ENDBRANCH  53  67
BRANCH  54  78
ATOM     78  C   UNL A   1      37.105  32.463  29.732  1.00  0.00     0.064 A 
ATOM     79  C   UNL A   1      36.635  33.190  28.629  1.00  0.00     0.173 A 
ATOM     80  C   UNL A   1      36.219  32.249  30.797  1.00  0.00     0.173 A 
ATOM     81  F   UNL A   1      37.453  33.443  27.596  1.00  0.00    -0.203 F 
ATOM     82  C   UNL A   1      35.338  33.696  28.600  1.00  0.00     0.198 A 
ATOM     83  C   UNL A   1      34.913  32.731  30.756  1.00  0.00     0.198 A 
ATOM     84  F   UNL A   1      36.621  31.559  31.876  1.00  0.00    -0.203 F 
ATOM     85  F   UNL A   1      34.929  34.426  27.554  1.00  0.00    -0.200 F 
ATOM     86  C   UNL A   1      34.475  33.461  29.661  1.00  0.00     0.200 A 
ATOM     87  F   UNL A   1      34.079  32.490  31.777  1.00  0.00    -0.200 F 
ATOM     88  F   UNL A   1      33.226  33.944  29.631  1.00  0.00    -0.200 F 
ENDBRANCH  54  78
BRANCH  66  89
ATOM     89  C   UNL A   1      43.179  35.245  31.717  1.00  0.00     0.064 A 
ATOM     90  C   UNL A   1      43.642  36.261  30.868  1.00  0.00     0.173 A 
ATOM     91  C   UNL A   1      43.040  35.545  33.082  1.00  0.00     0.173 A 
ATOM     92  F   UNL A   1      43.807  36.022  29.558  1.00  0.00    -0.203 F 
ATOM     93  C   UNL A   1      43.972  37.518  31.368  1.00  0.00     0.198 A 
ATOM     94  C   UNL A   1      43.344  36.812  33.573  1.00  0.00     0.198 A 
ATOM     95  F   UNL A   1      42.598  34.612  33.937  1.00  0.00    -0.203 F 
ATOM     96  F   UNL A   1      44.455  38.459  30.544  1.00  0.00    -0.200 F 
ATOM     97  C   UNL A   1      43.817  37.795  32.718  1.00  0.00     0.200 A 
ATOM     98  F   UNL A   1      43.179  37.081  34.876  1.00  0.00    -0.200 F 
ATOM     99  F   UNL A   1      44.127  39.008  33.195  1.00  0.00    -0.200 F 
ENDBRANCH  66  89
ENDBRANCH  40  41
ENDBRANCH  32  35
ENDBRANCH  30  31
ENDBRANCH  29  30
ENDBRANCH  28  29
ENDBRANCH   1  28
TORSDOF 16
ENDMDL
MODEL 3
REMARK VINA RESULT:     -11.9      4.735     10.910
REMARK SMILES N#C/C(=C/c1cccc(OCC(=O)NCCCCNC(=O)c2ccc(-c3c4nc(c(-c5c(F)c(F)c(F)c(F)c5F)c5ccc([nH]5)c(-c5c(F)c(F)c(F)c(F)c5F)c5nc(c(-c6c(F)c(F)c(F)c(F)c6F)c6ccc3[nH]6)C=C5)C=C4)cc2)c1)c1nc2ccccc2[nH]1
REMARK SMILES IDX 15 1 14 2 12 3 13 4 11 6 10 7 9 8 5 9 6 10 85 11 7 12 8 13
REMARK SMILES IDX 4 14 3 15 2 16 1 17 86 18 87 19 94 20 88 21 93 22 89 24
REMARK SMILES IDX 92 25 90 26 91 27 16 28 17 29 18 30 19 31 20 32 21 34 22 35
REMARK SMILES IDX 23 36 84 37 24 38 83 39 25 40 26 41 27 42 77 43 28 44 82 45
REMARK SMILES IDX 76 46 78 47 29 48 81 49 75 50 74 51 30 53 62 54 42 55 61 56
REMARK SMILES IDX 43 57 46 58 60 59 79 60 44 61 45 62 59 64 80 65 47 66 31 67
REMARK SMILES IDX 32 68 40 69 33 70 34 71 38 72 41 73 35 74 36 75 39 76 37 77
REMARK SMILES IDX 63 78 64 79 72 80 65 81 66 82 70 83 73 84 67 85 68 86 71 87
REMARK SMILES IDX 69 88 48 89 49 90 57 91 50 92 51 93 55 94 58 95 52 96 53 97
REMARK SMILES IDX 56 98 54 99
REMARK H PARENT 14 5 94 23 19 33 78 52 46 63
REMARK Flexibility Score: inf
ROOT
ATOM      1  C   UNL A   1      35.030  35.080  33.615  1.00  0.00     0.116 C 
ENDROOT
BRANCH   1   2
ATOM      2  N   UNL A   1      35.110  34.528  34.954  1.00  0.00    -0.353 N 
ATOM      3  C   UNL A   1      36.078  33.703  35.466  1.00  0.00     0.257 C 
ATOM      4  O   UNL A   1      36.174  33.556  36.688  1.00  0.00    -0.271 OA
ATOM      5  H   UNL A   1      34.382  34.776  35.570  1.00  0.00     0.163 HD
BRANCH   3   6
ATOM      6  C   UNL A   1      37.064  33.002  34.525  1.00  0.00     0.329 C 
BRANCH   6   7
ATOM      7  O   UNL A   1      37.219  31.606  34.710  1.00  0.00    -0.484 OA
BRANCH   7   8
ATOM      8  C   UNL A   1      38.458  31.061  34.501  1.00  0.00     0.120 A 
ATOM      9  C   UNL A   1      40.802  30.598  34.976  1.00  0.00    -0.021 A 
ATOM     10  C   UNL A   1      40.850  29.741  33.873  1.00  0.00     0.008 A 
ATOM     11  C   UNL A   1      39.605  31.276  35.270  1.00  0.00     0.054 A 
ATOM     12  C   UNL A   1      39.716  29.546  33.086  1.00  0.00     0.004 A 
ATOM     13  C   UNL A   1      38.527  30.203  33.402  1.00  0.00     0.046 A 
BRANCH   9  14
ATOM     14  C   UNL A   1      42.011  30.779  35.800  1.00  0.00     0.031 C 
ATOM     15  C   UNL A   1      42.742  29.798  36.365  1.00  0.00     0.095 C 
BRANCH  15  16
ATOM     16  C   UNL A   1      43.972  30.143  37.188  1.00  0.00     0.103 C 
ATOM     17  N   UNL A   1      44.993  30.429  37.872  1.00  0.00    -0.192 NA
ENDBRANCH  15  16
BRANCH  15  18
ATOM     18  C   UNL A   1      42.445  28.419  36.170  1.00  0.00     0.149 A 
ATOM     19  N   UNL A   1      41.483  27.665  36.670  1.00  0.00    -0.228 NA
ATOM     20  N   UNL A   1      43.258  27.674  35.342  1.00  0.00    -0.337 N 
ATOM     21  C   UNL A   1      41.710  26.400  36.190  1.00  0.00     0.089 A 
ATOM     22  C   UNL A   1      42.826  26.372  35.366  1.00  0.00     0.066 A 
ATOM     23  H   UNL A   1      44.020  28.019  34.822  1.00  0.00     0.168 HD
ATOM     24  C   UNL A   1      41.012  25.209  36.429  1.00  0.00     0.030 A 
ATOM     25  C   UNL A   1      43.321  25.204  34.781  1.00  0.00     0.028 A 
ATOM     26  C   UNL A   1      41.493  24.018  35.870  1.00  0.00     0.002 A 
ATOM     27  C   UNL A   1      42.637  24.018  35.067  1.00  0.00     0.002 A 
ENDBRANCH  15  18
ENDBRANCH   9  14
ENDBRANCH   7   8
ENDBRANCH   6   7
ENDBRANCH   3   6
ENDBRANCH   1   2
BRANCH   1  28
ATOM     28  C   UNL A   1      34.056  36.246  33.447  1.00  0.00     0.023 C 
BRANCH  28  29
ATOM     29  C   UNL A   1      32.976  36.144  32.362  1.00  0.00     0.023 C 
BRANCH  29  30
ATOM     30  C   UNL A   1      33.318  36.593  30.942  1.00  0.00     0.116 C 
BRANCH  30  31
ATOM     31  N   UNL A   1      32.708  35.774  29.911  1.00  0.00    -0.352 N 
ATOM     32  C   UNL A   1      33.227  34.701  29.222  1.00  0.00     0.251 C 
ATOM     33  H   UNL A   1      31.786  36.022  29.668  1.00  0.00     0.163 HD
ATOM     34  O   UNL A   1      32.588  34.222  28.283  1.00  0.00    -0.269 OA
BRANCH  32  35
ATOM     35  C   UNL A   1      34.549  34.113  29.564  1.00  0.00     0.039 A 
ATOM     36  C   UNL A   1      35.653  34.444  28.770  1.00  0.00     0.014 A 
ATOM     37  C   UNL A   1      34.710  33.195  30.608  1.00  0.00     0.014 A 
ATOM     38  C   UNL A   1      36.914  33.900  29.044  1.00  0.00     0.010 A 
ATOM     39  C   UNL A   1      35.981  32.689  30.913  1.00  0.00     0.010 A 
ATOM     40  C   UNL A   1      37.098  33.033  30.133  1.00  0.00    -0.014 A 
BRANCH  40  41
ATOM     41  C   UNL A   1      38.450  32.493  30.457  1.00  0.00     0.031 A 
ATOM     42  C   UNL A   1      38.929  31.195  29.861  1.00  0.00     0.074 A 
ATOM     43  C   UNL A   1      39.253  33.157  31.314  1.00  0.00     0.049 A 
ATOM     44  N   UNL A   1      40.068  30.571  30.035  1.00  0.00    -0.248 NA
ATOM     45  C   UNL A   1      37.997  30.498  28.963  1.00  0.00     0.031 C 
ATOM     46  C   UNL A   1      38.908  34.406  31.992  1.00  0.00     0.029 A 
ATOM     47  N   UNL A   1      40.519  32.870  31.765  1.00  0.00    -0.354 N 
ATOM     48  C   UNL A   1      39.989  29.410  29.276  1.00  0.00     0.074 A 
ATOM     49  C   UNL A   1      38.671  29.392  28.677  1.00  0.00     0.031 C 
ATOM     50  C   UNL A   1      39.944  34.789  32.757  1.00  0.00     0.029 A 
ATOM     51  C   UNL A   1      41.012  33.798  32.650  1.00  0.00     0.049 A 
ATOM     52  H   UNL A   1      41.025  32.076  31.481  1.00  0.00     0.167 HD
ATOM     53  C   UNL A   1      40.933  28.456  29.077  1.00  0.00     0.037 A 
ATOM     54  C   UNL A   1      42.187  33.847  33.307  1.00  0.00     0.037 A 
ATOM     55  C   UNL A   1      42.253  28.475  29.658  1.00  0.00     0.049 A 
ATOM     56  C   UNL A   1      43.212  32.766  33.087  1.00  0.00     0.074 A 
ATOM     57  C   UNL A   1      43.292  27.581  29.467  1.00  0.00     0.029 A 
ATOM     58  N   UNL A   1      42.712  29.432  30.551  1.00  0.00    -0.354 N 
ATOM     59  N   UNL A   1      43.150  31.713  32.309  1.00  0.00    -0.248 NA
ATOM     60  C   UNL A   1      44.475  32.886  33.832  1.00  0.00     0.031 C 
ATOM     61  C   UNL A   1      44.362  27.967  30.281  1.00  0.00     0.029 A 
ATOM     62  C   UNL A   1      44.009  29.133  30.939  1.00  0.00     0.049 A 
ATOM     63  H   UNL A   1      42.193  30.209  30.862  1.00  0.00     0.167 HD
ATOM     64  C   UNL A   1      44.370  31.063  32.447  1.00  0.00     0.074 A 
ATOM     65  C   UNL A   1      45.159  31.847  33.374  1.00  0.00     0.031 C 
ATOM     66  C   UNL A   1      44.794  29.920  31.856  1.00  0.00     0.037 A 
BRANCH  53  67
ATOM     67  C   UNL A   1      40.573  27.297  28.191  1.00  0.00     0.064 A 
ATOM     68  C   UNL A   1      41.123  27.153  26.909  1.00  0.00     0.173 A 
ATOM     69  C   UNL A   1      39.704  26.294  28.647  1.00  0.00     0.173 A 
ATOM     70  F   UNL A   1      41.955  28.086  26.422  1.00  0.00    -0.203 F 
ATOM     71  C   UNL A   1      40.790  26.067  26.103  1.00  0.00     0.198 A 
ATOM     72  C   UNL A   1      39.397  25.193  27.852  1.00  0.00     0.198 A 
ATOM     73  F   UNL A   1      39.160  26.376  29.871  1.00  0.00    -0.203 F 
ATOM     74  F   UNL A   1      41.288  25.977  24.862  1.00  0.00    -0.200 F 
ATOM     75  C   UNL A   1      39.933  25.085  26.578  1.00  0.00     0.200 A 
ATOM     76  F   UNL A   1      38.582  24.238  28.317  1.00  0.00    -0.200 F 
ATOM     77  F   UNL A   1      39.618  24.037  25.803  1.00  0.00    -0.200 F 
ENDBRANCH  53  67
BRANCH  54  78
ATOM     78  C   UNL A   1      42.473  34.980  34.227  1.00  0.00     0.064 A 
ATOM     79  C   UNL A   1      43.068  36.159  33.756  1.00  0.00     0.173 A 
ATOM     80  C   UNL A   1      42.164  34.906  35.593  1.00  0.00     0.173 A 
ATOM     81  F   UNL A   1      43.406  36.268  32.462  1.00  0.00    -0.203 F 
ATOM     82  C   UNL A   1      43.358  37.214  34.619  1.00  0.00     0.198 A 
ATOM     83  C   UNL A   1      42.428  35.973  36.450  1.00  0.00     0.198 A 
ATOM     84  F   UNL A   1      41.594  33.800  36.093  1.00  0.00    -0.203 F 
ATOM     85  F   UNL A   1      43.969  38.311  34.151  1.00  0.00    -0.200 F 
ATOM     86  C   UNL A   1      43.031  37.123  35.964  1.00  0.00     0.200 A 
ATOM     87  F   UNL A   1      42.099  35.885  37.746  1.00  0.00    -0.200 F 
ATOM     88  F   UNL A   1      43.305  38.140  36.792  1.00  0.00    -0.200 F 
ENDBRANCH  54  78
BRANCH  66  89
ATOM     89  C   UNL A   1      46.192  29.459  32.162  1.00  0.00     0.064 A 
ATOM     90  C   UNL A   1      47.285  29.842  31.372  1.00  0.00     0.173 A 
ATOM     91  C   UNL A   1      46.445  28.654  33.284  1.00  0.00     0.173 A 
ATOM     92  F   UNL A   1      47.097  30.598  30.280  1.00  0.00    -0.203 F 
ATOM     93  C   UNL A   1      48.576  29.418  31.680  1.00  0.00     0.198 A 
ATOM     94  C   UNL A   1      47.739  28.255  33.606  1.00  0.00     0.198 A 
ATOM     95  F   UNL A   1      45.436  28.263  34.077  1.00  0.00    -0.203 F 
ATOM     96  F   UNL A   1      49.599  29.759  30.884  1.00  0.00    -0.200 F 
ATOM     97  C   UNL A   1      48.803  28.631  32.800  1.00  0.00     0.200 A 
ATOM     98  F   UNL A   1      47.958  27.508  34.696  1.00  0.00    -0.200 F 
ATOM     99  F   UNL A   1      50.046  28.231  33.099  1.00  0.00    -0.200 F 
ENDBRANCH  66  89
ENDBRANCH  40  41
ENDBRANCH  32  35
ENDBRANCH  30  31
ENDBRANCH  29  30
ENDBRANCH  28  29
ENDBRANCH   1  28
TORSDOF 16
ENDMDL
