MODEL 1
REMARK VINA RESULT:     -12.2      0.000      0.000
REMARK SMILES CC[NH2+][C@@]1(C(=O)NCCCCNC(=O)c2ccc(-c3c4nc(c(-c5c(F)c(F)c(F)c(F)c5F)c5ccc([nH]5)c(-c5c(F)c(F)c(F)c(F)c5F)c5nc(c(-c6c(F)c(F)c(F)c(F)c6F)c6ccc3[nH]6)C=C5)C=C4)cc2)CC[C@@H]([NH+]2CCC(C)(CC)CC2)C1
REMARK SMILES IDX 9 1 8 2 7 3 5 4 6 5 4 7 78 8 90 9 79 10 80 11 3 12 2 15 1 16
REMARK SMILES IDX 81 17 82 18 89 19 83 21 88 22 84 23 85 24 86 25 87 26 10 27
REMARK SMILES IDX 11 28 12 29 13 30 14 32 15 33 16 34 77 35 17 36 76 37 18 38
REMARK SMILES IDX 19 39 20 40 70 41 21 42 75 43 69 44 71 45 22 46 74 47 68 48
REMARK SMILES IDX 67 49 23 51 55 52 35 53 54 54 36 55 39 56 53 57 72 58 37 59
REMARK SMILES IDX 38 60 52 62 73 63 40 64 24 65 25 66 33 67 26 68 27 69 31 70
REMARK SMILES IDX 34 71 28 72 29 73 32 74 30 75 56 76 57 77 65 78 58 79 59 80
REMARK SMILES IDX 63 81 66 82 60 83 61 84 64 85 62 86 41 87 42 88 50 89 43 90
REMARK SMILES IDX 44 91 48 92 51 93 45 94 46 95 49 96 47 97
REMARK H PARENT 7 6 3 13 3 14 81 20 12 31 71 50 39 61
REMARK Flexibility Score: inf
ROOT
ATOM      1  C   UNL A   1      37.278  21.209  24.573  1.00  0.00     0.023 C 
ENDROOT
BRANCH   1   2
ATOM      2  C   UNL A   1      37.019  22.210  25.701  1.00  0.00     0.116 C 
BRANCH   2   3
ATOM      3  N   UNL A   1      35.891  21.810  26.507  1.00  0.00    -0.351 N 
ATOM      4  C   UNL A   1      34.585  22.178  26.516  1.00  0.00     0.281 C 
ATOM      5  O   UNL A   1      33.936  21.726  27.473  1.00  0.00    -0.268 OA
ATOM      6  H   UNL A   1      36.113  21.133  27.187  1.00  0.00     0.163 HD
BRANCH   4   7
ATOM      7  C   UNL A   1      33.896  23.154  25.471  1.00  0.00     0.181 C 
ATOM      8  C   UNL A   1      34.659  24.472  25.284  1.00  0.00     0.085 C 
ATOM      9  C   UNL A   1      32.475  23.520  25.944  1.00  0.00     0.144 C 
ATOM     10  C   UNL A   1      33.736  25.611  25.721  1.00  0.00     0.072 C 
ATOM     11  C   UNL A   1      32.497  24.989  26.385  1.00  0.00     0.191 C 
BRANCH   7  12
ATOM     12  N   UNL A   1      33.917  22.370  24.200  1.00  0.00    -0.334 N 
ATOM     13  H   UNL A   1      34.744  22.668  23.683  1.00  0.00     0.347 HD
ATOM     14  H   UNL A   1      33.887  21.402  24.519  1.00  0.00     0.347 HD
BRANCH  12  15
ATOM     15  C   UNL A   1      32.795  22.455  23.280  1.00  0.00     0.257 C 
ATOM     16  C   UNL A   1      33.083  23.507  22.217  1.00  0.00     0.071 C 
ENDBRANCH  12  15
ENDBRANCH   7  12
BRANCH  11  17
ATOM     17  N   UNL A   1      31.267  25.793  26.345  1.00  0.00    -0.332 N 
ATOM     18  C   UNL A   1      30.167  25.257  25.540  1.00  0.00     0.263 C 
ATOM     19  C   UNL A   1      31.371  27.232  26.142  1.00  0.00     0.263 C 
ATOM     20  H   UNL A   1      31.031  25.682  27.332  1.00  0.00     0.348 HD
ATOM     21  C   UNL A   1      30.227  25.583  24.041  1.00  0.00     0.068 C 
ATOM     22  C   UNL A   1      31.668  27.622  24.700  1.00  0.00     0.068 C 
ATOM     23  C   UNL A   1      30.696  27.016  23.656  1.00  0.00    -0.022 C 
ATOM     24  C   UNL A   1      31.448  26.912  22.301  1.00  0.00     0.012 C 
BRANCH  23  25
ATOM     25  C   UNL A   1      29.497  27.970  23.380  1.00  0.00     0.004 C 
ATOM     26  C   UNL A   1      29.772  29.464  23.378  1.00  0.00     0.004 C 
ENDBRANCH  23  25
ENDBRANCH  11  17
ENDBRANCH   4   7
ENDBRANCH   2   3
ENDBRANCH   1   2
BRANCH   1  27
ATOM     27  C   UNL A   1      38.062  19.970  24.998  1.00  0.00     0.023 C 
BRANCH  27  28
ATOM     28  C   UNL A   1      39.326  20.262  25.798  1.00  0.00     0.116 C 
BRANCH  28  29
ATOM     29  N   UNL A   1      40.270  19.156  25.852  1.00  0.00    -0.352 N 
ATOM     30  C   UNL A   1      41.621  19.219  26.115  1.00  0.00     0.251 C 
ATOM     31  H   UNL A   1      39.901  18.260  25.681  1.00  0.00     0.163 HD
ATOM     32  O   UNL A   1      42.327  18.226  26.053  1.00  0.00    -0.269 OA
BRANCH  30  33
ATOM     33  C   UNL A   1      42.209  20.539  26.421  1.00  0.00     0.039 A 
ATOM     34  C   UNL A   1      42.593  21.366  25.364  1.00  0.00     0.014 A 
ATOM     35  C   UNL A   1      42.287  20.987  27.741  1.00  0.00     0.014 A 
ATOM     36  C   UNL A   1      42.990  22.676  25.631  1.00  0.00     0.010 A 
ATOM     37  C   UNL A   1      42.597  22.316  27.997  1.00  0.00     0.010 A 
ATOM     38  C   UNL A   1      42.955  23.173  26.945  1.00  0.00    -0.014 A 
BRANCH  38  39
ATOM     39  C   UNL A   1      43.305  24.584  27.238  1.00  0.00     0.031 A 
ATOM     40  C   UNL A   1      44.695  25.084  26.961  1.00  0.00     0.074 A 
ATOM     41  C   UNL A   1      42.393  25.394  27.808  1.00  0.00     0.049 A 
ATOM     42  N   UNL A   1      45.209  26.268  27.179  1.00  0.00    -0.248 NA
ATOM     43  C   UNL A   1      45.646  24.114  26.395  1.00  0.00     0.031 C 
ATOM     44  C   UNL A   1      41.035  25.005  28.191  1.00  0.00     0.029 A 
ATOM     45  N   UNL A   1      42.473  26.715  28.171  1.00  0.00    -0.354 N 
ATOM     46  C   UNL A   1      46.538  26.178  26.793  1.00  0.00     0.074 A 
ATOM     47  C   UNL A   1      46.773  24.810  26.390  1.00  0.00     0.031 C 
ATOM     48  C   UNL A   1      40.400  26.071  28.703  1.00  0.00     0.029 A 
ATOM     49  C   UNL A   1      41.312  27.210  28.711  1.00  0.00     0.049 A 
ATOM     50  H   UNL A   1      43.286  27.258  28.054  1.00  0.00     0.167 HD
ATOM     51  C   UNL A   1      47.473  27.157  26.747  1.00  0.00     0.037 A 
ATOM     52  C   UNL A   1      41.018  28.447  29.156  1.00  0.00     0.037 A 
ATOM     53  C   UNL A   1      47.226  28.525  27.113  1.00  0.00     0.049 A 
ATOM     54  C   UNL A   1      42.065  29.524  29.068  1.00  0.00     0.074 A 
ATOM     55  C   UNL A   1      48.082  29.608  27.038  1.00  0.00     0.029 A 
ATOM     56  N   UNL A   1      46.026  28.997  27.624  1.00  0.00    -0.354 N 
ATOM     57  N   UNL A   1      43.296  29.447  28.622  1.00  0.00    -0.248 NA
ATOM     58  C   UNL A   1      41.678  30.863  29.533  1.00  0.00     0.031 C 
ATOM     59  C   UNL A   1      47.414  30.729  27.541  1.00  0.00     0.029 A 
ATOM     60  C   UNL A   1      46.125  30.355  27.885  1.00  0.00     0.049 A 
ATOM     61  H   UNL A   1      45.223  28.449  27.779  1.00  0.00     0.167 HD
ATOM     62  C   UNL A   1      43.820  30.729  28.727  1.00  0.00     0.074 A 
ATOM     63  C   UNL A   1      42.767  31.568  29.261  1.00  0.00     0.031 C 
ATOM     64  C   UNL A   1      45.062  31.172  28.411  1.00  0.00     0.037 A 
BRANCH  51  65
ATOM     65  C   UNL A   1      48.844  26.780  26.267  1.00  0.00     0.064 A 
ATOM     66  C   UNL A   1      49.788  26.194  27.125  1.00  0.00     0.173 A 
ATOM     67  C   UNL A   1      49.214  26.985  24.930  1.00  0.00     0.173 A 
ATOM     68  F   UNL A   1      49.491  25.990  28.417  1.00  0.00    -0.203 F 
ATOM     69  C   UNL A   1      51.061  25.860  26.670  1.00  0.00     0.198 A 
ATOM     70  C   UNL A   1      50.477  26.621  24.471  1.00  0.00     0.198 A 
ATOM     71  F   UNL A   1      48.349  27.538  24.065  1.00  0.00    -0.203 F 
ATOM     72  F   UNL A   1      51.964  25.354  27.524  1.00  0.00    -0.200 F 
ATOM     73  C   UNL A   1      51.403  26.067  25.343  1.00  0.00     0.200 A 
ATOM     74  F   UNL A   1      50.803  26.810  23.184  1.00  0.00    -0.200 F 
ATOM     75  F   UNL A   1      52.627  25.741  24.906  1.00  0.00    -0.200 F 
ENDBRANCH  51  65
BRANCH  52  76
ATOM     76  C   UNL A   1      39.661  28.746  29.683  1.00  0.00     0.064 A 
ATOM     77  C   UNL A   1      39.355  28.542  31.036  1.00  0.00     0.173 A 
ATOM     78  C   UNL A   1      38.642  29.230  28.850  1.00  0.00     0.173 A 
ATOM     79  F   UNL A   1      40.290  28.061  31.869  1.00  0.00    -0.203 F 
ATOM     80  C   UNL A   1      38.075  28.790  31.531  1.00  0.00     0.198 A 
ATOM     81  C   UNL A   1      37.371  29.503  29.351  1.00  0.00     0.198 A 
ATOM     82  F   UNL A   1      38.885  29.447  27.549  1.00  0.00    -0.203 F 
ATOM     83  F   UNL A   1      37.799  28.542  32.818  1.00  0.00    -0.200 F 
ATOM     84  C   UNL A   1      37.087  29.275  30.689  1.00  0.00     0.200 A 
ATOM     85  F   UNL A   1      36.421  29.985  28.538  1.00  0.00    -0.200 F 
ATOM     86  F   UNL A   1      35.857  29.515  31.166  1.00  0.00    -0.200 F 
ENDBRANCH  52  76
BRANCH  64  87
ATOM     87  C   UNL A   1      45.337  32.635  28.605  1.00  0.00     0.064 A 
ATOM     88  C   UNL A   1      45.044  33.577  27.609  1.00  0.00     0.173 A 
ATOM     89  C   UNL A   1      45.869  33.101  29.817  1.00  0.00     0.173 A 
ATOM     90  F   UNL A   1      44.547  33.179  26.428  1.00  0.00    -0.203 F 
ATOM     91  C   UNL A   1      45.300  34.930  27.808  1.00  0.00     0.198 A 
ATOM     92  C   UNL A   1      46.096  34.459  30.023  1.00  0.00     0.198 A 
ATOM     93  F   UNL A   1      46.160  32.241  30.805  1.00  0.00    -0.203 F 
ATOM     94  F   UNL A   1      45.060  35.807  26.823  1.00  0.00    -0.200 F 
ATOM     95  C   UNL A   1      45.819  35.371  29.017  1.00  0.00     0.200 A 
ATOM     96  F   UNL A   1      46.585  34.884  31.197  1.00  0.00    -0.200 F 
ATOM     97  F   UNL A   1      46.062  36.675  29.207  1.00  0.00    -0.200 F 
ENDBRANCH  64  87
ENDBRANCH  38  39
ENDBRANCH  30  33
ENDBRANCH  28  29
ENDBRANCH  27  28
ENDBRANCH   1  27
TORSDOF 15
ENDMDL
MODEL 2
REMARK VINA RESULT:     -12.2      5.939     10.162
REMARK SMILES CC[NH2+][C@@]1(C(=O)NCCCCNC(=O)c2ccc(-c3c4nc(c(-c5c(F)c(F)c(F)c(F)c5F)c5ccc([nH]5)c(-c5c(F)c(F)c(F)c(F)c5F)c5nc(c(-c6c(F)c(F)c(F)c(F)c6F)c6ccc3[nH]6)C=C5)C=C4)cc2)CC[C@@H]([NH+]2CCC(C)(CC)CC2)C1
REMARK SMILES IDX 9 1 8 2 7 3 5 4 6 5 4 7 78 8 90 9 79 10 80 11 3 12 2 15 1 16
REMARK SMILES IDX 81 17 82 18 89 19 83 21 88 22 84 23 85 24 86 25 87 26 10 27
REMARK SMILES IDX 11 28 12 29 13 30 14 32 15 33 16 34 77 35 17 36 76 37 18 38
REMARK SMILES IDX 19 39 20 40 70 41 21 42 75 43 69 44 71 45 22 46 74 47 68 48
REMARK SMILES IDX 67 49 23 51 55 52 35 53 54 54 36 55 39 56 53 57 72 58 37 59
REMARK SMILES IDX 38 60 52 62 73 63 40 64 24 65 25 66 33 67 26 68 27 69 31 70
REMARK SMILES IDX 34 71 28 72 29 73 32 74 30 75 56 76 57 77 65 78 58 79 59 80
REMARK SMILES IDX 63 81 66 82 60 83 61 84 64 85 62 86 41 87 42 88 50 89 43 90
REMARK SMILES IDX 44 91 48 92 51 93 45 94 46 95 49 96 47 97
REMARK H PARENT 7 6 3 13 3 14 81 20 12 31 71 50 39 61
REMARK Flexibility Score: inf
ROOT
ATOM      1  C   UNL A   1      32.166  30.451  26.510  1.00  0.00     0.023 C 
ENDROOT
BRANCH   1   2
ATOM      2  C   UNL A   1      31.585  30.139  25.131  1.00  0.00     0.116 C 
BRANCH   2   3
ATOM      3  N   UNL A   1      30.508  31.042  24.801  1.00  0.00    -0.351 N 
ATOM      4  C   UNL A   1      29.578  31.048  23.813  1.00  0.00     0.281 C 
ATOM      5  O   UNL A   1      28.901  32.088  23.759  1.00  0.00    -0.268 OA
ATOM      6  H   UNL A   1      30.433  31.807  25.417  1.00  0.00     0.163 HD
BRANCH   4   7
ATOM      7  C   UNL A   1      29.365  29.897  22.742  1.00  0.00     0.181 C 
ATOM      8  C   UNL A   1      28.059  29.117  22.948  1.00  0.00     0.085 C 
ATOM      9  C   UNL A   1      30.516  28.875  22.826  1.00  0.00     0.144 C 
ATOM     10  C   UNL A   1      28.426  27.661  23.237  1.00  0.00     0.072 C 
ATOM     11  C   UNL A   1      29.949  27.585  23.432  1.00  0.00     0.191 C 
BRANCH   7  12
ATOM     12  N   UNL A   1      29.318  30.634  21.445  1.00  0.00    -0.334 N 
ATOM     13  H   UNL A   1      29.711  31.559  21.617  1.00  0.00     0.347 HD
ATOM     14  H   UNL A   1      29.825  30.021  20.807  1.00  0.00     0.347 HD
BRANCH  12  15
ATOM     15  C   UNL A   1      28.044  30.837  20.774  1.00  0.00     0.257 C 
ATOM     16  C   UNL A   1      27.864  32.316  20.455  1.00  0.00     0.071 C 
ENDBRANCH  12  15
ENDBRANCH   7  12
BRANCH  11  17
ATOM     17  N   UNL A   1      30.577  26.289  23.138  1.00  0.00    -0.332 N 
ATOM     18  C   UNL A   1      30.511  25.281  24.198  1.00  0.00     0.263 C 
ATOM     19  C   UNL A   1      31.896  26.268  22.518  1.00  0.00     0.263 C 
ATOM     20  H   UNL A   1      29.932  26.021  22.394  1.00  0.00     0.348 HD
ATOM     21  C   UNL A   1      31.607  25.377  25.269  1.00  0.00     0.068 C 
ATOM     22  C   UNL A   1      33.027  26.591  23.487  1.00  0.00     0.068 C 
ATOM     23  C   UNL A   1      33.039  25.728  24.773  1.00  0.00    -0.022 C 
ATOM     24  C   UNL A   1      33.735  26.546  25.896  1.00  0.00     0.012 C 
BRANCH  23  25
ATOM     25  C   UNL A   1      33.924  24.459  24.592  1.00  0.00     0.004 C 
ATOM     26  C   UNL A   1      35.245  24.409  25.338  1.00  0.00     0.004 C 
ENDBRANCH  23  25
ENDBRANCH  11  17
ENDBRANCH   4   7
ENDBRANCH   2   3
ENDBRANCH   1   2
BRANCH   1  27
ATOM     27  C   UNL A   1      31.734  31.797  27.088  1.00  0.00     0.023 C 
BRANCH  27  28
ATOM     28  C   UNL A   1      32.879  32.754  27.395  1.00  0.00     0.116 C 
BRANCH  28  29
ATOM     29  N   UNL A   1      32.463  34.125  27.650  1.00  0.00    -0.352 N 
ATOM     30  C   UNL A   1      32.992  35.004  28.570  1.00  0.00     0.251 C 
ATOM     31  H   UNL A   1      31.718  34.462  27.104  1.00  0.00     0.163 HD
ATOM     32  O   UNL A   1      32.503  36.107  28.748  1.00  0.00    -0.269 OA
BRANCH  30  33
ATOM     33  C   UNL A   1      34.142  34.553  29.381  1.00  0.00     0.039 A 
ATOM     34  C   UNL A   1      33.899  33.969  30.625  1.00  0.00     0.014 A 
ATOM     35  C   UNL A   1      35.438  34.623  28.866  1.00  0.00     0.014 A 
ATOM     36  C   UNL A   1      34.957  33.389  31.324  1.00  0.00     0.010 A 
ATOM     37  C   UNL A   1      36.471  33.967  29.521  1.00  0.00     0.010 A 
ATOM     38  C   UNL A   1      36.243  33.347  30.758  1.00  0.00    -0.014 A 
BRANCH  38  39
ATOM     39  C   UNL A   1      37.363  32.670  31.456  1.00  0.00     0.031 A 
ATOM     40  C   UNL A   1      38.073  31.523  30.794  1.00  0.00     0.074 A 
ATOM     41  C   UNL A   1      37.698  33.047  32.704  1.00  0.00     0.049 A 
ATOM     42  N   UNL A   1      39.049  30.779  31.250  1.00  0.00    -0.248 NA
ATOM     43  C   UNL A   1      37.601  31.137  29.455  1.00  0.00     0.031 C 
ATOM     44  C   UNL A   1      37.036  34.098  33.479  1.00  0.00     0.029 A 
ATOM     45  N   UNL A   1      38.679  32.584  33.545  1.00  0.00    -0.354 N 
ATOM     46  C   UNL A   1      39.293  29.834  30.263  1.00  0.00     0.074 A 
ATOM     47  C   UNL A   1      38.323  30.053  29.214  1.00  0.00     0.031 C 
ATOM     48  C   UNL A   1      37.651  34.222  34.667  1.00  0.00     0.029 A 
ATOM     49  C   UNL A   1      38.730  33.243  34.749  1.00  0.00     0.049 A 
ATOM     50  H   UNL A   1      39.291  31.850  33.307  1.00  0.00     0.167 HD
ATOM     51  C   UNL A   1      40.261  28.887  30.220  1.00  0.00     0.037 A 
ATOM     52  C   UNL A   1      39.559  33.077  35.796  1.00  0.00     0.037 A 
ATOM     53  C   UNL A   1      41.247  28.697  31.248  1.00  0.00     0.049 A 
ATOM     54  C   UNL A   1      40.645  32.037  35.713  1.00  0.00     0.074 A 
ATOM     55  C   UNL A   1      42.312  27.815  31.272  1.00  0.00     0.029 A 
ATOM     56  N   UNL A   1      41.288  29.407  32.440  1.00  0.00    -0.354 N 
ATOM     57  N   UNL A   1      40.919  31.204  34.738  1.00  0.00    -0.248 NA
ATOM     58  C   UNL A   1      41.544  31.925  36.869  1.00  0.00     0.031 C 
ATOM     59  C   UNL A   1      42.975  27.963  32.495  1.00  0.00     0.029 A 
ATOM     60  C   UNL A   1      42.352  28.970  33.213  1.00  0.00     0.049 A 
ATOM     61  H   UNL A   1      40.656  30.115  32.698  1.00  0.00     0.167 HD
ATOM     62  C   UNL A   1      42.035  30.489  35.151  1.00  0.00     0.074 A 
ATOM     63  C   UNL A   1      42.399  31.000  36.456  1.00  0.00     0.031 C 
ATOM     64  C   UNL A   1      42.700  29.497  34.508  1.00  0.00     0.037 A 
BRANCH  51  65
ATOM     65  C   UNL A   1      40.305  27.999  29.011  1.00  0.00     0.064 A 
ATOM     66  C   UNL A   1      39.602  26.785  28.965  1.00  0.00     0.173 A 
ATOM     67  C   UNL A   1      41.039  28.375  27.877  1.00  0.00     0.173 A 
ATOM     68  F   UNL A   1      38.897  26.373  30.028  1.00  0.00    -0.203 F 
ATOM     69  C   UNL A   1      39.661  25.965  27.841  1.00  0.00     0.198 A 
ATOM     70  C   UNL A   1      41.071  27.566  26.743  1.00  0.00     0.198 A 
ATOM     71  F   UNL A   1      41.727  29.527  27.865  1.00  0.00    -0.203 F 
ATOM     72  F   UNL A   1      39.027  24.784  27.843  1.00  0.00    -0.200 F 
ATOM     73  C   UNL A   1      40.389  26.358  26.729  1.00  0.00     0.200 A 
ATOM     74  F   UNL A   1      41.766  27.953  25.664  1.00  0.00    -0.200 F 
ATOM     75  F   UNL A   1      40.441  25.570  25.647  1.00  0.00    -0.200 F 
ENDBRANCH  51  65
BRANCH  52  76
ATOM     76  C   UNL A   1      39.426  33.943  36.997  1.00  0.00     0.064 A 
ATOM     77  C   UNL A   1      40.016  35.215  37.033  1.00  0.00     0.173 A 
ATOM     78  C   UNL A   1      38.717  33.520  38.131  1.00  0.00     0.173 A 
ATOM     79  F   UNL A   1      40.720  35.656  35.981  1.00  0.00    -0.203 F 
ATOM     80  C   UNL A   1      39.922  36.020  38.167  1.00  0.00     0.198 A 
ATOM     81  C   UNL A   1      38.602  34.337  39.253  1.00  0.00     0.198 A 
ATOM     82  F   UNL A   1      38.130  32.315  38.144  1.00  0.00    -0.203 F 
ATOM     83  F   UNL A   1      40.536  37.211  38.191  1.00  0.00    -0.200 F 
ATOM     84  C   UNL A   1      39.211  35.583  39.273  1.00  0.00     0.200 A 
ATOM     85  F   UNL A   1      37.902  33.917  40.316  1.00  0.00    -0.200 F 
ATOM     86  F   UNL A   1      39.119  36.359  40.363  1.00  0.00    -0.200 F 
ENDBRANCH  52  76
BRANCH  64  87
ATOM     87  C   UNL A   1      43.905  28.923  35.195  1.00  0.00     0.064 A 
ATOM     88  C   UNL A   1      43.794  27.880  36.125  1.00  0.00     0.173 A 
ATOM     89  C   UNL A   1      45.188  29.402  34.892  1.00  0.00     0.173 A 
ATOM     90  F   UNL A   1      42.587  27.398  36.459  1.00  0.00    -0.203 F 
ATOM     91  C   UNL A   1      44.922  27.356  36.749  1.00  0.00     0.198 A 
ATOM     92  C   UNL A   1      46.317  28.855  35.496  1.00  0.00     0.198 A 
ATOM     93  F   UNL A   1      45.349  30.394  34.003  1.00  0.00    -0.203 F 
ATOM     94  F   UNL A   1      44.789  26.395  37.673  1.00  0.00    -0.200 F 
ATOM     95  C   UNL A   1      46.183  27.839  36.429  1.00  0.00     0.200 A 
ATOM     96  F   UNL A   1      47.535  29.313  35.174  1.00  0.00    -0.200 F 
ATOM     97  F   UNL A   1      47.268  27.331  37.028  1.00  0.00    -0.200 F 
ENDBRANCH  64  87
ENDBRANCH  38  39
ENDBRANCH  30  33
ENDBRANCH  28  29
ENDBRANCH  27  28
ENDBRANCH   1  27
TORSDOF 15
ENDMDL
MODEL 3
REMARK VINA RESULT:     -12.1      5.859     11.253
REMARK SMILES CC[NH2+][C@@]1(C(=O)NCCCCNC(=O)c2ccc(-c3c4nc(c(-c5c(F)c(F)c(F)c(F)c5F)c5ccc([nH]5)c(-c5c(F)c(F)c(F)c(F)c5F)c5nc(c(-c6c(F)c(F)c(F)c(F)c6F)c6ccc3[nH]6)C=C5)C=C4)cc2)CC[C@@H]([NH+]2CCC(C)(CC)CC2)C1
REMARK SMILES IDX 9 1 8 2 7 3 5 4 6 5 4 7 78 8 90 9 79 10 80 11 3 12 2 15 1 16
REMARK SMILES IDX 81 17 82 18 89 19 83 21 88 22 84 23 85 24 86 25 87 26 10 27
REMARK SMILES IDX 11 28 12 29 13 30 14 32 15 33 16 34 77 35 17 36 76 37 18 38
REMARK SMILES IDX 19 39 20 40 70 41 21 42 75 43 69 44 71 45 22 46 74 47 68 48
REMARK SMILES IDX 67 49 23 51 55 52 35 53 54 54 36 55 39 56 53 57 72 58 37 59
REMARK SMILES IDX 38 60 52 62 73 63 40 64 24 65 25 66 33 67 26 68 27 69 31 70
REMARK SMILES IDX 34 71 28 72 29 73 32 74 30 75 56 76 57 77 65 78 58 79 59 80
REMARK SMILES IDX 63 81 66 82 60 83 61 84 64 85 62 86 41 87 42 88 50 89 43 90
REMARK SMILES IDX 44 91 48 92 51 93 45 94 46 95 49 96 47 97
REMARK H PARENT 7 6 3 13 3 14 81 20 12 31 71 50 39 61
REMARK Flexibility Score: inf
ROOT
ATOM      1  C   UNL A   1      31.911  30.836  26.563  1.00  0.00     0.023 C 
ENDROOT
BRANCH   1   2
ATOM      2  C   UNL A   1      31.308  30.336  25.250  1.00  0.00     0.116 C 
BRANCH   2   3
ATOM      3  N   UNL A   1      30.270  31.222  24.780  1.00  0.00    -0.351 N 
ATOM      4  C   UNL A   1      29.464  31.203  23.689  1.00  0.00     0.281 C 
ATOM      5  O   UNL A   1      28.790  32.235  23.537  1.00  0.00    -0.268 OA
ATOM      6  H   UNL A   1      30.117  31.996  25.368  1.00  0.00     0.163 HD
BRANCH   4   7
ATOM      7  C   UNL A   1      29.387  30.032  22.621  1.00  0.00     0.181 C 
ATOM      8  C   UNL A   1      28.165  29.123  22.810  1.00  0.00     0.085 C 
ATOM      9  C   UNL A   1      30.636  29.134  22.728  1.00  0.00     0.144 C 
ATOM     10  C   UNL A   1      28.675  27.713  23.113  1.00  0.00     0.072 C 
ATOM     11  C   UNL A   1      30.194  27.795  23.332  1.00  0.00     0.191 C 
BRANCH   7  12
ATOM     12  N   UNL A   1      29.285  30.756  21.319  1.00  0.00    -0.334 N 
ATOM     13  H   UNL A   1      29.646  31.697  21.476  1.00  0.00     0.347 HD
ATOM     14  H   UNL A   1      29.802  30.157  20.675  1.00  0.00     0.347 HD
BRANCH  12  15
ATOM     15  C   UNL A   1      27.991  30.905  20.673  1.00  0.00     0.257 C 
ATOM     16  C   UNL A   1      27.821  32.341  20.194  1.00  0.00     0.071 C 
ENDBRANCH  12  15
ENDBRANCH   7  12
BRANCH  11  17
ATOM     17  N   UNL A   1      30.957  26.569  23.055  1.00  0.00    -0.332 N 
ATOM     18  C   UNL A   1      30.910  25.529  24.084  1.00  0.00     0.263 C 
ATOM     19  C   UNL A   1      32.311  26.684  22.530  1.00  0.00     0.263 C 
ATOM     20  H   UNL A   1      30.391  26.265  22.261  1.00  0.00     0.348 HD
ATOM     21  C   UNL A   1      31.916  25.692  25.233  1.00  0.00     0.068 C 
ATOM     22  C   UNL A   1      33.338  27.080  23.583  1.00  0.00     0.068 C 
ATOM     23  C   UNL A   1      33.342  26.184  24.847  1.00  0.00    -0.022 C 
ATOM     24  C   UNL A   1      33.881  27.029  26.034  1.00  0.00     0.012 C 
BRANCH  23  25
ATOM     25  C   UNL A   1      34.349  25.005  24.701  1.00  0.00     0.004 C 
ATOM     26  C   UNL A   1      34.204  24.103  23.489  1.00  0.00     0.004 C 
ENDBRANCH  23  25
ENDBRANCH  11  17
ENDBRANCH   4   7
ENDBRANCH   2   3
ENDBRANCH   1   2
BRANCH   1  27
ATOM     27  C   UNL A   1      31.583  32.290  26.894  1.00  0.00     0.023 C 
BRANCH  27  28
ATOM     28  C   UNL A   1      32.724  33.068  27.537  1.00  0.00     0.116 C 
BRANCH  28  29
ATOM     29  N   UNL A   1      32.392  34.441  27.887  1.00  0.00    -0.352 N 
ATOM     30  C   UNL A   1      33.025  35.248  28.807  1.00  0.00     0.251 C 
ATOM     31  H   UNL A   1      31.627  34.838  27.413  1.00  0.00     0.163 HD
ATOM     32  O   UNL A   1      32.602  36.361  29.072  1.00  0.00    -0.269 OA
BRANCH  30  33
ATOM     33  C   UNL A   1      34.206  34.707  29.511  1.00  0.00     0.039 A 
ATOM     34  C   UNL A   1      34.022  34.057  30.732  1.00  0.00     0.014 A 
ATOM     35  C   UNL A   1      35.468  34.762  28.915  1.00  0.00     0.014 A 
ATOM     36  C   UNL A   1      35.099  33.397  31.323  1.00  0.00     0.010 A 
ATOM     37  C   UNL A   1      36.515  34.030  29.458  1.00  0.00     0.010 A 
ATOM     38  C   UNL A   1      36.342  33.344  30.669  1.00  0.00    -0.014 A 
BRANCH  38  39
ATOM     39  C   UNL A   1      37.478  32.585  31.248  1.00  0.00     0.031 A 
ATOM     40  C   UNL A   1      37.996  32.939  32.614  1.00  0.00     0.074 A 
ATOM     41  C   UNL A   1      38.079  31.624  30.522  1.00  0.00     0.049 A 
ATOM     42  N   UNL A   1      38.998  32.422  33.280  1.00  0.00    -0.248 NA
ATOM     43  C   UNL A   1      37.319  34.044  33.312  1.00  0.00     0.031 C 
ATOM     44  C   UNL A   1      37.714  31.239  29.157  1.00  0.00     0.029 A 
ATOM     45  N   UNL A   1      39.130  30.796  30.829  1.00  0.00    -0.354 N 
ATOM     46  C   UNL A   1      39.079  33.148  34.460  1.00  0.00     0.074 A 
ATOM     47  C   UNL A   1      38.071  34.182  34.394  1.00  0.00     0.031 C 
ATOM     48  C   UNL A   1      38.505  30.230  28.759  1.00  0.00     0.029 A 
ATOM     49  C   UNL A   1      39.449  29.915  29.826  1.00  0.00     0.049 A 
ATOM     50  H   UNL A   1      39.609  30.830  31.689  1.00  0.00     0.167 HD
ATOM     51  C   UNL A   1      39.899  32.949  35.520  1.00  0.00     0.037 A 
ATOM     52  C   UNL A   1      40.395  28.958  29.778  1.00  0.00     0.037 A 
ATOM     53  C   UNL A   1      40.874  31.896  35.597  1.00  0.00     0.049 A 
ATOM     54  C   UNL A   1      41.275  28.738  30.980  1.00  0.00     0.074 A 
ATOM     55  C   UNL A   1      41.706  31.564  36.650  1.00  0.00     0.029 A 
ATOM     56  N   UNL A   1      41.146  31.000  34.573  1.00  0.00    -0.354 N 
ATOM     57  N   UNL A   1      41.286  29.376  32.125  1.00  0.00    -0.248 NA
ATOM     58  C   UNL A   1      42.264  27.655  30.886  1.00  0.00     0.031 C 
ATOM     59  C   UNL A   1      42.511  30.492  36.250  1.00  0.00     0.029 A 
ATOM     60  C   UNL A   1      42.147  30.124  34.966  1.00  0.00     0.049 A 
ATOM     61  H   UNL A   1      40.696  30.987  33.698  1.00  0.00     0.167 HD
ATOM     62  C   UNL A   1      42.261  28.758  32.896  1.00  0.00     0.074 A 
ATOM     63  C   UNL A   1      42.806  27.681  32.096  1.00  0.00     0.031 C 
ATOM     64  C   UNL A   1      42.670  29.055  34.155  1.00  0.00     0.037 A 
BRANCH  51  65
ATOM     65  C   UNL A   1      39.759  33.884  36.685  1.00  0.00     0.064 A 
ATOM     66  C   UNL A   1      40.440  35.110  36.730  1.00  0.00     0.173 A 
ATOM     67  C   UNL A   1      38.918  33.562  37.761  1.00  0.00     0.173 A 
ATOM     68  F   UNL A   1      41.268  35.459  35.733  1.00  0.00    -0.203 F 
ATOM     69  C   UNL A   1      40.311  35.963  37.822  1.00  0.00     0.198 A 
ATOM     70  C   UNL A   1      38.768  34.432  38.838  1.00  0.00     0.198 A 
ATOM     71  F   UNL A   1      38.241  32.404  37.768  1.00  0.00    -0.203 F 
ATOM     72  F   UNL A   1      41.016  37.103  37.867  1.00  0.00    -0.200 F 
ATOM     73  C   UNL A   1      39.471  35.627  38.873  1.00  0.00     0.200 A 
ATOM     74  F   UNL A   1      37.946  34.112  39.847  1.00  0.00    -0.200 F 
ATOM     75  F   UNL A   1      39.344  36.451  39.921  1.00  0.00    -0.200 F 
ENDBRANCH  51  65
BRANCH  52  76
ATOM     76  C   UNL A   1      40.530  28.104  28.569  1.00  0.00     0.064 A 
ATOM     77  C   UNL A   1      39.892  26.857  28.496  1.00  0.00     0.173 A 
ATOM     78  C   UNL A   1      41.302  28.508  27.470  1.00  0.00     0.173 A 
ATOM     79  F   UNL A   1      39.159  26.418  29.529  1.00  0.00    -0.203 F 
ATOM     80  C   UNL A   1      40.040  26.037  27.378  1.00  0.00     0.198 A 
ATOM     81  C   UNL A   1      41.427  27.699  26.342  1.00  0.00     0.198 A 
ATOM     82  F   UNL A   1      41.927  29.694  27.489  1.00  0.00    -0.203 F 
ATOM     83  F   UNL A   1      39.458  24.831  27.354  1.00  0.00    -0.200 F 
ATOM     84  C   UNL A   1      40.803  26.461  26.301  1.00  0.00     0.200 A 
ATOM     85  F   UNL A   1      42.153  28.118  25.297  1.00  0.00    -0.200 F 
ATOM     86  F   UNL A   1      40.943  25.673  25.225  1.00  0.00    -0.200 F 
ENDBRANCH  52  76
BRANCH  64  87
ATOM     87  C   UNL A   1      43.736  28.183  34.752  1.00  0.00     0.064 A 
ATOM     88  C   UNL A   1      45.094  28.527  34.679  1.00  0.00     0.173 A 
ATOM     89  C   UNL A   1      43.390  27.007  35.433  1.00  0.00     0.173 A 
ATOM     90  F   UNL A   1      45.475  29.635  34.025  1.00  0.00    -0.203 F 
ATOM     91  C   UNL A   1      46.069  27.710  35.242  1.00  0.00     0.198 A 
ATOM     92  C   UNL A   1      44.366  26.208  36.022  1.00  0.00     0.198 A 
ATOM     93  F   UNL A   1      42.105  26.638  35.538  1.00  0.00    -0.203 F 
ATOM     94  F   UNL A   1      47.364  28.031  35.116  1.00  0.00    -0.200 F 
ATOM     95  C   UNL A   1      45.704  26.555  35.919  1.00  0.00     0.200 A 
ATOM     96  F   UNL A   1      44.011  25.100  36.688  1.00  0.00    -0.200 F 
ATOM     97  F   UNL A   1      46.645  25.772  36.464  1.00  0.00    -0.200 F 
ENDBRANCH  64  87
ENDBRANCH  38  39
ENDBRANCH  30  33
ENDBRANCH  28  29
ENDBRANCH  27  28
ENDBRANCH   1  27
TORSDOF 15
ENDMDL
