MODEL 1
REMARK VINA RESULT:     -11.1      0.000      0.000
REMARK SMILES CC[C@@](C)(NC(=O)c1ccncc1F)C(=O)NCCCCNC(=O)c1ccc(-c2c3nc(c(-c4c(F)c(F)c(F)c(F)c4F)c4ccc([nH]4)c(-c4c(F)c(F)c(F)c(F)c4F)c4nc(c(-c5c(F)c(F)c(F)c(F)c5F)c5ccc2[nH]5)C=C4)C=C3)cc1
REMARK SMILES IDX 19 1 18 2 17 3 15 4 16 5 3 7 4 8 2 9 1 10 5 11 6 12 7 14
REMARK SMILES IDX 8 15 9 16 13 17 10 18 12 19 14 20 11 21 20 22 21 23 22 24
REMARK SMILES IDX 23 25 24 27 25 28 26 29 87 30 27 31 86 32 28 33 29 34 30 35
REMARK SMILES IDX 80 36 31 37 85 38 79 39 81 40 32 41 84 42 78 43 77 44 33 46
REMARK SMILES IDX 65 47 45 48 64 49 46 50 49 51 63 52 82 53 47 54 48 55 62 57
REMARK SMILES IDX 83 58 50 59 34 60 35 61 43 62 36 63 37 64 41 65 44 66 38 67
REMARK SMILES IDX 39 68 42 69 40 70 66 71 67 72 75 73 68 74 69 75 73 76 76 77
REMARK SMILES IDX 70 78 71 79 74 80 72 81 51 82 52 83 60 84 53 85 54 86 58 87
REMARK SMILES IDX 61 88 55 89 56 90 59 91 57 92
REMARK H PARENT 17 6 5 13 22 26 81 45 49 56
REMARK Flexibility Score: inf
ROOT
ATOM      1  C   UNL A   1      36.776  33.506  28.925  1.00  0.00     0.023 C 
ENDROOT
BRANCH   1   2
ATOM      2  C   UNL A   1      36.958  33.106  30.391  1.00  0.00     0.116 C 
BRANCH   2   3
ATOM      3  N   UNL A   1      37.389  34.126  31.329  1.00  0.00    -0.354 N 
ATOM      4  C   UNL A   1      37.349  34.256  32.692  1.00  0.00     0.245 C 
ATOM      5  O   UNL A   1      38.010  35.194  33.153  1.00  0.00    -0.272 OA
ATOM      6  H   UNL A   1      37.801  34.903  30.885  1.00  0.00     0.163 HD
BRANCH   4   7
ATOM      7  C   UNL A   1      36.639  33.236  33.626  1.00  0.00     0.116 C 
ATOM      8  C   UNL A   1      37.444  31.915  33.469  1.00  0.00     0.045 C 
BRANCH   7   9
ATOM      9  C   UNL A   1      36.657  33.609  35.137  1.00  0.00     0.035 C 
ATOM     10  C   UNL A   1      37.774  33.029  36.000  1.00  0.00     0.007 C 
ENDBRANCH   7   9
BRANCH   7  11
ATOM     11  N   UNL A   1      35.223  32.953  33.262  1.00  0.00    -0.338 N 
ATOM     12  C   UNL A   1      34.085  33.696  33.052  1.00  0.00     0.255 C 
ATOM     13  H   UNL A   1      35.061  31.990  33.141  1.00  0.00     0.164 HD
ATOM     14  O   UNL A   1      33.033  33.066  33.222  1.00  0.00    -0.269 OA
BRANCH  12  15
ATOM     15  C   UNL A   1      33.943  35.116  32.614  1.00  0.00     0.078 A 
ATOM     16  C   UNL A   1      34.167  36.095  33.601  1.00  0.00     0.037 A 
ATOM     17  C   UNL A   1      33.426  35.577  31.414  1.00  0.00     0.154 A 
ATOM     18  C   UNL A   1      33.875  37.429  33.339  1.00  0.00     0.112 A 
ATOM     19  C   UNL A   1      33.179  36.930  31.228  1.00  0.00     0.151 A 
ATOM     20  F   UNL A   1      33.001  34.781  30.447  1.00  0.00    -0.204 F 
ATOM     21  N   UNL A   1      33.392  37.871  32.164  1.00  0.00    -0.262 NA
ENDBRANCH  12  15
ENDBRANCH   7  11
ENDBRANCH   4   7
ENDBRANCH   2   3
ENDBRANCH   1   2
BRANCH   1  22
ATOM     22  C   UNL A   1      35.413  33.290  28.270  1.00  0.00     0.023 C 
BRANCH  22  23
ATOM     23  C   UNL A   1      34.418  32.455  29.052  1.00  0.00     0.116 C 
BRANCH  23  24
ATOM     24  N   UNL A   1      33.861  31.375  28.257  1.00  0.00    -0.352 N 
ATOM     25  C   UNL A   1      34.487  30.268  27.739  1.00  0.00     0.251 C 
ATOM     26  H   UNL A   1      32.899  31.447  28.062  1.00  0.00     0.163 HD
ATOM     27  O   UNL A   1      33.903  29.559  26.930  1.00  0.00    -0.269 OA
BRANCH  25  28
ATOM     28  C   UNL A   1      35.875  29.943  28.142  1.00  0.00     0.039 A 
ATOM     29  C   UNL A   1      36.103  29.442  29.425  1.00  0.00     0.014 A 
ATOM     30  C   UNL A   1      36.948  30.149  27.269  1.00  0.00     0.014 A 
ATOM     31  C   UNL A   1      37.401  29.108  29.819  1.00  0.00     0.010 A 
ATOM     32  C   UNL A   1      38.227  29.737  27.632  1.00  0.00     0.010 A 
ATOM     33  C   UNL A   1      38.470  29.229  28.916  1.00  0.00    -0.014 A 
BRANCH  33  34
ATOM     34  C   UNL A   1      39.853  28.856  29.306  1.00  0.00     0.031 A 
ATOM     35  C   UNL A   1      40.658  29.770  30.189  1.00  0.00     0.074 A 
ATOM     36  C   UNL A   1      40.402  27.725  28.822  1.00  0.00     0.049 A 
ATOM     37  N   UNL A   1      41.898  29.656  30.591  1.00  0.00    -0.248 NA
ATOM     38  C   UNL A   1      39.989  30.994  30.658  1.00  0.00     0.031 C 
ATOM     39  C   UNL A   1      39.737  26.782  27.922  1.00  0.00     0.029 A 
ATOM     40  N   UNL A   1      41.648  27.181  29.011  1.00  0.00    -0.354 N 
ATOM     41  C   UNL A   1      42.159  30.795  31.342  1.00  0.00     0.074 A 
ATOM     42  C   UNL A   1      40.972  31.617  31.292  1.00  0.00     0.031 C 
ATOM     43  C   UNL A   1      40.571  25.762  27.660  1.00  0.00     0.029 A 
ATOM     44  C   UNL A   1      41.841  26.000  28.338  1.00  0.00     0.049 A 
ATOM     45  H   UNL A   1      42.337  27.598  29.577  1.00  0.00     0.167 HD
ATOM     46  C   UNL A   1      43.281  31.113  32.033  1.00  0.00     0.037 A 
ATOM     47  C   UNL A   1      42.926  25.204  28.270  1.00  0.00     0.037 A 
ATOM     48  C   UNL A   1      44.450  30.277  32.099  1.00  0.00     0.049 A 
ATOM     49  C   UNL A   1      44.163  25.588  29.037  1.00  0.00     0.074 A 
ATOM     50  C   UNL A   1      45.614  30.476  32.821  1.00  0.00     0.029 A 
ATOM     51  N   UNL A   1      44.605  29.081  31.412  1.00  0.00    -0.354 N 
ATOM     52  N   UNL A   1      44.372  26.629  29.806  1.00  0.00    -0.248 NA
ATOM     53  C   UNL A   1      45.314  24.680  28.933  1.00  0.00     0.031 C 
ATOM     54  C   UNL A   1      46.495  29.431  32.527  1.00  0.00     0.029 A 
ATOM     55  C   UNL A   1      45.857  28.546  31.671  1.00  0.00     0.049 A 
ATOM     56  H   UNL A   1      43.927  28.674  30.827  1.00  0.00     0.167 HD
ATOM     57  C   UNL A   1      45.661  26.487  30.301  1.00  0.00     0.074 A 
ATOM     58  C   UNL A   1      46.181  25.249  29.758  1.00  0.00     0.031 C 
ATOM     59  C   UNL A   1      46.353  27.307  31.130  1.00  0.00     0.037 A 
BRANCH  46  60
ATOM     60  C   UNL A   1      43.298  32.422  32.770  1.00  0.00     0.064 A 
ATOM     61  C   UNL A   1      42.841  32.533  34.092  1.00  0.00     0.173 A 
ATOM     62  C   UNL A   1      43.813  33.576  32.158  1.00  0.00     0.173 A 
ATOM     63  F   UNL A   1      42.328  31.465  34.721  1.00  0.00    -0.203 F 
ATOM     64  C   UNL A   1      42.868  33.754  34.763  1.00  0.00     0.198 A 
ATOM     65  C   UNL A   1      43.871  34.787  32.843  1.00  0.00     0.198 A 
ATOM     66  F   UNL A   1      44.269  33.528  30.898  1.00  0.00    -0.203 F 
ATOM     67  F   UNL A   1      42.376  33.845  36.006  1.00  0.00    -0.200 F 
ATOM     68  C   UNL A   1      43.390  34.878  34.141  1.00  0.00     0.200 A 
ATOM     69  F   UNL A   1      44.391  35.869  32.246  1.00  0.00    -0.200 F 
ATOM     70  F   UNL A   1      43.425  36.049  34.790  1.00  0.00    -0.200 F 
ENDBRANCH  46  60
BRANCH  47  71
ATOM     71  C   UNL A   1      42.884  23.953  27.468  1.00  0.00     0.064 A 
ATOM     72  C   UNL A   1      42.494  22.738  28.049  1.00  0.00     0.173 A 
ATOM     73  C   UNL A   1      43.241  23.940  26.111  1.00  0.00     0.173 A 
ATOM     74  F   UNL A   1      42.163  22.692  29.348  1.00  0.00    -0.203 F 
ATOM     75  C   UNL A   1      42.489  21.554  27.312  1.00  0.00     0.198 A 
ATOM     76  C   UNL A   1      43.204  22.762  25.367  1.00  0.00     0.198 A 
ATOM     77  F   UNL A   1      43.616  25.075  25.505  1.00  0.00    -0.203 F 
ATOM     78  F   UNL A   1      42.165  20.399  27.908  1.00  0.00    -0.200 F 
ATOM     79  C   UNL A   1      42.839  21.568  25.971  1.00  0.00     0.200 A 
ATOM     80  F   UNL A   1      43.527  22.783  24.067  1.00  0.00    -0.200 F 
ATOM     81  F   UNL A   1      42.831  20.431  25.262  1.00  0.00    -0.200 F 
ENDBRANCH  47  71
BRANCH  59  82
ATOM     82  C   UNL A   1      47.733  26.871  31.537  1.00  0.00     0.064 A 
ATOM     83  C   UNL A   1      47.945  25.991  32.607  1.00  0.00     0.173 A 
ATOM     84  C   UNL A   1      48.854  27.313  30.816  1.00  0.00     0.173 A 
ATOM     85  F   UNL A   1      46.909  25.551  33.337  1.00  0.00    -0.203 F 
ATOM     86  C   UNL A   1      49.233  25.591  32.959  1.00  0.00     0.198 A 
ATOM     87  C   UNL A   1      50.134  26.883  31.148  1.00  0.00     0.198 A 
ATOM     88  F   UNL A   1      48.704  28.150  29.778  1.00  0.00    -0.203 F 
ATOM     89  F   UNL A   1      49.416  24.791  34.019  1.00  0.00    -0.200 F 
ATOM     90  C   UNL A   1      50.324  26.030  32.225  1.00  0.00     0.200 A 
ATOM     91  F   UNL A   1      51.186  27.294  30.426  1.00  0.00    -0.200 F 
ATOM     92  F   UNL A   1      51.560  25.636  32.560  1.00  0.00    -0.200 F 
ENDBRANCH  59  82
ENDBRANCH  33  34
ENDBRANCH  25  28
ENDBRANCH  23  24
ENDBRANCH  22  23
ENDBRANCH   1  22
TORSDOF 14
ENDMDL
MODEL 2
REMARK VINA RESULT:     -11.0      0.477      2.092
REMARK SMILES CC[C@@](C)(NC(=O)c1ccncc1F)C(=O)NCCCCNC(=O)c1ccc(-c2c3nc(c(-c4c(F)c(F)c(F)c(F)c4F)c4ccc([nH]4)c(-c4c(F)c(F)c(F)c(F)c4F)c4nc(c(-c5c(F)c(F)c(F)c(F)c5F)c5ccc2[nH]5)C=C4)C=C3)cc1
REMARK SMILES IDX 19 1 18 2 17 3 15 4 16 5 3 7 4 8 2 9 1 10 5 11 6 12 7 14
REMARK SMILES IDX 8 15 9 16 13 17 10 18 12 19 14 20 11 21 20 22 21 23 22 24
REMARK SMILES IDX 23 25 24 27 25 28 26 29 87 30 27 31 86 32 28 33 29 34 30 35
REMARK SMILES IDX 80 36 31 37 85 38 79 39 81 40 32 41 84 42 78 43 77 44 33 46
REMARK SMILES IDX 65 47 45 48 64 49 46 50 49 51 63 52 82 53 47 54 48 55 62 57
REMARK SMILES IDX 83 58 50 59 34 60 35 61 43 62 36 63 37 64 41 65 44 66 38 67
REMARK SMILES IDX 39 68 42 69 40 70 66 71 67 72 75 73 68 74 69 75 73 76 76 77
REMARK SMILES IDX 70 78 71 79 74 80 72 81 51 82 52 83 60 84 53 85 54 86 58 87
REMARK SMILES IDX 61 88 55 89 56 90 59 91 57 92
REMARK H PARENT 17 6 5 13 22 26 81 45 49 56
REMARK Flexibility Score: inf
ROOT
ATOM      1  C   UNL A   1      36.732  33.489  29.036  1.00  0.00     0.023 C 
ENDROOT
BRANCH   1   2
ATOM      2  C   UNL A   1      36.795  33.139  30.525  1.00  0.00     0.116 C 
BRANCH   2   3
ATOM      3  N   UNL A   1      37.352  34.123  31.435  1.00  0.00    -0.354 N 
ATOM      4  C   UNL A   1      37.385  34.261  32.798  1.00  0.00     0.245 C 
ATOM      5  O   UNL A   1      38.143  35.141  33.221  1.00  0.00    -0.272 OA
ATOM      6  H   UNL A   1      37.810  34.859  30.967  1.00  0.00     0.163 HD
BRANCH   4   7
ATOM      7  C   UNL A   1      36.632  33.309  33.770  1.00  0.00     0.116 C 
ATOM      8  C   UNL A   1      37.436  31.980  33.737  1.00  0.00     0.045 C 
BRANCH   7   9
ATOM      9  C   UNL A   1      36.592  33.786  35.251  1.00  0.00     0.035 C 
ATOM     10  C   UNL A   1      37.626  33.209  36.213  1.00  0.00     0.007 C 
ENDBRANCH   7   9
BRANCH   7  11
ATOM     11  N   UNL A   1      35.231  33.006  33.370  1.00  0.00    -0.338 N 
ATOM     12  C   UNL A   1      34.089  33.733  33.127  1.00  0.00     0.255 C 
ATOM     13  H   UNL A   1      35.085  32.040  33.247  1.00  0.00     0.164 HD
ATOM     14  O   UNL A   1      33.042  33.089  33.272  1.00  0.00    -0.269 OA
BRANCH  12  15
ATOM     15  C   UNL A   1      33.938  35.150  32.681  1.00  0.00     0.078 A 
ATOM     16  C   UNL A   1      34.116  36.134  33.671  1.00  0.00     0.037 A 
ATOM     17  C   UNL A   1      33.452  35.600  31.464  1.00  0.00     0.154 A 
ATOM     18  C   UNL A   1      33.813  37.463  33.397  1.00  0.00     0.112 A 
ATOM     19  C   UNL A   1      33.191  36.948  31.267  1.00  0.00     0.151 A 
ATOM     20  F   UNL A   1      33.070  34.795  30.487  1.00  0.00    -0.204 F 
ATOM     21  N   UNL A   1      33.360  37.895  32.206  1.00  0.00    -0.262 NA
ENDBRANCH  12  15
ENDBRANCH   7  11
ENDBRANCH   4   7
ENDBRANCH   2   3
ENDBRANCH   1   2
BRANCH   1  22
ATOM     22  C   UNL A   1      35.406  33.318  28.298  1.00  0.00     0.023 C 
BRANCH  22  23
ATOM     23  C   UNL A   1      34.347  32.492  29.003  1.00  0.00     0.116 C 
BRANCH  23  24
ATOM     24  N   UNL A   1      33.780  31.473  28.139  1.00  0.00    -0.352 N 
ATOM     25  C   UNL A   1      34.376  30.356  27.608  1.00  0.00     0.251 C 
ATOM     26  H   UNL A   1      32.833  31.601  27.900  1.00  0.00     0.163 HD
ATOM     27  O   UNL A   1      33.800  29.707  26.744  1.00  0.00    -0.269 OA
BRANCH  25  28
ATOM     28  C   UNL A   1      35.724  29.946  28.064  1.00  0.00     0.039 A 
ATOM     29  C   UNL A   1      36.807  30.112  27.198  1.00  0.00     0.014 A 
ATOM     30  C   UNL A   1      35.919  29.382  29.329  1.00  0.00     0.014 A 
ATOM     31  C   UNL A   1      38.091  29.752  27.615  1.00  0.00     0.010 A 
ATOM     32  C   UNL A   1      37.208  29.104  29.774  1.00  0.00     0.010 A 
ATOM     33  C   UNL A   1      38.305  29.269  28.917  1.00  0.00    -0.014 A 
BRANCH  33  34
ATOM     34  C   UNL A   1      39.665  28.904  29.389  1.00  0.00     0.031 A 
ATOM     35  C   UNL A   1      40.399  29.809  30.339  1.00  0.00     0.074 A 
ATOM     36  C   UNL A   1      40.258  27.789  28.920  1.00  0.00     0.049 A 
ATOM     37  N   UNL A   1      41.612  29.701  30.819  1.00  0.00    -0.248 NA
ATOM     38  C   UNL A   1      39.685  31.016  30.787  1.00  0.00     0.031 C 
ATOM     39  C   UNL A   1      39.665  26.856  27.960  1.00  0.00     0.029 A 
ATOM     40  N   UNL A   1      41.495  27.255  29.180  1.00  0.00    -0.354 N 
ATOM     41  C   UNL A   1      41.809  30.827  31.607  1.00  0.00     0.074 A 
ATOM     42  C   UNL A   1      40.617  31.637  31.495  1.00  0.00     0.031 C 
ATOM     43  C   UNL A   1      40.527  25.851  27.735  1.00  0.00     0.029 A 
ATOM     44  C   UNL A   1      41.747  26.090  28.498  1.00  0.00     0.049 A 
ATOM     45  H   UNL A   1      42.141  27.669  29.797  1.00  0.00     0.167 HD
ATOM     46  C   UNL A   1      42.879  31.145  32.375  1.00  0.00     0.037 A 
ATOM     47  C   UNL A   1      42.843  25.307  28.486  1.00  0.00     0.037 A 
ATOM     48  C   UNL A   1      44.052  30.320  32.502  1.00  0.00     0.049 A 
ATOM     49  C   UNL A   1      44.023  25.690  29.340  1.00  0.00     0.074 A 
ATOM     50  C   UNL A   1      45.164  30.518  33.303  1.00  0.00     0.029 A 
ATOM     51  N   UNL A   1      44.266  29.140  31.804  1.00  0.00    -0.354 N 
ATOM     52  N   UNL A   1      44.169  26.718  30.140  1.00  0.00    -0.248 NA
ATOM     53  C   UNL A   1      45.190  24.797  29.293  1.00  0.00     0.031 C 
ATOM     54  C   UNL A   1      46.075  29.488  33.047  1.00  0.00     0.029 A 
ATOM     55  C   UNL A   1      45.505  28.614  32.134  1.00  0.00     0.049 A 
ATOM     56  H   UNL A   1      43.632  28.737  31.168  1.00  0.00     0.167 HD
ATOM     57  C   UNL A   1      45.425  26.581  30.715  1.00  0.00     0.074 A 
ATOM     58  C   UNL A   1      45.994  25.359  30.184  1.00  0.00     0.031 C 
ATOM     59  C   UNL A   1      46.051  27.391  31.604  1.00  0.00     0.037 A 
BRANCH  46  60
ATOM     60  C   UNL A   1      42.832  32.439  33.137  1.00  0.00     0.064 A 
ATOM     61  C   UNL A   1      43.355  33.629  32.607  1.00  0.00     0.173 A 
ATOM     62  C   UNL A   1      42.221  32.499  34.399  1.00  0.00     0.173 A 
ATOM     63  F   UNL A   1      43.959  33.626  31.409  1.00  0.00    -0.203 F 
ATOM     64  C   UNL A   1      43.299  34.821  33.325  1.00  0.00     0.198 A 
ATOM     65  C   UNL A   1      42.136  33.700  35.099  1.00  0.00     0.198 A 
ATOM     66  F   UNL A   1      41.699  31.395  34.952  1.00  0.00    -0.203 F 
ATOM     67  F   UNL A   1      43.853  35.932  32.821  1.00  0.00    -0.200 F 
ATOM     68  C   UNL A   1      42.682  34.858  34.567  1.00  0.00     0.200 A 
ATOM     69  F   UNL A   1      41.526  33.737  36.293  1.00  0.00    -0.200 F 
ATOM     70  F   UNL A   1      42.620  36.007  35.252  1.00  0.00    -0.200 F 
ENDBRANCH  46  60
BRANCH  47  71
ATOM     71  C   UNL A   1      42.869  24.072  27.659  1.00  0.00     0.064 A 
ATOM     72  C   UNL A   1      43.223  24.121  26.303  1.00  0.00     0.173 A 
ATOM     73  C   UNL A   1      42.531  22.822  28.198  1.00  0.00     0.173 A 
ATOM     74  F   UNL A   1      43.535  25.295  25.734  1.00  0.00    -0.203 F 
ATOM     75  C   UNL A   1      43.213  22.973  25.512  1.00  0.00     0.198 A 
ATOM     76  C   UNL A   1      42.553  21.669  27.415  1.00  0.00     0.198 A 
ATOM     77  F   UNL A   1      42.190  22.718  29.490  1.00  0.00    -0.203 F 
ATOM     78  F   UNL A   1      43.503  23.059  24.207  1.00  0.00    -0.200 F 
ATOM     79  C   UNL A   1      42.883  21.747  26.070  1.00  0.00     0.200 A 
ATOM     80  F   UNL A   1      42.249  20.485  27.962  1.00  0.00    -0.200 F 
ATOM     81  F   UNL A   1      42.876  20.643  25.311  1.00  0.00    -0.200 F 
ENDBRANCH  47  71
BRANCH  59  82
ATOM     82  C   UNL A   1      47.406  26.963  32.091  1.00  0.00     0.064 A 
ATOM     83  C   UNL A   1      48.587  27.423  31.491  1.00  0.00     0.173 A 
ATOM     84  C   UNL A   1      47.522  26.112  33.201  1.00  0.00     0.173 A 
ATOM     85  F   UNL A   1      48.532  28.226  30.418  1.00  0.00    -0.203 F 
ATOM     86  C   UNL A   1      49.834  27.022  31.966  1.00  0.00     0.198 A 
ATOM     87  C   UNL A   1      48.769  25.743  33.696  1.00  0.00     0.198 A 
ATOM     88  F   UNL A   1      46.422  25.650  33.818  1.00  0.00    -0.203 F 
ATOM     89  F   UNL A   1      50.948  27.432  31.344  1.00  0.00    -0.200 F 
ATOM     90  C   UNL A   1      49.924  26.191  33.072  1.00  0.00     0.200 A 
ATOM     91  F   UNL A   1      48.854  24.954  34.776  1.00  0.00    -0.200 F 
ATOM     92  F   UNL A   1      51.124  25.816  33.534  1.00  0.00    -0.200 F 
ENDBRANCH  59  82
ENDBRANCH  33  34
ENDBRANCH  25  28
ENDBRANCH  23  24
ENDBRANCH  22  23
ENDBRANCH   1  22
TORSDOF 14
ENDMDL
MODEL 3
REMARK VINA RESULT:     -10.8      3.908     10.338
REMARK SMILES CC[C@@](C)(NC(=O)c1ccncc1F)C(=O)NCCCCNC(=O)c1ccc(-c2c3nc(c(-c4c(F)c(F)c(F)c(F)c4F)c4ccc([nH]4)c(-c4c(F)c(F)c(F)c(F)c4F)c4nc(c(-c5c(F)c(F)c(F)c(F)c5F)c5ccc2[nH]5)C=C4)C=C3)cc1
REMARK SMILES IDX 19 1 18 2 17 3 15 4 16 5 3 7 4 8 2 9 1 10 5 11 6 12 7 14
REMARK SMILES IDX 8 15 9 16 13 17 10 18 12 19 14 20 11 21 20 22 21 23 22 24
REMARK SMILES IDX 23 25 24 27 25 28 26 29 87 30 27 31 86 32 28 33 29 34 30 35
REMARK SMILES IDX 80 36 31 37 85 38 79 39 81 40 32 41 84 42 78 43 77 44 33 46
REMARK SMILES IDX 65 47 45 48 64 49 46 50 49 51 63 52 82 53 47 54 48 55 62 57
REMARK SMILES IDX 83 58 50 59 34 60 35 61 43 62 36 63 37 64 41 65 44 66 38 67
REMARK SMILES IDX 39 68 42 69 40 70 66 71 67 72 75 73 68 74 69 75 73 76 76 77
REMARK SMILES IDX 70 78 71 79 74 80 72 81 51 82 52 83 60 84 53 85 54 86 58 87
REMARK SMILES IDX 61 88 55 89 56 90 59 91 57 92
REMARK H PARENT 17 6 5 13 22 26 81 45 49 56
REMARK Flexibility Score: inf
ROOT
ATOM      1  C   UNL A   1      31.391  30.833  26.079  1.00  0.00     0.023 C 
ENDROOT
BRANCH   1   2
ATOM      2  C   UNL A   1      32.760  30.151  26.009  1.00  0.00     0.116 C 
BRANCH   2   3
ATOM      3  N   UNL A   1      33.287  29.812  24.700  1.00  0.00    -0.354 N 
ATOM      4  C   UNL A   1      33.402  28.649  23.983  1.00  0.00     0.245 C 
ATOM      5  O   UNL A   1      33.727  28.790  22.798  1.00  0.00    -0.272 OA
ATOM      6  H   UNL A   1      33.645  30.593  24.219  1.00  0.00     0.163 HD
BRANCH   4   7
ATOM      7  C   UNL A   1      33.034  27.253  24.557  1.00  0.00     0.116 C 
ATOM      8  C   UNL A   1      33.828  27.141  25.889  1.00  0.00     0.045 C 
BRANCH   7   9
ATOM      9  C   UNL A   1      31.528  27.064  24.903  1.00  0.00     0.035 C 
ATOM     10  C   UNL A   1      31.154  26.856  26.368  1.00  0.00     0.007 C 
ENDBRANCH   7   9
BRANCH   7  11
ATOM     11  N   UNL A   1      33.430  26.108  23.692  1.00  0.00    -0.338 N 
ATOM     12  C   UNL A   1      33.912  24.835  23.889  1.00  0.00     0.255 C 
ATOM     13  H   UNL A   1      33.318  26.315  22.736  1.00  0.00     0.164 HD
ATOM     14  O   UNL A   1      34.540  24.379  22.925  1.00  0.00    -0.269 OA
BRANCH  12  15
ATOM     15  C   UNL A   1      33.751  23.927  25.063  1.00  0.00     0.078 A 
ATOM     16  C   UNL A   1      32.435  23.523  25.359  1.00  0.00     0.037 A 
ATOM     17  C   UNL A   1      34.709  23.598  26.008  1.00  0.00     0.154 A 
ATOM     18  C   UNL A   1      32.164  22.836  26.537  1.00  0.00     0.112 A 
ATOM     19  C   UNL A   1      34.358  22.895  27.151  1.00  0.00     0.151 A 
ATOM     20  F   UNL A   1      35.954  24.043  25.972  1.00  0.00    -0.204 F 
ATOM     21  N   UNL A   1      33.105  22.503  27.440  1.00  0.00    -0.262 NA
ENDBRANCH  12  15
ENDBRANCH   7  11
ENDBRANCH   4   7
ENDBRANCH   2   3
ENDBRANCH   1   2
BRANCH   1  22
ATOM     22  C   UNL A   1      31.325  32.305  26.481  1.00  0.00     0.023 C 
BRANCH  22  23
ATOM     23  C   UNL A   1      32.541  32.861  27.195  1.00  0.00     0.116 C 
BRANCH  23  24
ATOM     24  N   UNL A   1      32.358  34.243  27.598  1.00  0.00    -0.352 N 
ATOM     25  C   UNL A   1      32.986  34.947  28.596  1.00  0.00     0.251 C 
ATOM     26  H   UNL A   1      31.688  34.748  27.081  1.00  0.00     0.163 HD
ATOM     27  O   UNL A   1      32.569  36.051  28.921  1.00  0.00    -0.269 OA
BRANCH  25  28
ATOM     28  C   UNL A   1      34.153  34.362  29.295  1.00  0.00     0.039 A 
ATOM     29  C   UNL A   1      33.939  33.620  30.459  1.00  0.00     0.014 A 
ATOM     30  C   UNL A   1      35.453  34.560  28.820  1.00  0.00     0.014 A 
ATOM     31  C   UNL A   1      35.023  33.042  31.122  1.00  0.00     0.010 A 
ATOM     32  C   UNL A   1      36.523  33.913  29.433  1.00  0.00     0.010 A 
ATOM     33  C   UNL A   1      36.322  33.162  30.600  1.00  0.00    -0.014 A 
BRANCH  33  34
ATOM     34  C   UNL A   1      37.485  32.534  31.276  1.00  0.00     0.031 A 
ATOM     35  C   UNL A   1      38.221  31.404  30.611  1.00  0.00     0.074 A 
ATOM     36  C   UNL A   1      37.843  32.944  32.508  1.00  0.00     0.049 A 
ATOM     37  N   UNL A   1      39.219  30.685  31.059  1.00  0.00    -0.248 NA
ATOM     38  C   UNL A   1      37.753  31.006  29.274  1.00  0.00     0.031 C 
ATOM     39  C   UNL A   1      37.178  34.000  33.274  1.00  0.00     0.029 A 
ATOM     40  N   UNL A   1      38.849  32.516  33.338  1.00  0.00    -0.354 N 
ATOM     41  C   UNL A   1      39.484  29.746  30.071  1.00  0.00     0.074 A 
ATOM     42  C   UNL A   1      38.506  29.945  29.025  1.00  0.00     0.031 C 
ATOM     43  C   UNL A   1      37.811  34.156  34.447  1.00  0.00     0.029 A 
ATOM     44  C   UNL A   1      38.897  33.186  34.536  1.00  0.00     0.049 A 
ATOM     45  H   UNL A   1      39.477  31.797  33.097  1.00  0.00     0.167 HD
ATOM     46  C   UNL A   1      40.470  28.819  30.028  1.00  0.00     0.037 A 
ATOM     47  C   UNL A   1      39.721  33.028  35.590  1.00  0.00     0.037 A 
ATOM     48  C   UNL A   1      41.456  28.644  31.062  1.00  0.00     0.049 A 
ATOM     49  C   UNL A   1      40.801  31.980  35.521  1.00  0.00     0.074 A 
ATOM     50  C   UNL A   1      42.536  27.778  31.088  1.00  0.00     0.029 A 
ATOM     51  N   UNL A   1      41.480  29.349  32.257  1.00  0.00    -0.354 N 
ATOM     52  N   UNL A   1      41.090  31.149  34.549  1.00  0.00    -0.248 NA
ATOM     53  C   UNL A   1      41.676  31.855  36.696  1.00  0.00     0.031 C 
ATOM     54  C   UNL A   1      43.178  27.919  32.322  1.00  0.00     0.029 A 
ATOM     55  C   UNL A   1      42.538  28.917  33.040  1.00  0.00     0.049 A 
ATOM     56  H   UNL A   1      40.839  30.052  32.511  1.00  0.00     0.167 HD
ATOM     57  C   UNL A   1      42.195  30.427  34.979  1.00  0.00     0.074 A 
ATOM     58  C   UNL A   1      42.534  30.929  36.294  1.00  0.00     0.031 C 
ATOM     59  C   UNL A   1      42.868  29.437  34.343  1.00  0.00     0.037 A 
BRANCH  46  60
ATOM     60  C   UNL A   1      40.531  27.919  28.826  1.00  0.00     0.064 A 
ATOM     61  C   UNL A   1      39.798  26.724  28.759  1.00  0.00     0.173 A 
ATOM     62  C   UNL A   1      41.304  28.275  27.710  1.00  0.00     0.173 A 
ATOM     63  F   UNL A   1      39.051  26.330  29.801  1.00  0.00    -0.203 F 
ATOM     64  C   UNL A   1      39.862  25.904  27.635  1.00  0.00     0.198 A 
ATOM     65  C   UNL A   1      41.339  27.470  26.574  1.00  0.00     0.198 A 
ATOM     66  F   UNL A   1      42.021  29.409  27.717  1.00  0.00    -0.203 F 
ATOM     67  F   UNL A   1      39.195  24.742  27.616  1.00  0.00    -0.200 F 
ATOM     68  C   UNL A   1      40.626  26.282  26.540  1.00  0.00     0.200 A 
ATOM     69  F   UNL A   1      42.065  27.844  25.511  1.00  0.00    -0.200 F 
ATOM     70  F   UNL A   1      40.679  25.497  25.456  1.00  0.00    -0.200 F 
ENDBRANCH  46  60
BRANCH  47  71
ATOM     71  C   UNL A   1      39.575  33.895  36.788  1.00  0.00     0.064 A 
ATOM     72  C   UNL A   1      40.218  35.140  36.858  1.00  0.00     0.173 A 
ATOM     73  C   UNL A   1      38.805  33.498  37.891  1.00  0.00     0.173 A 
ATOM     74  F   UNL A   1      40.983  35.556  35.838  1.00  0.00    -0.203 F 
ATOM     75  C   UNL A   1      40.116  35.942  37.993  1.00  0.00     0.198 A 
ATOM     76  C   UNL A   1      38.677  34.316  39.013  1.00  0.00     0.198 A 
ATOM     77  F   UNL A   1      38.165  32.320  37.874  1.00  0.00    -0.203 F 
ATOM     78  F   UNL A   1      40.785  37.101  38.053  1.00  0.00    -0.200 F 
ATOM     79  C   UNL A   1      39.341  35.532  39.068  1.00  0.00     0.200 A 
ATOM     80  F   UNL A   1      37.915  33.922  40.042  1.00  0.00    -0.200 F 
ATOM     81  F   UNL A   1      39.242  36.304  40.158  1.00  0.00    -0.200 F 
ENDBRANCH  47  71
BRANCH  59  82
ATOM     82  C   UNL A   1      44.066  28.859  35.041  1.00  0.00     0.064 A 
ATOM     83  C   UNL A   1      43.965  27.741  35.882  1.00  0.00     0.173 A 
ATOM     84  C   UNL A   1      45.341  29.410  34.831  1.00  0.00     0.173 A 
ATOM     85  F   UNL A   1      42.769  27.186  36.127  1.00  0.00    -0.203 F 
ATOM     86  C   UNL A   1      45.091  27.214  36.510  1.00  0.00     0.198 A 
ATOM     87  C   UNL A   1      46.468  28.859  35.432  1.00  0.00     0.198 A 
ATOM     88  F   UNL A   1      45.494  30.475  34.029  1.00  0.00    -0.203 F 
ATOM     89  F   UNL A   1      44.962  26.179  37.351  1.00  0.00    -0.200 F 
ATOM     90  C   UNL A   1      46.342  27.768  36.278  1.00  0.00     0.200 A 
ATOM     91  F   UNL A   1      47.677  29.384  35.192  1.00  0.00    -0.200 F 
ATOM     92  F   UNL A   1      47.424  27.253  36.876  1.00  0.00    -0.200 F 
ENDBRANCH  59  82
ENDBRANCH  33  34
ENDBRANCH  25  28
ENDBRANCH  23  24
ENDBRANCH  22  23
ENDBRANCH   1  22
TORSDOF 14
ENDMDL
