MODEL 1
REMARK VINA RESULT:     -12.5      0.000      0.000
REMARK SMILES CC[NH2+][C@@]1(C(=O)NCCCCNC(=O)c2ccc(-c3c4nc(c(-c5c(F)c(F)c(F)c(F)c5F)c5ccc([nH]5)c(-c5c(F)c(F)c(F)c(F)c5F)c5nc(c(-c6c(F)c(F)c(F)c(F)c6F)c6ccc3[nH]6)C=C5)C=C4)cc2)CC[C@@H]([NH+]2CC[NH+](C(C)C)CC2)C1
REMARK SMILES IDX 9 1 8 2 7 3 5 4 6 5 4 7 78 8 90 9 79 10 80 11 3 12 2 15 1 16
REMARK SMILES IDX 81 17 82 18 89 19 83 21 88 22 84 23 85 25 86 26 87 27 10 28
REMARK SMILES IDX 11 29 12 30 13 31 14 33 15 34 16 35 77 36 17 37 76 38 18 39
REMARK SMILES IDX 19 40 20 41 70 42 21 43 75 44 69 45 71 46 22 47 74 48 68 49
REMARK SMILES IDX 67 50 23 52 55 53 35 54 54 55 36 56 39 57 53 58 72 59 37 60
REMARK SMILES IDX 38 61 52 63 73 64 40 65 24 66 25 67 33 68 26 69 27 70 31 71
REMARK SMILES IDX 34 72 28 73 29 74 32 75 30 76 56 77 57 78 65 79 58 80 59 81
REMARK SMILES IDX 63 82 66 83 60 84 61 85 64 86 62 87 41 88 42 89 50 90 43 91
REMARK SMILES IDX 44 92 48 93 51 94 45 95 46 96 49 97 47 98
REMARK H PARENT 7 6 3 13 3 14 81 20 84 24 12 32 71 51 39 62
REMARK Flexibility Score: inf
ROOT
ATOM      1  C   UNL A   1      32.150  30.586  26.644  1.00  0.00     0.023 C 
ENDROOT
BRANCH   1   2
ATOM      2  C   UNL A   1      31.560  29.929  25.391  1.00  0.00     0.116 C 
BRANCH   2   3
ATOM      3  N   UNL A   1      32.580  29.617  24.415  1.00  0.00    -0.351 N 
ATOM      4  C   UNL A   1      32.627  28.769  23.355  1.00  0.00     0.281 C 
ATOM      5  O   UNL A   1      33.728  28.728  22.781  1.00  0.00    -0.268 OA
ATOM      6  H   UNL A   1      33.414  30.123  24.545  1.00  0.00     0.163 HD
BRANCH   4   7
ATOM      7  C   UNL A   1      31.445  27.829  22.862  1.00  0.00     0.181 C 
ATOM      8  C   UNL A   1      30.564  27.310  24.010  1.00  0.00     0.085 C 
ATOM      9  C   UNL A   1      32.004  26.579  22.162  1.00  0.00     0.144 C 
ATOM     10  C   UNL A   1      30.558  25.779  23.931  1.00  0.00     0.072 C 
ATOM     11  C   UNL A   1      31.774  25.381  23.087  1.00  0.00     0.191 C 
BRANCH   7  12
ATOM     12  N   UNL A   1      30.605  28.720  21.993  1.00  0.00    -0.334 N 
ATOM     13  H   UNL A   1      31.126  29.587  21.858  1.00  0.00     0.347 HD
ATOM     14  H   UNL A   1      30.434  28.161  21.158  1.00  0.00     0.347 HD
BRANCH  12  15
ATOM     15  C   UNL A   1      29.271  29.089  22.451  1.00  0.00     0.257 C 
ATOM     16  C   UNL A   1      29.181  30.590  22.688  1.00  0.00     0.071 C 
ENDBRANCH  12  15
ENDBRANCH   7  12
BRANCH  11  17
ATOM     17  N   UNL A   1      31.824  24.018  22.532  1.00  0.00    -0.323 N 
ATOM     18  C   UNL A   1      33.142  23.488  22.174  1.00  0.00     0.324 C 
ATOM     19  C   UNL A   1      31.141  23.000  23.354  1.00  0.00     0.324 C 
ATOM     20  H   UNL A   1      31.315  24.177  21.662  1.00  0.00     0.348 HD
ATOM     21  C   UNL A   1      34.024  23.122  23.378  1.00  0.00     0.324 C 
ATOM     22  C   UNL A   1      31.943  22.421  24.552  1.00  0.00     0.324 C 
ATOM     23  N   UNL A   1      33.402  22.273  24.403  1.00  0.00    -0.324 N 
ATOM     24  H   UNL A   1      33.790  22.697  25.245  1.00  0.00     0.348 HD
BRANCH  23  25
ATOM     25  C   UNL A   1      33.876  20.889  24.500  1.00  0.00     0.178 C 
ATOM     26  C   UNL A   1      35.312  20.777  25.015  1.00  0.00     0.075 C 
ATOM     27  C   UNL A   1      32.931  20.011  25.331  1.00  0.00     0.075 C 
ENDBRANCH  23  25
ENDBRANCH  11  17
ENDBRANCH   4   7
ENDBRANCH   2   3
ENDBRANCH   1   2
BRANCH   1  28
ATOM     28  C   UNL A   1      31.739  32.034  26.890  1.00  0.00     0.023 C 
BRANCH  28  29
ATOM     29  C   UNL A   1      32.877  32.945  27.319  1.00  0.00     0.116 C 
BRANCH  29  30
ATOM     30  N   UNL A   1      32.462  34.281  27.726  1.00  0.00    -0.352 N 
ATOM     31  C   UNL A   1      33.022  35.062  28.711  1.00  0.00     0.251 C 
ATOM     32  H   UNL A   1      31.696  34.668  27.242  1.00  0.00     0.163 HD
ATOM     33  O   UNL A   1      32.537  36.144  29.020  1.00  0.00    -0.269 OA
BRANCH  31  34
ATOM     34  C   UNL A   1      34.191  34.531  29.436  1.00  0.00     0.039 A 
ATOM     35  C   UNL A   1      33.987  33.833  30.627  1.00  0.00     0.014 A 
ATOM     36  C   UNL A   1      35.467  34.634  28.878  1.00  0.00     0.014 A 
ATOM     37  C   UNL A   1      35.059  33.169  31.221  1.00  0.00     0.010 A 
ATOM     38  C   UNL A   1      36.510  33.896  29.418  1.00  0.00     0.010 A 
ATOM     39  C   UNL A   1      36.319  33.162  30.598  1.00  0.00    -0.014 A 
BRANCH  39  40
ATOM     40  C   UNL A   1      37.460  32.413  31.177  1.00  0.00     0.031 A 
ATOM     41  C   UNL A   1      37.953  32.761  32.553  1.00  0.00     0.074 A 
ATOM     42  C   UNL A   1      38.091  31.478  30.442  1.00  0.00     0.049 A 
ATOM     43  N   UNL A   1      38.974  32.278  33.215  1.00  0.00    -0.248 NA
ATOM     44  C   UNL A   1      37.224  33.822  33.267  1.00  0.00     0.031 C 
ATOM     45  C   UNL A   1      37.746  31.100  29.070  1.00  0.00     0.029 A 
ATOM     46  N   UNL A   1      39.163  30.678  30.747  1.00  0.00    -0.354 N 
ATOM     47  C   UNL A   1      39.020  32.990  34.405  1.00  0.00     0.074 A 
ATOM     48  C   UNL A   1      37.968  33.979  34.351  1.00  0.00     0.031 C 
ATOM     49  C   UNL A   1      38.571  30.121  28.664  1.00  0.00     0.029 A 
ATOM     50  C   UNL A   1      39.518  29.823  29.734  1.00  0.00     0.049 A 
ATOM     51  H   UNL A   1      39.633  30.714  31.611  1.00  0.00     0.167 HD
ATOM     52  C   UNL A   1      39.846  32.813  35.463  1.00  0.00     0.037 A 
ATOM     53  C   UNL A   1      40.495  28.898  29.681  1.00  0.00     0.037 A 
ATOM     54  C   UNL A   1      40.863  31.799  35.530  1.00  0.00     0.049 A 
ATOM     55  C   UNL A   1      41.373  28.692  30.886  1.00  0.00     0.074 A 
ATOM     56  C   UNL A   1      41.714  31.496  36.577  1.00  0.00     0.029 A 
ATOM     57  N   UNL A   1      41.158  30.915  34.502  1.00  0.00    -0.354 N 
ATOM     58  N   UNL A   1      41.362  29.323  32.035  1.00  0.00    -0.248 NA
ATOM     59  C   UNL A   1      42.389  27.636  30.791  1.00  0.00     0.031 C 
ATOM     60  C   UNL A   1      42.547  30.446  36.172  1.00  0.00     0.029 A 
ATOM     61  C   UNL A   1      42.184  30.069  34.889  1.00  0.00     0.049 A 
ATOM     62  H   UNL A   1      40.706  30.893  33.627  1.00  0.00     0.167 HD
ATOM     63  C   UNL A   1      42.343  28.719  32.810  1.00  0.00     0.074 A 
ATOM     64  C   UNL A   1      42.921  27.665  32.004  1.00  0.00     0.031 C 
ATOM     65  C   UNL A   1      42.730  29.012  34.076  1.00  0.00     0.037 A 
BRANCH  52  66
ATOM     66  C   UNL A   1      39.664  33.729  36.638  1.00  0.00     0.064 A 
ATOM     67  C   UNL A   1      38.850  33.377  37.725  1.00  0.00     0.173 A 
ATOM     68  C   UNL A   1      40.321  34.968  36.685  1.00  0.00     0.173 A 
ATOM     69  F   UNL A   1      38.187  32.210  37.722  1.00  0.00    -0.203 F 
ATOM     70  C   UNL A   1      38.670  34.245  38.798  1.00  0.00     0.198 A 
ATOM     71  C   UNL A   1      40.164  35.819  37.775  1.00  0.00     0.198 A 
ATOM     72  F   UNL A   1      41.113  35.352  35.673  1.00  0.00    -0.203 F 
ATOM     73  F   UNL A   1      37.841  33.911  39.797  1.00  0.00    -0.200 F 
ATOM     74  C   UNL A   1      39.332  35.462  38.825  1.00  0.00     0.200 A 
ATOM     75  F   UNL A   1      40.812  36.993  37.805  1.00  0.00    -0.200 F 
ATOM     76  F   UNL A   1      39.161  36.297  39.860  1.00  0.00    -0.200 F 
ENDBRANCH  52  66
BRANCH  53  77
ATOM     77  C   UNL A   1      40.660  28.058  28.466  1.00  0.00     0.064 A 
ATOM     78  C   UNL A   1      40.040  26.804  28.373  1.00  0.00     0.173 A 
ATOM     79  C   UNL A   1      41.443  28.482  27.383  1.00  0.00     0.173 A 
ATOM     80  F   UNL A   1      39.297  26.347  29.391  1.00  0.00    -0.203 F 
ATOM     81  C   UNL A   1      40.214  25.996  27.251  1.00  0.00     0.198 A 
ATOM     82  C   UNL A   1      41.595  27.684  26.251  1.00  0.00     0.198 A 
ATOM     83  F   UNL A   1      42.051  29.676  27.421  1.00  0.00    -0.203 F 
ATOM     84  F   UNL A   1      39.646  24.783  27.207  1.00  0.00    -0.200 F 
ATOM     85  C   UNL A   1      40.987  26.438  26.189  1.00  0.00     0.200 A 
ATOM     86  F   UNL A   1      42.333  28.120  25.220  1.00  0.00    -0.200 F 
ATOM     87  F   UNL A   1      41.154  25.661  25.109  1.00  0.00    -0.200 F 
ENDBRANCH  53  77
BRANCH  65  88
ATOM     88  C   UNL A   1      43.795  28.148  34.685  1.00  0.00     0.064 A 
ATOM     89  C   UNL A   1      43.481  26.961  35.362  1.00  0.00     0.173 A 
ATOM     90  C   UNL A   1      45.147  28.498  34.556  1.00  0.00     0.173 A 
ATOM     91  F   UNL A   1      42.201  26.592  35.523  1.00  0.00    -0.203 F 
ATOM     92  C   UNL A   1      44.485  26.167  35.912  1.00  0.00     0.198 A 
ATOM     93  C   UNL A   1      46.148  27.688  35.083  1.00  0.00     0.198 A 
ATOM     94  F   UNL A   1      45.497  29.621  33.912  1.00  0.00    -0.203 F 
ATOM     95  F   UNL A   1      44.161  25.061  36.596  1.00  0.00    -0.200 F 
ATOM     96  C   UNL A   1      45.816  26.527  35.766  1.00  0.00     0.200 A 
ATOM     97  F   UNL A   1      47.435  28.030  34.931  1.00  0.00    -0.200 F 
ATOM     98  F   UNL A   1      46.780  25.760  36.292  1.00  0.00    -0.200 F 
ENDBRANCH  65  88
ENDBRANCH  39  40
ENDBRANCH  31  34
ENDBRANCH  29  30
ENDBRANCH  28  29
ENDBRANCH   1  28
TORSDOF 15
ENDMDL
MODEL 2
REMARK VINA RESULT:     -12.4      0.343      1.621
REMARK SMILES CC[NH2+][C@@]1(C(=O)NCCCCNC(=O)c2ccc(-c3c4nc(c(-c5c(F)c(F)c(F)c(F)c5F)c5ccc([nH]5)c(-c5c(F)c(F)c(F)c(F)c5F)c5nc(c(-c6c(F)c(F)c(F)c(F)c6F)c6ccc3[nH]6)C=C5)C=C4)cc2)CC[C@@H]([NH+]2CC[NH+](C(C)C)CC2)C1
REMARK SMILES IDX 9 1 8 2 7 3 5 4 6 5 4 7 78 8 90 9 79 10 80 11 3 12 2 15 1 16
REMARK SMILES IDX 81 17 82 18 89 19 83 21 88 22 84 23 85 25 86 26 87 27 10 28
REMARK SMILES IDX 11 29 12 30 13 31 14 33 15 34 16 35 77 36 17 37 76 38 18 39
REMARK SMILES IDX 19 40 20 41 70 42 21 43 75 44 69 45 71 46 22 47 74 48 68 49
REMARK SMILES IDX 67 50 23 52 55 53 35 54 54 55 36 56 39 57 53 58 72 59 37 60
REMARK SMILES IDX 38 61 52 63 73 64 40 65 24 66 25 67 33 68 26 69 27 70 31 71
REMARK SMILES IDX 34 72 28 73 29 74 32 75 30 76 56 77 57 78 65 79 58 80 59 81
REMARK SMILES IDX 63 82 66 83 60 84 61 85 64 86 62 87 41 88 42 89 50 90 43 91
REMARK SMILES IDX 44 92 48 93 51 94 45 95 46 96 49 97 47 98
REMARK H PARENT 7 6 3 13 3 14 81 20 84 24 12 32 71 51 39 62
REMARK Flexibility Score: inf
ROOT
ATOM      1  C   UNL A   1      31.598  31.067  25.811  1.00  0.00     0.023 C 
ENDROOT
BRANCH   1   2
ATOM      2  C   UNL A   1      32.441  29.789  25.875  1.00  0.00     0.116 C 
BRANCH   2   3
ATOM      3  N   UNL A   1      33.276  29.634  24.704  1.00  0.00    -0.351 N 
ATOM      4  C   UNL A   1      33.101  29.009  23.512  1.00  0.00     0.281 C 
ATOM      5  O   UNL A   1      34.095  29.037  22.768  1.00  0.00    -0.268 OA
ATOM      6  H   UNL A   1      34.153  30.072  24.789  1.00  0.00     0.163 HD
BRANCH   4   7
ATOM      7  C   UNL A   1      31.795  28.230  23.052  1.00  0.00     0.181 C 
ATOM      8  C   UNL A   1      30.899  27.802  24.226  1.00  0.00     0.085 C 
ATOM      9  C   UNL A   1      32.170  26.933  22.314  1.00  0.00     0.144 C 
ATOM     10  C   UNL A   1      30.702  26.285  24.126  1.00  0.00     0.072 C 
ATOM     11  C   UNL A   1      31.828  25.755  23.232  1.00  0.00     0.191 C 
BRANCH   7  12
ATOM     12  N   UNL A   1      31.040  29.232  22.228  1.00  0.00    -0.334 N 
ATOM     13  H   UNL A   1      31.414  30.153  22.458  1.00  0.00     0.347 HD
ATOM     14  H   UNL A   1      31.175  28.916  21.268  1.00  0.00     0.347 HD
BRANCH  12  15
ATOM     15  C   UNL A   1      29.592  29.310  22.374  1.00  0.00     0.257 C 
ATOM     16  C   UNL A   1      29.190  30.604  23.066  1.00  0.00     0.071 C 
ENDBRANCH  12  15
ENDBRANCH   7  12
BRANCH  11  17
ATOM     17  N   UNL A   1      31.689  24.407  22.656  1.00  0.00    -0.323 N 
ATOM     18  C   UNL A   1      32.895  23.788  22.100  1.00  0.00     0.324 C 
ATOM     19  C   UNL A   1      31.056  23.424  23.556  1.00  0.00     0.324 C 
ATOM     20  H   UNL A   1      31.072  24.626  21.874  1.00  0.00     0.348 HD
ATOM     21  C   UNL A   1      33.913  23.327  23.155  1.00  0.00     0.324 C 
ATOM     22  C   UNL A   1      31.977  22.756  24.614  1.00  0.00     0.324 C 
ATOM     23  N   UNL A   1      33.383  22.502  24.249  1.00  0.00    -0.324 N 
ATOM     24  H   UNL A   1      33.922  22.874  25.031  1.00  0.00     0.348 HD
BRANCH  23  25
ATOM     25  C   UNL A   1      33.756  21.084  24.256  1.00  0.00     0.178 C 
ATOM     26  C   UNL A   1      34.781  20.735  25.336  1.00  0.00     0.075 C 
ATOM     27  C   UNL A   1      32.531  20.164  24.353  1.00  0.00     0.075 C 
ENDBRANCH  23  25
ENDBRANCH  11  17
ENDBRANCH   4   7
ENDBRANCH   2   3
ENDBRANCH   1   2
BRANCH   1  28
ATOM     28  C   UNL A   1      31.553  31.897  27.090  1.00  0.00     0.023 C 
BRANCH  28  29
ATOM     29  C   UNL A   1      32.735  32.833  27.273  1.00  0.00     0.116 C 
BRANCH  29  30
ATOM     30  N   UNL A   1      32.375  34.202  27.620  1.00  0.00    -0.352 N 
ATOM     31  C   UNL A   1      32.976  35.007  28.559  1.00  0.00     0.251 C 
ATOM     32  H   UNL A   1      31.618  34.594  27.126  1.00  0.00     0.163 HD
ATOM     33  O   UNL A   1      32.536  36.121  28.821  1.00  0.00    -0.269 OA
BRANCH  31  34
ATOM     34  C   UNL A   1      34.134  34.469  29.296  1.00  0.00     0.039 A 
ATOM     35  C   UNL A   1      33.912  33.762  30.479  1.00  0.00     0.014 A 
ATOM     36  C   UNL A   1      35.418  34.573  28.756  1.00  0.00     0.014 A 
ATOM     37  C   UNL A   1      34.975  33.090  31.082  1.00  0.00     0.010 A 
ATOM     38  C   UNL A   1      36.452  33.829  29.305  1.00  0.00     0.010 A 
ATOM     39  C   UNL A   1      36.243  33.086  30.477  1.00  0.00    -0.014 A 
BRANCH  39  40
ATOM     40  C   UNL A   1      37.374  32.330  31.065  1.00  0.00     0.031 A 
ATOM     41  C   UNL A   1      37.855  32.673  32.447  1.00  0.00     0.074 A 
ATOM     42  C   UNL A   1      38.009  31.394  30.335  1.00  0.00     0.049 A 
ATOM     43  N   UNL A   1      38.867  32.183  33.118  1.00  0.00    -0.248 NA
ATOM     44  C   UNL A   1      37.124  33.735  33.156  1.00  0.00     0.031 C 
ATOM     45  C   UNL A   1      37.676  31.021  28.958  1.00  0.00     0.029 A 
ATOM     46  N   UNL A   1      39.074  30.588  30.648  1.00  0.00    -0.354 N 
ATOM     47  C   UNL A   1      38.904  32.891  34.310  1.00  0.00     0.074 A 
ATOM     48  C   UNL A   1      37.857  33.886  34.248  1.00  0.00     0.031 C 
ATOM     49  C   UNL A   1      38.501  30.040  28.558  1.00  0.00     0.029 A 
ATOM     50  C   UNL A   1      39.435  29.734  29.636  1.00  0.00     0.049 A 
ATOM     51  H   UNL A   1      39.535  30.620  31.517  1.00  0.00     0.167 HD
ATOM     52  C   UNL A   1      39.718  32.708  35.377  1.00  0.00     0.037 A 
ATOM     53  C   UNL A   1      40.408  28.805  29.591  1.00  0.00     0.037 A 
ATOM     54  C   UNL A   1      40.729  31.689  35.451  1.00  0.00     0.049 A 
ATOM     55  C   UNL A   1      41.273  28.592  30.805  1.00  0.00     0.074 A 
ATOM     56  C   UNL A   1      41.568  31.379  36.506  1.00  0.00     0.029 A 
ATOM     57  N   UNL A   1      41.032  30.807  34.424  1.00  0.00    -0.354 N 
ATOM     58  N   UNL A   1      41.253  29.220  31.955  1.00  0.00    -0.248 NA
ATOM     59  C   UNL A   1      42.285  27.531  30.718  1.00  0.00     0.031 C 
ATOM     60  C   UNL A   1      42.401  30.327  36.107  1.00  0.00     0.029 A 
ATOM     61  C   UNL A   1      42.049  29.954  34.819  1.00  0.00     0.049 A 
ATOM     62  H   UNL A   1      40.588  30.789  33.545  1.00  0.00     0.167 HD
ATOM     63  C   UNL A   1      42.223  28.610  32.739  1.00  0.00     0.074 A 
ATOM     64  C   UNL A   1      42.805  27.554  31.936  1.00  0.00     0.031 C 
ATOM     65  C   UNL A   1      42.599  28.897  34.009  1.00  0.00     0.037 A 
BRANCH  52  66
ATOM     66  C   UNL A   1      39.529  33.622  36.552  1.00  0.00     0.064 A 
ATOM     67  C   UNL A   1      40.140  34.885  36.605  1.00  0.00     0.173 A 
ATOM     68  C   UNL A   1      38.719  33.239  37.631  1.00  0.00     0.173 A 
ATOM     69  F   UNL A   1      40.938  35.292  35.606  1.00  0.00    -0.203 F 
ATOM     70  C   UNL A   1      39.977  35.714  37.711  1.00  0.00     0.198 A 
ATOM     71  C   UNL A   1      38.533  34.085  38.721  1.00  0.00     0.198 A 
ATOM     72  F   UNL A   1      38.110  32.044  37.629  1.00  0.00    -0.203 F 
ATOM     73  F   UNL A   1      40.618  36.890  37.765  1.00  0.00    -0.200 F 
ATOM     74  C   UNL A   1      39.169  35.317  38.765  1.00  0.00     0.200 A 
ATOM     75  F   UNL A   1      37.743  33.705  39.735  1.00  0.00    -0.200 F 
ATOM     76  F   UNL A   1      39.010  36.117  39.828  1.00  0.00    -0.200 F 
ENDBRANCH  52  66
BRANCH  53  77
ATOM     77  C   UNL A   1      40.583  27.967  28.376  1.00  0.00     0.064 A 
ATOM     78  C   UNL A   1      39.963  26.713  28.276  1.00  0.00     0.173 A 
ATOM     79  C   UNL A   1      41.372  28.393  27.299  1.00  0.00     0.173 A 
ATOM     80  F   UNL A   1      39.213  26.255  29.288  1.00  0.00    -0.203 F 
ATOM     81  C   UNL A   1      40.145  25.907  27.153  1.00  0.00     0.198 A 
ATOM     82  C   UNL A   1      41.533  27.597  26.166  1.00  0.00     0.198 A 
ATOM     83  F   UNL A   1      41.981  29.587  27.344  1.00  0.00    -0.203 F 
ATOM     84  F   UNL A   1      39.577  24.695  27.104  1.00  0.00    -0.200 F 
ATOM     85  C   UNL A   1      40.925  26.352  26.098  1.00  0.00     0.200 A 
ATOM     86  F   UNL A   1      42.278  28.036  25.142  1.00  0.00    -0.200 F 
ATOM     87  F   UNL A   1      41.100  25.577  25.018  1.00  0.00    -0.200 F 
ENDBRANCH  53  77
BRANCH  65  88
ATOM     88  C   UNL A   1      43.653  28.027  34.627  1.00  0.00     0.064 A 
ATOM     89  C   UNL A   1      45.011  28.373  34.584  1.00  0.00     0.173 A 
ATOM     90  C   UNL A   1      43.293  26.851  35.301  1.00  0.00     0.173 A 
ATOM     91  F   UNL A   1      45.406  29.481  33.939  1.00  0.00    -0.203 F 
ATOM     92  C   UNL A   1      45.974  27.557  35.173  1.00  0.00     0.198 A 
ATOM     93  C   UNL A   1      44.255  26.053  35.912  1.00  0.00     0.198 A 
ATOM     94  F   UNL A   1      42.005  26.481  35.374  1.00  0.00    -0.203 F 
ATOM     95  F   UNL A   1      47.271  27.882  35.080  1.00  0.00    -0.200 F 
ATOM     96  C   UNL A   1      45.595  26.402  35.841  1.00  0.00     0.200 A 
ATOM     97  F   UNL A   1      43.886  24.944  36.568  1.00  0.00    -0.200 F 
ATOM     98  F   UNL A   1      46.522  25.621  36.411  1.00  0.00    -0.200 F 
ENDBRANCH  65  88
ENDBRANCH  39  40
ENDBRANCH  31  34
ENDBRANCH  29  30
ENDBRANCH  28  29
ENDBRANCH   1  28
TORSDOF 15
ENDMDL
MODEL 3
REMARK VINA RESULT:     -12.2      5.329      9.894
REMARK SMILES CC[NH2+][C@@]1(C(=O)NCCCCNC(=O)c2ccc(-c3c4nc(c(-c5c(F)c(F)c(F)c(F)c5F)c5ccc([nH]5)c(-c5c(F)c(F)c(F)c(F)c5F)c5nc(c(-c6c(F)c(F)c(F)c(F)c6F)c6ccc3[nH]6)C=C5)C=C4)cc2)CC[C@@H]([NH+]2CC[NH+](C(C)C)CC2)C1
REMARK SMILES IDX 9 1 8 2 7 3 5 4 6 5 4 7 78 8 90 9 79 10 80 11 3 12 2 15 1 16
REMARK SMILES IDX 81 17 82 18 89 19 83 21 88 22 84 23 85 25 86 26 87 27 10 28
REMARK SMILES IDX 11 29 12 30 13 31 14 33 15 34 16 35 77 36 17 37 76 38 18 39
REMARK SMILES IDX 19 40 20 41 70 42 21 43 75 44 69 45 71 46 22 47 74 48 68 49
REMARK SMILES IDX 67 50 23 52 55 53 35 54 54 55 36 56 39 57 53 58 72 59 37 60
REMARK SMILES IDX 38 61 52 63 73 64 40 65 24 66 25 67 33 68 26 69 27 70 31 71
REMARK SMILES IDX 34 72 28 73 29 74 32 75 30 76 56 77 57 78 65 79 58 80 59 81
REMARK SMILES IDX 63 82 66 83 60 84 61 85 64 86 62 87 41 88 42 89 50 90 43 91
REMARK SMILES IDX 44 92 48 93 51 94 45 95 46 96 49 97 47 98
REMARK H PARENT 7 6 3 13 3 14 81 20 84 24 12 32 71 51 39 62
REMARK Flexibility Score: inf
ROOT
ATOM      1  C   UNL A   1      36.702  19.902  25.018  1.00  0.00     0.023 C 
ENDROOT
BRANCH   1   2
ATOM      2  C   UNL A   1      36.389  21.387  25.233  1.00  0.00     0.116 C 
BRANCH   2   3
ATOM      3  N   UNL A   1      35.693  21.617  26.480  1.00  0.00    -0.351 N 
ATOM      4  C   UNL A   1      34.383  21.585  26.834  1.00  0.00     0.281 C 
ATOM      5  O   UNL A   1      34.163  21.913  28.012  1.00  0.00    -0.268 OA
ATOM      6  H   UNL A   1      36.293  21.844  27.226  1.00  0.00     0.163 HD
BRANCH   4   7
ATOM      7  C   UNL A   1      33.167  21.231  25.875  1.00  0.00     0.181 C 
ATOM      8  C   UNL A   1      33.513  21.366  24.382  1.00  0.00     0.085 C 
ATOM      9  C   UNL A   1      31.987  22.187  26.121  1.00  0.00     0.144 C 
ATOM     10  C   UNL A   1      32.500  22.334  23.760  1.00  0.00     0.072 C 
ATOM     11  C   UNL A   1      31.887  23.129  24.919  1.00  0.00     0.191 C 
BRANCH   7  12
ATOM     12  N   UNL A   1      32.881  19.785  26.161  1.00  0.00    -0.334 N 
ATOM     13  H   UNL A   1      33.501  19.500  26.920  1.00  0.00     0.347 HD
ATOM     14  H   UNL A   1      31.882  19.764  26.361  1.00  0.00     0.347 HD
BRANCH  12  15
ATOM     15  C   UNL A   1      33.046  18.813  25.087  1.00  0.00     0.257 C 
ATOM     16  C   UNL A   1      32.669  17.417  25.562  1.00  0.00     0.071 C 
ENDBRANCH  12  15
ENDBRANCH   7  12
BRANCH  11  17
ATOM     17  N   UNL A   1      30.634  23.863  24.677  1.00  0.00    -0.323 N 
ATOM     18  C   UNL A   1      30.309  24.957  25.596  1.00  0.00     0.324 C 
ATOM     19  C   UNL A   1      30.484  24.376  23.302  1.00  0.00     0.324 C 
ATOM     20  H   UNL A   1      29.967  23.111  24.853  1.00  0.00     0.348 HD
ATOM     21  C   UNL A   1      31.179  26.211  25.418  1.00  0.00     0.324 C 
ATOM     22  C   UNL A   1      31.201  25.717  22.978  1.00  0.00     0.324 C 
ATOM     23  N   UNL A   1      31.301  26.726  24.048  1.00  0.00    -0.324 N 
ATOM     24  H   UNL A   1      32.282  27.003  24.047  1.00  0.00     0.348 HD
BRANCH  23  25
ATOM     25  C   UNL A   1      30.617  27.987  23.745  1.00  0.00     0.178 C 
ATOM     26  C   UNL A   1      31.356  28.843  22.716  1.00  0.00     0.075 C 
ATOM     27  C   UNL A   1      29.158  27.767  23.322  1.00  0.00     0.075 C 
ENDBRANCH  23  25
ENDBRANCH  11  17
ENDBRANCH   4   7
ENDBRANCH   2   3
ENDBRANCH   1   2
BRANCH   1  28
ATOM     28  C   UNL A   1      38.161  19.567  24.729  1.00  0.00     0.023 C 
BRANCH  28  29
ATOM     29  C   UNL A   1      39.093  19.740  25.917  1.00  0.00     0.116 C 
BRANCH  29  30
ATOM     30  N   UNL A   1      40.277  18.893  25.886  1.00  0.00    -0.352 N 
ATOM     31  C   UNL A   1      41.578  19.273  26.125  1.00  0.00     0.251 C 
ATOM     32  H   UNL A   1      40.131  17.943  25.669  1.00  0.00     0.163 HD
ATOM     33  O   UNL A   1      42.508  18.486  25.994  1.00  0.00    -0.269 OA
BRANCH  31  34
ATOM     34  C   UNL A   1      41.835  20.680  26.484  1.00  0.00     0.039 A 
ATOM     35  C   UNL A   1      42.211  20.985  27.793  1.00  0.00     0.014 A 
ATOM     36  C   UNL A   1      41.809  21.670  25.499  1.00  0.00     0.014 A 
ATOM     37  C   UNL A   1      42.637  22.278  28.097  1.00  0.00     0.010 A 
ATOM     38  C   UNL A   1      42.320  22.928  25.781  1.00  0.00     0.010 A 
ATOM     39  C   UNL A   1      42.733  23.247  27.084  1.00  0.00    -0.014 A 
BRANCH  39  40
ATOM     40  C   UNL A   1      43.240  24.610  27.368  1.00  0.00     0.031 A 
ATOM     41  C   UNL A   1      42.314  25.638  27.955  1.00  0.00     0.074 A 
ATOM     42  C   UNL A   1      44.502  24.941  27.034  1.00  0.00     0.049 A 
ATOM     43  N   UNL A   1      42.536  26.901  28.217  1.00  0.00    -0.248 NA
ATOM     44  C   UNL A   1      40.942  25.196  28.254  1.00  0.00     0.031 C 
ATOM     45  C   UNL A   1      45.473  24.049  26.397  1.00  0.00     0.029 A 
ATOM     46  N   UNL A   1      45.183  26.123  27.179  1.00  0.00    -0.354 N 
ATOM     47  C   UNL A   1      41.331  27.404  28.686  1.00  0.00     0.074 A 
ATOM     48  C   UNL A   1      40.365  26.331  28.615  1.00  0.00     0.031 C 
ATOM     49  C   UNL A   1      46.633  24.708  26.235  1.00  0.00     0.029 A 
ATOM     50  C   UNL A   1      46.478  26.072  26.729  1.00  0.00     0.049 A 
ATOM     51  H   UNL A   1      44.779  26.932  27.569  1.00  0.00     0.167 HD
ATOM     52  C   UNL A   1      41.061  28.642  29.164  1.00  0.00     0.037 A 
ATOM     53  C   UNL A   1      47.433  27.021  26.724  1.00  0.00     0.037 A 
ATOM     54  C   UNL A   1      42.036  29.692  29.273  1.00  0.00     0.049 A 
ATOM     55  C   UNL A   1      47.121  28.376  27.299  1.00  0.00     0.074 A 
ATOM     56  C   UNL A   1      41.883  30.963  29.797  1.00  0.00     0.029 A 
ATOM     57  N   UNL A   1      43.355  29.586  28.854  1.00  0.00    -0.354 N 
ATOM     58  N   UNL A   1      45.996  28.820  27.806  1.00  0.00    -0.248 NA
ATOM     59  C   UNL A   1      48.214  29.356  27.314  1.00  0.00     0.031 C 
ATOM     60  C   UNL A   1      43.103  31.638  29.668  1.00  0.00     0.029 A 
ATOM     61  C   UNL A   1      44.025  30.772  29.103  1.00  0.00     0.049 A 
ATOM     62  H   UNL A   1      43.754  28.786  28.441  1.00  0.00     0.167 HD
ATOM     63  C   UNL A   1      46.256  30.117  28.231  1.00  0.00     0.074 A 
ATOM     64  C   UNL A   1      47.647  30.382  27.932  1.00  0.00     0.031 C 
ATOM     65  C   UNL A   1      45.417  31.007  28.815  1.00  0.00     0.037 A 
BRANCH  52  66
ATOM     66  C   UNL A   1      39.657  28.912  29.619  1.00  0.00     0.064 A 
ATOM     67  C   UNL A   1      38.688  29.429  28.744  1.00  0.00     0.173 A 
ATOM     68  C   UNL A   1      39.270  28.642  30.940  1.00  0.00     0.173 A 
ATOM     69  F   UNL A   1      39.011  29.720  27.475  1.00  0.00    -0.203 F 
ATOM     70  C   UNL A   1      37.395  29.698  29.184  1.00  0.00     0.198 A 
ATOM     71  C   UNL A   1      37.967  28.882  31.367  1.00  0.00     0.198 A 
ATOM     72  F   UNL A   1      40.157  28.145  31.816  1.00  0.00    -0.203 F 
ATOM     73  F   UNL A   1      36.505  30.246  28.346  1.00  0.00    -0.200 F 
ATOM     74  C   UNL A   1      37.034  29.419  30.493  1.00  0.00     0.200 A 
ATOM     75  F   UNL A   1      37.616  28.603  32.631  1.00  0.00    -0.200 F 
ATOM     76  F   UNL A   1      35.788  29.676  30.915  1.00  0.00    -0.200 F 
ENDBRANCH  52  66
BRANCH  53  77
ATOM     77  C   UNL A   1      48.791  26.708  26.207  1.00  0.00     0.064 A 
ATOM     78  C   UNL A   1      49.748  26.099  27.031  1.00  0.00     0.173 A 
ATOM     79  C   UNL A   1      49.163  27.015  24.891  1.00  0.00     0.173 A 
ATOM     80  F   UNL A   1      49.445  25.804  28.303  1.00  0.00    -0.203 F 
ATOM     81  C   UNL A   1      51.034  25.830  26.565  1.00  0.00     0.198 A 
ATOM     82  C   UNL A   1      50.441  26.722  24.418  1.00  0.00     0.198 A 
ATOM     83  F   UNL A   1      48.282  27.592  24.061  1.00  0.00    -0.203 F 
ATOM     84  F   UNL A   1      51.942  25.289  27.388  1.00  0.00    -0.200 F 
ATOM     85  C   UNL A   1      51.377  26.137  25.258  1.00  0.00     0.200 A 
ATOM     86  F   UNL A   1      50.766  27.009  23.150  1.00  0.00    -0.200 F 
ATOM     87  F   UNL A   1      52.613  25.878  24.809  1.00  0.00    -0.200 F 
ENDBRANCH  53  77
BRANCH  65  88
ATOM     88  C   UNL A   1      45.994  32.332  29.216  1.00  0.00     0.064 A 
ATOM     89  C   UNL A   1      45.977  33.435  28.350  1.00  0.00     0.173 A 
ATOM     90  C   UNL A   1      46.538  32.507  30.497  1.00  0.00     0.173 A 
ATOM     91  F   UNL A   1      45.481  33.312  27.110  1.00  0.00    -0.203 F 
ATOM     92  C   UNL A   1      46.508  34.660  28.745  1.00  0.00     0.198 A 
ATOM     93  C   UNL A   1      47.042  33.740  30.898  1.00  0.00     0.198 A 
ATOM     94  F   UNL A   1      46.571  31.483  31.364  1.00  0.00    -0.203 F 
ATOM     95  F   UNL A   1      46.525  35.688  27.885  1.00  0.00    -0.200 F 
ATOM     96  C   UNL A   1      47.034  34.814  30.019  1.00  0.00     0.200 A 
ATOM     97  F   UNL A   1      47.538  33.891  32.134  1.00  0.00    -0.200 F 
ATOM     98  F   UNL A   1      47.540  35.994  30.399  1.00  0.00    -0.200 F 
ENDBRANCH  65  88
ENDBRANCH  39  40
ENDBRANCH  31  34
ENDBRANCH  29  30
ENDBRANCH  28  29
ENDBRANCH   1  28
TORSDOF 15
ENDMDL
