MODEL 1
REMARK VINA RESULT:     -10.6      0.000      0.000
REMARK SMILES O=C(NCCCCNC(=O)c1ccc(-n2cc(CSc3nc4ccccc4c(=O)n3-c3ccc(Br)cc3)nn2)cc1)c1ccc(-c2c3nc(c(-c4c(F)c(F)c(F)c(F)c4F)c4ccc([nH]4)c(-c4c(F)c(F)c(F)c(F)c4F)c4nc(c(-c5c(F)c(F)c(F)c(F)c5F)c5ccc2[nH]5)C=C4)C=C3)cc1
REMARK SMILES IDX 7 1 6 2 5 3 4 4 3 5 1 6 2 7 42 9 43 10 104 11 44 12 103 13
REMARK SMILES IDX 45 14 46 15 47 16 97 17 48 18 102 19 96 20 98 21 49 22
REMARK SMILES IDX 101 23 95 24 94 25 50 27 82 28 62 29 81 30 63 31 66 32 80 33
REMARK SMILES IDX 99 34 64 35 65 36 79 38 100 39 67 40 51 41 52 42 60 43 53 44
REMARK SMILES IDX 54 45 58 46 61 47 55 48 56 49 59 50 57 51 83 52 84 53 92 54
REMARK SMILES IDX 85 55 86 56 90 57 93 58 87 59 88 60 91 61 89 62 68 63 69 64
REMARK SMILES IDX 77 65 70 66 71 67 75 68 78 69 72 70 73 71 76 72 74 73 8 74
REMARK SMILES IDX 9 75 10 77 11 78 12 79 41 80 13 81 40 82 14 83 15 84 16 85
REMARK SMILES IDX 39 86 17 87 38 88 18 89 19 90 20 91 21 92 30 93 22 94 28 95
REMARK SMILES IDX 23 96 27 97 29 98 24 99 26 100 25 101 31 102 32 103 37 104
REMARK SMILES IDX 33 105 36 106 34 107 35 108
REMARK H PARENT 3 8 98 26 66 37 8 76
REMARK Flexibility Score: inf
ROOT
ATOM      1  C   UNL A   1      44.036  22.357  24.989  1.00  0.00     0.116 C 
ENDROOT
BRANCH   1   2
ATOM      2  C   UNL A   1      43.685  21.484  26.184  1.00  0.00     0.023 C 
BRANCH   2   3
ATOM      3  C   UNL A   1      42.475  20.570  26.000  1.00  0.00     0.023 C 
BRANCH   3   4
ATOM      4  C   UNL A   1      41.426  20.638  27.113  1.00  0.00     0.116 C 
BRANCH   4   5
ATOM      5  N   UNL A   1      40.117  21.090  26.691  1.00  0.00    -0.352 N 
ATOM      6  O   UNL A   1      38.433  22.339  25.986  1.00  0.00    -0.269 OA
ATOM      7  C   UNL A   1      39.532  22.318  26.543  1.00  0.00     0.251 C 
ATOM      8  H   UNL A   1      39.513  20.349  26.456  1.00  0.00     0.163 HD
BRANCH   7   9
ATOM      9  C   UNL A   1      40.089  23.588  27.075  1.00  0.00     0.039 A 
ATOM     10  C   UNL A   1      41.169  23.697  27.953  1.00  0.00     0.014 A 
ATOM     11  C   UNL A   1      39.412  24.760  26.692  1.00  0.00     0.014 A 
ATOM     12  C   UNL A   1      41.478  24.913  28.547  1.00  0.00     0.010 A 
ATOM     13  C   UNL A   1      39.739  25.985  27.253  1.00  0.00     0.010 A 
ATOM     14  C   UNL A   1      40.734  26.043  28.226  1.00  0.00    -0.014 A 
BRANCH  14  15
ATOM     15  C   UNL A   1      41.075  27.297  28.886  1.00  0.00     0.031 A 
ATOM     16  C   UNL A   1      42.330  27.964  28.421  1.00  0.00     0.074 A 
ATOM     17  C   UNL A   1      40.211  27.888  29.735  1.00  0.00     0.049 A 
ATOM     18  N   UNL A   1      43.308  28.449  29.120  1.00  0.00    -0.248 NA
ATOM     19  C   UNL A   1      42.540  28.051  26.964  1.00  0.00     0.031 C 
ATOM     20  C   UNL A   1      38.837  27.481  30.047  1.00  0.00     0.029 A 
ATOM     21  N   UNL A   1      40.341  29.064  30.405  1.00  0.00    -0.354 N 
ATOM     22  C   UNL A   1      44.183  29.036  28.204  1.00  0.00     0.074 A 
ATOM     23  C   UNL A   1      43.715  28.674  26.892  1.00  0.00     0.031 C 
ATOM     24  C   UNL A   1      38.193  28.511  30.636  1.00  0.00     0.029 A 
ATOM     25  C   UNL A   1      39.139  29.593  30.848  1.00  0.00     0.049 A 
ATOM     26  H   UNL A   1      41.210  29.501  30.560  1.00  0.00     0.167 HD
ATOM     27  C   UNL A   1      45.130  29.943  28.570  1.00  0.00     0.037 A 
ATOM     28  C   UNL A   1      38.922  30.866  31.256  1.00  0.00     0.037 A 
ATOM     29  C   UNL A   1      45.470  29.843  29.960  1.00  0.00     0.049 A 
ATOM     30  C   UNL A   1      40.239  31.469  31.580  1.00  0.00     0.074 A 
ATOM     31  C   UNL A   1      46.031  28.862  30.753  1.00  0.00     0.029 A 
ATOM     32  N   UNL A   1      44.961  30.767  30.835  1.00  0.00    -0.354 N 
ATOM     33  N   UNL A   1      40.986  31.100  32.583  1.00  0.00    -0.248 NA
ATOM     34  C   UNL A   1      40.926  32.194  30.521  1.00  0.00     0.031 C 
ATOM     35  C   UNL A   1      45.380  28.992  32.016  1.00  0.00     0.029 A 
ATOM     36  C   UNL A   1      44.492  30.063  31.913  1.00  0.00     0.049 A 
ATOM     37  H   UNL A   1      44.937  31.745  30.712  1.00  0.00     0.167 HD
ATOM     38  C   UNL A   1      42.285  31.182  32.106  1.00  0.00     0.074 A 
ATOM     39  C   UNL A   1      42.192  31.941  30.863  1.00  0.00     0.031 C 
ATOM     40  C   UNL A   1      43.276  30.392  32.613  1.00  0.00     0.037 A 
BRANCH  27  41
ATOM     41  C   UNL A   1      45.516  31.131  27.726  1.00  0.00     0.064 A 
ATOM     42  C   UNL A   1      46.855  31.302  27.325  1.00  0.00     0.173 A 
ATOM     43  C   UNL A   1      44.680  32.257  27.559  1.00  0.00     0.173 A 
ATOM     44  F   UNL A   1      47.743  30.306  27.465  1.00  0.00    -0.203 F 
ATOM     45  C   UNL A   1      47.332  32.529  26.852  1.00  0.00     0.198 A 
ATOM     46  C   UNL A   1      45.146  33.462  27.039  1.00  0.00     0.198 A 
ATOM     47  F   UNL A   1      43.413  32.267  27.995  1.00  0.00    -0.203 F 
ATOM     48  F   UNL A   1      48.638  32.681  26.594  1.00  0.00    -0.200 F 
ATOM     49  C   UNL A   1      46.477  33.608  26.715  1.00  0.00     0.200 A 
ATOM     50  F   UNL A   1      44.307  34.503  26.933  1.00  0.00    -0.200 F 
ATOM     51  F   UNL A   1      46.944  34.800  26.321  1.00  0.00    -0.200 F 
ENDBRANCH  27  41
BRANCH  28  52
ATOM     52  C   UNL A   1      37.702  31.674  31.022  1.00  0.00     0.064 A 
ATOM     53  C   UNL A   1      37.341  32.095  29.733  1.00  0.00     0.173 A 
ATOM     54  C   UNL A   1      36.732  31.843  32.031  1.00  0.00     0.173 A 
ATOM     55  F   UNL A   1      38.183  31.917  28.705  1.00  0.00    -0.203 F 
ATOM     56  C   UNL A   1      36.083  32.650  29.471  1.00  0.00     0.198 A 
ATOM     57  C   UNL A   1      35.484  32.408  31.772  1.00  0.00     0.198 A 
ATOM     58  F   UNL A   1      36.939  31.378  33.272  1.00  0.00    -0.203 F 
ATOM     59  F   UNL A   1      35.751  32.993  28.219  1.00  0.00    -0.200 F 
ATOM     60  C   UNL A   1      35.155  32.802  30.490  1.00  0.00     0.200 A 
ATOM     61  F   UNL A   1      34.584  32.511  32.760  1.00  0.00    -0.200 F 
ATOM     62  F   UNL A   1      33.933  33.289  30.230  1.00  0.00    -0.200 F 
ENDBRANCH  28  52
BRANCH  40  63
ATOM     63  C   UNL A   1      42.964  29.588  33.842  1.00  0.00     0.064 A 
ATOM     64  C   UNL A   1      42.298  28.350  33.805  1.00  0.00     0.173 A 
ATOM     65  C   UNL A   1      43.487  29.999  35.074  1.00  0.00     0.173 A 
ATOM     66  F   UNL A   1      41.874  27.833  32.646  1.00  0.00    -0.203 F 
ATOM     67  C   UNL A   1      42.118  27.587  34.955  1.00  0.00     0.198 A 
ATOM     68  C   UNL A   1      43.338  29.217  36.217  1.00  0.00     0.198 A 
ATOM     69  F   UNL A   1      44.193  31.138  35.158  1.00  0.00    -0.203 F 
ATOM     70  F   UNL A   1      41.471  26.413  34.890  1.00  0.00    -0.200 F 
ATOM     71  C   UNL A   1      42.644  28.019  36.160  1.00  0.00     0.200 A 
ATOM     72  F   UNL A   1      43.896  29.610  37.371  1.00  0.00    -0.200 F 
ATOM     73  F   UNL A   1      42.512  27.264  37.260  1.00  0.00    -0.200 F 
ENDBRANCH  40  63
ENDBRANCH  14  15
ENDBRANCH   7   9
ENDBRANCH   4   5
ENDBRANCH   3   4
ENDBRANCH   2   3
ENDBRANCH   1   2
BRANCH   1  74
ATOM     74  N   UNL A   1      43.085  23.435  24.770  1.00  0.00    -0.352 N 
ATOM     75  C   UNL A   1      43.190  24.769  25.103  1.00  0.00     0.251 C 
ATOM     76  H   UNL A   1      42.250  23.175  24.319  1.00  0.00     0.163 HD
ATOM     77  O   UNL A   1      42.267  25.532  24.913  1.00  0.00    -0.269 OA
BRANCH  75  78
ATOM     78  C   UNL A   1      44.433  25.243  25.753  1.00  0.00     0.039 A 
ATOM     79  C   UNL A   1      44.579  25.020  27.128  1.00  0.00     0.016 A 
ATOM     80  C   UNL A   1      45.451  25.855  25.011  1.00  0.00     0.016 A 
ATOM     81  C   UNL A   1      45.791  25.312  27.749  1.00  0.00     0.029 A 
ATOM     82  C   UNL A   1      46.668  26.142  25.625  1.00  0.00     0.029 A 
ATOM     83  C   UNL A   1      46.835  25.833  26.983  1.00  0.00     0.066 A 
BRANCH  83  84
ATOM     84  N   UNL A   1      48.035  26.174  27.623  1.00  0.00    -0.220 N 
ATOM     85  C   UNL A   1      48.954  25.266  28.074  1.00  0.00     0.141 A 
ATOM     86  N   UNL A   1      48.242  27.366  28.208  1.00  0.00    -0.062 NA
ATOM     87  C   UNL A   1      49.720  25.925  28.999  1.00  0.00     0.093 A 
ATOM     88  N   UNL A   1      49.279  27.235  29.031  1.00  0.00    -0.134 NA
BRANCH  87  89
ATOM     89  C   UNL A   1      50.620  25.448  30.079  1.00  0.00     0.138 C 
BRANCH  89  90
ATOM     90  S   UNL A   1      50.498  25.836  31.819  1.00  0.00    -0.081 SA
BRANCH  90  91
ATOM     91  C   UNL A   1      49.032  25.300  32.585  1.00  0.00     0.176 A 
ATOM     92  N   UNL A   1      47.987  25.620  31.877  1.00  0.00    -0.223 NA
ATOM     93  N   UNL A   1      48.918  24.606  33.782  1.00  0.00    -0.255 N 
ATOM     94  C   UNL A   1      46.716  25.349  32.392  1.00  0.00     0.079 A 
ATOM     95  C   UNL A   1      47.779  24.963  34.523  1.00  0.00     0.266 A 
ATOM     96  C   UNL A   1      45.586  25.361  31.577  1.00  0.00     0.029 A 
ATOM     97  C   UNL A   1      46.549  25.167  33.754  1.00  0.00     0.066 A 
ATOM     98  O   UNL A   1      47.736  25.160  35.737  1.00  0.00    -0.268 OA
ATOM     99  C   UNL A   1      44.309  25.250  32.141  1.00  0.00     0.002 A 
ATOM    100  C   UNL A   1      45.284  25.114  34.344  1.00  0.00     0.016 A 
ATOM    101  C   UNL A   1      44.157  25.162  33.527  1.00  0.00     0.001 A 
BRANCH  93 102
ATOM    102  C   UNL A   1      49.874  23.690  34.388  1.00  0.00     0.051 A 
ATOM    103  C   UNL A   1      50.986  24.201  35.095  1.00  0.00     0.028 A 
ATOM    104  C   UNL A   1      49.811  22.296  34.292  1.00  0.00     0.028 A 
ATOM    105  C   UNL A   1      52.081  23.406  35.449  1.00  0.00     0.018 A 
ATOM    106  C   UNL A   1      50.920  21.492  34.600  1.00  0.00     0.018 A 
ATOM    107  C   UNL A   1      52.067  22.058  35.136  1.00  0.00     0.018 A 
ATOM    108  Br  UNL A   1      53.605  21.007  35.436  1.00  0.00    -0.051 Br
ENDBRANCH  93 102
ENDBRANCH  90  91
ENDBRANCH  89  90
ENDBRANCH  87  89
ENDBRANCH  83  84
ENDBRANCH  75  78
ENDBRANCH   1  74
TORSDOF 16
ENDMDL
MODEL 2
REMARK VINA RESULT:     -10.5      5.715     10.738
REMARK SMILES O=C(NCCCCNC(=O)c1ccc(-n2cc(CSc3nc4ccccc4c(=O)n3-c3ccc(Br)cc3)nn2)cc1)c1ccc(-c2c3nc(c(-c4c(F)c(F)c(F)c(F)c4F)c4ccc([nH]4)c(-c4c(F)c(F)c(F)c(F)c4F)c4nc(c(-c5c(F)c(F)c(F)c(F)c5F)c5ccc2[nH]5)C=C4)C=C3)cc1
REMARK SMILES IDX 7 1 6 2 5 3 4 4 3 5 1 6 2 7 42 9 43 10 104 11 44 12 103 13
REMARK SMILES IDX 45 14 46 15 47 16 97 17 48 18 102 19 96 20 98 21 49 22
REMARK SMILES IDX 101 23 95 24 94 25 50 27 82 28 62 29 81 30 63 31 66 32 80 33
REMARK SMILES IDX 99 34 64 35 65 36 79 38 100 39 67 40 51 41 52 42 60 43 53 44
REMARK SMILES IDX 54 45 58 46 61 47 55 48 56 49 59 50 57 51 83 52 84 53 92 54
REMARK SMILES IDX 85 55 86 56 90 57 93 58 87 59 88 60 91 61 89 62 68 63 69 64
REMARK SMILES IDX 77 65 70 66 71 67 75 68 78 69 72 70 73 71 76 72 74 73 8 74
REMARK SMILES IDX 9 75 10 77 11 78 12 79 41 80 13 81 40 82 14 83 15 84 16 85
REMARK SMILES IDX 39 86 17 87 38 88 18 89 19 90 20 91 21 92 30 93 22 94 28 95
REMARK SMILES IDX 23 96 27 97 29 98 24 99 26 100 25 101 31 102 32 103 37 104
REMARK SMILES IDX 33 105 36 106 34 107 35 108
REMARK H PARENT 3 8 98 26 66 37 8 76
REMARK Flexibility Score: inf
ROOT
ATOM      1  C   UNL A   1      39.003  23.652  26.559  1.00  0.00     0.116 C 
ENDROOT
BRANCH   1   2
ATOM      2  C   UNL A   1      40.178  24.475  27.067  1.00  0.00     0.023 C 
BRANCH   2   3
ATOM      3  C   UNL A   1      40.945  23.873  28.243  1.00  0.00     0.023 C 
BRANCH   3   4
ATOM      4  C   UNL A   1      42.385  23.452  27.939  1.00  0.00     0.116 C 
BRANCH   4   5
ATOM      5  N   UNL A   1      42.859  23.811  26.619  1.00  0.00    -0.352 N 
ATOM      6  O   UNL A   1      43.846  24.845  24.931  1.00  0.00    -0.269 OA
ATOM      7  C   UNL A   1      43.378  24.949  26.067  1.00  0.00     0.251 C 
ATOM      8  H   UNL A   1      42.796  23.068  25.975  1.00  0.00     0.163 HD
BRANCH   7   9
ATOM      9  C   UNL A   1      43.335  26.291  26.703  1.00  0.00     0.039 A 
ATOM     10  C   UNL A   1      44.053  26.675  27.837  1.00  0.00     0.014 A 
ATOM     11  C   UNL A   1      42.440  27.212  26.128  1.00  0.00     0.014 A 
ATOM     12  C   UNL A   1      43.787  27.883  28.467  1.00  0.00     0.010 A 
ATOM     13  C   UNL A   1      42.196  28.436  26.731  1.00  0.00     0.010 A 
ATOM     14  C   UNL A   1      42.829  28.740  27.935  1.00  0.00    -0.014 A 
BRANCH  14  15
ATOM     15  C   UNL A   1      42.561  29.989  28.636  1.00  0.00     0.031 A 
ATOM     16  C   UNL A   1      43.442  31.144  28.279  1.00  0.00     0.074 A 
ATOM     17  C   UNL A   1      41.477  30.121  29.424  1.00  0.00     0.049 A 
ATOM     18  N   UNL A   1      44.075  31.964  29.058  1.00  0.00    -0.248 NA
ATOM     19  C   UNL A   1      43.688  31.377  26.844  1.00  0.00     0.031 C 
ATOM     20  C   UNL A   1      40.388  29.158  29.623  1.00  0.00     0.029 A 
ATOM     21  N   UNL A   1      41.051  31.210  30.118  1.00  0.00    -0.354 N 
ATOM     22  C   UNL A   1      44.674  32.907  28.220  1.00  0.00     0.074 A 
ATOM     23  C   UNL A   1      44.490  32.440  26.872  1.00  0.00     0.031 C 
ATOM     24  C   UNL A   1      39.331  29.792  30.174  1.00  0.00     0.029 A 
ATOM     25  C   UNL A   1      39.713  31.161  30.474  1.00  0.00     0.049 A 
ATOM     26  H   UNL A   1      41.640  31.965  30.346  1.00  0.00     0.167 HD
ATOM     27  C   UNL A   1      45.121  34.110  28.671  1.00  0.00     0.037 A 
ATOM     28  C   UNL A   1      38.950  32.203  30.881  1.00  0.00     0.037 A 
ATOM     29  C   UNL A   1      45.381  34.101  30.082  1.00  0.00     0.049 A 
ATOM     30  C   UNL A   1      39.862  33.291  31.314  1.00  0.00     0.074 A 
ATOM     31  C   UNL A   1      46.253  33.414  30.903  1.00  0.00     0.029 A 
ATOM     32  N   UNL A   1      44.473  34.684  30.927  1.00  0.00    -0.354 N 
ATOM     33  N   UNL A   1      40.629  33.227  32.367  1.00  0.00    -0.248 NA
ATOM     34  C   UNL A   1      40.243  34.285  30.322  1.00  0.00     0.031 C 
ATOM     35  C   UNL A   1      45.529  33.200  32.113  1.00  0.00     0.029 A 
ATOM     36  C   UNL A   1      44.279  33.799  31.956  1.00  0.00     0.049 A 
ATOM     37  H   UNL A   1      44.044  35.564  30.817  1.00  0.00     0.167 HD
ATOM     38  C   UNL A   1      41.799  33.871  31.993  1.00  0.00     0.074 A 
ATOM     39  C   UNL A   1      41.472  34.575  30.757  1.00  0.00     0.031 C 
ATOM     40  C   UNL A   1      42.997  33.552  32.565  1.00  0.00     0.037 A 
BRANCH  27  41
ATOM     41  C   UNL A   1      45.020  35.388  27.876  1.00  0.00     0.064 A 
ATOM     42  C   UNL A   1      46.150  36.215  27.728  1.00  0.00     0.173 A 
ATOM     43  C   UNL A   1      43.785  35.971  27.517  1.00  0.00     0.173 A 
ATOM     44  F   UNL A   1      47.371  35.771  28.067  1.00  0.00    -0.203 F 
ATOM     45  C   UNL A   1      46.040  37.546  27.314  1.00  0.00     0.198 A 
ATOM     46  C   UNL A   1      43.685  37.281  27.054  1.00  0.00     0.198 A 
ATOM     47  F   UNL A   1      42.622  35.335  27.706  1.00  0.00    -0.203 F 
ATOM     48  F   UNL A   1      47.126  38.331  27.301  1.00  0.00    -0.200 F 
ATOM     49  C   UNL A   1      44.807  38.078  26.982  1.00  0.00     0.200 A 
ATOM     50  F   UNL A   1      42.479  37.786  26.757  1.00  0.00    -0.200 F 
ATOM     51  F   UNL A   1      44.692  39.369  26.644  1.00  0.00    -0.200 F 
ENDBRANCH  27  41
BRANCH  28  52
ATOM     52  C   UNL A   1      37.520  32.431  30.564  1.00  0.00     0.064 A 
ATOM     53  C   UNL A   1      36.559  32.561  31.577  1.00  0.00     0.173 A 
ATOM     54  C   UNL A   1      37.106  32.771  29.260  1.00  0.00     0.173 A 
ATOM     55  F   UNL A   1      36.887  32.315  32.854  1.00  0.00    -0.203 F 
ATOM     56  C   UNL A   1      35.261  33.006  31.301  1.00  0.00     0.198 A 
ATOM     57  C   UNL A   1      35.809  33.202  28.983  1.00  0.00     0.198 A 
ATOM     58  F   UNL A   1      37.977  32.780  28.240  1.00  0.00    -0.203 F 
ATOM     59  F   UNL A   1      34.384  33.170  32.300  1.00  0.00    -0.200 F 
ATOM     60  C   UNL A   1      34.889  33.330  30.005  1.00  0.00     0.200 A 
ATOM     61  F   UNL A   1      35.478  33.548  27.732  1.00  0.00    -0.200 F 
ATOM     62  F   UNL A   1      33.662  33.802  29.748  1.00  0.00    -0.200 F 
ENDBRANCH  28  52
BRANCH  40  63
ATOM     63  C   UNL A   1      42.977  32.636  33.755  1.00  0.00     0.064 A 
ATOM     64  C   UNL A   1      42.778  33.089  35.071  1.00  0.00     0.173 A 
ATOM     65  C   UNL A   1      43.001  31.253  33.548  1.00  0.00     0.173 A 
ATOM     66  F   UNL A   1      42.624  34.391  35.334  1.00  0.00    -0.203 F 
ATOM     67  C   UNL A   1      42.664  32.198  36.135  1.00  0.00     0.198 A 
ATOM     68  C   UNL A   1      42.851  30.362  34.608  1.00  0.00     0.198 A 
ATOM     69  F   UNL A   1      43.119  30.761  32.304  1.00  0.00    -0.203 F 
ATOM     70  F   UNL A   1      42.483  32.660  37.382  1.00  0.00    -0.200 F 
ATOM     71  C   UNL A   1      42.694  30.835  35.902  1.00  0.00     0.200 A 
ATOM     72  F   UNL A   1      42.825  29.043  34.372  1.00  0.00    -0.200 F 
ATOM     73  F   UNL A   1      42.539  29.975  36.918  1.00  0.00    -0.200 F 
ENDBRANCH  40  63
ENDBRANCH  14  15
ENDBRANCH   7   9
ENDBRANCH   4   5
ENDBRANCH   3   4
ENDBRANCH   2   3
ENDBRANCH   1   2
BRANCH   1  74
ATOM     74  N   UNL A   1      39.359  22.275  26.257  1.00  0.00    -0.352 N 
ATOM     75  C   UNL A   1      38.621  21.308  25.606  1.00  0.00     0.251 C 
ATOM     76  H   UNL A   1      40.253  21.994  26.559  1.00  0.00     0.163 HD
ATOM     77  O   UNL A   1      39.039  20.175  25.498  1.00  0.00    -0.269 OA
BRANCH  75  78
ATOM     78  C   UNL A   1      37.280  21.666  25.092  1.00  0.00     0.039 A 
ATOM     79  C   UNL A   1      37.181  22.755  24.218  1.00  0.00     0.016 A 
ATOM     80  C   UNL A   1      36.148  20.913  25.433  1.00  0.00     0.016 A 
ATOM     81  C   UNL A   1      35.967  23.033  23.594  1.00  0.00     0.029 A 
ATOM     82  C   UNL A   1      34.933  21.180  24.806  1.00  0.00     0.029 A 
ATOM     83  C   UNL A   1      34.866  22.218  23.865  1.00  0.00     0.066 A 
BRANCH  83  84
ATOM     84  N   UNL A   1      33.634  22.533  23.276  1.00  0.00    -0.220 N 
ATOM     85  C   UNL A   1      33.467  23.467  22.290  1.00  0.00     0.141 A 
ATOM     86  N   UNL A   1      32.452  22.258  23.853  1.00  0.00    -0.062 NA
ATOM     87  C   UNL A   1      32.138  23.800  22.301  1.00  0.00     0.093 A 
ATOM     88  N   UNL A   1      31.529  23.006  23.255  1.00  0.00    -0.134 NA
BRANCH  87  89
ATOM     89  C   UNL A   1      31.390  24.961  21.756  1.00  0.00     0.138 C 
BRANCH  89  90
ATOM     90  S   UNL A   1      31.961  26.652  21.666  1.00  0.00    -0.081 SA
BRANCH  90  91
ATOM     91  C   UNL A   1      31.060  27.780  22.634  1.00  0.00     0.176 A 
ATOM     92  N   UNL A   1      30.281  28.518  21.896  1.00  0.00    -0.223 NA
ATOM     93  N   UNL A   1      31.102  27.920  24.015  1.00  0.00    -0.255 N 
ATOM     94  C   UNL A   1      29.553  29.545  22.501  1.00  0.00     0.079 A 
ATOM     95  C   UNL A   1      30.955  29.249  24.442  1.00  0.00     0.266 A 
ATOM     96  C   UNL A   1      28.478  30.151  21.853  1.00  0.00     0.029 A 
ATOM     97  C   UNL A   1      29.961  30.050  23.724  1.00  0.00     0.066 A 
ATOM     98  O   UNL A   1      31.611  29.805  25.323  1.00  0.00    -0.268 OA
ATOM     99  C   UNL A   1      27.869  31.283  22.408  1.00  0.00     0.002 A 
ATOM    100  C   UNL A   1      29.408  31.213  24.266  1.00  0.00     0.016 A 
ATOM    101  C   UNL A   1      28.356  31.835  23.596  1.00  0.00     0.001 A 
BRANCH  93 102
ATOM    102  C   UNL A   1      31.402  26.905  25.015  1.00  0.00     0.051 A 
ATOM    103  C   UNL A   1      32.742  26.511  25.238  1.00  0.00     0.028 A 
ATOM    104  C   UNL A   1      30.442  26.227  25.774  1.00  0.00     0.028 A 
ATOM    105  C   UNL A   1      33.076  25.361  25.959  1.00  0.00     0.018 A 
ATOM    106  C   UNL A   1      30.757  25.045  26.463  1.00  0.00     0.018 A 
ATOM    107  C   UNL A   1      32.067  24.594  26.515  1.00  0.00     0.018 A 
ATOM    108  Br  UNL A   1      32.481  22.944  27.331  1.00  0.00    -0.051 Br
ENDBRANCH  93 102
ENDBRANCH  90  91
ENDBRANCH  89  90
ENDBRANCH  87  89
ENDBRANCH  83  84
ENDBRANCH  75  78
ENDBRANCH   1  74
TORSDOF 16
ENDMDL
MODEL 3
REMARK VINA RESULT:     -10.3      1.479      2.874
REMARK SMILES O=C(NCCCCNC(=O)c1ccc(-n2cc(CSc3nc4ccccc4c(=O)n3-c3ccc(Br)cc3)nn2)cc1)c1ccc(-c2c3nc(c(-c4c(F)c(F)c(F)c(F)c4F)c4ccc([nH]4)c(-c4c(F)c(F)c(F)c(F)c4F)c4nc(c(-c5c(F)c(F)c(F)c(F)c5F)c5ccc2[nH]5)C=C4)C=C3)cc1
REMARK SMILES IDX 7 1 6 2 5 3 4 4 3 5 1 6 2 7 42 9 43 10 104 11 44 12 103 13
REMARK SMILES IDX 45 14 46 15 47 16 97 17 48 18 102 19 96 20 98 21 49 22
REMARK SMILES IDX 101 23 95 24 94 25 50 27 82 28 62 29 81 30 63 31 66 32 80 33
REMARK SMILES IDX 99 34 64 35 65 36 79 38 100 39 67 40 51 41 52 42 60 43 53 44
REMARK SMILES IDX 54 45 58 46 61 47 55 48 56 49 59 50 57 51 83 52 84 53 92 54
REMARK SMILES IDX 85 55 86 56 90 57 93 58 87 59 88 60 91 61 89 62 68 63 69 64
REMARK SMILES IDX 77 65 70 66 71 67 75 68 78 69 72 70 73 71 76 72 74 73 8 74
REMARK SMILES IDX 9 75 10 77 11 78 12 79 41 80 13 81 40 82 14 83 15 84 16 85
REMARK SMILES IDX 39 86 17 87 38 88 18 89 19 90 20 91 21 92 30 93 22 94 28 95
REMARK SMILES IDX 23 96 27 97 29 98 24 99 26 100 25 101 31 102 32 103 37 104
REMARK SMILES IDX 33 105 36 106 34 107 35 108
REMARK H PARENT 3 8 98 26 66 37 8 76
REMARK Flexibility Score: inf
ROOT
ATOM      1  C   UNL A   1      44.106  21.789  24.741  1.00  0.00     0.116 C 
ENDROOT
BRANCH   1   2
ATOM      2  C   UNL A   1      43.809  21.007  26.012  1.00  0.00     0.023 C 
BRANCH   2   3
ATOM      3  C   UNL A   1      42.629  20.039  25.929  1.00  0.00     0.023 C 
BRANCH   3   4
ATOM      4  C   UNL A   1      41.606  20.156  27.061  1.00  0.00     0.116 C 
BRANCH   4   5
ATOM      5  N   UNL A   1      40.288  20.595  26.649  1.00  0.00    -0.352 N 
ATOM      6  O   UNL A   1      38.587  21.824  25.951  1.00  0.00    -0.269 OA
ATOM      7  C   UNL A   1      39.693  21.816  26.496  1.00  0.00     0.251 C 
ATOM      8  H   UNL A   1      39.687  19.846  26.429  1.00  0.00     0.163 HD
BRANCH   7   9
ATOM      9  C   UNL A   1      40.247  23.096  27.009  1.00  0.00     0.039 A 
ATOM     10  C   UNL A   1      41.295  23.218  27.923  1.00  0.00     0.014 A 
ATOM     11  C   UNL A   1      39.599  24.263  26.566  1.00  0.00     0.014 A 
ATOM     12  C   UNL A   1      41.598  24.449  28.490  1.00  0.00     0.010 A 
ATOM     13  C   UNL A   1      39.922  25.501  27.100  1.00  0.00     0.010 A 
ATOM     14  C   UNL A   1      40.882  25.578  28.107  1.00  0.00    -0.014 A 
BRANCH  14  15
ATOM     15  C   UNL A   1      41.214  26.848  28.740  1.00  0.00     0.031 A 
ATOM     16  C   UNL A   1      42.475  27.503  28.274  1.00  0.00     0.074 A 
ATOM     17  C   UNL A   1      40.341  27.459  29.564  1.00  0.00     0.049 A 
ATOM     18  N   UNL A   1      43.445  28.005  28.974  1.00  0.00    -0.248 NA
ATOM     19  C   UNL A   1      42.704  27.554  26.819  1.00  0.00     0.031 C 
ATOM     20  C   UNL A   1      38.962  27.060  29.868  1.00  0.00     0.029 A 
ATOM     21  N   UNL A   1      40.462  28.651  30.206  1.00  0.00    -0.354 N 
ATOM     22  C   UNL A   1      44.331  28.569  28.054  1.00  0.00     0.074 A 
ATOM     23  C   UNL A   1      43.880  28.175  26.746  1.00  0.00     0.031 C 
ATOM     24  C   UNL A   1      38.311  28.104  30.424  1.00  0.00     0.029 A 
ATOM     25  C   UNL A   1      39.255  29.190  30.621  1.00  0.00     0.049 A 
ATOM     26  H   UNL A   1      41.329  29.092  30.361  1.00  0.00     0.167 HD
ATOM     27  C   UNL A   1      45.274  29.484  28.410  1.00  0.00     0.037 A 
ATOM     28  C   UNL A   1      39.033  30.473  30.995  1.00  0.00     0.037 A 
ATOM     29  C   UNL A   1      45.597  29.419  29.806  1.00  0.00     0.049 A 
ATOM     30  C   UNL A   1      40.346  31.085  31.320  1.00  0.00     0.074 A 
ATOM     31  C   UNL A   1      46.147  28.457  30.630  1.00  0.00     0.029 A 
ATOM     32  N   UNL A   1      45.077  30.364  30.652  1.00  0.00    -0.354 N 
ATOM     33  N   UNL A   1      41.080  30.740  32.341  1.00  0.00    -0.248 NA
ATOM     34  C   UNL A   1      41.047  31.783  30.252  1.00  0.00     0.031 C 
ATOM     35  C   UNL A   1      45.481  28.619  31.881  1.00  0.00     0.029 A 
ATOM     36  C   UNL A   1      44.595  29.686  31.741  1.00  0.00     0.049 A 
ATOM     37  H   UNL A   1      45.055  31.338  30.505  1.00  0.00     0.167 HD
ATOM     38  C   UNL A   1      42.386  30.810  31.878  1.00  0.00     0.074 A 
ATOM     39  C   UNL A   1      42.308  31.538  30.616  1.00  0.00     0.031 C 
ATOM     40  C   UNL A   1      43.370  30.032  32.418  1.00  0.00     0.037 A 
BRANCH  27  41
ATOM     41  C   UNL A   1      45.671  30.652  27.542  1.00  0.00     0.064 A 
ATOM     42  C   UNL A   1      47.033  30.957  27.355  1.00  0.00     0.173 A 
ATOM     43  C   UNL A   1      44.761  31.653  27.141  1.00  0.00     0.173 A 
ATOM     44  F   UNL A   1      47.986  30.088  27.728  1.00  0.00    -0.203 F 
ATOM     45  C   UNL A   1      47.450  32.199  26.864  1.00  0.00     0.198 A 
ATOM     46  C   UNL A   1      45.177  32.868  26.603  1.00  0.00     0.198 A 
ATOM     47  F   UNL A   1      43.444  31.539  27.357  1.00  0.00    -0.203 F 
ATOM     48  F   UNL A   1      48.757  32.490  26.815  1.00  0.00    -0.200 F 
ATOM     49  C   UNL A   1      46.521  33.154  26.493  1.00  0.00     0.200 A 
ATOM     50  F   UNL A   1      44.263  33.790  26.268  1.00  0.00    -0.200 F 
ATOM     51  F   UNL A   1      46.918  34.365  26.081  1.00  0.00    -0.200 F 
ENDBRANCH  27  41
BRANCH  28  52
ATOM     52  C   UNL A   1      37.816  31.276  30.725  1.00  0.00     0.064 A 
ATOM     53  C   UNL A   1      37.387  31.535  29.415  1.00  0.00     0.173 A 
ATOM     54  C   UNL A   1      36.912  31.600  31.757  1.00  0.00     0.173 A 
ATOM     55  F   UNL A   1      38.163  31.202  28.373  1.00  0.00    -0.203 F 
ATOM     56  C   UNL A   1      36.126  32.083  29.154  1.00  0.00     0.198 A 
ATOM     57  C   UNL A   1      35.661  32.158  31.497  1.00  0.00     0.198 A 
ATOM     58  F   UNL A   1      37.184  31.295  33.034  1.00  0.00    -0.203 F 
ATOM     59  F   UNL A   1      35.727  32.268  27.888  1.00  0.00    -0.200 F 
ATOM     60  C   UNL A   1      35.264  32.391  30.195  1.00  0.00     0.200 A 
ATOM     61  F   UNL A   1      34.824  32.413  32.512  1.00  0.00    -0.200 F 
ATOM     62  F   UNL A   1      34.038  32.871  29.942  1.00  0.00    -0.200 F 
ENDBRANCH  28  52
BRANCH  40  63
ATOM     63  C   UNL A   1      43.042  29.259  33.662  1.00  0.00     0.064 A 
ATOM     64  C   UNL A   1      43.192  29.785  34.957  1.00  0.00     0.173 A 
ATOM     65  C   UNL A   1      42.413  28.015  33.542  1.00  0.00     0.173 A 
ATOM     66  F   UNL A   1      43.675  31.017  35.147  1.00  0.00    -0.203 F 
ATOM     67  C   UNL A   1      42.781  29.073  36.081  1.00  0.00     0.198 A 
ATOM     68  C   UNL A   1      41.969  27.320  34.665  1.00  0.00     0.198 A 
ATOM     69  F   UNL A   1      42.180  27.494  32.327  1.00  0.00    -0.203 F 
ATOM     70  F   UNL A   1      42.945  29.597  37.306  1.00  0.00    -0.200 F 
ATOM     71  C   UNL A   1      42.164  27.844  35.934  1.00  0.00     0.200 A 
ATOM     72  F   UNL A   1      41.322  26.156  34.516  1.00  0.00    -0.200 F 
ATOM     73  F   UNL A   1      41.725  27.178  37.011  1.00  0.00    -0.200 F 
ENDBRANCH  40  63
ENDBRANCH  14  15
ENDBRANCH   7   9
ENDBRANCH   4   5
ENDBRANCH   3   4
ENDBRANCH   2   3
ENDBRANCH   1   2
BRANCH   1  74
ATOM     74  N   UNL A   1      43.259  22.958  24.578  1.00  0.00    -0.352 N 
ATOM     75  C   UNL A   1      43.454  24.246  25.034  1.00  0.00     0.251 C 
ATOM     76  H   UNL A   1      42.428  22.811  24.070  1.00  0.00     0.163 HD
ATOM     77  O   UNL A   1      42.607  25.098  24.874  1.00  0.00    -0.269 OA
BRANCH  75  78
ATOM     78  C   UNL A   1      44.697  24.553  25.778  1.00  0.00     0.039 A 
ATOM     79  C   UNL A   1      45.800  25.015  25.049  1.00  0.00     0.016 A 
ATOM     80  C   UNL A   1      44.758  24.430  27.172  1.00  0.00     0.016 A 
ATOM     81  C   UNL A   1      46.937  25.458  25.722  1.00  0.00     0.029 A 
ATOM     82  C   UNL A   1      45.887  24.879  27.852  1.00  0.00     0.029 A 
ATOM     83  C   UNL A   1      46.952  25.422  27.117  1.00  0.00     0.066 A 
BRANCH  83  84
ATOM     84  N   UNL A   1      48.117  25.820  27.788  1.00  0.00    -0.220 N 
ATOM     85  C   UNL A   1      48.909  24.980  28.522  1.00  0.00     0.141 A 
ATOM     86  N   UNL A   1      48.378  27.098  28.113  1.00  0.00    -0.062 NA
ATOM     87  C   UNL A   1      49.648  25.781  29.354  1.00  0.00     0.093 A 
ATOM     88  N   UNL A   1      49.323  27.090  29.048  1.00  0.00    -0.134 NA
BRANCH  87  89
ATOM     89  C   UNL A   1      50.404  25.505  30.601  1.00  0.00     0.138 C 
BRANCH  89  90
ATOM     90  S   UNL A   1      49.726  25.333  32.244  1.00  0.00    -0.081 SA
BRANCH  90  91
ATOM     91  C   UNL A   1      50.157  23.859  33.061  1.00  0.00     0.176 A 
ATOM     92  N   UNL A   1      51.313  23.416  32.655  1.00  0.00    -0.223 NA
ATOM     93  N   UNL A   1      49.424  23.196  34.036  1.00  0.00    -0.255 N 
ATOM     94  C   UNL A   1      51.772  22.188  33.138  1.00  0.00     0.079 A 
ATOM     95  C   UNL A   1      49.537  21.799  33.960  1.00  0.00     0.266 A 
ATOM     96  C   UNL A   1      53.107  21.811  33.009  1.00  0.00     0.029 A 
ATOM     97  C   UNL A   1      50.873  21.276  33.664  1.00  0.00     0.066 A 
ATOM     98  O   UNL A   1      48.617  20.989  34.073  1.00  0.00    -0.268 OA
ATOM     99  C   UNL A   1      53.509  20.514  33.352  1.00  0.00     0.002 A 
ATOM    100  C   UNL A   1      51.240  19.959  33.955  1.00  0.00     0.016 A 
ATOM    101  C   UNL A   1      52.570  19.579  33.791  1.00  0.00     0.001 A 
BRANCH  93 102
ATOM    102  C   UNL A   1      48.489  23.760  34.999  1.00  0.00     0.051 A 
ATOM    103  C   UNL A   1      47.146  23.990  34.623  1.00  0.00     0.028 A 
ATOM    104  C   UNL A   1      48.824  24.149  36.300  1.00  0.00     0.028 A 
ATOM    105  C   UNL A   1      46.279  24.781  35.383  1.00  0.00     0.018 A 
ATOM    106  C   UNL A   1      47.982  24.981  37.054  1.00  0.00     0.018 A 
ATOM    107  C   UNL A   1      46.729  25.329  36.572  1.00  0.00     0.018 A 
ATOM    108  Br  UNL A   1      45.642  26.546  37.518  1.00  0.00    -0.051 Br
ENDBRANCH  93 102
ENDBRANCH  90  91
ENDBRANCH  89  90
ENDBRANCH  87  89
ENDBRANCH  83  84
ENDBRANCH  75  78
ENDBRANCH   1  74
TORSDOF 16
ENDMDL
