MODEL 1
REMARK VINA RESULT:     -11.8      0.000      0.000
REMARK SMILES O=C(C[C@@H]1CN(C(=O)[C@H]2C[C@H](O)C[NH2+]2)CCO1)NCCCCNC(=O)c1ccc(-c2c3nc(c(-c4c(F)c(F)c(F)c(F)c4F)c4ccc([nH]4)c(-c4c(F)c(F)c(F)c(F)c4F)c4nc(c(-c5c(F)c(F)c(F)c(F)c5F)c5ccc2[nH]5)C=C4)C=C3)cc1
REMARK SMILES IDX 19 1 18 2 1 3 2 4 3 6 4 7 5 8 17 9 6 10 16 11 15 12 7 13
REMARK SMILES IDX 8 14 9 15 10 16 14 17 11 18 13 19 12 22 20 24 21 25 22 26
REMARK SMILES IDX 23 27 24 28 25 30 26 31 27 32 88 33 28 34 87 35 29 36 30 37
REMARK SMILES IDX 31 38 81 39 32 40 86 41 80 42 82 43 33 44 85 45 79 46 78 47
REMARK SMILES IDX 34 49 66 50 46 51 65 52 47 53 50 54 64 55 83 56 48 57 49 58
REMARK SMILES IDX 63 60 84 61 51 62 35 63 36 64 44 65 37 66 38 67 42 68 45 69
REMARK SMILES IDX 39 70 40 71 43 72 41 73 67 74 68 75 76 76 69 77 70 78 74 79
REMARK SMILES IDX 77 80 71 81 72 82 75 83 73 84 52 85 53 86 61 87 54 88 55 89
REMARK SMILES IDX 59 90 62 91 56 92 57 93 60 94 58 95
REMARK H PARENT 18 5 14 20 14 21 12 23 23 29 82 48 50 59
REMARK Flexibility Score: inf
ROOT
ATOM      1  C   UNL A   1      34.881  29.740  27.670  1.00  0.00     0.116 C 
ENDROOT
BRANCH   1   2
ATOM      2  N   UNL A   1      33.654  28.953  27.650  1.00  0.00    -0.356 N 
ATOM      3  O   UNL A   1      34.123  28.074  25.590  1.00  0.00    -0.275 OA
ATOM      4  C   UNL A   1      33.369  28.159  26.556  1.00  0.00     0.222 C 
ATOM      5  H   UNL A   1      33.032  28.986  28.412  1.00  0.00     0.163 HD
BRANCH   4   6
ATOM      6  C   UNL A   1      32.104  27.327  26.634  1.00  0.00     0.133 C 
BRANCH   6   7
ATOM      7  C   UNL A   1      31.360  27.176  25.294  1.00  0.00     0.147 C 
ATOM      8  C   UNL A   1      30.524  28.404  24.881  1.00  0.00     0.152 C 
ATOM      9  O   UNL A   1      30.509  26.011  25.378  1.00  0.00    -0.374 OA
ATOM     10  N   UNL A   1      29.780  28.176  23.643  1.00  0.00    -0.333 N 
ATOM     11  C   UNL A   1      29.829  25.760  24.136  1.00  0.00     0.182 C 
ATOM     12  C   UNL A   1      28.973  26.954  23.698  1.00  0.00     0.148 C 
BRANCH  10  13
ATOM     13  C   UNL A   1      29.609  29.040  22.571  1.00  0.00     0.281 C 
ATOM     14  O   UNL A   1      30.382  28.997  21.604  1.00  0.00    -0.268 OA
BRANCH  13  15
ATOM     15  C   UNL A   1      28.489  30.111  22.549  1.00  0.00     0.275 C 
ATOM     16  C   UNL A   1      28.775  31.416  23.281  1.00  0.00     0.113 C 
ATOM     17  N   UNL A   1      28.036  30.416  21.175  1.00  0.00    -0.334 N 
ATOM     18  C   UNL A   1      28.793  32.487  22.209  1.00  0.00     0.175 C 
ATOM     19  C   UNL A   1      28.040  31.865  21.034  1.00  0.00     0.293 C 
ATOM     20  H   UNL A   1      27.094  30.052  21.030  1.00  0.00     0.347 HD
ATOM     21  H   UNL A   1      28.650  29.982  20.486  1.00  0.00     0.347 HD
BRANCH  18  22
ATOM     22  O   UNL A   1      28.204  33.706  22.636  1.00  0.00    -0.387 OA
ATOM     23  H   UNL A   1      28.675  34.451  22.233  1.00  0.00     0.211 HD
ENDBRANCH  18  22
ENDBRANCH  13  15
ENDBRANCH  10  13
ENDBRANCH   6   7
ENDBRANCH   4   6
ENDBRANCH   1   2
BRANCH   1  24
ATOM     24  C   UNL A   1      34.690  31.256  27.774  1.00  0.00     0.023 C 
BRANCH  24  25
ATOM     25  C   UNL A   1      33.248  31.768  27.841  1.00  0.00     0.023 C 
BRANCH  25  26
ATOM     26  C   UNL A   1      32.913  32.961  26.951  1.00  0.00     0.116 C 
BRANCH  26  27
ATOM     27  N   UNL A   1      32.425  34.140  27.635  1.00  0.00    -0.352 N 
ATOM     28  C   UNL A   1      32.987  34.874  28.656  1.00  0.00     0.251 C 
ATOM     29  H   UNL A   1      31.553  34.471  27.320  1.00  0.00     0.163 HD
ATOM     30  O   UNL A   1      32.429  35.905  29.031  1.00  0.00    -0.269 OA
BRANCH  28  31
ATOM     31  C   UNL A   1      34.207  34.422  29.373  1.00  0.00     0.039 A 
ATOM     32  C   UNL A   1      34.037  33.830  30.629  1.00  0.00     0.014 A 
ATOM     33  C   UNL A   1      35.500  34.578  28.867  1.00  0.00     0.014 A 
ATOM     34  C   UNL A   1      35.134  33.311  31.322  1.00  0.00     0.010 A 
ATOM     35  C   UNL A   1      36.594  34.005  29.530  1.00  0.00     0.010 A 
ATOM     36  C   UNL A   1      36.418  33.346  30.756  1.00  0.00    -0.014 A 
BRANCH  36  37
ATOM     37  C   UNL A   1      37.553  32.642  31.417  1.00  0.00     0.031 A 
ATOM     38  C   UNL A   1      38.272  31.507  30.743  1.00  0.00     0.074 A 
ATOM     39  C   UNL A   1      37.921  33.014  32.661  1.00  0.00     0.049 A 
ATOM     40  N   UNL A   1      39.284  30.796  31.178  1.00  0.00    -0.248 NA
ATOM     41  C   UNL A   1      37.782  31.108  29.417  1.00  0.00     0.031 C 
ATOM     42  C   UNL A   1      37.283  34.070  33.448  1.00  0.00     0.029 A 
ATOM     43  N   UNL A   1      38.920  32.547  33.481  1.00  0.00    -0.354 N 
ATOM     44  C   UNL A   1      39.550  29.865  30.183  1.00  0.00     0.074 A 
ATOM     45  C   UNL A   1      38.565  30.072  29.141  1.00  0.00     0.031 C 
ATOM     46  C   UNL A   1      37.923  34.191  34.623  1.00  0.00     0.029 A 
ATOM     47  C   UNL A   1      38.992  33.200  34.689  1.00  0.00     0.049 A 
ATOM     48  H   UNL A   1      39.527  31.815  33.228  1.00  0.00     0.167 HD
ATOM     49  C   UNL A   1      40.536  28.935  30.132  1.00  0.00     0.037 A 
ATOM     50  C   UNL A   1      39.822  33.021  35.735  1.00  0.00     0.037 A 
ATOM     51  C   UNL A   1      41.528  28.737  31.158  1.00  0.00     0.049 A 
ATOM     52  C   UNL A   1      40.895  31.971  35.659  1.00  0.00     0.074 A 
ATOM     53  C   UNL A   1      42.604  27.864  31.161  1.00  0.00     0.029 A 
ATOM     54  N   UNL A   1      41.564  29.412  32.369  1.00  0.00    -0.354 N 
ATOM     55  N   UNL A   1      41.187  31.154  34.677  1.00  0.00    -0.248 NA
ATOM     56  C   UNL A   1      41.761  31.822  36.838  1.00  0.00     0.031 C 
ATOM     57  C   UNL A   1      43.258  27.975  32.392  1.00  0.00     0.029 A 
ATOM     58  C   UNL A   1      42.623  28.953  33.138  1.00  0.00     0.049 A 
ATOM     59  H   UNL A   1      40.929  30.113  32.644  1.00  0.00     0.167 HD
ATOM     60  C   UNL A   1      42.282  30.417  35.105  1.00  0.00     0.074 A 
ATOM     61  C   UNL A   1      42.614  30.892  36.432  1.00  0.00     0.031 C 
ATOM     62  C   UNL A   1      42.952  29.435  34.455  1.00  0.00     0.037 A 
BRANCH  49  63
ATOM     63  C   UNL A   1      40.597  28.052  28.920  1.00  0.00     0.064 A 
ATOM     64  C   UNL A   1      39.857  26.863  28.838  1.00  0.00     0.173 A 
ATOM     65  C   UNL A   1      41.362  28.427  27.803  1.00  0.00     0.173 A 
ATOM     66  F   UNL A   1      39.114  26.458  29.879  1.00  0.00    -0.203 F 
ATOM     67  C   UNL A   1      39.901  26.069  27.694  1.00  0.00     0.198 A 
ATOM     68  C   UNL A   1      41.380  27.645  26.651  1.00  0.00     0.198 A 
ATOM     69  F   UNL A   1      42.079  29.560  27.824  1.00  0.00    -0.203 F 
ATOM     70  F   UNL A   1      39.217  24.916  27.655  1.00  0.00    -0.200 F 
ATOM     71  C   UNL A   1      40.656  26.463  26.600  1.00  0.00     0.200 A 
ATOM     72  F   UNL A   1      42.099  28.035  25.590  1.00  0.00    -0.200 F 
ATOM     73  F   UNL A   1      40.690  25.703  25.498  1.00  0.00    -0.200 F 
ENDBRANCH  49  63
BRANCH  50  74
ATOM     74  C   UNL A   1      39.687  33.877  36.943  1.00  0.00     0.064 A 
ATOM     75  C   UNL A   1      38.931  33.453  38.045  1.00  0.00     0.173 A 
ATOM     76  C   UNL A   1      40.298  35.137  37.015  1.00  0.00     0.173 A 
ATOM     77  F   UNL A   1      38.309  32.266  38.011  1.00  0.00    -0.203 F 
ATOM     78  C   UNL A   1      38.776  34.265  39.165  1.00  0.00     0.198 A 
ATOM     79  C   UNL A   1      40.166  35.936  38.149  1.00  0.00     0.198 A 
ATOM     80  F   UNL A   1      41.034  35.587  35.989  1.00  0.00    -0.203 F 
ATOM     81  F   UNL A   1      38.010  33.856  40.186  1.00  0.00    -0.200 F 
ATOM     82  C   UNL A   1      39.398  35.504  39.220  1.00  0.00     0.200 A 
ATOM     83  F   UNL A   1      40.779  37.126  38.202  1.00  0.00    -0.200 F 
ATOM     84  F   UNL A   1      39.251  36.283  40.300  1.00  0.00    -0.200 F 
ENDBRANCH  50  74
BRANCH  62  85
ATOM     85  C   UNL A   1      44.136  28.828  35.152  1.00  0.00     0.064 A 
ATOM     86  C   UNL A   1      44.005  27.706  35.984  1.00  0.00     0.173 A 
ATOM     87  C   UNL A   1      45.422  29.355  34.957  1.00  0.00     0.173 A 
ATOM     88  F   UNL A   1      42.796  27.175  36.217  1.00  0.00    -0.203 F 
ATOM     89  C   UNL A   1      45.116  27.150  36.616  1.00  0.00     0.198 A 
ATOM     90  C   UNL A   1      46.533  28.778  35.566  1.00  0.00     0.198 A 
ATOM     91  F   UNL A   1      45.603  30.424  34.167  1.00  0.00    -0.203 F 
ATOM     92  F   UNL A   1      44.960  26.108  37.444  1.00  0.00    -0.200 F 
ATOM     93  C   UNL A   1      46.379  27.681  36.400  1.00  0.00     0.200 A 
ATOM     94  F   UNL A   1      47.755  29.286  35.347  1.00  0.00    -0.200 F 
ATOM     95  F   UNL A   1      47.446  27.140  37.004  1.00  0.00    -0.200 F 
ENDBRANCH  62  85
ENDBRANCH  36  37
ENDBRANCH  28  31
ENDBRANCH  26  27
ENDBRANCH  25  26
ENDBRANCH  24  25
ENDBRANCH   1  24
TORSDOF 15
ENDMDL
MODEL 2
REMARK VINA RESULT:     -11.8      1.020      7.496
REMARK SMILES O=C(C[C@@H]1CN(C(=O)[C@H]2C[C@H](O)C[NH2+]2)CCO1)NCCCCNC(=O)c1ccc(-c2c3nc(c(-c4c(F)c(F)c(F)c(F)c4F)c4ccc([nH]4)c(-c4c(F)c(F)c(F)c(F)c4F)c4nc(c(-c5c(F)c(F)c(F)c(F)c5F)c5ccc2[nH]5)C=C4)C=C3)cc1
REMARK SMILES IDX 19 1 18 2 1 3 2 4 3 6 4 7 5 8 17 9 6 10 16 11 15 12 7 13
REMARK SMILES IDX 8 14 9 15 10 16 14 17 11 18 13 19 12 22 20 24 21 25 22 26
REMARK SMILES IDX 23 27 24 28 25 30 26 31 27 32 88 33 28 34 87 35 29 36 30 37
REMARK SMILES IDX 31 38 81 39 32 40 86 41 80 42 82 43 33 44 85 45 79 46 78 47
REMARK SMILES IDX 34 49 66 50 46 51 65 52 47 53 50 54 64 55 83 56 48 57 49 58
REMARK SMILES IDX 63 60 84 61 51 62 35 63 36 64 44 65 37 66 38 67 42 68 45 69
REMARK SMILES IDX 39 70 40 71 43 72 41 73 67 74 68 75 76 76 69 77 70 78 74 79
REMARK SMILES IDX 77 80 71 81 72 82 75 83 73 84 52 85 53 86 61 87 54 88 55 89
REMARK SMILES IDX 59 90 62 91 56 92 57 93 60 94 58 95
REMARK H PARENT 18 5 14 20 14 21 12 23 23 29 82 48 50 59
REMARK Flexibility Score: inf
ROOT
ATOM      1  C   UNL A   1      34.222  29.537  27.271  1.00  0.00     0.116 C 
ENDROOT
BRANCH   1   2
ATOM      2  N   UNL A   1      34.174  29.255  25.842  1.00  0.00    -0.356 N 
ATOM      3  O   UNL A   1      33.517  27.089  26.183  1.00  0.00    -0.275 OA
ATOM      4  C   UNL A   1      33.816  27.993  25.407  1.00  0.00     0.222 C 
ATOM      5  H   UNL A   1      34.395  29.959  25.190  1.00  0.00     0.163 HD
BRANCH   4   6
ATOM      6  C   UNL A   1      33.733  27.793  23.905  1.00  0.00     0.133 C 
BRANCH   6   7
ATOM      7  C   UNL A   1      32.302  27.591  23.372  1.00  0.00     0.147 C 
ATOM      8  C   UNL A   1      31.264  28.588  23.924  1.00  0.00     0.152 C 
ATOM      9  O   UNL A   1      31.893  26.239  23.679  1.00  0.00    -0.374 OA
ATOM     10  N   UNL A   1      29.912  28.300  23.446  1.00  0.00    -0.333 N 
ATOM     11  C   UNL A   1      30.588  25.947  23.151  1.00  0.00     0.182 C 
ATOM     12  C   UNL A   1      29.523  26.908  23.688  1.00  0.00     0.148 C 
BRANCH  10  13
ATOM     13  C   UNL A   1      28.949  29.194  23.001  1.00  0.00     0.281 C 
ATOM     14  O   UNL A   1      27.746  28.922  23.108  1.00  0.00    -0.268 OA
BRANCH  13  15
ATOM     15  C   UNL A   1      29.325  30.535  22.319  1.00  0.00     0.275 C 
ATOM     16  C   UNL A   1      28.399  31.026  21.215  1.00  0.00     0.113 C 
ATOM     17  N   UNL A   1      29.528  31.621  23.302  1.00  0.00    -0.334 N 
ATOM     18  C   UNL A   1      27.798  32.316  21.734  1.00  0.00     0.175 C 
ATOM     19  C   UNL A   1      28.750  32.764  22.842  1.00  0.00     0.293 C 
ATOM     20  H   UNL A   1      30.517  31.867  23.351  1.00  0.00     0.347 HD
ATOM     21  H   UNL A   1      29.229  31.329  24.232  1.00  0.00     0.347 HD
BRANCH  18  22
ATOM     22  O   UNL A   1      27.653  33.303  20.724  1.00  0.00    -0.387 OA
ATOM     23  H   UNL A   1      27.924  34.166  21.075  1.00  0.00     0.211 HD
ENDBRANCH  18  22
ENDBRANCH  13  15
ENDBRANCH  10  13
ENDBRANCH   6   7
ENDBRANCH   4   6
ENDBRANCH   1   2
BRANCH   1  24
ATOM     24  C   UNL A   1      34.243  31.021  27.650  1.00  0.00     0.023 C 
BRANCH  24  25
ATOM     25  C   UNL A   1      32.893  31.745  27.681  1.00  0.00     0.023 C 
BRANCH  25  26
ATOM     26  C   UNL A   1      32.805  33.043  26.882  1.00  0.00     0.116 C 
BRANCH  26  27
ATOM     27  N   UNL A   1      32.372  34.209  27.623  1.00  0.00    -0.352 N 
ATOM     28  C   UNL A   1      32.981  34.885  28.656  1.00  0.00     0.251 C 
ATOM     29  H   UNL A   1      31.504  34.579  27.342  1.00  0.00     0.163 HD
ATOM     30  O   UNL A   1      32.467  35.917  29.084  1.00  0.00    -0.269 OA
BRANCH  28  31
ATOM     31  C   UNL A   1      34.203  34.367  29.326  1.00  0.00     0.039 A 
ATOM     32  C   UNL A   1      34.036  33.685  30.536  1.00  0.00     0.014 A 
ATOM     33  C   UNL A   1      35.492  34.544  28.819  1.00  0.00     0.014 A 
ATOM     34  C   UNL A   1      35.134  33.104  31.178  1.00  0.00     0.010 A 
ATOM     35  C   UNL A   1      36.585  33.910  29.427  1.00  0.00     0.010 A 
ATOM     36  C   UNL A   1      36.413  33.165  30.603  1.00  0.00    -0.014 A 
BRANCH  36  37
ATOM     37  C   UNL A   1      37.544  32.400  31.198  1.00  0.00     0.031 A 
ATOM     38  C   UNL A   1      38.055  32.703  32.579  1.00  0.00     0.074 A 
ATOM     39  C   UNL A   1      38.141  31.435  30.467  1.00  0.00     0.049 A 
ATOM     40  N   UNL A   1      39.025  32.124  33.247  1.00  0.00    -0.248 NA
ATOM     41  C   UNL A   1      37.405  33.806  33.299  1.00  0.00     0.031 C 
ATOM     42  C   UNL A   1      37.775  31.067  29.099  1.00  0.00     0.029 A 
ATOM     43  N   UNL A   1      39.181  30.589  30.771  1.00  0.00    -0.354 N 
ATOM     44  C   UNL A   1      39.103  32.794  34.461  1.00  0.00     0.074 A 
ATOM     45  C   UNL A   1      38.114  33.851  34.420  1.00  0.00     0.031 C 
ATOM     46  C   UNL A   1      38.556  30.053  28.693  1.00  0.00     0.029 A 
ATOM     47  C   UNL A   1      39.500  29.721  29.756  1.00  0.00     0.049 A 
ATOM     48  H   UNL A   1      39.652  30.603  31.636  1.00  0.00     0.167 HD
ATOM     49  C   UNL A   1      39.912  32.540  35.519  1.00  0.00     0.037 A 
ATOM     50  C   UNL A   1      40.447  28.766  29.682  1.00  0.00     0.037 A 
ATOM     51  C   UNL A   1      40.886  31.480  35.570  1.00  0.00     0.049 A 
ATOM     52  C   UNL A   1      41.343  28.517  30.864  1.00  0.00     0.074 A 
ATOM     53  C   UNL A   1      41.702  31.107  36.625  1.00  0.00     0.029 A 
ATOM     54  N   UNL A   1      41.185  30.626  34.518  1.00  0.00    -0.354 N 
ATOM     55  N   UNL A   1      41.349  29.104  32.036  1.00  0.00    -0.248 NA
ATOM     56  C   UNL A   1      42.360  27.467  30.716  1.00  0.00     0.031 C 
ATOM     57  C   UNL A   1      42.529  30.064  36.196  1.00  0.00     0.029 A 
ATOM     58  C   UNL A   1      42.195  29.749  34.889  1.00  0.00     0.049 A 
ATOM     59  H   UNL A   1      40.747  30.640  33.636  1.00  0.00     0.167 HD
ATOM     60  C   UNL A   1      42.347  28.478  32.771  1.00  0.00     0.074 A 
ATOM     61  C   UNL A   1      42.916  27.455  31.919  1.00  0.00     0.031 C 
ATOM     62  C   UNL A   1      42.752  28.730  34.039  1.00  0.00     0.037 A 
BRANCH  49  63
ATOM     63  C   UNL A   1      39.781  33.427  36.722  1.00  0.00     0.064 A 
ATOM     64  C   UNL A   1      40.522  34.612  36.847  1.00  0.00     0.173 A 
ATOM     65  C   UNL A   1      38.863  33.118  37.739  1.00  0.00     0.173 A 
ATOM     66  F   UNL A   1      41.416  34.951  35.905  1.00  0.00    -0.203 F 
ATOM     67  C   UNL A   1      40.368  35.441  37.956  1.00  0.00     0.198 A 
ATOM     68  C   UNL A   1      38.691  33.964  38.831  1.00  0.00     0.198 A 
ATOM     69  F   UNL A   1      38.121  32.003  37.664  1.00  0.00    -0.203 F 
ATOM     70  F   UNL A   1      41.116  36.547  38.073  1.00  0.00    -0.200 F 
ATOM     71  C   UNL A   1      39.448  35.120  38.943  1.00  0.00     0.200 A 
ATOM     72  F   UNL A   1      37.791  33.660  39.777  1.00  0.00    -0.200 F 
ATOM     73  F   UNL A   1      39.294  35.923  40.005  1.00  0.00    -0.200 F 
ENDBRANCH  49  63
BRANCH  50  74
ATOM     74  C   UNL A   1      40.584  27.950  28.447  1.00  0.00     0.064 A 
ATOM     75  C   UNL A   1      39.938  26.712  28.326  1.00  0.00     0.173 A 
ATOM     76  C   UNL A   1      41.369  28.385  27.370  1.00  0.00     0.173 A 
ATOM     77  F   UNL A   1      39.194  26.244  29.341  1.00  0.00    -0.203 F 
ATOM     78  C   UNL A   1      40.089  25.930  27.184  1.00  0.00     0.198 A 
ATOM     79  C   UNL A   1      41.495  27.614  26.216  1.00  0.00     0.198 A 
ATOM     80  F   UNL A   1      42.005  29.563  27.434  1.00  0.00    -0.203 F 
ATOM     81  F   UNL A   1      39.498  24.729  27.114  1.00  0.00    -0.200 F 
ATOM     82  C   UNL A   1      40.863  26.384  26.127  1.00  0.00     0.200 A 
ATOM     83  F   UNL A   1      42.234  28.063  25.191  1.00  0.00    -0.200 F 
ATOM     84  F   UNL A   1      41.005  25.633  25.026  1.00  0.00    -0.200 F 
ENDBRANCH  50  74
BRANCH  62  85
ATOM     85  C   UNL A   1      43.843  27.863  34.600  1.00  0.00     0.064 A 
ATOM     86  C   UNL A   1      45.190  28.251  34.551  1.00  0.00     0.173 A 
ATOM     87  C   UNL A   1      43.533  26.646  35.226  1.00  0.00     0.173 A 
ATOM     88  F   UNL A   1      45.542  29.396  33.948  1.00  0.00    -0.203 F 
ATOM     89  C   UNL A   1      46.190  27.439  35.085  1.00  0.00     0.198 A 
ATOM     90  C   UNL A   1      44.531  25.852  35.785  1.00  0.00     0.198 A 
ATOM     91  F   UNL A   1      42.260  26.231  35.304  1.00  0.00    -0.203 F 
ATOM     92  F   UNL A   1      47.474  27.807  34.983  1.00  0.00    -0.200 F 
ATOM     93  C   UNL A   1      45.858  26.245  35.708  1.00  0.00     0.200 A 
ATOM     94  F   UNL A   1      44.207  24.703  36.397  1.00  0.00    -0.200 F 
ATOM     95  F   UNL A   1      46.820  25.469  36.226  1.00  0.00    -0.200 F 
ENDBRANCH  62  85
ENDBRANCH  36  37
ENDBRANCH  28  31
ENDBRANCH  26  27
ENDBRANCH  25  26
ENDBRANCH  24  25
ENDBRANCH   1  24
TORSDOF 15
ENDMDL
MODEL 3
REMARK VINA RESULT:     -11.8      2.686      8.466
REMARK SMILES O=C(C[C@@H]1CN(C(=O)[C@H]2C[C@H](O)C[NH2+]2)CCO1)NCCCCNC(=O)c1ccc(-c2c3nc(c(-c4c(F)c(F)c(F)c(F)c4F)c4ccc([nH]4)c(-c4c(F)c(F)c(F)c(F)c4F)c4nc(c(-c5c(F)c(F)c(F)c(F)c5F)c5ccc2[nH]5)C=C4)C=C3)cc1
REMARK SMILES IDX 19 1 18 2 1 3 2 4 3 6 4 7 5 8 17 9 6 10 16 11 15 12 7 13
REMARK SMILES IDX 8 14 9 15 10 16 14 17 11 18 13 19 12 22 20 24 21 25 22 26
REMARK SMILES IDX 23 27 24 28 25 30 26 31 27 32 88 33 28 34 87 35 29 36 30 37
REMARK SMILES IDX 31 38 81 39 32 40 86 41 80 42 82 43 33 44 85 45 79 46 78 47
REMARK SMILES IDX 34 49 66 50 46 51 65 52 47 53 50 54 64 55 83 56 48 57 49 58
REMARK SMILES IDX 63 60 84 61 51 62 35 63 36 64 44 65 37 66 38 67 42 68 45 69
REMARK SMILES IDX 39 70 40 71 43 72 41 73 67 74 68 75 76 76 69 77 70 78 74 79
REMARK SMILES IDX 77 80 71 81 72 82 75 83 73 84 52 85 53 86 61 87 54 88 55 89
REMARK SMILES IDX 59 90 62 91 56 92 57 93 60 94 58 95
REMARK H PARENT 18 5 14 20 14 21 12 23 23 29 82 48 50 59
REMARK Flexibility Score: inf
ROOT
ATOM      1  C   UNL A   1      31.796  29.363  26.624  1.00  0.00     0.116 C 
ENDROOT
BRANCH   1   2
ATOM      2  N   UNL A   1      32.208  28.242  25.787  1.00  0.00    -0.356 N 
ATOM      3  O   UNL A   1      34.210  28.026  26.875  1.00  0.00    -0.275 OA
ATOM      4  C   UNL A   1      33.440  27.653  25.994  1.00  0.00     0.222 C 
ATOM      5  H   UNL A   1      31.611  27.907  25.079  1.00  0.00     0.163 HD
BRANCH   4   6
ATOM      6  C   UNL A   1      33.772  26.456  25.122  1.00  0.00     0.133 C 
BRANCH   6   7
ATOM      7  C   UNL A   1      33.317  25.104  25.704  1.00  0.00     0.147 C 
ATOM      8  C   UNL A   1      33.421  23.916  24.726  1.00  0.00     0.152 C 
ATOM      9  O   UNL A   1      31.953  25.244  26.159  1.00  0.00    -0.374 OA
ATOM     10  N   UNL A   1      32.904  22.676  25.304  1.00  0.00    -0.333 N 
ATOM     11  C   UNL A   1      31.475  24.039  26.782  1.00  0.00     0.182 C 
ATOM     12  C   UNL A   1      31.547  22.836  25.835  1.00  0.00     0.148 C 
BRANCH  10  13
ATOM     13  C   UNL A   1      33.444  21.401  25.227  1.00  0.00     0.281 C 
ATOM     14  O   UNL A   1      34.670  21.236  25.284  1.00  0.00    -0.268 OA
BRANCH  13  15
ATOM     15  C   UNL A   1      32.558  20.145  25.026  1.00  0.00     0.275 C 
ATOM     16  C   UNL A   1      32.553  19.525  23.635  1.00  0.00     0.113 C 
ATOM     17  N   UNL A   1      32.849  19.093  26.024  1.00  0.00    -0.334 N 
ATOM     18  C   UNL A   1      33.167  18.150  23.801  1.00  0.00     0.175 C 
ATOM     19  C   UNL A   1      33.030  17.847  25.292  1.00  0.00     0.293 C 
ATOM     20  H   UNL A   1      32.070  19.005  26.677  1.00  0.00     0.347 HD
ATOM     21  H   UNL A   1      33.685  19.323  26.561  1.00  0.00     0.347 HD
BRANCH  18  22
ATOM     22  O   UNL A   1      32.539  17.164  22.996  1.00  0.00    -0.387 OA
ATOM     23  H   UNL A   1      31.653  16.980  23.343  1.00  0.00     0.211 HD
ENDBRANCH  18  22
ENDBRANCH  13  15
ENDBRANCH  10  13
ENDBRANCH   6   7
ENDBRANCH   4   6
ENDBRANCH   1   2
BRANCH   1  24
ATOM     24  C   UNL A   1      31.565  30.686  25.887  1.00  0.00     0.023 C 
BRANCH  24  25
ATOM     25  C   UNL A   1      31.291  31.920  26.752  1.00  0.00     0.023 C 
BRANCH  25  26
ATOM     26  C   UNL A   1      32.503  32.775  27.112  1.00  0.00     0.116 C 
BRANCH  26  27
ATOM     27  N   UNL A   1      32.210  34.089  27.644  1.00  0.00    -0.352 N 
ATOM     28  C   UNL A   1      32.947  34.896  28.481  1.00  0.00     0.251 C 
ATOM     29  H   UNL A   1      31.346  34.468  27.360  1.00  0.00     0.163 HD
ATOM     30  O   UNL A   1      32.538  36.028  28.738  1.00  0.00    -0.269 OA
BRANCH  28  31
ATOM     31  C   UNL A   1      34.186  34.418  29.148  1.00  0.00     0.039 A 
ATOM     32  C   UNL A   1      34.063  33.887  30.436  1.00  0.00     0.014 A 
ATOM     33  C   UNL A   1      35.453  34.491  28.563  1.00  0.00     0.014 A 
ATOM     34  C   UNL A   1      35.175  33.347  31.089  1.00  0.00     0.010 A 
ATOM     35  C   UNL A   1      36.557  33.896  29.188  1.00  0.00     0.010 A 
ATOM     36  C   UNL A   1      36.424  33.298  30.450  1.00  0.00    -0.014 A 
BRANCH  36  37
ATOM     37  C   UNL A   1      37.563  32.570  31.077  1.00  0.00     0.031 A 
ATOM     38  C   UNL A   1      38.081  32.945  32.437  1.00  0.00     0.074 A 
ATOM     39  C   UNL A   1      38.159  31.570  30.393  1.00  0.00     0.049 A 
ATOM     40  N   UNL A   1      39.057  32.406  33.127  1.00  0.00    -0.248 NA
ATOM     41  C   UNL A   1      37.432  34.081  33.103  1.00  0.00     0.031 C 
ATOM     42  C   UNL A   1      37.786  31.131  29.048  1.00  0.00     0.029 A 
ATOM     43  N   UNL A   1      39.204  30.745  30.733  1.00  0.00    -0.354 N 
ATOM     44  C   UNL A   1      39.141  33.137  34.304  1.00  0.00     0.074 A 
ATOM     45  C   UNL A   1      38.147  34.187  34.216  1.00  0.00     0.031 C 
ATOM     46  C   UNL A   1      38.568  30.099  28.689  1.00  0.00     0.029 A 
ATOM     47  C   UNL A   1      39.520  29.826  29.762  1.00  0.00     0.049 A 
ATOM     48  H   UNL A   1      39.680  30.805  31.593  1.00  0.00     0.167 HD
ATOM     49  C   UNL A   1      39.958  32.941  35.368  1.00  0.00     0.037 A 
ATOM     50  C   UNL A   1      40.471  28.872  29.731  1.00  0.00     0.037 A 
ATOM     51  C   UNL A   1      40.937  31.889  35.467  1.00  0.00     0.049 A 
ATOM     52  C   UNL A   1      41.375  28.689  30.919  1.00  0.00     0.074 A 
ATOM     53  C   UNL A   1      41.761  31.574  36.535  1.00  0.00     0.029 A 
ATOM     54  N   UNL A   1      41.233  30.983  34.459  1.00  0.00    -0.354 N 
ATOM     55  N   UNL A   1      41.387  29.335  32.058  1.00  0.00    -0.248 NA
ATOM     56  C   UNL A   1      42.396  27.636  30.818  1.00  0.00     0.031 C 
ATOM     57  C   UNL A   1      42.590  30.513  36.155  1.00  0.00     0.029 A 
ATOM     58  C   UNL A   1      42.248  30.131  34.869  1.00  0.00     0.049 A 
ATOM     59  H   UNL A   1      40.788  30.950  33.581  1.00  0.00     0.167 HD
ATOM     60  C   UNL A   1      42.391  28.752  32.818  1.00  0.00     0.074 A 
ATOM     61  C   UNL A   1      42.960  27.689  32.016  1.00  0.00     0.031 C 
ATOM     62  C   UNL A   1      42.804  29.071  34.068  1.00  0.00     0.037 A 
BRANCH  49  63
ATOM     63  C   UNL A   1      39.831  33.889  36.525  1.00  0.00     0.064 A 
ATOM     64  C   UNL A   1      38.984  33.616  37.610  1.00  0.00     0.173 A 
ATOM     65  C   UNL A   1      40.608  35.057  36.578  1.00  0.00     0.173 A 
ATOM     66  F   UNL A   1      38.217  32.516  37.607  1.00  0.00    -0.203 F 
ATOM     67  C   UNL A   1      38.899  34.491  38.691  1.00  0.00     0.198 A 
ATOM     68  C   UNL A   1      40.542  35.914  37.674  1.00  0.00     0.198 A 
ATOM     69  F   UNL A   1      41.444  35.360  35.573  1.00  0.00    -0.203 F 
ATOM     70  F   UNL A   1      38.051  34.230  39.697  1.00  0.00    -0.200 F 
ATOM     71  C   UNL A   1      39.683  35.635  38.725  1.00  0.00     0.200 A 
ATOM     72  F   UNL A   1      41.311  37.011  37.712  1.00  0.00    -0.200 F 
ATOM     73  F   UNL A   1      39.607  36.470  39.770  1.00  0.00    -0.200 F 
ENDBRANCH  49  63
BRANCH  50  74
ATOM     74  C   UNL A   1      40.603  27.995  28.539  1.00  0.00     0.064 A 
ATOM     75  C   UNL A   1      39.952  26.754  28.482  1.00  0.00     0.173 A 
ATOM     76  C   UNL A   1      41.388  28.371  27.440  1.00  0.00     0.173 A 
ATOM     77  F   UNL A   1      39.209  26.341  29.520  1.00  0.00    -0.203 F 
ATOM     78  C   UNL A   1      40.099  25.914  27.381  1.00  0.00     0.198 A 
ATOM     79  C   UNL A   1      41.510  27.543  26.326  1.00  0.00     0.198 A 
ATOM     80  F   UNL A   1      42.028  29.549  27.443  1.00  0.00    -0.203 F 
ATOM     81  F   UNL A   1      39.504  24.714  27.373  1.00  0.00    -0.200 F 
ATOM     82  C   UNL A   1      40.873  26.311  26.301  1.00  0.00     0.200 A 
ATOM     83  F   UNL A   1      42.248  27.936  25.279  1.00  0.00    -0.200 F 
ATOM     84  F   UNL A   1      41.010  25.505  25.240  1.00  0.00    -0.200 F 
ENDBRANCH  50  74
BRANCH  62  85
ATOM     85  C   UNL A   1      43.902  28.238  34.667  1.00  0.00     0.064 A 
ATOM     86  C   UNL A   1      45.250  28.616  34.568  1.00  0.00     0.173 A 
ATOM     87  C   UNL A   1      43.600  27.066  35.377  1.00  0.00     0.173 A 
ATOM     88  F   UNL A   1      45.594  29.718  33.885  1.00  0.00    -0.203 F 
ATOM     89  C   UNL A   1      46.256  27.837  35.136  1.00  0.00     0.198 A 
ATOM     90  C   UNL A   1      44.605  26.307  35.969  1.00  0.00     0.198 A 
ATOM     91  F   UNL A   1      42.327  26.663  35.505  1.00  0.00    -0.203 F 
ATOM     92  F   UNL A   1      47.539  28.192  34.987  1.00  0.00    -0.200 F 
ATOM     93  C   UNL A   1      45.932  26.688  35.843  1.00  0.00     0.200 A 
ATOM     94  F   UNL A   1      44.289  25.203  36.661  1.00  0.00    -0.200 F 
ATOM     95  F   UNL A   1      46.900  25.944  36.394  1.00  0.00    -0.200 F 
ENDBRANCH  62  85
ENDBRANCH  36  37
ENDBRANCH  28  31
ENDBRANCH  26  27
ENDBRANCH  25  26
ENDBRANCH  24  25
ENDBRANCH   1  24
TORSDOF 15
ENDMDL
