MODEL 1
REMARK VINA RESULT:     -12.2      0.000      0.000
REMARK SMILES CC[NH2+][C@@]1(C(=O)NCCCCNC(=O)c2ccc(-c3c4nc(c(-c5c(F)c(F)c(F)c(F)c5F)c5ccc([nH]5)c(-c5c(F)c(F)c(F)c(F)c5F)c5nc(c(-c6c(F)c(F)c(F)c(F)c6F)c6ccc3[nH]6)C=C5)C=C4)cc2)CCC[C@@H]([N@@H+](C)C2CCCC2)C1
REMARK SMILES IDX 9 1 8 2 7 3 5 4 6 5 4 7 78 8 89 9 79 10 81 11 80 12 3 13
REMARK SMILES IDX 2 16 1 17 82 18 83 19 84 21 85 22 88 23 86 24 87 25 10 26
REMARK SMILES IDX 11 27 12 28 13 29 14 31 15 32 16 33 77 34 17 35 76 36 18 37
REMARK SMILES IDX 19 38 20 39 70 40 21 41 75 42 69 43 71 44 22 45 74 46 68 47
REMARK SMILES IDX 67 48 23 50 55 51 35 52 54 53 36 54 39 55 53 56 72 57 37 58
REMARK SMILES IDX 38 59 52 61 73 62 40 63 24 64 25 65 33 66 26 67 27 68 31 69
REMARK SMILES IDX 34 70 28 71 29 72 32 73 30 74 56 75 57 76 65 77 58 78 59 79
REMARK SMILES IDX 63 80 66 81 60 82 61 83 64 84 62 85 41 86 42 87 50 88 43 89
REMARK SMILES IDX 44 90 48 91 51 92 45 93 46 94 49 95 47 96
REMARK H PARENT 7 6 3 14 3 15 82 20 12 30 71 49 39 60
REMARK Flexibility Score: inf
ROOT
ATOM      1  C   UNL A   1      36.981  22.003  25.862  1.00  0.00     0.023 C 
ENDROOT
BRANCH   1   2
ATOM      2  C   UNL A   1      35.615  21.396  25.547  1.00  0.00     0.116 C 
BRANCH   2   3
ATOM      3  N   UNL A   1      35.679  19.989  25.225  1.00  0.00    -0.351 N 
ATOM      4  C   UNL A   1      34.808  19.041  24.821  1.00  0.00     0.281 C 
ATOM      5  O   UNL A   1      35.393  18.060  24.318  1.00  0.00    -0.268 OA
ATOM      6  H   UNL A   1      36.591  19.631  25.327  1.00  0.00     0.163 HD
BRANCH   4   7
ATOM      7  C   UNL A   1      33.211  19.051  24.870  1.00  0.00     0.181 C 
ATOM      8  C   UNL A   1      32.571  18.436  23.611  1.00  0.00     0.079 C 
ATOM      9  C   UNL A   1      32.497  20.365  25.227  1.00  0.00     0.144 C 
ATOM     10  C   UNL A   1      32.347  19.369  22.428  1.00  0.00     0.013 C 
ATOM     11  C   UNL A   1      32.364  21.385  24.101  1.00  0.00     0.190 C 
ATOM     12  C   UNL A   1      31.890  20.795  22.756  1.00  0.00     0.065 C 
BRANCH   7  13
ATOM     13  N   UNL A   1      32.863  18.038  25.959  1.00  0.00    -0.334 N 
ATOM     14  H   UNL A   1      33.707  17.849  26.499  1.00  0.00     0.347 HD
ATOM     15  H   UNL A   1      32.117  18.457  26.514  1.00  0.00     0.347 HD
BRANCH  13  16
ATOM     16  C   UNL A   1      32.341  16.755  25.461  1.00  0.00     0.257 C 
ATOM     17  C   UNL A   1      33.324  15.635  25.781  1.00  0.00     0.071 C 
ENDBRANCH  13  16
ENDBRANCH   7  13
BRANCH  11  18
ATOM     18  N   UNL A   1      31.746  22.664  24.537  1.00  0.00    -0.332 N 
ATOM     19  C   UNL A   1      30.871  22.489  25.699  1.00  0.00     0.333 C 
ATOM     20  H   UNL A   1      31.217  22.878  23.692  1.00  0.00     0.348 HD
BRANCH  18  21
ATOM     21  C   UNL A   1      32.555  23.884  24.670  1.00  0.00     0.184 C 
ATOM     22  C   UNL A   1      33.150  24.266  26.025  1.00  0.00     0.065 C 
ATOM     23  C   UNL A   1      33.725  24.038  23.674  1.00  0.00     0.065 C 
ATOM     24  C   UNL A   1      34.114  25.382  25.661  1.00  0.00     0.006 C 
ATOM     25  C   UNL A   1      34.809  24.816  24.429  1.00  0.00     0.006 C 
ENDBRANCH  18  21
ENDBRANCH  11  18
ENDBRANCH   4   7
ENDBRANCH   2   3
ENDBRANCH   1   2
BRANCH   1  26
ATOM     26  C   UNL A   1      38.157  21.354  25.148  1.00  0.00     0.023 C 
BRANCH  26  27
ATOM     27  C   UNL A   1      39.377  21.107  26.026  1.00  0.00     0.116 C 
BRANCH  27  28
ATOM     28  N   UNL A   1      39.988  19.789  25.883  1.00  0.00    -0.352 N 
ATOM     29  C   UNL A   1      41.315  19.468  26.081  1.00  0.00     0.251 C 
ATOM     30  H   UNL A   1      39.391  19.052  25.616  1.00  0.00     0.163 HD
ATOM     31  O   UNL A   1      41.738  18.330  25.910  1.00  0.00    -0.269 OA
BRANCH  29  32
ATOM     32  C   UNL A   1      42.228  20.566  26.448  1.00  0.00     0.039 A 
ATOM     33  C   UNL A   1      42.888  21.260  25.433  1.00  0.00     0.014 A 
ATOM     34  C   UNL A   1      42.247  21.024  27.766  1.00  0.00     0.014 A 
ATOM     35  C   UNL A   1      43.479  22.491  25.723  1.00  0.00     0.010 A 
ATOM     36  C   UNL A   1      42.759  22.286  28.033  1.00  0.00     0.010 A 
ATOM     37  C   UNL A   1      43.361  23.041  27.010  1.00  0.00    -0.014 A 
BRANCH  37  38
ATOM     38  C   UNL A   1      43.836  24.412  27.323  1.00  0.00     0.031 A 
ATOM     39  C   UNL A   1      42.863  25.425  27.851  1.00  0.00     0.074 A 
ATOM     40  C   UNL A   1      45.100  24.775  27.024  1.00  0.00     0.049 A 
ATOM     41  N   UNL A   1      43.017  26.713  28.021  1.00  0.00    -0.248 NA
ATOM     42  C   UNL A   1      41.520  24.929  28.190  1.00  0.00     0.031 C 
ATOM     43  C   UNL A   1      46.123  23.902  26.448  1.00  0.00     0.029 A 
ATOM     44  N   UNL A   1      45.731  25.988  27.146  1.00  0.00    -0.354 N 
ATOM     45  C   UNL A   1      41.780  27.184  28.438  1.00  0.00     0.074 A 
ATOM     46  C   UNL A   1      40.878  26.055  28.458  1.00  0.00     0.031 C 
ATOM     47  C   UNL A   1      47.260  24.600  26.289  1.00  0.00     0.029 A 
ATOM     48  C   UNL A   1      47.036  25.978  26.716  1.00  0.00     0.049 A 
ATOM     49  H   UNL A   1      45.290  26.791  27.508  1.00  0.00     0.167 HD
ATOM     50  C   UNL A   1      41.434  28.444  28.792  1.00  0.00     0.037 A 
ATOM     51  C   UNL A   1      47.944  26.970  26.668  1.00  0.00     0.037 A 
ATOM     52  C   UNL A   1      42.350  29.550  28.838  1.00  0.00     0.049 A 
ATOM     53  C   UNL A   1      47.553  28.347  27.133  1.00  0.00     0.074 A 
ATOM     54  C   UNL A   1      42.117  30.849  29.256  1.00  0.00     0.029 A 
ATOM     55  N   UNL A   1      43.684  29.481  28.466  1.00  0.00    -0.354 N 
ATOM     56  N   UNL A   1      46.394  28.772  27.571  1.00  0.00    -0.248 NA
ATOM     57  C   UNL A   1      48.599  29.380  27.101  1.00  0.00     0.031 C 
ATOM     58  C   UNL A   1      43.309  31.569  29.122  1.00  0.00     0.029 A 
ATOM     59  C   UNL A   1      44.288  30.712  28.646  1.00  0.00     0.049 A 
ATOM     60  H   UNL A   1      44.134  28.675  28.124  1.00  0.00     0.167 HD
ATOM     61  C   UNL A   1      46.574  30.111  27.891  1.00  0.00     0.074 A 
ATOM     62  C   UNL A   1      47.958  30.427  27.604  1.00  0.00     0.031 C 
ATOM     63  C   UNL A   1      45.673  30.997  28.377  1.00  0.00     0.037 A 
BRANCH  50  64
ATOM     64  C   UNL A   1      40.003  28.681  29.171  1.00  0.00     0.064 A 
ATOM     65  C   UNL A   1      39.548  28.475  30.482  1.00  0.00     0.173 A 
ATOM     66  C   UNL A   1      39.079  29.128  28.215  1.00  0.00     0.173 A 
ATOM     67  F   UNL A   1      40.391  28.031  31.427  1.00  0.00    -0.203 F 
ATOM     68  C   UNL A   1      38.211  28.674  30.814  1.00  0.00     0.198 A 
ATOM     69  C   UNL A   1      37.749  29.352  28.558  1.00  0.00     0.198 A 
ATOM     70  F   UNL A   1      39.466  29.342  26.949  1.00  0.00    -0.203 F 
ATOM     71  F   UNL A   1      37.788  28.416  32.059  1.00  0.00    -0.200 F 
ATOM     72  C   UNL A   1      37.314  29.117  29.854  1.00  0.00     0.200 A 
ATOM     73  F   UNL A   1      36.884  29.788  27.631  1.00  0.00    -0.200 F 
ATOM     74  F   UNL A   1      36.028  29.308  30.176  1.00  0.00    -0.200 F 
ENDBRANCH  50  64
BRANCH  51  75
ATOM     75  C   UNL A   1      49.325  26.695  26.195  1.00  0.00     0.064 A 
ATOM     76  C   UNL A   1      49.682  26.932  24.860  1.00  0.00     0.173 A 
ATOM     77  C   UNL A   1      50.310  26.189  27.055  1.00  0.00     0.173 A 
ATOM     78  F   UNL A   1      48.767  27.395  23.997  1.00  0.00    -0.203 F 
ATOM     79  C   UNL A   1      50.967  26.656  24.399  1.00  0.00     0.198 A 
ATOM     80  C   UNL A   1      51.601  25.934  26.597  1.00  0.00     0.198 A 
ATOM     81  F   UNL A   1      50.018  25.950  28.343  1.00  0.00    -0.203 F 
ATOM     82  F   UNL A   1      51.270  26.856  23.108  1.00  0.00    -0.200 F 
ATOM     83  C   UNL A   1      51.926  26.162  25.269  1.00  0.00     0.200 A 
ATOM     84  F   UNL A   1      52.530  25.466  27.442  1.00  0.00    -0.200 F 
ATOM     85  F   UNL A   1      53.163  25.897  24.824  1.00  0.00    -0.200 F 
ENDBRANCH  51  75
BRANCH  63  86
ATOM     86  C   UNL A   1      46.162  32.382  28.671  1.00  0.00     0.064 A 
ATOM     87  C   UNL A   1      46.103  33.399  27.709  1.00  0.00     0.173 A 
ATOM     88  C   UNL A   1      46.634  32.708  29.951  1.00  0.00     0.173 A 
ATOM     89  F   UNL A   1      45.672  33.128  26.467  1.00  0.00    -0.203 F 
ATOM     90  C   UNL A   1      46.511  34.694  28.014  1.00  0.00     0.198 A 
ATOM     91  C   UNL A   1      47.022  34.007  30.259  1.00  0.00     0.198 A 
ATOM     92  F   UNL A   1      46.703  31.768  30.905  1.00  0.00    -0.203 F 
ATOM     93  F   UNL A   1      46.473  35.646  27.072  1.00  0.00    -0.200 F 
ATOM     94  C   UNL A   1      46.962  34.999  29.291  1.00  0.00     0.200 A 
ATOM     95  F   UNL A   1      47.449  34.304  31.494  1.00  0.00    -0.200 F 
ATOM     96  F   UNL A   1      47.345  36.249  29.585  1.00  0.00    -0.200 F 
ENDBRANCH  63  86
ENDBRANCH  37  38
ENDBRANCH  29  32
ENDBRANCH  27  28
ENDBRANCH  26  27
ENDBRANCH   1  26
TORSDOF 15
ENDMDL
MODEL 2
REMARK VINA RESULT:     -12.1      5.997     11.135
REMARK SMILES CC[NH2+][C@@]1(C(=O)NCCCCNC(=O)c2ccc(-c3c4nc(c(-c5c(F)c(F)c(F)c(F)c5F)c5ccc([nH]5)c(-c5c(F)c(F)c(F)c(F)c5F)c5nc(c(-c6c(F)c(F)c(F)c(F)c6F)c6ccc3[nH]6)C=C5)C=C4)cc2)CCC[C@@H]([N@@H+](C)C2CCCC2)C1
REMARK SMILES IDX 9 1 8 2 7 3 5 4 6 5 4 7 78 8 89 9 79 10 81 11 80 12 3 13
REMARK SMILES IDX 2 16 1 17 82 18 83 19 84 21 85 22 88 23 86 24 87 25 10 26
REMARK SMILES IDX 11 27 12 28 13 29 14 31 15 32 16 33 77 34 17 35 76 36 18 37
REMARK SMILES IDX 19 38 20 39 70 40 21 41 75 42 69 43 71 44 22 45 74 46 68 47
REMARK SMILES IDX 67 48 23 50 55 51 35 52 54 53 36 54 39 55 53 56 72 57 37 58
REMARK SMILES IDX 38 59 52 61 73 62 40 63 24 64 25 65 33 66 26 67 27 68 31 69
REMARK SMILES IDX 34 70 28 71 29 72 32 73 30 74 56 75 57 76 65 77 58 78 59 79
REMARK SMILES IDX 63 80 66 81 60 82 61 83 64 84 62 85 41 86 42 87 50 88 43 89
REMARK SMILES IDX 44 90 48 91 51 92 45 93 46 94 49 95 47 96
REMARK H PARENT 7 6 3 14 3 15 82 20 12 30 71 49 39 60
REMARK Flexibility Score: inf
ROOT
ATOM      1  C   UNL A   1      32.946  29.381  27.115  1.00  0.00     0.023 C 
ENDROOT
BRANCH   1   2
ATOM      2  C   UNL A   1      34.058  28.639  26.375  1.00  0.00     0.116 C 
BRANCH   2   3
ATOM      3  N   UNL A   1      34.107  28.950  24.965  1.00  0.00    -0.351 N 
ATOM      4  C   UNL A   1      33.500  28.501  23.846  1.00  0.00     0.281 C 
ATOM      5  O   UNL A   1      33.591  29.320  22.910  1.00  0.00    -0.268 OA
ATOM      6  H   UNL A   1      34.747  29.673  24.770  1.00  0.00     0.163 HD
BRANCH   4   7
ATOM      7  C   UNL A   1      32.689  27.144  23.614  1.00  0.00     0.181 C 
ATOM      8  C   UNL A   1      31.221  27.240  24.068  1.00  0.00     0.079 C 
ATOM      9  C   UNL A   1      33.304  25.827  24.116  1.00  0.00     0.144 C 
ATOM     10  C   UNL A   1      30.932  26.932  25.532  1.00  0.00     0.013 C 
ATOM     11  C   UNL A   1      33.151  25.540  25.607  1.00  0.00     0.190 C 
ATOM     12  C   UNL A   1      31.733  25.786  26.162  1.00  0.00     0.065 C 
BRANCH   7  13
ATOM     13  N   UNL A   1      32.569  27.034  22.094  1.00  0.00    -0.334 N 
ATOM     14  H   UNL A   1      31.861  27.699  21.783  1.00  0.00     0.347 HD
ATOM     15  H   UNL A   1      33.497  27.231  21.717  1.00  0.00     0.347 HD
BRANCH  13  16
ATOM     16  C   UNL A   1      32.194  25.699  21.602  1.00  0.00     0.257 C 
ATOM     17  C   UNL A   1      32.527  25.579  20.121  1.00  0.00     0.071 C 
ENDBRANCH  13  16
ENDBRANCH   7  13
BRANCH  11  18
ATOM     18  N   UNL A   1      33.843  24.299  26.040  1.00  0.00    -0.332 N 
ATOM     19  C   UNL A   1      32.903  23.258  26.464  1.00  0.00     0.333 C 
ATOM     20  H   UNL A   1      34.369  24.679  26.826  1.00  0.00     0.348 HD
BRANCH  18  21
ATOM     21  C   UNL A   1      34.931  23.725  25.235  1.00  0.00     0.184 C 
ATOM     22  C   UNL A   1      36.367  23.747  25.759  1.00  0.00     0.065 C 
ATOM     23  C   UNL A   1      34.720  22.277  24.738  1.00  0.00     0.065 C 
ATOM     24  C   UNL A   1      37.088  22.825  24.789  1.00  0.00     0.006 C 
ATOM     25  C   UNL A   1      36.120  21.654  24.681  1.00  0.00     0.006 C 
ENDBRANCH  18  21
ENDBRANCH  11  18
ENDBRANCH   4   7
ENDBRANCH   2   3
ENDBRANCH   1   2
BRANCH   1  26
ATOM     26  C   UNL A   1      32.742  30.829  26.694  1.00  0.00     0.023 C 
BRANCH  26  27
ATOM     27  C   UNL A   1      33.389  31.856  27.613  1.00  0.00     0.116 C 
BRANCH  27  28
ATOM     28  N   UNL A   1      32.750  33.169  27.625  1.00  0.00    -0.352 N 
ATOM     29  C   UNL A   1      33.122  34.261  28.382  1.00  0.00     0.251 C 
ATOM     30  H   UNL A   1      31.972  33.286  27.032  1.00  0.00     0.163 HD
ATOM     31  O   UNL A   1      32.502  35.318  28.339  1.00  0.00    -0.269 OA
BRANCH  29  32
ATOM     32  C   UNL A   1      34.264  34.091  29.298  1.00  0.00     0.039 A 
ATOM     33  C   UNL A   1      34.055  33.457  30.524  1.00  0.00     0.014 A 
ATOM     34  C   UNL A   1      35.553  34.367  28.839  1.00  0.00     0.014 A 
ATOM     35  C   UNL A   1      35.154  32.991  31.245  1.00  0.00     0.010 A 
ATOM     36  C   UNL A   1      36.638  33.828  29.515  1.00  0.00     0.010 A 
ATOM     37  C   UNL A   1      36.448  33.117  30.714  1.00  0.00    -0.014 A 
BRANCH  37  38
ATOM     38  C   UNL A   1      37.628  32.500  31.370  1.00  0.00     0.031 A 
ATOM     39  C   UNL A   1      38.343  31.370  30.687  1.00  0.00     0.074 A 
ATOM     40  C   UNL A   1      37.980  32.870  32.617  1.00  0.00     0.049 A 
ATOM     41  N   UNL A   1      39.274  30.576  31.151  1.00  0.00    -0.248 NA
ATOM     42  C   UNL A   1      37.919  31.063  29.312  1.00  0.00     0.031 C 
ATOM     43  C   UNL A   1      37.326  33.911  33.413  1.00  0.00     0.029 A 
ATOM     44  N   UNL A   1      38.968  32.395  33.443  1.00  0.00    -0.354 N 
ATOM     45  C   UNL A   1      39.509  29.650  30.144  1.00  0.00     0.074 A 
ATOM     46  C   UNL A   1      38.599  29.955  29.062  1.00  0.00     0.031 C 
ATOM     47  C   UNL A   1      37.945  34.011  34.601  1.00  0.00     0.029 A 
ATOM     48  C   UNL A   1      39.013  33.019  34.667  1.00  0.00     0.049 A 
ATOM     49  H   UNL A   1      39.586  31.674  33.184  1.00  0.00     0.167 HD
ATOM     50  C   UNL A   1      40.418  28.648  30.117  1.00  0.00     0.037 A 
ATOM     51  C   UNL A   1      39.823  32.808  35.722  1.00  0.00     0.037 A 
ATOM     52  C   UNL A   1      41.367  28.390  31.165  1.00  0.00     0.049 A 
ATOM     53  C   UNL A   1      40.872  31.732  35.639  1.00  0.00     0.074 A 
ATOM     54  C   UNL A   1      42.380  27.448  31.202  1.00  0.00     0.029 A 
ATOM     55  N   UNL A   1      41.430  29.094  32.358  1.00  0.00    -0.354 N 
ATOM     56  N   UNL A   1      41.119  30.892  34.664  1.00  0.00    -0.248 NA
ATOM     57  C   UNL A   1      41.757  31.577  36.803  1.00  0.00     0.031 C 
ATOM     58  C   UNL A   1      43.046  27.573  32.425  1.00  0.00     0.029 A 
ATOM     59  C   UNL A   1      42.465  28.610  33.138  1.00  0.00     0.049 A 
ATOM     60  H   UNL A   1      40.827  29.830  32.613  1.00  0.00     0.167 HD
ATOM     61  C   UNL A   1      42.199  30.129  35.082  1.00  0.00     0.074 A 
ATOM     62  C   UNL A   1      42.568  30.609  36.397  1.00  0.00     0.031 C 
ATOM     63  C   UNL A   1      42.828  29.120  34.434  1.00  0.00     0.037 A 
BRANCH  50  64
ATOM     64  C   UNL A   1      40.431  27.767  28.905  1.00  0.00     0.064 A 
ATOM     65  C   UNL A   1      41.211  28.077  27.781  1.00  0.00     0.173 A 
ATOM     66  C   UNL A   1      39.662  26.594  28.870  1.00  0.00     0.173 A 
ATOM     67  F   UNL A   1      41.949  29.198  27.761  1.00  0.00    -0.203 F 
ATOM     68  C   UNL A   1      41.194  27.264  26.652  1.00  0.00     0.198 A 
ATOM     69  C   UNL A   1      39.670  25.768  27.749  1.00  0.00     0.198 A 
ATOM     70  F   UNL A   1      38.902  26.252  29.920  1.00  0.00    -0.203 F 
ATOM     71  F   UNL A   1      41.903  27.611  25.569  1.00  0.00    -0.200 F 
ATOM     72  C   UNL A   1      40.428  26.108  26.638  1.00  0.00     0.200 A 
ATOM     73  F   UNL A   1      38.935  24.648  27.740  1.00  0.00    -0.200 F 
ATOM     74  F   UNL A   1      40.412  25.327  25.550  1.00  0.00    -0.200 F 
ENDBRANCH  50  64
BRANCH  51  75
ATOM     75  C   UNL A   1      39.702  33.655  36.935  1.00  0.00     0.064 A 
ATOM     76  C   UNL A   1      38.852  33.280  37.985  1.00  0.00     0.173 A 
ATOM     77  C   UNL A   1      40.421  34.851  37.072  1.00  0.00     0.173 A 
ATOM     78  F   UNL A   1      38.128  32.155  37.888  1.00  0.00    -0.203 F 
ATOM     79  C   UNL A   1      38.711  34.077  39.119  1.00  0.00     0.198 A 
ATOM     80  C   UNL A   1      40.296  35.636  38.217  1.00  0.00     0.198 A 
ATOM     81  F   UNL A   1      41.251  35.250  36.098  1.00  0.00    -0.203 F 
ATOM     82  F   UNL A   1      37.862  33.713  40.090  1.00  0.00    -0.200 F 
ATOM     83  C   UNL A   1      39.437  35.252  39.235  1.00  0.00     0.200 A 
ATOM     84  F   UNL A   1      41.006  36.767  38.332  1.00  0.00    -0.200 F 
ATOM     85  F   UNL A   1      39.302  36.019  40.327  1.00  0.00    -0.200 F 
ENDBRANCH  51  75
BRANCH  63  86
ATOM     86  C   UNL A   1      44.006  28.494  35.115  1.00  0.00     0.064 A 
ATOM     87  C   UNL A   1      45.300  29.006  34.957  1.00  0.00     0.173 A 
ATOM     88  C   UNL A   1      43.825  27.410  35.986  1.00  0.00     0.173 A 
ATOM     89  F   UNL A   1      45.522  30.033  34.122  1.00  0.00    -0.203 F 
ATOM     90  C   UNL A   1      46.377  28.447  35.639  1.00  0.00     0.198 A 
ATOM     91  C   UNL A   1      44.899  26.866  36.682  1.00  0.00     0.198 A 
ATOM     92  F   UNL A   1      42.602  26.890  36.172  1.00  0.00    -0.203 F 
ATOM     93  F   UNL A   1      47.612  28.933  35.453  1.00  0.00    -0.200 F 
ATOM     94  C   UNL A   1      46.174  27.383  36.507  1.00  0.00     0.200 A 
ATOM     95  F   UNL A   1      44.702  25.844  37.527  1.00  0.00    -0.200 F 
ATOM     96  F   UNL A   1      47.211  26.853  37.171  1.00  0.00    -0.200 F 
ENDBRANCH  63  86
ENDBRANCH  37  38
ENDBRANCH  29  32
ENDBRANCH  27  28
ENDBRANCH  26  27
ENDBRANCH   1  26
TORSDOF 15
ENDMDL
MODEL 3
REMARK VINA RESULT:     -12.0      6.076     11.182
REMARK SMILES CC[NH2+][C@@]1(C(=O)NCCCCNC(=O)c2ccc(-c3c4nc(c(-c5c(F)c(F)c(F)c(F)c5F)c5ccc([nH]5)c(-c5c(F)c(F)c(F)c(F)c5F)c5nc(c(-c6c(F)c(F)c(F)c(F)c6F)c6ccc3[nH]6)C=C5)C=C4)cc2)CCC[C@@H]([N@@H+](C)C2CCCC2)C1
REMARK SMILES IDX 9 1 8 2 7 3 5 4 6 5 4 7 78 8 89 9 79 10 81 11 80 12 3 13
REMARK SMILES IDX 2 16 1 17 82 18 83 19 84 21 85 22 88 23 86 24 87 25 10 26
REMARK SMILES IDX 11 27 12 28 13 29 14 31 15 32 16 33 77 34 17 35 76 36 18 37
REMARK SMILES IDX 19 38 20 39 70 40 21 41 75 42 69 43 71 44 22 45 74 46 68 47
REMARK SMILES IDX 67 48 23 50 55 51 35 52 54 53 36 54 39 55 53 56 72 57 37 58
REMARK SMILES IDX 38 59 52 61 73 62 40 63 24 64 25 65 33 66 26 67 27 68 31 69
REMARK SMILES IDX 34 70 28 71 29 72 32 73 30 74 56 75 57 76 65 77 58 78 59 79
REMARK SMILES IDX 63 80 66 81 60 82 61 83 64 84 62 85 41 86 42 87 50 88 43 89
REMARK SMILES IDX 44 90 48 91 51 92 45 93 46 94 49 95 47 96
REMARK H PARENT 7 6 3 14 3 15 82 20 12 30 71 49 39 60
REMARK Flexibility Score: inf
ROOT
ATOM      1  C   UNL A   1      32.828  29.590  27.270  1.00  0.00     0.023 C 
ENDROOT
BRANCH   1   2
ATOM      2  C   UNL A   1      33.867  28.714  26.572  1.00  0.00     0.116 C 
BRANCH   2   3
ATOM      3  N   UNL A   1      34.031  29.032  25.172  1.00  0.00    -0.351 N 
ATOM      4  C   UNL A   1      33.565  28.549  24.002  1.00  0.00     0.281 C 
ATOM      5  O   UNL A   1      33.693  29.376  23.077  1.00  0.00    -0.268 OA
ATOM      6  H   UNL A   1      34.639  29.796  25.039  1.00  0.00     0.163 HD
BRANCH   4   7
ATOM      7  C   UNL A   1      32.870  27.144  23.696  1.00  0.00     0.181 C 
ATOM      8  C   UNL A   1      31.380  27.117  24.083  1.00  0.00     0.079 C 
ATOM      9  C   UNL A   1      33.558  25.862  24.191  1.00  0.00     0.144 C 
ATOM     10  C   UNL A   1      31.050  26.745  25.523  1.00  0.00     0.013 C 
ATOM     11  C   UNL A   1      33.361  25.519  25.664  1.00  0.00     0.190 C 
ATOM     12  C   UNL A   1      31.905  25.643  26.160  1.00  0.00     0.065 C 
BRANCH   7  13
ATOM     13  N   UNL A   1      32.827  27.071  22.170  1.00  0.00    -0.334 N 
ATOM     14  H   UNL A   1      31.917  27.415  21.861  1.00  0.00     0.347 HD
ATOM     15  H   UNL A   1      33.605  27.638  21.832  1.00  0.00     0.347 HD
BRANCH  13  16
ATOM     16  C   UNL A   1      33.021  25.723  21.613  1.00  0.00     0.257 C 
ATOM     17  C   UNL A   1      32.410  25.644  20.219  1.00  0.00     0.071 C 
ENDBRANCH  13  16
ENDBRANCH   7  13
BRANCH  11  18
ATOM     18  N   UNL A   1      34.125  24.320  26.096  1.00  0.00    -0.332 N 
ATOM     19  C   UNL A   1      33.276  23.337  26.776  1.00  0.00     0.333 C 
ATOM     20  H   UNL A   1      34.773  24.772  26.740  1.00  0.00     0.348 HD
BRANCH  18  21
ATOM     21  C   UNL A   1      35.064  23.657  25.181  1.00  0.00     0.184 C 
ATOM     22  C   UNL A   1      36.566  23.695  25.464  1.00  0.00     0.065 C 
ATOM     23  C   UNL A   1      34.767  22.177  24.853  1.00  0.00     0.065 C 
ATOM     24  C   UNL A   1      37.115  22.680  24.476  1.00  0.00     0.006 C 
ATOM     25  C   UNL A   1      36.136  21.523  24.627  1.00  0.00     0.006 C 
ENDBRANCH  18  21
ENDBRANCH  11  18
ENDBRANCH   4   7
ENDBRANCH   2   3
ENDBRANCH   1   2
BRANCH   1  26
ATOM     26  C   UNL A   1      32.735  31.018  26.753  1.00  0.00     0.023 C 
BRANCH  26  27
ATOM     27  C   UNL A   1      33.391  32.063  27.646  1.00  0.00     0.116 C 
BRANCH  27  28
ATOM     28  N   UNL A   1      32.709  33.352  27.698  1.00  0.00    -0.352 N 
ATOM     29  C   UNL A   1      33.064  34.444  28.464  1.00  0.00     0.251 C 
ATOM     30  H   UNL A   1      31.913  33.453  27.128  1.00  0.00     0.163 HD
ATOM     31  O   UNL A   1      32.409  35.480  28.456  1.00  0.00    -0.269 OA
BRANCH  29  32
ATOM     32  C   UNL A   1      34.236  34.298  29.347  1.00  0.00     0.039 A 
ATOM     33  C   UNL A   1      34.050  33.783  30.631  1.00  0.00     0.014 A 
ATOM     34  C   UNL A   1      35.515  34.467  28.816  1.00  0.00     0.014 A 
ATOM     35  C   UNL A   1      35.157  33.328  31.349  1.00  0.00     0.010 A 
ATOM     36  C   UNL A   1      36.602  33.934  29.495  1.00  0.00     0.010 A 
ATOM     37  C   UNL A   1      36.431  33.341  30.758  1.00  0.00    -0.014 A 
BRANCH  37  38
ATOM     38  C   UNL A   1      37.608  32.725  31.421  1.00  0.00     0.031 A 
ATOM     39  C   UNL A   1      38.309  31.576  30.756  1.00  0.00     0.074 A 
ATOM     40  C   UNL A   1      37.970  33.116  32.659  1.00  0.00     0.049 A 
ATOM     41  N   UNL A   1      39.234  30.781  31.230  1.00  0.00    -0.248 NA
ATOM     42  C   UNL A   1      37.875  31.247  29.389  1.00  0.00     0.031 C 
ATOM     43  C   UNL A   1      37.330  34.177  33.438  1.00  0.00     0.029 A 
ATOM     44  N   UNL A   1      38.956  32.646  33.489  1.00  0.00    -0.354 N 
ATOM     45  C   UNL A   1      39.455  29.835  30.240  1.00  0.00     0.074 A 
ATOM     46  C   UNL A   1      38.543  30.128  29.157  1.00  0.00     0.031 C 
ATOM     47  C   UNL A   1      37.955  34.294  34.621  1.00  0.00     0.029 A 
ATOM     48  C   UNL A   1      39.014  33.292  34.701  1.00  0.00     0.049 A 
ATOM     49  H   UNL A   1      39.567  31.914  33.241  1.00  0.00     0.167 HD
ATOM     50  C   UNL A   1      40.354  28.823  30.229  1.00  0.00     0.037 A 
ATOM     51  C   UNL A   1      39.827  33.093  35.755  1.00  0.00     0.037 A 
ATOM     52  C   UNL A   1      41.306  28.576  31.276  1.00  0.00     0.049 A 
ATOM     53  C   UNL A   1      40.864  32.006  35.689  1.00  0.00     0.074 A 
ATOM     54  C   UNL A   1      42.310  27.625  31.326  1.00  0.00     0.029 A 
ATOM     55  N   UNL A   1      41.381  29.301  32.455  1.00  0.00    -0.354 N 
ATOM     56  N   UNL A   1      41.098  31.146  34.728  1.00  0.00    -0.248 NA
ATOM     57  C   UNL A   1      41.753  31.864  36.851  1.00  0.00     0.031 C 
ATOM     58  C   UNL A   1      42.983  27.766  32.544  1.00  0.00     0.029 A 
ATOM     59  C   UNL A   1      42.415  28.822  33.240  1.00  0.00     0.049 A 
ATOM     60  H   UNL A   1      40.786  30.048  32.699  1.00  0.00     0.167 HD
ATOM     61  C   UNL A   1      42.174  30.380  35.156  1.00  0.00     0.074 A 
ATOM     62  C   UNL A   1      42.553  30.881  36.460  1.00  0.00     0.031 C 
ATOM     63  C   UNL A   1      42.790  29.352  34.524  1.00  0.00     0.037 A 
BRANCH  50  64
ATOM     64  C   UNL A   1      40.353  27.919  29.033  1.00  0.00     0.064 A 
ATOM     65  C   UNL A   1      39.593  26.741  29.005  1.00  0.00     0.173 A 
ATOM     66  C   UNL A   1      41.116  28.237  27.900  1.00  0.00     0.173 A 
ATOM     67  F   UNL A   1      38.861  26.384  30.072  1.00  0.00    -0.203 F 
ATOM     68  C   UNL A   1      39.622  25.896  27.899  1.00  0.00     0.198 A 
ATOM     69  C   UNL A   1      41.121  27.404  26.785  1.00  0.00     0.198 A 
ATOM     70  F   UNL A   1      41.858  29.355  27.876  1.00  0.00    -0.203 F 
ATOM     71  F   UNL A   1      38.932  24.748  27.918  1.00  0.00    -0.200 F 
ATOM     72  C   UNL A   1      40.381  26.231  26.788  1.00  0.00     0.200 A 
ATOM     73  F   UNL A   1      41.849  27.733  25.708  1.00  0.00    -0.200 F 
ATOM     74  F   UNL A   1      40.409  25.417  25.725  1.00  0.00    -0.200 F 
ENDBRANCH  50  64
BRANCH  51  75
ATOM     75  C   UNL A   1      39.719  33.965  36.953  1.00  0.00     0.064 A 
ATOM     76  C   UNL A   1      40.391  35.195  37.003  1.00  0.00     0.173 A 
ATOM     77  C   UNL A   1      38.955  33.593  38.068  1.00  0.00     0.173 A 
ATOM     78  F   UNL A   1      41.152  35.582  35.969  1.00  0.00    -0.203 F 
ATOM     79  C   UNL A   1      40.318  36.011  38.129  1.00  0.00     0.198 A 
ATOM     80  C   UNL A   1      38.863  34.421  39.185  1.00  0.00     0.198 A 
ATOM     81  F   UNL A   1      38.288  32.429  38.066  1.00  0.00    -0.203 F 
ATOM     82  F   UNL A   1      41.002  37.163  38.164  1.00  0.00    -0.200 F 
ATOM     83  C   UNL A   1      39.550  35.625  39.217  1.00  0.00     0.200 A 
ATOM     84  F   UNL A   1      38.113  34.051  40.232  1.00  0.00    -0.200 F 
ATOM     85  F   UNL A   1      39.479  36.412  40.301  1.00  0.00    -0.200 F 
ENDBRANCH  51  75
BRANCH  63  86
ATOM     86  C   UNL A   1      43.964  28.728  35.212  1.00  0.00     0.064 A 
ATOM     87  C   UNL A   1      43.805  27.673  36.119  1.00  0.00     0.173 A 
ATOM     88  C   UNL A   1      45.267  29.150  34.908  1.00  0.00     0.173 A 
ATOM     89  F   UNL A   1      42.577  27.246  36.450  1.00  0.00    -0.203 F 
ATOM     90  C   UNL A   1      44.911  27.068  36.709  1.00  0.00     0.198 A 
ATOM     91  C   UNL A   1      46.371  28.530  35.484  1.00  0.00     0.198 A 
ATOM     92  F   UNL A   1      45.468  30.154  34.041  1.00  0.00    -0.203 F 
ATOM     93  F   UNL A   1      44.738  26.078  37.596  1.00  0.00    -0.200 F 
ATOM     94  C   UNL A   1      46.192  27.491  36.385  1.00  0.00     0.200 A 
ATOM     95  F   UNL A   1      47.608  28.934  35.165  1.00  0.00    -0.200 F 
ATOM     96  F   UNL A   1      47.256  26.899  36.947  1.00  0.00    -0.200 F 
ENDBRANCH  63  86
ENDBRANCH  37  38
ENDBRANCH  29  32
ENDBRANCH  27  28
ENDBRANCH  26  27
ENDBRANCH   1  26
TORSDOF 15
ENDMDL
