MODEL 1
REMARK VINA RESULT:     -12.1      0.000      0.000
REMARK SMILES Cc1cccc(NS(=O)(=O)Cc2ccc(C(=O)NCCCCNC(=O)c3ccc(-c4c5nc(c(-c6c(F)c(F)c(F)c(F)c6F)c6ccc([nH]6)c(-c6c(F)c(F)c(F)c(F)c6F)c6nc(c(-c7c(F)c(F)c(F)c(F)c7F)c7ccc4[nH]7)C=C6)C=C5)cc3)cc2)n1
REMARK SMILES IDX 19 1 18 2 16 3 17 4 15 6 12 7 13 8 90 9 14 10 89 11 11 12
REMARK SMILES IDX 8 13 9 14 10 15 7 16 6 18 1 19 2 20 3 21 91 22 4 23 5 24
REMARK SMILES IDX 20 25 21 26 22 27 23 28 24 29 25 31 26 32 27 33 88 34 28 35
REMARK SMILES IDX 87 36 29 37 30 38 31 39 81 40 32 41 86 42 80 43 82 44 33 45
REMARK SMILES IDX 85 46 79 47 78 48 34 50 66 51 46 52 65 53 47 54 50 55 64 56
REMARK SMILES IDX 83 57 48 58 49 59 63 61 84 62 51 63 35 64 36 65 44 66 37 67
REMARK SMILES IDX 38 68 42 69 45 70 39 71 40 72 43 73 41 74 67 75 68 76 76 77
REMARK SMILES IDX 69 78 70 79 74 80 77 81 71 82 72 83 75 84 73 85 52 86 53 87
REMARK SMILES IDX 61 88 54 89 55 90 59 91 62 92 56 93 57 94 60 95 58 96
REMARK H PARENT 18 5 7 17 23 30 82 49 50 60
REMARK Flexibility Score: inf
ROOT
ATOM      1  C   UNL A   1      34.053  21.547  27.092  1.00  0.00     0.116 C 
ENDROOT
BRANCH   1   2
ATOM      2  N   UNL A   1      33.423  20.369  26.535  1.00  0.00    -0.352 N 
ATOM      3  C   UNL A   1      32.618  20.258  25.432  1.00  0.00     0.251 C 
ATOM      4  O   UNL A   1      32.222  19.147  25.086  1.00  0.00    -0.269 OA
ATOM      5  H   UNL A   1      33.599  19.528  27.016  1.00  0.00     0.163 HD
BRANCH   3   6
ATOM      6  C   UNL A   1      32.266  21.446  24.618  1.00  0.00     0.039 A 
ATOM      7  C   UNL A   1      31.653  23.835  23.273  1.00  0.00    -0.031 A 
ATOM      8  C   UNL A   1      30.988  23.484  24.460  1.00  0.00     0.005 A 
ATOM      9  C   UNL A   1      32.558  22.927  22.716  1.00  0.00     0.005 A 
ATOM     10  C   UNL A   1      31.309  22.312  25.141  1.00  0.00     0.014 A 
ATOM     11  C   UNL A   1      32.889  21.758  23.405  1.00  0.00     0.014 A 
BRANCH   7  12
ATOM     12  C   UNL A   1      31.414  25.201  22.678  1.00  0.00     0.195 C 
BRANCH  12  13
ATOM     13  S   UNL A   1      32.833  26.308  22.897  1.00  0.00     0.238 S 
ATOM     14  O   UNL A   1      32.386  27.685  22.897  1.00  0.00    -0.206 OA
ATOM     15  O   UNL A   1      33.843  25.901  21.931  1.00  0.00    -0.206 OA
BRANCH  13  16
ATOM     16  N   UNL A   1      33.531  25.962  24.357  1.00  0.00    -0.267 N 
ATOM     17  H   UNL A   1      34.196  25.238  24.403  1.00  0.00     0.181 HD
BRANCH  16  18
ATOM     18  C   UNL A   1      33.211  26.662  25.536  1.00  0.00     0.139 A 
ATOM     19  C   UNL A   1      34.433  29.740  27.120  1.00  0.00     0.067 C 
ATOM     20  C   UNL A   1      33.566  28.555  26.811  1.00  0.00     0.040 A 
ATOM     21  C   UNL A   1      32.298  28.465  27.375  1.00  0.00     0.023 A 
ATOM     22  N   UNL A   1      34.027  27.668  25.893  1.00  0.00    -0.235 NA
ATOM     23  C   UNL A   1      31.477  27.408  27.004  1.00  0.00     0.006 A 
ATOM     24  C   UNL A   1      31.935  26.497  26.058  1.00  0.00     0.048 A 
ENDBRANCH  16  18
ENDBRANCH  13  16
ENDBRANCH  12  13
ENDBRANCH   7  12
ENDBRANCH   3   6
ENDBRANCH   1   2
BRANCH   1  25
ATOM     25  C   UNL A   1      35.373  21.836  26.376  1.00  0.00     0.023 C 
BRANCH  25  26
ATOM     26  C   UNL A   1      35.438  23.204  25.701  1.00  0.00     0.023 C 
BRANCH  26  27
ATOM     27  C   UNL A   1      36.836  23.641  25.287  1.00  0.00     0.116 C 
BRANCH  27  28
ATOM     28  N   UNL A   1      37.860  22.652  25.586  1.00  0.00    -0.352 N 
ATOM     29  C   UNL A   1      39.051  22.835  26.244  1.00  0.00     0.251 C 
ATOM     30  H   UNL A   1      37.676  21.735  25.277  1.00  0.00     0.163 HD
ATOM     31  O   UNL A   1      39.864  21.928  26.334  1.00  0.00    -0.269 OA
BRANCH  29  32
ATOM     32  C   UNL A   1      39.353  24.168  26.801  1.00  0.00     0.039 A 
ATOM     33  C   UNL A   1      38.995  24.436  28.123  1.00  0.00     0.014 A 
ATOM     34  C   UNL A   1      40.030  25.123  26.037  1.00  0.00     0.014 A 
ATOM     35  C   UNL A   1      39.366  25.649  28.699  1.00  0.00     0.010 A 
ATOM     36  C   UNL A   1      40.467  26.298  26.636  1.00  0.00     0.010 A 
ATOM     37  C   UNL A   1      40.131  26.575  27.969  1.00  0.00    -0.014 A 
BRANCH  37  38
ATOM     38  C   UNL A   1      40.575  27.844  28.592  1.00  0.00     0.031 A 
ATOM     39  C   UNL A   1      42.017  28.038  28.960  1.00  0.00     0.074 A 
ATOM     40  C   UNL A   1      39.668  28.803  28.859  1.00  0.00     0.049 A 
ATOM     41  N   UNL A   1      42.599  29.078  29.501  1.00  0.00    -0.248 NA
ATOM     42  C   UNL A   1      42.922  26.903  28.719  1.00  0.00     0.031 C 
ATOM     43  C   UNL A   1      38.228  28.697  28.611  1.00  0.00     0.029 A 
ATOM     44  N   UNL A   1      39.821  30.054  29.396  1.00  0.00    -0.354 N 
ATOM     45  C   UNL A   1      43.930  28.720  29.670  1.00  0.00     0.074 A 
ATOM     46  C   UNL A   1      44.058  27.346  29.236  1.00  0.00     0.031 C 
ATOM     47  C   UNL A   1      37.637  29.850  28.962  1.00  0.00     0.029 A 
ATOM     48  C   UNL A   1      38.649  30.765  29.480  1.00  0.00     0.049 A 
ATOM     49  H   UNL A   1      40.690  30.410  29.695  1.00  0.00     0.167 HD
ATOM     50  C   UNL A   1      44.958  29.478  30.117  1.00  0.00     0.037 A 
ATOM     51  C   UNL A   1      38.422  32.019  29.913  1.00  0.00     0.037 A 
ATOM     52  C   UNL A   1      44.829  30.853  30.521  1.00  0.00     0.049 A 
ATOM     53  C   UNL A   1      39.588  32.853  30.372  1.00  0.00     0.074 A 
ATOM     54  C   UNL A   1      45.815  31.728  30.936  1.00  0.00     0.029 A 
ATOM     55  N   UNL A   1      43.631  31.552  30.558  1.00  0.00    -0.354 N 
ATOM     56  N   UNL A   1      40.857  32.532  30.449  1.00  0.00    -0.248 NA
ATOM     57  C   UNL A   1      39.291  34.230  30.787  1.00  0.00     0.031 C 
ATOM     58  C   UNL A   1      45.210  32.948  31.260  1.00  0.00     0.029 A 
ATOM     59  C   UNL A   1      43.852  32.846  31.000  1.00  0.00     0.049 A 
ATOM     60  H   UNL A   1      42.753  31.183  30.306  1.00  0.00     0.167 HD
ATOM     61  C   UNL A   1      41.514  33.673  30.888  1.00  0.00     0.074 A 
ATOM     62  C   UNL A   1      40.503  34.698  31.046  1.00  0.00     0.031 C 
ATOM     63  C   UNL A   1      42.833  33.855  31.140  1.00  0.00     0.037 A 
BRANCH  50  64
ATOM     64  C   UNL A   1      46.315  28.837  30.179  1.00  0.00     0.064 A 
ATOM     65  C   UNL A   1      46.773  28.200  31.343  1.00  0.00     0.173 A 
ATOM     66  C   UNL A   1      47.157  28.839  29.058  1.00  0.00     0.173 A 
ATOM     67  F   UNL A   1      46.013  28.183  32.448  1.00  0.00    -0.203 F 
ATOM     68  C   UNL A   1      48.036  27.614  31.390  1.00  0.00     0.198 A 
ATOM     69  C   UNL A   1      48.406  28.226  29.099  1.00  0.00     0.198 A 
ATOM     70  F   UNL A   1      46.768  29.432  27.919  1.00  0.00    -0.203 F 
ATOM     71  F   UNL A   1      48.472  27.059  32.529  1.00  0.00    -0.200 F 
ATOM     72  C   UNL A   1      48.848  27.622  30.266  1.00  0.00     0.200 A 
ATOM     73  F   UNL A   1      49.187  28.223  28.009  1.00  0.00    -0.200 F 
ATOM     74  F   UNL A   1      50.061  27.054  30.312  1.00  0.00    -0.200 F 
ENDBRANCH  50  64
BRANCH  51  75
ATOM     75  C   UNL A   1      37.048  32.581  29.879  1.00  0.00     0.064 A 
ATOM     76  C   UNL A   1      36.573  33.249  28.741  1.00  0.00     0.173 A 
ATOM     77  C   UNL A   1      36.182  32.462  30.975  1.00  0.00     0.173 A 
ATOM     78  F   UNL A   1      37.370  33.402  27.674  1.00  0.00    -0.203 F 
ATOM     79  C   UNL A   1      35.293  33.799  28.712  1.00  0.00     0.198 A 
ATOM     80  C   UNL A   1      34.893  32.988  30.934  1.00  0.00     0.198 A 
ATOM     81  F   UNL A   1      36.586  31.823  32.083  1.00  0.00    -0.203 F 
ATOM     82  F   UNL A   1      34.882  34.474  27.629  1.00  0.00    -0.200 F 
ATOM     83  C   UNL A   1      34.453  33.664  29.806  1.00  0.00     0.200 A 
ATOM     84  F   UNL A   1      34.078  32.843  31.987  1.00  0.00    -0.200 F 
ATOM     85  F   UNL A   1      33.221  34.191  29.776  1.00  0.00    -0.200 F 
ENDBRANCH  51  75
BRANCH  63  86
ATOM     86  C   UNL A   1      43.263  35.226  31.571  1.00  0.00     0.064 A 
ATOM     87  C   UNL A   1      43.269  35.608  32.920  1.00  0.00     0.173 A 
ATOM     88  C   UNL A   1      43.700  36.162  30.621  1.00  0.00     0.173 A 
ATOM     89  F   UNL A   1      42.847  34.753  33.864  1.00  0.00    -0.203 F 
ATOM     90  C   UNL A   1      43.664  36.887  33.300  1.00  0.00     0.198 A 
ATOM     91  C   UNL A   1      44.124  37.430  31.007  1.00  0.00     0.198 A 
ATOM     92  F   UNL A   1      43.722  35.844  29.318  1.00  0.00    -0.203 F 
ATOM     93  F   UNL A   1      43.609  37.248  34.589  1.00  0.00    -0.200 F 
ATOM     94  C   UNL A   1      44.097  37.795  32.344  1.00  0.00     0.200 A 
ATOM     95  F   UNL A   1      44.554  38.301  30.084  1.00  0.00    -0.200 F 
ATOM     96  F   UNL A   1      44.479  39.025  32.712  1.00  0.00    -0.200 F 
ENDBRANCH  63  86
ENDBRANCH  37  38
ENDBRANCH  29  32
ENDBRANCH  27  28
ENDBRANCH  26  27
ENDBRANCH  25  26
ENDBRANCH   1  25
TORSDOF 15
ENDMDL
MODEL 2
REMARK VINA RESULT:     -12.1      3.980      9.065
REMARK SMILES Cc1cccc(NS(=O)(=O)Cc2ccc(C(=O)NCCCCNC(=O)c3ccc(-c4c5nc(c(-c6c(F)c(F)c(F)c(F)c6F)c6ccc([nH]6)c(-c6c(F)c(F)c(F)c(F)c6F)c6nc(c(-c7c(F)c(F)c(F)c(F)c7F)c7ccc4[nH]7)C=C6)C=C5)cc3)cc2)n1
REMARK SMILES IDX 19 1 18 2 16 3 17 4 15 6 12 7 13 8 90 9 14 10 89 11 11 12
REMARK SMILES IDX 8 13 9 14 10 15 7 16 6 18 1 19 2 20 3 21 91 22 4 23 5 24
REMARK SMILES IDX 20 25 21 26 22 27 23 28 24 29 25 31 26 32 27 33 88 34 28 35
REMARK SMILES IDX 87 36 29 37 30 38 31 39 81 40 32 41 86 42 80 43 82 44 33 45
REMARK SMILES IDX 85 46 79 47 78 48 34 50 66 51 46 52 65 53 47 54 50 55 64 56
REMARK SMILES IDX 83 57 48 58 49 59 63 61 84 62 51 63 35 64 36 65 44 66 37 67
REMARK SMILES IDX 38 68 42 69 45 70 39 71 40 72 43 73 41 74 67 75 68 76 76 77
REMARK SMILES IDX 69 78 70 79 74 80 77 81 71 82 72 83 75 84 73 85 52 86 53 87
REMARK SMILES IDX 61 88 54 89 55 90 59 91 62 92 56 93 57 94 60 95 58 96
REMARK H PARENT 18 5 7 17 23 30 82 49 50 60
REMARK Flexibility Score: inf
ROOT
ATOM      1  C   UNL A   1      31.967  29.767  27.259  1.00  0.00     0.116 C 
ENDROOT
BRANCH   1   2
ATOM      2  N   UNL A   1      33.385  29.672  27.532  1.00  0.00    -0.352 N 
ATOM      3  C   UNL A   1      34.333  28.893  26.922  1.00  0.00     0.251 C 
ATOM      4  O   UNL A   1      35.509  28.998  27.264  1.00  0.00    -0.269 OA
ATOM      5  H   UNL A   1      33.716  30.249  28.258  1.00  0.00     0.163 HD
BRANCH   3   6
ATOM      6  C   UNL A   1      33.973  27.971  25.818  1.00  0.00     0.039 A 
ATOM      7  C   UNL A   1      33.070  26.199  23.835  1.00  0.00    -0.031 A 
ATOM      8  C   UNL A   1      33.094  25.817  25.187  1.00  0.00     0.005 A 
ATOM      9  C   UNL A   1      33.596  27.443  23.478  1.00  0.00     0.005 A 
ATOM     10  C   UNL A   1      33.518  26.703  26.174  1.00  0.00     0.014 A 
ATOM     11  C   UNL A   1      34.009  28.337  24.468  1.00  0.00     0.014 A 
BRANCH   7  12
ATOM     12  C   UNL A   1      32.421  25.280  22.829  1.00  0.00     0.195 C 
BRANCH  12  13
ATOM     13  S   UNL A   1      33.465  23.856  22.418  1.00  0.00     0.238 S 
ATOM     14  O   UNL A   1      34.770  24.012  23.026  1.00  0.00    -0.206 OA
ATOM     15  O   UNL A   1      33.382  23.669  20.977  1.00  0.00    -0.206 OA
BRANCH  13  16
ATOM     16  N   UNL A   1      32.739  22.499  23.028  1.00  0.00    -0.267 N 
ATOM     17  H   UNL A   1      32.578  21.738  22.424  1.00  0.00     0.181 HD
BRANCH  16  18
ATOM     18  C   UNL A   1      32.345  22.390  24.375  1.00  0.00     0.139 A 
ATOM     19  C   UNL A   1      34.122  22.331  27.587  1.00  0.00     0.067 C 
ATOM     20  C   UNL A   1      33.007  22.429  26.587  1.00  0.00     0.040 A 
ATOM     21  C   UNL A   1      31.748  22.852  27.000  1.00  0.00     0.023 A 
ATOM     22  N   UNL A   1      33.315  22.202  25.285  1.00  0.00    -0.235 NA
ATOM     23  C   UNL A   1      30.756  23.024  26.045  1.00  0.00     0.006 A 
ATOM     24  C   UNL A   1      31.061  22.802  24.706  1.00  0.00     0.048 A 
ENDBRANCH  16  18
ENDBRANCH  13  16
ENDBRANCH  12  13
ENDBRANCH   7  12
ENDBRANCH   3   6
ENDBRANCH   1   2
BRANCH   1  25
ATOM     25  C   UNL A   1      31.704  30.777  26.143  1.00  0.00     0.023 C 
BRANCH  25  26
ATOM     26  C   UNL A   1      31.416  32.196  26.631  1.00  0.00     0.023 C 
BRANCH  26  27
ATOM     27  C   UNL A   1      32.592  32.882  27.309  1.00  0.00     0.116 C 
BRANCH  27  28
ATOM     28  N   UNL A   1      32.309  34.253  27.706  1.00  0.00    -0.352 N 
ATOM     29  C   UNL A   1      32.965  35.020  28.637  1.00  0.00     0.251 C 
ATOM     30  H   UNL A   1      31.552  34.686  27.248  1.00  0.00     0.163 HD
ATOM     31  O   UNL A   1      32.551  36.129  28.942  1.00  0.00    -0.269 OA
BRANCH  29  32
ATOM     32  C   UNL A   1      34.156  34.459  29.304  1.00  0.00     0.039 A 
ATOM     33  C   UNL A   1      33.978  33.710  30.467  1.00  0.00     0.014 A 
ATOM     34  C   UNL A   1      35.429  34.632  28.753  1.00  0.00     0.014 A 
ATOM     35  C   UNL A   1      35.078  33.084  31.052  1.00  0.00     0.010 A 
ATOM     36  C   UNL A   1      36.510  33.945  29.292  1.00  0.00     0.010 A 
ATOM     37  C   UNL A   1      36.345  33.173  30.450  1.00  0.00    -0.014 A 
BRANCH  37  38
ATOM     38  C   UNL A   1      37.509  32.466  31.037  1.00  0.00     0.031 A 
ATOM     39  C   UNL A   1      37.991  32.823  32.413  1.00  0.00     0.074 A 
ATOM     40  C   UNL A   1      38.151  31.532  30.310  1.00  0.00     0.049 A 
ATOM     41  N   UNL A   1      38.981  32.311  33.100  1.00  0.00    -0.248 NA
ATOM     42  C   UNL A   1      37.289  33.920  33.099  1.00  0.00     0.031 C 
ATOM     43  C   UNL A   1      37.816  31.154  28.935  1.00  0.00     0.029 A 
ATOM     44  N   UNL A   1      39.217  30.730  30.625  1.00  0.00    -0.354 N 
ATOM     45  C   UNL A   1      39.023  33.028  34.289  1.00  0.00     0.074 A 
ATOM     46  C   UNL A   1      38.005  34.050  34.205  1.00  0.00     0.031 C 
ATOM     47  C   UNL A   1      38.638  30.169  28.539  1.00  0.00     0.029 A 
ATOM     48  C   UNL A   1      39.568  29.863  29.620  1.00  0.00     0.049 A 
ATOM     49  H   UNL A   1      39.686  30.773  31.490  1.00  0.00     0.167 HD
ATOM     50  C   UNL A   1      39.820  32.829  35.366  1.00  0.00     0.037 A 
ATOM     51  C   UNL A   1      40.526  28.918  29.585  1.00  0.00     0.037 A 
ATOM     52  C   UNL A   1      40.812  31.792  35.453  1.00  0.00     0.049 A 
ATOM     53  C   UNL A   1      41.374  28.694  30.808  1.00  0.00     0.074 A 
ATOM     54  C   UNL A   1      41.634  31.468  36.518  1.00  0.00     0.029 A 
ATOM     55  N   UNL A   1      41.116  30.906  34.429  1.00  0.00    -0.354 N 
ATOM     56  N   UNL A   1      41.350  29.321  31.959  1.00  0.00    -0.248 NA
ATOM     57  C   UNL A   1      42.370  27.617  30.732  1.00  0.00     0.031 C 
ATOM     58  C   UNL A   1      42.461  30.409  36.125  1.00  0.00     0.029 A 
ATOM     59  C   UNL A   1      42.122  30.043  34.833  1.00  0.00     0.049 A 
ATOM     60  H   UNL A   1      40.682  30.893  33.545  1.00  0.00     0.167 HD
ATOM     61  C   UNL A   1      42.301  28.697  32.754  1.00  0.00     0.074 A 
ATOM     62  C   UNL A   1      42.874  27.631  31.958  1.00  0.00     0.031 C 
ATOM     63  C   UNL A   1      42.669  28.981  34.027  1.00  0.00     0.037 A 
BRANCH  50  64
ATOM     64  C   UNL A   1      39.637  33.748  36.540  1.00  0.00     0.064 A 
ATOM     65  C   UNL A   1      40.258  35.006  36.591  1.00  0.00     0.173 A 
ATOM     66  C   UNL A   1      38.816  33.378  37.615  1.00  0.00     0.173 A 
ATOM     67  F   UNL A   1      41.065  35.401  35.596  1.00  0.00    -0.203 F 
ATOM     68  C   UNL A   1      40.086  35.846  37.688  1.00  0.00     0.198 A 
ATOM     69  C   UNL A   1      38.622  34.233  38.696  1.00  0.00     0.198 A 
ATOM     70  F   UNL A   1      38.198  32.187  37.616  1.00  0.00    -0.203 F 
ATOM     71  F   UNL A   1      40.731  37.020  37.738  1.00  0.00    -0.200 F 
ATOM     72  C   UNL A   1      39.263  35.462  38.736  1.00  0.00     0.200 A 
ATOM     73  F   UNL A   1      37.818  33.866  39.704  1.00  0.00    -0.200 F 
ATOM     74  F   UNL A   1      39.096  36.274  39.789  1.00  0.00    -0.200 F 
ENDBRANCH  50  64
BRANCH  51  75
ATOM     75  C   UNL A   1      40.695  28.075  28.373  1.00  0.00     0.064 A 
ATOM     76  C   UNL A   1      40.037  26.842  28.258  1.00  0.00     0.173 A 
ATOM     77  C   UNL A   1      41.513  28.482  27.309  1.00  0.00     0.173 A 
ATOM     78  F   UNL A   1      39.258  26.404  29.257  1.00  0.00    -0.203 F 
ATOM     79  C   UNL A   1      40.211  26.037  27.135  1.00  0.00     0.198 A 
ATOM     80  C   UNL A   1      41.663  27.687  26.174  1.00  0.00     0.198 A 
ATOM     81  F   UNL A   1      42.156  29.657  27.367  1.00  0.00    -0.203 F 
ATOM     82  F   UNL A   1      39.607  24.842  27.071  1.00  0.00    -0.200 F 
ATOM     83  C   UNL A   1      41.019  26.462  26.092  1.00  0.00     0.200 A 
ATOM     84  F   UNL A   1      42.434  28.107  25.162  1.00  0.00    -0.200 F 
ATOM     85  F   UNL A   1      41.183  25.687  25.011  1.00  0.00    -0.200 F 
ENDBRANCH  51  75
BRANCH  63  86
ATOM     86  C   UNL A   1      43.710  28.098  34.651  1.00  0.00     0.064 A 
ATOM     87  C   UNL A   1      45.071  28.435  34.632  1.00  0.00     0.173 A 
ATOM     88  C   UNL A   1      43.336  26.911  35.298  1.00  0.00     0.173 A 
ATOM     89  F   UNL A   1      45.480  29.554  34.014  1.00  0.00    -0.203 F 
ATOM     90  C   UNL A   1      46.023  27.599  35.209  1.00  0.00     0.198 A 
ATOM     91  C   UNL A   1      44.286  26.093  35.901  1.00  0.00     0.198 A 
ATOM     92  F   UNL A   1      42.045  26.547  35.351  1.00  0.00    -0.203 F 
ATOM     93  F   UNL A   1      47.323  27.914  35.132  1.00  0.00    -0.200 F 
ATOM     94  C   UNL A   1      45.630  26.432  35.848  1.00  0.00     0.200 A 
ATOM     95  F   UNL A   1      43.903  24.973  36.529  1.00  0.00    -0.200 F 
ATOM     96  F   UNL A   1      46.547  25.630  36.405  1.00  0.00    -0.200 F 
ENDBRANCH  63  86
ENDBRANCH  37  38
ENDBRANCH  29  32
ENDBRANCH  27  28
ENDBRANCH  26  27
ENDBRANCH  25  26
ENDBRANCH   1  25
TORSDOF 15
ENDMDL
MODEL 3
REMARK VINA RESULT:     -12.0      3.070      8.438
REMARK SMILES Cc1cccc(NS(=O)(=O)Cc2ccc(C(=O)NCCCCNC(=O)c3ccc(-c4c5nc(c(-c6c(F)c(F)c(F)c(F)c6F)c6ccc([nH]6)c(-c6c(F)c(F)c(F)c(F)c6F)c6nc(c(-c7c(F)c(F)c(F)c(F)c7F)c7ccc4[nH]7)C=C6)C=C5)cc3)cc2)n1
REMARK SMILES IDX 19 1 18 2 16 3 17 4 15 6 12 7 13 8 90 9 14 10 89 11 11 12
REMARK SMILES IDX 8 13 9 14 10 15 7 16 6 18 1 19 2 20 3 21 91 22 4 23 5 24
REMARK SMILES IDX 20 25 21 26 22 27 23 28 24 29 25 31 26 32 27 33 88 34 28 35
REMARK SMILES IDX 87 36 29 37 30 38 31 39 81 40 32 41 86 42 80 43 82 44 33 45
REMARK SMILES IDX 85 46 79 47 78 48 34 50 66 51 46 52 65 53 47 54 50 55 64 56
REMARK SMILES IDX 83 57 48 58 49 59 63 61 84 62 51 63 35 64 36 65 44 66 37 67
REMARK SMILES IDX 38 68 42 69 45 70 39 71 40 72 43 73 41 74 67 75 68 76 76 77
REMARK SMILES IDX 69 78 70 79 74 80 77 81 71 82 72 83 75 84 73 85 52 86 53 87
REMARK SMILES IDX 61 88 54 89 55 90 59 91 62 92 56 93 57 94 60 95 58 96
REMARK H PARENT 18 5 7 17 23 30 82 49 50 60
REMARK Flexibility Score: inf
ROOT
ATOM      1  C   UNL A   1      33.320  28.907  23.073  1.00  0.00     0.116 C 
ENDROOT
BRANCH   1   2
ATOM      2  N   UNL A   1      32.062  29.276  22.462  1.00  0.00    -0.352 N 
ATOM      3  C   UNL A   1      30.882  28.580  22.423  1.00  0.00     0.251 C 
ATOM      4  O   UNL A   1      29.898  29.094  21.896  1.00  0.00    -0.269 OA
ATOM      5  H   UNL A   1      32.051  30.152  22.011  1.00  0.00     0.163 HD
BRANCH   3   6
ATOM      6  C   UNL A   1      30.759  27.244  23.055  1.00  0.00     0.039 A 
ATOM      7  C   UNL A   1      30.771  24.692  24.227  1.00  0.00    -0.031 A 
ATOM      8  C   UNL A   1      31.273  24.892  22.931  1.00  0.00     0.005 A 
ATOM      9  C   UNL A   1      30.173  25.767  24.891  1.00  0.00     0.005 A 
ATOM     10  C   UNL A   1      31.291  26.162  22.358  1.00  0.00     0.014 A 
ATOM     11  C   UNL A   1      30.202  27.043  24.322  1.00  0.00     0.014 A 
BRANCH   7  12
ATOM     12  C   UNL A   1      30.952  23.344  24.880  1.00  0.00     0.195 C 
BRANCH  12  13
ATOM     13  S   UNL A   1      32.253  23.355  26.143  1.00  0.00     0.238 S 
ATOM     14  O   UNL A   1      32.909  22.065  26.183  1.00  0.00    -0.206 OA
ATOM     15  O   UNL A   1      31.656  23.874  27.364  1.00  0.00    -0.206 OA
BRANCH  13  16
ATOM     16  N   UNL A   1      33.358  24.515  25.727  1.00  0.00    -0.267 N 
ATOM     17  H   UNL A   1      33.172  25.451  25.966  1.00  0.00     0.181 HD
BRANCH  16  18
ATOM     18  C   UNL A   1      34.552  24.215  25.045  1.00  0.00     0.139 A 
ATOM     19  C   UNL A   1      37.999  23.486  26.078  1.00  0.00     0.067 C 
ATOM     20  C   UNL A   1      36.771  23.600  25.222  1.00  0.00     0.040 A 
ATOM     21  C   UNL A   1      36.748  22.996  23.969  1.00  0.00     0.023 A 
ATOM     22  N   UNL A   1      35.685  24.203  25.768  1.00  0.00    -0.235 NA
ATOM     23  C   UNL A   1      35.572  23.035  23.233  1.00  0.00     0.006 A 
ATOM     24  C   UNL A   1      34.449  23.644  23.784  1.00  0.00     0.048 A 
ENDBRANCH  16  18
ENDBRANCH  13  16
ENDBRANCH  12  13
ENDBRANCH   7  12
ENDBRANCH   3   6
ENDBRANCH   1   2
BRANCH   1  25
ATOM     25  C   UNL A   1      33.282  29.172  24.578  1.00  0.00     0.023 C 
BRANCH  25  26
ATOM     26  C   UNL A   1      33.622  27.958  25.441  1.00  0.00     0.023 C 
BRANCH  26  27
ATOM     27  C   UNL A   1      33.679  28.240  26.935  1.00  0.00     0.116 C 
BRANCH  27  28
ATOM     28  N   UNL A   1      33.472  29.641  27.266  1.00  0.00    -0.352 N 
ATOM     29  C   UNL A   1      34.347  30.508  27.873  1.00  0.00     0.251 C 
ATOM     30  H   UNL A   1      32.594  30.016  27.023  1.00  0.00     0.163 HD
ATOM     31  O   UNL A   1      33.997  31.638  28.181  1.00  0.00    -0.269 OA
BRANCH  29  32
ATOM     32  C   UNL A   1      35.707  30.034  28.192  1.00  0.00     0.039 A 
ATOM     33  C   UNL A   1      36.706  30.179  27.229  1.00  0.00     0.014 A 
ATOM     34  C   UNL A   1      35.998  29.497  29.449  1.00  0.00     0.014 A 
ATOM     35  C   UNL A   1      38.018  29.834  27.549  1.00  0.00     0.010 A 
ATOM     36  C   UNL A   1      37.317  29.228  29.792  1.00  0.00     0.010 A 
ATOM     37  C   UNL A   1      38.337  29.385  28.843  1.00  0.00    -0.014 A 
BRANCH  37  38
ATOM     38  C   UNL A   1      39.738  29.068  29.207  1.00  0.00     0.031 A 
ATOM     39  C   UNL A   1      40.525  30.013  30.068  1.00  0.00     0.074 A 
ATOM     40  C   UNL A   1      40.308  27.946  28.727  1.00  0.00     0.049 A 
ATOM     41  N   UNL A   1      41.755  29.906  30.502  1.00  0.00    -0.248 NA
ATOM     42  C   UNL A   1      39.855  31.260  30.469  1.00  0.00     0.031 C 
ATOM     43  C   UNL A   1      39.663  26.990  27.825  1.00  0.00     0.029 A 
ATOM     44  N   UNL A   1      41.557  27.420  28.933  1.00  0.00    -0.354 N 
ATOM     45  C   UNL A   1      42.005  31.069  31.218  1.00  0.00     0.074 A 
ATOM     46  C   UNL A   1      40.825  31.897  31.106  1.00  0.00     0.031 C 
ATOM     47  C   UNL A   1      40.510  25.976  27.584  1.00  0.00     0.029 A 
ATOM     48  C   UNL A   1      41.760  26.221  28.294  1.00  0.00     0.049 A 
ATOM     49  H   UNL A   1      42.243  27.859  29.486  1.00  0.00     0.167 HD
ATOM     50  C   UNL A   1      43.107  31.402  31.930  1.00  0.00     0.037 A 
ATOM     51  C   UNL A   1      42.833  25.408  28.296  1.00  0.00     0.037 A 
ATOM     52  C   UNL A   1      44.266  30.560  32.059  1.00  0.00     0.049 A 
ATOM     53  C   UNL A   1      44.032  25.784  29.123  1.00  0.00     0.074 A 
ATOM     54  C   UNL A   1      45.413  30.777  32.801  1.00  0.00     0.029 A 
ATOM     55  N   UNL A   1      44.423  29.335  31.427  1.00  0.00    -0.354 N 
ATOM     56  N   UNL A   1      44.225  26.848  29.865  1.00  0.00    -0.248 NA
ATOM     57  C   UNL A   1      45.154  24.836  29.129  1.00  0.00     0.031 C 
ATOM     58  C   UNL A   1      46.281  29.699  32.590  1.00  0.00     0.029 A 
ATOM     59  C   UNL A   1      45.653  28.789  31.754  1.00  0.00     0.049 A 
ATOM     60  H   UNL A   1      43.758  28.916  30.835  1.00  0.00     0.167 HD
ATOM     61  C   UNL A   1      45.473  26.684  30.450  1.00  0.00     0.074 A 
ATOM     62  C   UNL A   1      45.984  25.409  29.987  1.00  0.00     0.031 C 
ATOM     63  C   UNL A   1      46.138  27.513  31.291  1.00  0.00     0.037 A 
BRANCH  50  64
ATOM     64  C   UNL A   1      43.102  32.729  32.633  1.00  0.00     0.064 A 
ATOM     65  C   UNL A   1      42.627  32.861  33.948  1.00  0.00     0.173 A 
ATOM     66  C   UNL A   1      43.596  33.876  31.996  1.00  0.00     0.173 A 
ATOM     67  F   UNL A   1      42.130  31.798  34.596  1.00  0.00    -0.203 F 
ATOM     68  C   UNL A   1      42.621  34.099  34.586  1.00  0.00     0.198 A 
ATOM     69  C   UNL A   1      43.617  35.105  32.649  1.00  0.00     0.198 A 
ATOM     70  F   UNL A   1      44.063  33.806  30.740  1.00  0.00    -0.203 F 
ATOM     71  F   UNL A   1      42.114  34.210  35.822  1.00  0.00    -0.200 F 
ATOM     72  C   UNL A   1      43.122  35.218  33.940  1.00  0.00     0.200 A 
ATOM     73  F   UNL A   1      44.111  36.186  32.027  1.00  0.00    -0.200 F 
ATOM     74  F   UNL A   1      43.119  36.407  34.557  1.00  0.00    -0.200 F 
ENDBRANCH  50  64
BRANCH  51  75
ATOM     75  C   UNL A   1      42.799  24.132  27.536  1.00  0.00     0.064 A 
ATOM     76  C   UNL A   1      43.112  24.101  26.169  1.00  0.00     0.173 A 
ATOM     77  C   UNL A   1      42.455  22.921  28.155  1.00  0.00     0.173 A 
ATOM     78  F   UNL A   1      43.431  25.236  25.530  1.00  0.00    -0.203 F 
ATOM     79  C   UNL A   1      43.059  22.912  25.446  1.00  0.00     0.198 A 
ATOM     80  C   UNL A   1      42.429  21.728  27.435  1.00  0.00     0.198 A 
ATOM     81  F   UNL A   1      42.157  22.897  29.462  1.00  0.00    -0.203 F 
ATOM     82  F   UNL A   1      43.317  22.919  24.131  1.00  0.00    -0.200 F 
ATOM     83  C   UNL A   1      42.722  21.726  26.080  1.00  0.00     0.200 A 
ATOM     84  F   UNL A   1      42.118  20.582  28.054  1.00  0.00    -0.200 F 
ATOM     85  F   UNL A   1      42.674  20.582  25.383  1.00  0.00    -0.200 F 
ENDBRANCH  51  75
BRANCH  63  86
ATOM     86  C   UNL A   1      47.471  27.047  31.799  1.00  0.00     0.064 A 
ATOM     87  C   UNL A   1      47.587  26.260  32.954  1.00  0.00     0.173 A 
ATOM     88  C   UNL A   1      48.645  27.371  31.104  1.00  0.00     0.173 A 
ATOM     89  F   UNL A   1      46.494  25.935  33.661  1.00  0.00    -0.203 F 
ATOM     90  C   UNL A   1      48.833  25.844  33.413  1.00  0.00     0.198 A 
ATOM     91  C   UNL A   1      49.887  26.927  31.548  1.00  0.00     0.198 A 
ATOM     92  F   UNL A   1      48.588  28.114  29.988  1.00  0.00    -0.203 F 
ATOM     93  F   UNL A   1      48.925  25.139  34.550  1.00  0.00    -0.200 F 
ATOM     94  C   UNL A   1      49.981  26.172  32.708  1.00  0.00     0.200 A 
ATOM     95  F   UNL A   1      50.993  27.234  30.857  1.00  0.00    -0.200 F 
ATOM     96  F   UNL A   1      51.179  25.768  33.150  1.00  0.00    -0.200 F 
ENDBRANCH  63  86
ENDBRANCH  37  38
ENDBRANCH  29  32
ENDBRANCH  27  28
ENDBRANCH  26  27
ENDBRANCH  25  26
ENDBRANCH   1  25
TORSDOF 15
ENDMDL
