MODEL 1
REMARK VINA RESULT:     -12.0      0.000      0.000
REMARK SMILES CC(C)[C@H](CO)NS(=O)(=O)c1ccc(C(=O)NCCCCNC(=O)c2ccc(-c3c4nc(c(-c5c(F)c(F)c(F)c(F)c5F)c5ccc([nH]5)c(-c5c(F)c(F)c(F)c(F)c5F)c5nc(c(-c6c(F)c(F)c(F)c(F)c6F)c6ccc3[nH]6)C=C5)C=C4)cc2)cn1
REMARK SMILES IDX 18 1 17 2 15 3 16 4 14 6 11 7 12 8 89 9 13 10 88 11 8 12
REMARK SMILES IDX 9 13 10 14 7 15 4 17 2 18 1 19 3 20 5 21 6 22 19 24 20 25
REMARK SMILES IDX 21 26 22 27 23 28 24 30 25 31 26 32 87 33 27 34 86 35 28 36
REMARK SMILES IDX 29 37 30 38 80 39 31 40 85 41 79 42 81 43 32 44 84 45 78 46
REMARK SMILES IDX 77 47 33 49 65 50 45 51 64 52 46 53 49 54 63 55 82 56 47 57
REMARK SMILES IDX 48 58 62 60 83 61 50 62 34 63 35 64 43 65 36 66 37 67 41 68
REMARK SMILES IDX 44 69 38 70 39 71 42 72 40 73 66 74 67 75 75 76 68 77 69 78
REMARK SMILES IDX 73 79 76 80 70 81 71 82 74 83 72 84 51 85 52 86 60 87 53 88
REMARK SMILES IDX 54 89 58 90 61 91 55 92 56 93 59 94 57 95
REMARK H PARENT 17 5 7 16 6 23 22 29 81 48 49 59
REMARK Flexibility Score: inf
ROOT
ATOM      1  C   UNL A   1      37.175  22.339  25.722  1.00  0.00     0.116 C 
ENDROOT
BRANCH   1   2
ATOM      2  N   UNL A   1      35.946  22.248  26.483  1.00  0.00    -0.352 N 
ATOM      3  C   UNL A   1      34.693  22.755  26.249  1.00  0.00     0.252 C 
ATOM      4  O   UNL A   1      33.809  22.505  27.068  1.00  0.00    -0.269 OA
ATOM      5  H   UNL A   1      36.022  21.730  27.316  1.00  0.00     0.163 HD
BRANCH   3   6
ATOM      6  C   UNL A   1      34.345  23.547  25.042  1.00  0.00     0.058 A 
ATOM      7  C   UNL A   1      33.669  25.236  22.994  1.00  0.00     0.170 A 
ATOM      8  C   UNL A   1      33.581  23.876  22.768  1.00  0.00     0.043 A 
ATOM      9  N   UNL A   1      34.109  25.798  24.149  1.00  0.00    -0.243 NA
ATOM     10  C   UNL A   1      33.962  23.026  23.802  1.00  0.00     0.018 A 
ATOM     11  C   UNL A   1      34.429  24.934  25.146  1.00  0.00     0.126 A 
BRANCH   7  12
ATOM     12  S   UNL A   1      33.145  26.383  21.728  1.00  0.00     0.258 S 
ATOM     13  O   UNL A   1      33.074  25.696  20.462  1.00  0.00    -0.205 OA
ATOM     14  O   UNL A   1      33.965  27.576  21.850  1.00  0.00    -0.205 OA
BRANCH  12  15
ATOM     15  N   UNL A   1      31.572  26.879  22.142  1.00  0.00    -0.204 NA
ATOM     16  H   UNL A   1      31.113  27.139  21.268  1.00  0.00     0.141 HD
BRANCH  15  17
ATOM     17  C   UNL A   1      31.338  28.013  23.099  1.00  0.00     0.098 C 
BRANCH  17  18
ATOM     18  C   UNL A   1      30.706  27.554  24.441  1.00  0.00     0.003 C 
ATOM     19  C   UNL A   1      30.283  26.085  24.461  1.00  0.00     0.009 C 
ATOM     20  C   UNL A   1      31.695  27.763  25.601  1.00  0.00     0.009 C 
ENDBRANCH  17  18
BRANCH  17  21
ATOM     21  C   UNL A   1      30.401  28.996  22.340  1.00  0.00     0.176 C 
BRANCH  21  22
ATOM     22  O   UNL A   1      31.161  29.902  21.536  1.00  0.00    -0.395 OA
ATOM     23  H   UNL A   1      30.984  29.731  20.599  1.00  0.00     0.210 HD
ENDBRANCH  21  22
ENDBRANCH  17  21
ENDBRANCH  15  17
ENDBRANCH  12  15
ENDBRANCH   7  12
ENDBRANCH   3   6
ENDBRANCH   1   2
BRANCH   1  24
ATOM     24  C   UNL A   1      37.203  21.271  24.625  1.00  0.00     0.023 C 
BRANCH  24  25
ATOM     25  C   UNL A   1      38.020  20.031  24.985  1.00  0.00     0.023 C 
BRANCH  25  26
ATOM     26  C   UNL A   1      39.281  20.318  25.787  1.00  0.00     0.116 C 
BRANCH  26  27
ATOM     27  N   UNL A   1      40.193  19.186  25.854  1.00  0.00    -0.352 N 
ATOM     28  C   UNL A   1      41.549  19.201  26.078  1.00  0.00     0.251 C 
ATOM     29  H   UNL A   1      39.789  18.297  25.722  1.00  0.00     0.163 HD
ATOM     30  O   UNL A   1      42.211  18.174  25.995  1.00  0.00    -0.269 OA
BRANCH  28  31
ATOM     31  C   UNL A   1      42.201  20.489  26.376  1.00  0.00     0.039 A 
ATOM     32  C   UNL A   1      42.678  21.264  25.318  1.00  0.00     0.014 A 
ATOM     33  C   UNL A   1      42.278  20.955  27.692  1.00  0.00     0.014 A 
ATOM     34  C   UNL A   1      43.173  22.542  25.575  1.00  0.00     0.010 A 
ATOM     35  C   UNL A   1      42.692  22.258  27.935  1.00  0.00     0.010 A 
ATOM     36  C   UNL A   1      43.147  23.063  26.880  1.00  0.00    -0.014 A 
BRANCH  36  37
ATOM     37  C   UNL A   1      43.594  24.450  27.159  1.00  0.00     0.031 A 
ATOM     38  C   UNL A   1      42.617  25.461  27.691  1.00  0.00     0.074 A 
ATOM     39  C   UNL A   1      44.860  24.812  26.876  1.00  0.00     0.049 A 
ATOM     40  N   UNL A   1      42.798  26.732  27.947  1.00  0.00    -0.248 NA
ATOM     41  C   UNL A   1      41.246  24.988  27.940  1.00  0.00     0.031 C 
ATOM     42  C   UNL A   1      45.884  23.934  26.306  1.00  0.00     0.029 A 
ATOM     43  N   UNL A   1      45.501  26.017  27.022  1.00  0.00    -0.354 N 
ATOM     44  C   UNL A   1      41.566  27.208  28.375  1.00  0.00     0.074 A 
ATOM     45  C   UNL A   1      40.630  26.110  28.283  1.00  0.00     0.031 C 
ATOM     46  C   UNL A   1      47.030  24.621  26.176  1.00  0.00     0.029 A 
ATOM     47  C   UNL A   1      46.812  25.996  26.614  1.00  0.00     0.049 A 
ATOM     48  H   UNL A   1      45.062  26.820  27.385  1.00  0.00     0.167 HD
ATOM     49  C   UNL A   1      41.252  28.445  28.829  1.00  0.00     0.037 A 
ATOM     50  C   UNL A   1      47.732  26.979  26.592  1.00  0.00     0.037 A 
ATOM     51  C   UNL A   1      42.193  29.528  28.937  1.00  0.00     0.049 A 
ATOM     52  C   UNL A   1      47.353  28.347  27.093  1.00  0.00     0.074 A 
ATOM     53  C   UNL A   1      41.989  30.800  29.441  1.00  0.00     0.029 A 
ATOM     54  N   UNL A   1      43.518  29.465  28.529  1.00  0.00    -0.354 N 
ATOM     55  N   UNL A   1      46.205  28.766  27.569  1.00  0.00    -0.248 NA
ATOM     56  C   UNL A   1      48.401  29.376  27.062  1.00  0.00     0.031 C 
ATOM     57  C   UNL A   1      43.175  31.526  29.286  1.00  0.00     0.029 A 
ATOM     58  C   UNL A   1      44.137  30.687  28.746  1.00  0.00     0.049 A 
ATOM     59  H   UNL A   1      43.954  28.671  28.144  1.00  0.00     0.167 HD
ATOM     60  C   UNL A   1      46.401  30.095  27.923  1.00  0.00     0.074 A 
ATOM     61  C   UNL A   1      47.783  30.407  27.623  1.00  0.00     0.031 C 
ATOM     62  C   UNL A   1      45.516  30.977  28.448  1.00  0.00     0.037 A 
BRANCH  49  63
ATOM     63  C   UNL A   1      39.830  28.692  29.245  1.00  0.00     0.064 A 
ATOM     64  C   UNL A   1      39.396  28.468  30.561  1.00  0.00     0.173 A 
ATOM     65  C   UNL A   1      38.896  29.193  28.325  1.00  0.00     0.173 A 
ATOM     66  F   UNL A   1      40.244  27.977  31.478  1.00  0.00    -0.203 F 
ATOM     67  C   UNL A   1      38.075  28.707  30.932  1.00  0.00     0.198 A 
ATOM     68  C   UNL A   1      37.585  29.464  28.708  1.00  0.00     0.198 A 
ATOM     69  F   UNL A   1      39.257  29.429  27.055  1.00  0.00    -0.203 F 
ATOM     70  F   UNL A   1      37.672  28.434  32.180  1.00  0.00    -0.200 F 
ATOM     71  C   UNL A   1      37.173  29.213  30.008  1.00  0.00     0.200 A 
ATOM     72  F   UNL A   1      36.719  29.966  27.817  1.00  0.00    -0.200 F 
ATOM     73  F   UNL A   1      35.905  29.451  30.369  1.00  0.00    -0.200 F 
ENDBRANCH  49  63
BRANCH  50  74
ATOM     74  C   UNL A   1      49.108  26.703  26.096  1.00  0.00     0.064 A 
ATOM     75  C   UNL A   1      49.471  26.999  24.775  1.00  0.00     0.173 A 
ATOM     76  C   UNL A   1      50.081  26.127  26.926  1.00  0.00     0.173 A 
ATOM     77  F   UNL A   1      48.570  27.533  23.937  1.00  0.00    -0.203 F 
ATOM     78  C   UNL A   1      50.746  26.704  24.294  1.00  0.00     0.198 A 
ATOM     79  C   UNL A   1      51.365  25.863  26.454  1.00  0.00     0.198 A 
ATOM     80  F   UNL A   1      49.788  25.831  28.200  1.00  0.00    -0.203 F 
ATOM     81  F   UNL A   1      51.048  26.948  23.013  1.00  0.00    -0.200 F 
ATOM     82  C   UNL A   1      51.694  26.142  25.136  1.00  0.00     0.200 A 
ATOM     83  F   UNL A   1      52.283  25.336  27.275  1.00  0.00    -0.200 F 
ATOM     84  F   UNL A   1      52.919  25.861  24.674  1.00  0.00    -0.200 F 
ENDBRANCH  50  74
BRANCH  62  85
ATOM     85  C   UNL A   1      46.026  32.353  28.774  1.00  0.00     0.064 A 
ATOM     86  C   UNL A   1      46.606  32.653  30.014  1.00  0.00     0.173 A 
ATOM     87  C   UNL A   1      45.966  33.375  27.813  1.00  0.00     0.173 A 
ATOM     88  F   UNL A   1      46.676  31.715  30.971  1.00  0.00    -0.203 F 
ATOM     89  C   UNL A   1      47.079  33.933  30.293  1.00  0.00     0.198 A 
ATOM     90  C   UNL A   1      46.471  34.644  28.082  1.00  0.00     0.198 A 
ATOM     91  F   UNL A   1      45.427  33.139  26.607  1.00  0.00    -0.203 F 
ATOM     92  F   UNL A   1      47.579  34.211  31.505  1.00  0.00    -0.200 F 
ATOM     93  C   UNL A   1      47.018  34.924  29.324  1.00  0.00     0.200 A 
ATOM     94  F   UNL A   1      46.427  35.594  27.138  1.00  0.00    -0.200 F 
ATOM     95  F   UNL A   1      47.482  36.153  29.592  1.00  0.00    -0.200 F 
ENDBRANCH  62  85
ENDBRANCH  36  37
ENDBRANCH  28  31
ENDBRANCH  26  27
ENDBRANCH  25  26
ENDBRANCH  24  25
ENDBRANCH   1  24
TORSDOF 17
ENDMDL
MODEL 2
REMARK VINA RESULT:     -12.0      0.517      2.087
REMARK SMILES CC(C)[C@H](CO)NS(=O)(=O)c1ccc(C(=O)NCCCCNC(=O)c2ccc(-c3c4nc(c(-c5c(F)c(F)c(F)c(F)c5F)c5ccc([nH]5)c(-c5c(F)c(F)c(F)c(F)c5F)c5nc(c(-c6c(F)c(F)c(F)c(F)c6F)c6ccc3[nH]6)C=C5)C=C4)cc2)cn1
REMARK SMILES IDX 18 1 17 2 15 3 16 4 14 6 11 7 12 8 89 9 13 10 88 11 8 12
REMARK SMILES IDX 9 13 10 14 7 15 4 17 2 18 1 19 3 20 5 21 6 22 19 24 20 25
REMARK SMILES IDX 21 26 22 27 23 28 24 30 25 31 26 32 87 33 27 34 86 35 28 36
REMARK SMILES IDX 29 37 30 38 80 39 31 40 85 41 79 42 81 43 32 44 84 45 78 46
REMARK SMILES IDX 77 47 33 49 65 50 45 51 64 52 46 53 49 54 63 55 82 56 47 57
REMARK SMILES IDX 48 58 62 60 83 61 50 62 34 63 35 64 43 65 36 66 37 67 41 68
REMARK SMILES IDX 44 69 38 70 39 71 42 72 40 73 66 74 67 75 75 76 68 77 69 78
REMARK SMILES IDX 73 79 76 80 70 81 71 82 74 83 72 84 51 85 52 86 60 87 53 88
REMARK SMILES IDX 54 89 58 90 61 91 55 92 56 93 59 94 57 95
REMARK H PARENT 17 5 7 16 6 23 22 29 81 48 49 59
REMARK Flexibility Score: inf
ROOT
ATOM      1  C   UNL A   1      36.731  22.163  25.762  1.00  0.00     0.116 C 
ENDROOT
BRANCH   1   2
ATOM      2  N   UNL A   1      35.620  22.250  26.687  1.00  0.00    -0.352 N 
ATOM      3  C   UNL A   1      34.462  22.985  26.650  1.00  0.00     0.252 C 
ATOM      4  O   UNL A   1      33.665  22.850  27.578  1.00  0.00    -0.269 OA
ATOM      5  H   UNL A   1      35.711  21.680  27.484  1.00  0.00     0.163 HD
BRANCH   3   6
ATOM      6  C   UNL A   1      34.107  23.892  25.530  1.00  0.00     0.058 A 
ATOM      7  C   UNL A   1      33.439  25.328  23.294  1.00  0.00     0.170 A 
ATOM      8  C   UNL A   1      34.012  26.006  24.353  1.00  0.00     0.043 A 
ATOM      9  N   UNL A   1      33.142  24.003  23.299  1.00  0.00    -0.243 NA
ATOM     10  C   UNL A   1      34.315  25.274  25.498  1.00  0.00     0.018 A 
ATOM     11  C   UNL A   1      33.493  23.319  24.417  1.00  0.00     0.126 A 
BRANCH   7  12
ATOM     12  S   UNL A   1      33.076  26.195  21.775  1.00  0.00     0.258 S 
ATOM     13  O   UNL A   1      33.203  25.284  20.663  1.00  0.00    -0.205 OA
ATOM     14  O   UNL A   1      33.843  27.429  21.780  1.00  0.00    -0.205 OA
BRANCH  12  15
ATOM     15  N   UNL A   1      31.449  26.681  21.868  1.00  0.00    -0.204 NA
ATOM     16  H   UNL A   1      31.342  27.454  21.211  1.00  0.00     0.141 HD
BRANCH  15  17
ATOM     17  C   UNL A   1      30.844  27.137  23.166  1.00  0.00     0.098 C 
BRANCH  17  18
ATOM     18  C   UNL A   1      29.898  26.082  23.799  1.00  0.00     0.003 C 
ATOM     19  C   UNL A   1      30.319  25.626  25.196  1.00  0.00     0.009 C 
ATOM     20  C   UNL A   1      28.468  26.639  23.910  1.00  0.00     0.009 C 
ENDBRANCH  17  18
BRANCH  17  21
ATOM     21  C   UNL A   1      30.078  28.446  22.816  1.00  0.00     0.176 C 
BRANCH  21  22
ATOM     22  O   UNL A   1      30.492  28.950  21.544  1.00  0.00    -0.395 OA
ATOM     23  H   UNL A   1      30.541  29.918  21.579  1.00  0.00     0.210 HD
ENDBRANCH  21  22
ENDBRANCH  17  21
ENDBRANCH  15  17
ENDBRANCH  12  15
ENDBRANCH   7  12
ENDBRANCH   3   6
ENDBRANCH   1   2
BRANCH   1  24
ATOM     24  C   UNL A   1      36.746  20.795  25.074  1.00  0.00     0.023 C 
BRANCH  24  25
ATOM     25  C   UNL A   1      38.144  20.297  24.710  1.00  0.00     0.023 C 
BRANCH  25  26
ATOM     26  C   UNL A   1      39.165  20.405  25.835  1.00  0.00     0.116 C 
BRANCH  26  27
ATOM     27  N   UNL A   1      40.064  19.264  25.912  1.00  0.00    -0.352 N 
ATOM     28  C   UNL A   1      41.420  19.266  26.132  1.00  0.00     0.251 C 
ATOM     29  H   UNL A   1      39.648  18.379  25.790  1.00  0.00     0.163 HD
ATOM     30  O   UNL A   1      42.070  18.229  26.058  1.00  0.00    -0.269 OA
BRANCH  28  31
ATOM     31  C   UNL A   1      42.088  20.549  26.414  1.00  0.00     0.039 A 
ATOM     32  C   UNL A   1      42.495  21.346  25.344  1.00  0.00     0.014 A 
ATOM     33  C   UNL A   1      42.248  20.987  27.732  1.00  0.00     0.014 A 
ATOM     34  C   UNL A   1      43.004  22.621  25.596  1.00  0.00     0.010 A 
ATOM     35  C   UNL A   1      42.675  22.286  27.975  1.00  0.00     0.010 A 
ATOM     36  C   UNL A   1      43.061  23.114  26.910  1.00  0.00    -0.014 A 
BRANCH  36  37
ATOM     37  C   UNL A   1      43.522  24.496  27.189  1.00  0.00     0.031 A 
ATOM     38  C   UNL A   1      42.556  25.518  27.719  1.00  0.00     0.074 A 
ATOM     39  C   UNL A   1      44.793  24.844  26.907  1.00  0.00     0.049 A 
ATOM     40  N   UNL A   1      42.751  26.787  27.976  1.00  0.00    -0.248 NA
ATOM     41  C   UNL A   1      41.179  25.061  27.968  1.00  0.00     0.031 C 
ATOM     42  C   UNL A   1      45.807  23.955  26.338  1.00  0.00     0.029 A 
ATOM     43  N   UNL A   1      45.446  26.042  27.053  1.00  0.00    -0.354 N 
ATOM     44  C   UNL A   1      41.524  27.277  28.402  1.00  0.00     0.074 A 
ATOM     45  C   UNL A   1      40.576  26.189  28.310  1.00  0.00     0.031 C 
ATOM     46  C   UNL A   1      46.961  24.629  26.209  1.00  0.00     0.029 A 
ATOM     47  C   UNL A   1      46.758  26.007  26.646  1.00  0.00     0.049 A 
ATOM     48  H   UNL A   1      45.016  26.850  27.414  1.00  0.00     0.167 HD
ATOM     49  C   UNL A   1      41.223  28.517  28.855  1.00  0.00     0.037 A 
ATOM     50  C   UNL A   1      47.689  26.979  26.623  1.00  0.00     0.037 A 
ATOM     51  C   UNL A   1      42.176  29.590  28.964  1.00  0.00     0.049 A 
ATOM     52  C   UNL A   1      47.324  28.352  27.124  1.00  0.00     0.074 A 
ATOM     53  C   UNL A   1      41.986  30.865  29.467  1.00  0.00     0.029 A 
ATOM     54  N   UNL A   1      43.500  29.513  28.557  1.00  0.00    -0.354 N 
ATOM     55  N   UNL A   1      46.181  28.784  27.599  1.00  0.00    -0.248 NA
ATOM     56  C   UNL A   1      48.383  29.370  27.094  1.00  0.00     0.031 C 
ATOM     57  C   UNL A   1      43.179  31.578  29.312  1.00  0.00     0.029 A 
ATOM     58  C   UNL A   1      44.133  30.727  28.773  1.00  0.00     0.049 A 
ATOM     59  H   UNL A   1      43.928  28.714  28.172  1.00  0.00     0.167 HD
ATOM     60  C   UNL A   1      46.391  30.111  27.952  1.00  0.00     0.074 A 
ATOM     61  C   UNL A   1      47.776  30.407  27.653  1.00  0.00     0.031 C 
ATOM     62  C   UNL A   1      45.515  31.003  28.477  1.00  0.00     0.037 A 
BRANCH  49  63
ATOM     63  C   UNL A   1      39.804  28.780  29.270  1.00  0.00     0.064 A 
ATOM     64  C   UNL A   1      38.852  29.282  28.368  1.00  0.00     0.173 A 
ATOM     65  C   UNL A   1      39.379  28.494  30.576  1.00  0.00     0.173 A 
ATOM     66  F   UNL A   1      39.207  29.585  27.110  1.00  0.00    -0.203 F 
ATOM     67  C   UNL A   1      37.538  29.515  28.766  1.00  0.00     0.198 A 
ATOM     68  C   UNL A   1      38.056  28.696  30.962  1.00  0.00     0.198 A 
ATOM     69  F   UNL A   1      40.245  28.009  31.479  1.00  0.00    -0.203 F 
ATOM     70  F   UNL A   1      36.662  30.045  27.902  1.00  0.00    -0.200 F 
ATOM     71  C   UNL A   1      37.139  29.214  30.059  1.00  0.00     0.200 A 
ATOM     72  F   UNL A   1      37.669  28.391  32.208  1.00  0.00    -0.200 F 
ATOM     73  F   UNL A   1      35.873  29.431  30.439  1.00  0.00    -0.200 F 
ENDBRANCH  49  63
BRANCH  50  74
ATOM     74  C   UNL A   1      49.061  26.688  26.129  1.00  0.00     0.064 A 
ATOM     75  C   UNL A   1      50.024  26.115  26.972  1.00  0.00     0.173 A 
ATOM     76  C   UNL A   1      49.442  26.986  24.813  1.00  0.00     0.173 A 
ATOM     77  F   UNL A   1      49.714  25.828  28.245  1.00  0.00    -0.203 F 
ATOM     78  C   UNL A   1      51.323  25.878  26.526  1.00  0.00     0.198 A 
ATOM     79  C   UNL A   1      50.732  26.718  24.358  1.00  0.00     0.198 A 
ATOM     80  F   UNL A   1      48.558  27.528  23.964  1.00  0.00    -0.203 F 
ATOM     81  F   UNL A   1      52.237  25.380  27.369  1.00  0.00    -0.200 F 
ATOM     82  C   UNL A   1      51.674  26.174  25.217  1.00  0.00     0.200 A 
ATOM     83  F   UNL A   1      51.062  26.991  23.088  1.00  0.00    -0.200 F 
ATOM     84  F   UNL A   1      52.922  25.944  24.788  1.00  0.00    -0.200 F 
ENDBRANCH  50  74
BRANCH  62  85
ATOM     85  C   UNL A   1      46.040  32.373  28.802  1.00  0.00     0.064 A 
ATOM     86  C   UNL A   1      45.981  33.426  27.877  1.00  0.00     0.173 A 
ATOM     87  C   UNL A   1      46.573  32.643  30.071  1.00  0.00     0.173 A 
ATOM     88  F   UNL A   1      45.493  33.216  26.645  1.00  0.00    -0.203 F 
ATOM     89  C   UNL A   1      46.467  34.690  28.201  1.00  0.00     0.198 A 
ATOM     90  C   UNL A   1      47.025  33.917  30.404  1.00  0.00     0.198 A 
ATOM     91  F   UNL A   1      46.645  31.673  30.996  1.00  0.00    -0.203 F 
ATOM     92  F   UNL A   1      46.451  35.666  27.283  1.00  0.00    -0.200 F 
ATOM     93  C   UNL A   1      46.980  34.937  29.466  1.00  0.00     0.200 A 
ATOM     94  F   UNL A   1      47.503  34.157  31.633  1.00  0.00    -0.200 F 
ATOM     95  F   UNL A   1      47.438  36.157  29.779  1.00  0.00    -0.200 F 
ENDBRANCH  62  85
ENDBRANCH  36  37
ENDBRANCH  28  31
ENDBRANCH  26  27
ENDBRANCH  25  26
ENDBRANCH  24  25
ENDBRANCH   1  24
TORSDOF 17
ENDMDL
MODEL 3
REMARK VINA RESULT:     -11.9      5.649     11.254
REMARK SMILES CC(C)[C@H](CO)NS(=O)(=O)c1ccc(C(=O)NCCCCNC(=O)c2ccc(-c3c4nc(c(-c5c(F)c(F)c(F)c(F)c5F)c5ccc([nH]5)c(-c5c(F)c(F)c(F)c(F)c5F)c5nc(c(-c6c(F)c(F)c(F)c(F)c6F)c6ccc3[nH]6)C=C5)C=C4)cc2)cn1
REMARK SMILES IDX 18 1 17 2 15 3 16 4 14 6 11 7 12 8 89 9 13 10 88 11 8 12
REMARK SMILES IDX 9 13 10 14 7 15 4 17 2 18 1 19 3 20 5 21 6 22 19 24 20 25
REMARK SMILES IDX 21 26 22 27 23 28 24 30 25 31 26 32 87 33 27 34 86 35 28 36
REMARK SMILES IDX 29 37 30 38 80 39 31 40 85 41 79 42 81 43 32 44 84 45 78 46
REMARK SMILES IDX 77 47 33 49 65 50 45 51 64 52 46 53 49 54 63 55 82 56 47 57
REMARK SMILES IDX 48 58 62 60 83 61 50 62 34 63 35 64 43 65 36 66 37 67 41 68
REMARK SMILES IDX 44 69 38 70 39 71 42 72 40 73 66 74 67 75 75 76 68 77 69 78
REMARK SMILES IDX 73 79 76 80 70 81 71 82 74 83 72 84 51 85 52 86 60 87 53 88
REMARK SMILES IDX 54 89 58 90 61 91 55 92 56 93 59 94 57 95
REMARK H PARENT 17 5 7 16 6 23 22 29 81 48 49 59
REMARK Flexibility Score: inf
ROOT
ATOM      1  C   UNL A   1      31.408  29.823  25.358  1.00  0.00     0.116 C 
ENDROOT
BRANCH   1   2
ATOM      2  N   UNL A   1      32.371  29.503  24.323  1.00  0.00    -0.352 N 
ATOM      3  C   UNL A   1      32.984  28.323  23.985  1.00  0.00     0.252 C 
ATOM      4  O   UNL A   1      33.761  28.332  23.031  1.00  0.00    -0.269 OA
ATOM      5  H   UNL A   1      32.630  30.269  23.762  1.00  0.00     0.163 HD
BRANCH   3   6
ATOM      6  C   UNL A   1      32.722  27.039  24.682  1.00  0.00     0.058 A 
ATOM      7  C   UNL A   1      31.954  24.723  25.928  1.00  0.00     0.170 A 
ATOM      8  C   UNL A   1      33.235  25.189  26.158  1.00  0.00     0.043 A 
ATOM      9  N   UNL A   1      31.060  25.309  25.091  1.00  0.00    -0.243 NA
ATOM     10  C   UNL A   1      33.627  26.347  25.492  1.00  0.00     0.018 A 
ATOM     11  C   UNL A   1      31.468  26.459  24.496  1.00  0.00     0.126 A 
BRANCH   7  12
ATOM     12  S   UNL A   1      31.367  23.274  26.792  1.00  0.00     0.258 S 
ATOM     13  O   UNL A   1      30.004  23.488  27.212  1.00  0.00    -0.205 OA
ATOM     14  O   UNL A   1      32.371  22.915  27.779  1.00  0.00    -0.205 OA
BRANCH  12  15
ATOM     15  N   UNL A   1      31.374  21.999  25.667  1.00  0.00    -0.204 NA
ATOM     16  H   UNL A   1      31.310  21.137  26.208  1.00  0.00     0.141 HD
BRANCH  15  17
ATOM     17  C   UNL A   1      32.511  21.815  24.703  1.00  0.00     0.098 C 
BRANCH  17  18
ATOM     18  C   UNL A   1      32.198  22.356  23.283  1.00  0.00     0.003 C 
ATOM     19  C   UNL A   1      33.291  23.254  22.702  1.00  0.00     0.009 C 
ATOM     20  C   UNL A   1      31.988  21.192  22.297  1.00  0.00     0.009 C 
ENDBRANCH  17  18
BRANCH  17  21
ATOM     21  C   UNL A   1      32.775  20.282  24.679  1.00  0.00     0.176 C 
BRANCH  21  22
ATOM     22  O   UNL A   1      32.057  19.627  25.728  1.00  0.00    -0.395 OA
ATOM     23  H   UNL A   1      31.365  19.067  25.346  1.00  0.00     0.210 HD
ENDBRANCH  21  22
ENDBRANCH  17  21
ENDBRANCH  15  17
ENDBRANCH  12  15
ENDBRANCH   7  12
ENDBRANCH   3   6
ENDBRANCH   1   2
BRANCH   1  24
ATOM     24  C   UNL A   1      32.113  30.443  26.567  1.00  0.00     0.023 C 
BRANCH  24  25
ATOM     25  C   UNL A   1      31.720  31.895  26.837  1.00  0.00     0.023 C 
BRANCH  25  26
ATOM     26  C   UNL A   1      32.870  32.786  27.289  1.00  0.00     0.116 C 
BRANCH  26  27
ATOM     27  N   UNL A   1      32.455  34.141  27.620  1.00  0.00    -0.352 N 
ATOM     28  C   UNL A   1      32.961  34.968  28.594  1.00  0.00     0.251 C 
ATOM     29  H   UNL A   1      31.721  34.512  27.079  1.00  0.00     0.163 HD
ATOM     30  O   UNL A   1      32.435  36.048  28.836  1.00  0.00    -0.269 OA
BRANCH  28  31
ATOM     31  C   UNL A   1      34.122  34.509  29.378  1.00  0.00     0.039 A 
ATOM     32  C   UNL A   1      33.905  33.919  30.623  1.00  0.00     0.014 A 
ATOM     33  C   UNL A   1      35.413  34.604  28.848  1.00  0.00     0.014 A 
ATOM     34  C   UNL A   1      34.982  33.360  31.312  1.00  0.00     0.010 A 
ATOM     35  C   UNL A   1      36.467  33.974  29.496  1.00  0.00     0.010 A 
ATOM     36  C   UNL A   1      36.263  33.348  30.735  1.00  0.00    -0.014 A 
BRANCH  36  37
ATOM     37  C   UNL A   1      37.403  32.686  31.416  1.00  0.00     0.031 A 
ATOM     38  C   UNL A   1      38.096  31.524  30.762  1.00  0.00     0.074 A 
ATOM     39  C   UNL A   1      37.771  33.092  32.646  1.00  0.00     0.049 A 
ATOM     40  N   UNL A   1      39.073  30.780  31.216  1.00  0.00    -0.248 NA
ATOM     41  C   UNL A   1      37.608  31.125  29.432  1.00  0.00     0.031 C 
ATOM     42  C   UNL A   1      37.138  34.172  33.405  1.00  0.00     0.029 A 
ATOM     43  N   UNL A   1      38.762  32.638  33.479  1.00  0.00    -0.354 N 
ATOM     44  C   UNL A   1      39.305  29.824  30.236  1.00  0.00     0.074 A 
ATOM     45  C   UNL A   1      38.328  30.039  29.193  1.00  0.00     0.031 C 
ATOM     46  C   UNL A   1      37.774  34.316  34.579  1.00  0.00     0.029 A 
ATOM     47  C   UNL A   1      38.830  33.313  34.674  1.00  0.00     0.049 A 
ATOM     48  H   UNL A   1      39.368  31.898  33.244  1.00  0.00     0.167 HD
ATOM     49  C   UNL A   1      40.265  28.870  30.200  1.00  0.00     0.037 A 
ATOM     50  C   UNL A   1      39.649  33.137  35.728  1.00  0.00     0.037 A 
ATOM     51  C   UNL A   1      41.248  28.675  31.233  1.00  0.00     0.049 A 
ATOM     52  C   UNL A   1      40.701  32.063  35.665  1.00  0.00     0.074 A 
ATOM     53  C   UNL A   1      42.300  27.777  31.263  1.00  0.00     0.029 A 
ATOM     54  N   UNL A   1      41.295  29.388  32.422  1.00  0.00    -0.354 N 
ATOM     55  N   UNL A   1      40.962  31.215  34.700  1.00  0.00    -0.248 NA
ATOM     56  C   UNL A   1      41.579  31.927  36.835  1.00  0.00     0.031 C 
ATOM     57  C   UNL A   1      42.950  27.907  32.495  1.00  0.00     0.029 A 
ATOM     58  C   UNL A   1      42.343  28.932  33.205  1.00  0.00     0.049 A 
ATOM     59  H   UNL A   1      40.677  30.112  32.672  1.00  0.00     0.167 HD
ATOM     60  C   UNL A   1      42.051  30.468  35.131  1.00  0.00     0.074 A 
ATOM     61  C   UNL A   1      42.412  30.975  36.438  1.00  0.00     0.031 C 
ATOM     62  C   UNL A   1      42.694  29.454  34.502  1.00  0.00     0.037 A 
BRANCH  49  63
ATOM     63  C   UNL A   1      40.301  27.965  29.002  1.00  0.00     0.064 A 
ATOM     64  C   UNL A   1      41.060  28.277  27.863  1.00  0.00     0.173 A 
ATOM     65  C   UNL A   1      39.595  26.752  29.005  1.00  0.00     0.173 A 
ATOM     66  F   UNL A   1      41.744  29.429  27.801  1.00  0.00    -0.203 F 
ATOM     67  C   UNL A   1      41.087  27.424  26.762  1.00  0.00     0.198 A 
ATOM     68  C   UNL A   1      39.652  25.886  27.916  1.00  0.00     0.198 A 
ATOM     69  F   UNL A   1      38.856  26.402  30.068  1.00  0.00    -0.203 F 
ATOM     70  F   UNL A   1      41.776  27.769  25.666  1.00  0.00    -0.200 F 
ATOM     71  C   UNL A   1      40.390  26.226  26.793  1.00  0.00     0.200 A 
ATOM     72  F   UNL A   1      38.988  24.722  27.954  1.00  0.00    -0.200 F 
ATOM     73  F   UNL A   1      40.424  25.402  25.737  1.00  0.00    -0.200 F 
ENDBRANCH  49  63
BRANCH  50  74
ATOM     74  C   UNL A   1      39.522  34.011  36.926  1.00  0.00     0.064 A 
ATOM     75  C   UNL A   1      40.157  35.260  36.977  1.00  0.00     0.173 A 
ATOM     76  C   UNL A   1      38.777  33.613  38.045  1.00  0.00     0.173 A 
ATOM     77  F   UNL A   1      40.897  35.678  35.939  1.00  0.00    -0.203 F 
ATOM     78  C   UNL A   1      40.076  36.064  38.113  1.00  0.00     0.198 A 
ATOM     79  C   UNL A   1      38.668  34.431  39.167  1.00  0.00     0.198 A 
ATOM     80  F   UNL A   1      38.143  32.431  38.045  1.00  0.00    -0.203 F 
ATOM     81  F   UNL A   1      40.737  37.227  38.155  1.00  0.00    -0.200 F 
ATOM     82  C   UNL A   1      39.326  35.651  39.205  1.00  0.00     0.200 A 
ATOM     83  F   UNL A   1      37.930  34.036  40.212  1.00  0.00    -0.200 F 
ATOM     84  F   UNL A   1      39.246  36.426  40.295  1.00  0.00    -0.200 F 
ENDBRANCH  50  74
BRANCH  62  85
ATOM     85  C   UNL A   1      43.881  28.852  35.199  1.00  0.00     0.064 A 
ATOM     86  C   UNL A   1      45.183  29.329  34.989  1.00  0.00     0.173 A 
ATOM     87  C   UNL A   1      43.706  27.808  36.120  1.00  0.00     0.173 A 
ATOM     88  F   UNL A   1      45.406  30.317  34.109  1.00  0.00    -0.203 F 
ATOM     89  C   UNL A   1      46.268  28.762  35.652  1.00  0.00     0.198 A 
ATOM     90  C   UNL A   1      44.789  27.267  36.807  1.00  0.00     0.198 A 
ATOM     91  F   UNL A   1      42.480  27.320  36.365  1.00  0.00    -0.203 F 
ATOM     92  F   UNL A   1      47.509  29.197  35.394  1.00  0.00    -0.200 F 
ATOM     93  C   UNL A   1      46.070  27.738  36.566  1.00  0.00     0.200 A 
ATOM     94  F   UNL A   1      44.591  26.290  37.703  1.00  0.00    -0.200 F 
ATOM     95  F   UNL A   1      47.115  27.199  37.208  1.00  0.00    -0.200 F 
ENDBRANCH  62  85
ENDBRANCH  36  37
ENDBRANCH  28  31
ENDBRANCH  26  27
ENDBRANCH  25  26
ENDBRANCH  24  25
ENDBRANCH   1  24
TORSDOF 17
ENDMDL
