MODEL 1
REMARK VINA RESULT:     -13.1      0.000      0.000
REMARK SMILES Cc1cc2n(n1)[C@H](C(F)(F)F)CCN2C(=O)c1cnn([C@@H](C)C(=O)NCCCCNC(=O)c2ccc(-c3c4nc(c(-c5c(F)c(F)c(F)c(F)c5F)c5ccc([nH]5)c(-c5c(F)c(F)c(F)c(F)c5F)c5nc(c(-c6c(F)c(F)c(F)c(F)c6F)c6ccc3[nH]6)C=C5)C=C4)cc2)c1
REMARK SMILES IDX 26 1 25 2 23 3 24 4 21 6 22 7 20 8 17 9 18 10 96 11 19 12
REMARK SMILES IDX 15 13 16 14 14 15 1 16 2 17 3 18 6 19 4 20 5 21 7 22 13 23
REMARK SMILES IDX 12 24 8 25 9 26 10 27 11 28 27 29 28 30 29 31 30 32 31 33
REMARK SMILES IDX 32 35 33 36 34 37 95 38 35 39 94 40 36 41 37 42 38 43 88 44
REMARK SMILES IDX 39 45 93 46 87 47 89 48 40 49 92 50 86 51 85 52 41 54 73 55
REMARK SMILES IDX 53 56 72 57 54 58 57 59 71 60 90 61 55 62 56 63 70 65 91 66
REMARK SMILES IDX 58 67 42 68 43 69 51 70 44 71 45 72 49 73 52 74 46 75 47 76
REMARK SMILES IDX 50 77 48 78 74 79 75 80 83 81 76 82 77 83 81 84 84 85 78 86
REMARK SMILES IDX 79 87 82 88 80 89 59 90 60 91 68 92 61 93 62 94 66 95 69 96
REMARK SMILES IDX 63 97 64 98 67 99 65 100
REMARK H PARENT 25 5 30 34 89 53 57 64
REMARK Flexibility Score: inf
ROOT
ATOM      1  C   UNL A   1      39.396  21.274  25.869  1.00  0.00     0.116 C 
ENDROOT
BRANCH   1   2
ATOM      2  N   UNL A   1      38.965  22.605  26.259  1.00  0.00    -0.354 N 
ATOM      3  C   UNL A   1      37.838  23.315  25.969  1.00  0.00     0.244 C 
ATOM      4  O   UNL A   1      37.805  24.477  26.395  1.00  0.00    -0.273 OA
ATOM      5  H   UNL A   1      39.602  23.081  26.839  1.00  0.00     0.163 HD
BRANCH   3   6
ATOM      6  C   UNL A   1      36.633  22.768  25.203  1.00  0.00     0.193 C 
ATOM      7  C   UNL A   1      36.685  22.991  23.694  1.00  0.00     0.044 C 
BRANCH   6   8
ATOM      8  N   UNL A   1      35.365  23.137  25.820  1.00  0.00    -0.260 N 
ATOM      9  C   UNL A   1      33.401  24.054  26.252  1.00  0.00     0.078 A 
ATOM     10  C   UNL A   1      33.672  22.943  27.057  1.00  0.00     0.149 A 
ATOM     11  C   UNL A   1      34.506  24.131  25.422  1.00  0.00     0.123 A 
ATOM     12  N   UNL A   1      34.924  22.512  26.926  1.00  0.00    -0.180 NA
BRANCH   9  13
ATOM     13  C   UNL A   1      32.213  24.870  26.160  1.00  0.00     0.262 C 
ATOM     14  O   UNL A   1      31.260  24.738  26.908  1.00  0.00    -0.269 OA
BRANCH  13  15
ATOM     15  N   UNL A   1      32.211  25.831  25.052  1.00  0.00    -0.293 N 
ATOM     16  C   UNL A   1      33.656  30.261  26.950  1.00  0.00     0.069 C 
ATOM     17  C   UNL A   1      33.255  29.131  26.076  1.00  0.00     0.062 A 
ATOM     18  C   UNL A   1      33.069  27.774  26.436  1.00  0.00     0.072 A 
ATOM     19  N   UNL A   1      33.011  29.333  24.776  1.00  0.00    -0.176 NA
ATOM     20  C   UNL A   1      32.613  27.153  25.296  1.00  0.00     0.134 A 
ATOM     21  N   UNL A   1      32.580  28.142  24.348  1.00  0.00    -0.237 N 
ATOM     22  C   UNL A   1      32.128  27.960  22.986  1.00  0.00     0.216 C 
ATOM     23  C   UNL A   1      31.571  25.556  23.741  1.00  0.00     0.130 C 
ATOM     24  C   UNL A   1      32.097  26.469  22.629  1.00  0.00     0.059 C 
BRANCH  22  25
ATOM     25  C   UNL A   1      30.779  28.618  22.793  1.00  0.00     0.410 C 
ATOM     26  F   UNL A   1      30.092  28.681  23.955  1.00  0.00    -0.169 F 
ATOM     27  F   UNL A   1      30.858  29.857  22.275  1.00  0.00    -0.169 F 
ATOM     28  F   UNL A   1      30.031  27.880  21.935  1.00  0.00    -0.169 F 
ENDBRANCH  22  25
ENDBRANCH  13  15
ENDBRANCH   9  13
ENDBRANCH   6   8
ENDBRANCH   3   6
ENDBRANCH   1   2
BRANCH   1  29
ATOM     29  C   UNL A   1      40.639  20.803  26.635  1.00  0.00     0.023 C 
BRANCH  29  30
ATOM     30  C   UNL A   1      41.321  19.534  26.117  1.00  0.00     0.023 C 
BRANCH  30  31
ATOM     31  C   UNL A   1      42.771  19.355  26.547  1.00  0.00     0.116 C 
BRANCH  31  32
ATOM     32  N   UNL A   1      43.673  19.092  25.428  1.00  0.00    -0.352 N 
ATOM     33  C   UNL A   1      44.253  20.008  24.575  1.00  0.00     0.251 C 
ATOM     34  H   UNL A   1      43.895  18.147  25.264  1.00  0.00     0.163 HD
ATOM     35  O   UNL A   1      44.696  19.669  23.485  1.00  0.00    -0.269 OA
BRANCH  33  36
ATOM     36  C   UNL A   1      44.326  21.414  25.001  1.00  0.00     0.039 A 
ATOM     37  C   UNL A   1      43.351  22.332  24.611  1.00  0.00     0.014 A 
ATOM     38  C   UNL A   1      45.350  21.781  25.872  1.00  0.00     0.014 A 
ATOM     39  C   UNL A   1      43.352  23.598  25.191  1.00  0.00     0.010 A 
ATOM     40  C   UNL A   1      45.281  22.988  26.532  1.00  0.00     0.010 A 
ATOM     41  C   UNL A   1      44.299  23.913  26.182  1.00  0.00    -0.014 A 
BRANCH  41  42
ATOM     42  C   UNL A   1      44.159  25.152  26.953  1.00  0.00     0.031 A 
ATOM     43  C   UNL A   1      45.166  26.206  26.644  1.00  0.00     0.074 A 
ATOM     44  C   UNL A   1      43.082  25.446  27.715  1.00  0.00     0.049 A 
ATOM     45  N   UNL A   1      46.027  26.742  27.445  1.00  0.00    -0.248 NA
ATOM     46  C   UNL A   1      45.290  26.666  25.250  1.00  0.00     0.031 C 
ATOM     47  C   UNL A   1      41.848  24.663  27.836  1.00  0.00     0.029 A 
ATOM     48  N   UNL A   1      42.804  26.568  28.448  1.00  0.00    -0.354 N 
ATOM     49  C   UNL A   1      46.662  27.749  26.715  1.00  0.00     0.074 A 
ATOM     50  C   UNL A   1      46.294  27.541  25.341  1.00  0.00     0.031 C 
ATOM     51  C   UNL A   1      40.878  25.429  28.377  1.00  0.00     0.029 A 
ATOM     52  C   UNL A   1      41.471  26.677  28.819  1.00  0.00     0.049 A 
ATOM     53  H   UNL A   1      43.486  27.235  28.691  1.00  0.00     0.167 HD
ATOM     54  C   UNL A   1      47.199  28.827  27.354  1.00  0.00     0.037 A 
ATOM     55  C   UNL A   1      40.865  27.706  29.453  1.00  0.00     0.037 A 
ATOM     56  C   UNL A   1      47.325  28.567  28.765  1.00  0.00     0.049 A 
ATOM     57  C   UNL A   1      41.894  28.484  30.174  1.00  0.00     0.074 A 
ATOM     58  C   UNL A   1      48.196  27.915  29.607  1.00  0.00     0.029 A 
ATOM     59  N   UNL A   1      46.178  28.803  29.468  1.00  0.00    -0.354 N 
ATOM     60  N   UNL A   1      42.573  28.015  31.184  1.00  0.00    -0.248 NA
ATOM     61  C   UNL A   1      42.409  29.719  29.591  1.00  0.00     0.031 C 
ATOM     62  C   UNL A   1      47.474  27.657  30.813  1.00  0.00     0.029 A 
ATOM     63  C   UNL A   1      46.190  28.175  30.682  1.00  0.00     0.049 A 
ATOM     64  H   UNL A   1      45.434  29.359  29.141  1.00  0.00     0.167 HD
ATOM     65  C   UNL A   1      43.800  28.634  31.078  1.00  0.00     0.074 A 
ATOM     66  C   UNL A   1      43.583  29.792  30.223  1.00  0.00     0.031 C 
ATOM     67  C   UNL A   1      44.947  27.964  31.386  1.00  0.00     0.037 A 
BRANCH  54  68
ATOM     68  C   UNL A   1      47.142  30.268  26.862  1.00  0.00     0.064 A 
ATOM     69  C   UNL A   1      48.308  31.063  26.971  1.00  0.00     0.173 A 
ATOM     70  C   UNL A   1      45.951  30.988  26.628  1.00  0.00     0.173 A 
ATOM     71  F   UNL A   1      49.507  30.497  27.178  1.00  0.00    -0.203 F 
ATOM     72  C   UNL A   1      48.263  32.462  26.966  1.00  0.00     0.198 A 
ATOM     73  C   UNL A   1      45.917  32.384  26.577  1.00  0.00     0.198 A 
ATOM     74  F   UNL A   1      44.757  30.393  26.546  1.00  0.00    -0.203 F 
ATOM     75  F   UNL A   1      49.376  33.165  27.212  1.00  0.00    -0.200 F 
ATOM     76  C   UNL A   1      47.063  33.121  26.785  1.00  0.00     0.200 A 
ATOM     77  F   UNL A   1      44.742  33.006  26.412  1.00  0.00    -0.200 F 
ATOM     78  F   UNL A   1      47.002  34.457  26.853  1.00  0.00    -0.200 F 
ENDBRANCH  54  68
BRANCH  55  79
ATOM     79  C   UNL A   1      39.455  28.138  29.361  1.00  0.00     0.064 A 
ATOM     80  C   UNL A   1      38.646  28.248  30.501  1.00  0.00     0.173 A 
ATOM     81  C   UNL A   1      38.949  28.693  28.170  1.00  0.00     0.173 A 
ATOM     82  F   UNL A   1      39.073  27.773  31.679  1.00  0.00    -0.203 F 
ATOM     83  C   UNL A   1      37.412  28.904  30.459  1.00  0.00     0.198 A 
ATOM     84  C   UNL A   1      37.716  29.341  28.127  1.00  0.00     0.198 A 
ATOM     85  F   UNL A   1      39.685  28.691  27.048  1.00  0.00    -0.203 F 
ATOM     86  F   UNL A   1      36.692  29.044  31.580  1.00  0.00    -0.200 F 
ATOM     87  C   UNL A   1      36.954  29.460  29.275  1.00  0.00     0.200 A 
ATOM     88  F   UNL A   1      37.298  29.900  26.982  1.00  0.00    -0.200 F 
ATOM     89  F   UNL A   1      35.801  30.142  29.248  1.00  0.00    -0.200 F 
ENDBRANCH  55  79
BRANCH  67  90
ATOM     90  C   UNL A   1      44.851  26.836  32.360  1.00  0.00     0.064 A 
ATOM     91  C   UNL A   1      44.810  26.991  33.754  1.00  0.00     0.173 A 
ATOM     92  C   UNL A   1      44.741  25.537  31.846  1.00  0.00     0.173 A 
ATOM     93  F   UNL A   1      44.833  28.207  34.315  1.00  0.00    -0.203 F 
ATOM     94  C   UNL A   1      44.709  25.885  34.596  1.00  0.00     0.198 A 
ATOM     95  C   UNL A   1      44.603  24.438  32.687  1.00  0.00     0.198 A 
ATOM     96  F   UNL A   1      44.736  25.337  30.519  1.00  0.00    -0.203 F 
ATOM     97  F   UNL A   1      44.697  26.052  35.926  1.00  0.00    -0.200 F 
ATOM     98  C   UNL A   1      44.599  24.610  34.061  1.00  0.00     0.200 A 
ATOM     99  F   UNL A   1      44.458  23.214  32.163  1.00  0.00    -0.200 F 
ATOM    100  F   UNL A   1      44.473  23.549  34.870  1.00  0.00    -0.200 F 
ENDBRANCH  67  90
ENDBRANCH  41  42
ENDBRANCH  33  36
ENDBRANCH  31  32
ENDBRANCH  30  31
ENDBRANCH  29  30
ENDBRANCH   1  29
TORSDOF 15
ENDMDL
MODEL 2
REMARK VINA RESULT:     -13.0      1.220      1.657
REMARK SMILES Cc1cc2n(n1)[C@H](C(F)(F)F)CCN2C(=O)c1cnn([C@@H](C)C(=O)NCCCCNC(=O)c2ccc(-c3c4nc(c(-c5c(F)c(F)c(F)c(F)c5F)c5ccc([nH]5)c(-c5c(F)c(F)c(F)c(F)c5F)c5nc(c(-c6c(F)c(F)c(F)c(F)c6F)c6ccc3[nH]6)C=C5)C=C4)cc2)c1
REMARK SMILES IDX 26 1 25 2 23 3 24 4 21 6 22 7 20 8 17 9 18 10 96 11 19 12
REMARK SMILES IDX 15 13 16 14 14 15 1 16 2 17 3 18 6 19 4 20 5 21 7 22 13 23
REMARK SMILES IDX 12 24 8 25 9 26 10 27 11 28 27 29 28 30 29 31 30 32 31 33
REMARK SMILES IDX 32 35 33 36 34 37 95 38 35 39 94 40 36 41 37 42 38 43 88 44
REMARK SMILES IDX 39 45 93 46 87 47 89 48 40 49 92 50 86 51 85 52 41 54 73 55
REMARK SMILES IDX 53 56 72 57 54 58 57 59 71 60 90 61 55 62 56 63 70 65 91 66
REMARK SMILES IDX 58 67 42 68 43 69 51 70 44 71 45 72 49 73 52 74 46 75 47 76
REMARK SMILES IDX 50 77 48 78 74 79 75 80 83 81 76 82 77 83 81 84 84 85 78 86
REMARK SMILES IDX 79 87 82 88 80 89 59 90 60 91 68 92 61 93 62 94 66 95 69 96
REMARK SMILES IDX 63 97 64 98 67 99 65 100
REMARK H PARENT 25 5 30 34 89 53 57 64
REMARK Flexibility Score: inf
ROOT
ATOM      1  C   UNL A   1      39.235  21.786  26.462  1.00  0.00     0.116 C 
ENDROOT
BRANCH   1   2
ATOM      2  N   UNL A   1      38.537  22.476  25.391  1.00  0.00    -0.354 N 
ATOM      3  C   UNL A   1      37.277  22.335  24.891  1.00  0.00     0.244 C 
ATOM      4  O   UNL A   1      37.006  23.030  23.903  1.00  0.00    -0.273 OA
ATOM      5  H   UNL A   1      39.071  23.173  24.946  1.00  0.00     0.163 HD
BRANCH   3   6
ATOM      6  C   UNL A   1      36.200  21.423  25.479  1.00  0.00     0.193 C 
ATOM      7  C   UNL A   1      36.220  19.991  24.952  1.00  0.00     0.044 C 
BRANCH   6   8
ATOM      8  N   UNL A   1      34.881  22.044  25.476  1.00  0.00    -0.260 N 
ATOM      9  C   UNL A   1      33.145  23.344  25.904  1.00  0.00     0.078 A 
ATOM     10  C   UNL A   1      32.987  22.590  24.736  1.00  0.00     0.149 A 
ATOM     11  C   UNL A   1      34.412  22.999  26.343  1.00  0.00     0.123 A 
ATOM     12  N   UNL A   1      33.943  21.677  24.586  1.00  0.00    -0.180 NA
BRANCH   9  13
ATOM     13  C   UNL A   1      32.295  24.360  26.479  1.00  0.00     0.262 C 
ATOM     14  O   UNL A   1      31.448  24.115  27.320  1.00  0.00    -0.269 OA
BRANCH  13  15
ATOM     15  N   UNL A   1      32.483  25.704  25.925  1.00  0.00    -0.293 N 
ATOM     16  C   UNL A   1      28.179  26.965  23.643  1.00  0.00     0.069 C 
ATOM     17  C   UNL A   1      29.536  26.936  24.244  1.00  0.00     0.062 A 
ATOM     18  C   UNL A   1      30.122  25.910  25.023  1.00  0.00     0.072 A 
ATOM     19  N   UNL A   1      30.376  27.963  24.069  1.00  0.00    -0.176 NA
ATOM     20  C   UNL A   1      31.414  26.322  25.258  1.00  0.00     0.134 A 
ATOM     21  N   UNL A   1      31.508  27.543  24.644  1.00  0.00    -0.237 N 
ATOM     22  C   UNL A   1      32.708  28.349  24.596  1.00  0.00     0.216 C 
ATOM     23  C   UNL A   1      33.813  26.354  25.804  1.00  0.00     0.130 C 
ATOM     24  C   UNL A   1      33.710  27.875  25.657  1.00  0.00     0.059 C 
BRANCH  22  25
ATOM     25  C   UNL A   1      33.300  28.323  23.205  1.00  0.00     0.410 C 
ATOM     26  F   UNL A   1      34.606  28.671  23.219  1.00  0.00    -0.169 F 
ATOM     27  F   UNL A   1      33.182  27.128  22.596  1.00  0.00    -0.169 F 
ATOM     28  F   UNL A   1      32.663  29.228  22.421  1.00  0.00    -0.169 F 
ENDBRANCH  22  25
ENDBRANCH  13  15
ENDBRANCH   9  13
ENDBRANCH   6   8
ENDBRANCH   3   6
ENDBRANCH   1   2
BRANCH   1  29
ATOM     29  C   UNL A   1      40.722  21.565  26.158  1.00  0.00     0.023 C 
BRANCH  29  30
ATOM     30  C   UNL A   1      41.216  20.116  26.181  1.00  0.00     0.023 C 
BRANCH  30  31
ATOM     31  C   UNL A   1      42.620  19.918  26.737  1.00  0.00     0.116 C 
BRANCH  31  32
ATOM     32  N   UNL A   1      43.609  19.617  25.703  1.00  0.00    -0.352 N 
ATOM     33  C   UNL A   1      44.273  20.506  24.883  1.00  0.00     0.251 C 
ATOM     34  H   UNL A   1      43.828  18.666  25.579  1.00  0.00     0.163 HD
ATOM     35  O   UNL A   1      44.801  20.135  23.841  1.00  0.00    -0.269 OA
BRANCH  33  36
ATOM     36  C   UNL A   1      44.332  21.920  25.284  1.00  0.00     0.039 A 
ATOM     37  C   UNL A   1      43.483  22.864  24.706  1.00  0.00     0.014 A 
ATOM     38  C   UNL A   1      45.201  22.271  26.315  1.00  0.00     0.014 A 
ATOM     39  C   UNL A   1      43.438  24.146  25.249  1.00  0.00     0.010 A 
ATOM     40  C   UNL A   1      45.070  23.499  26.924  1.00  0.00     0.010 A 
ATOM     41  C   UNL A   1      44.208  24.452  26.385  1.00  0.00    -0.014 A 
BRANCH  41  42
ATOM     42  C   UNL A   1      43.990  25.718  27.091  1.00  0.00     0.031 A 
ATOM     43  C   UNL A   1      44.945  26.808  26.745  1.00  0.00     0.074 A 
ATOM     44  C   UNL A   1      42.885  25.991  27.820  1.00  0.00     0.049 A 
ATOM     45  N   UNL A   1      45.762  27.428  27.532  1.00  0.00    -0.248 NA
ATOM     46  C   UNL A   1      45.070  27.205  25.332  1.00  0.00     0.031 C 
ATOM     47  C   UNL A   1      41.691  25.150  27.961  1.00  0.00     0.029 A 
ATOM     48  N   UNL A   1      42.535  27.131  28.492  1.00  0.00    -0.354 N 
ATOM     49  C   UNL A   1      46.357  28.430  26.762  1.00  0.00     0.074 A 
ATOM     50  C   UNL A   1      46.025  28.135  25.395  1.00  0.00     0.031 C 
ATOM     51  C   UNL A   1      40.673  25.889  28.448  1.00  0.00     0.029 A 
ATOM     52  C   UNL A   1      41.191  27.187  28.836  1.00  0.00     0.049 A 
ATOM     53  H   UNL A   1      43.177  27.845  28.712  1.00  0.00     0.167 HD
ATOM     54  C   UNL A   1      46.825  29.565  27.355  1.00  0.00     0.037 A 
ATOM     55  C   UNL A   1      40.521  28.212  29.409  1.00  0.00     0.037 A 
ATOM     56  C   UNL A   1      46.938  29.382  28.779  1.00  0.00     0.049 A 
ATOM     57  C   UNL A   1      41.494  29.079  30.106  1.00  0.00     0.074 A 
ATOM     58  C   UNL A   1      47.827  28.819  29.666  1.00  0.00     0.029 A 
ATOM     59  N   UNL A   1      45.768  29.590  29.452  1.00  0.00    -0.354 N 
ATOM     60  N   UNL A   1      42.178  28.696  31.149  1.00  0.00    -0.248 NA
ATOM     61  C   UNL A   1      41.955  30.309  29.470  1.00  0.00     0.031 C 
ATOM     62  C   UNL A   1      47.098  28.582  30.872  1.00  0.00     0.029 A 
ATOM     63  C   UNL A   1      45.791  29.024  30.696  1.00  0.00     0.049 A 
ATOM     64  H   UNL A   1      45.002  30.089  29.086  1.00  0.00     0.167 HD
ATOM     65  C   UNL A   1      43.373  29.373  31.031  1.00  0.00     0.074 A 
ATOM     66  C   UNL A   1      43.112  30.475  30.116  1.00  0.00     0.031 C 
ATOM     67  C   UNL A   1      44.548  28.782  31.390  1.00  0.00     0.037 A 
BRANCH  54  68
ATOM     68  C   UNL A   1      46.701  30.975  26.792  1.00  0.00     0.064 A 
ATOM     69  C   UNL A   1      47.833  31.823  26.845  1.00  0.00     0.173 A 
ATOM     70  C   UNL A   1      45.478  31.631  26.536  1.00  0.00     0.173 A 
ATOM     71  F   UNL A   1      49.057  31.320  27.066  1.00  0.00    -0.203 F 
ATOM     72  C   UNL A   1      47.728  33.217  26.770  1.00  0.00     0.198 A 
ATOM     73  C   UNL A   1      45.384  33.020  26.414  1.00  0.00     0.198 A 
ATOM     74  F   UNL A   1      44.310  30.983  26.498  1.00  0.00    -0.203 F 
ATOM     75  F   UNL A   1      48.812  33.978  26.966  1.00  0.00    -0.200 F 
ATOM     76  C   UNL A   1      46.500  33.815  26.570  1.00  0.00     0.200 A 
ATOM     77  F   UNL A   1      44.181  33.583  26.231  1.00  0.00    -0.200 F 
ATOM     78  F   UNL A   1      46.382  35.148  26.570  1.00  0.00    -0.200 F 
ENDBRANCH  54  68
BRANCH  55  79
ATOM     79  C   UNL A   1      39.092  28.563  29.274  1.00  0.00     0.064 A 
ATOM     80  C   UNL A   1      38.252  28.662  30.392  1.00  0.00     0.173 A 
ATOM     81  C   UNL A   1      38.585  29.055  28.055  1.00  0.00     0.173 A 
ATOM     82  F   UNL A   1      38.677  28.245  31.593  1.00  0.00    -0.203 F 
ATOM     83  C   UNL A   1      36.986  29.248  30.304  1.00  0.00     0.198 A 
ATOM     84  C   UNL A   1      37.319  29.633  27.966  1.00  0.00     0.198 A 
ATOM     85  F   UNL A   1      39.345  29.061  26.950  1.00  0.00    -0.203 F 
ATOM     86  F   UNL A   1      36.233  29.380  31.404  1.00  0.00    -0.200 F 
ATOM     87  C   UNL A   1      36.526  29.743  29.094  1.00  0.00     0.200 A 
ATOM     88  F   UNL A   1      36.898  30.135  26.796  1.00  0.00    -0.200 F 
ATOM     89  F   UNL A   1      35.339  30.360  29.021  1.00  0.00    -0.200 F 
ENDBRANCH  55  79
BRANCH  67  90
ATOM     90  C   UNL A   1      44.494  27.699  32.417  1.00  0.00     0.064 A 
ATOM     91  C   UNL A   1      44.384  27.919  33.799  1.00  0.00     0.173 A 
ATOM     92  C   UNL A   1      44.498  26.372  31.968  1.00  0.00     0.173 A 
ATOM     93  F   UNL A   1      44.297  29.160  34.296  1.00  0.00    -0.203 F 
ATOM     94  C   UNL A   1      44.329  26.852  34.693  1.00  0.00     0.198 A 
ATOM     95  C   UNL A   1      44.406  25.308  32.860  1.00  0.00     0.198 A 
ATOM     96  F   UNL A   1      44.563  26.107  30.654  1.00  0.00    -0.203 F 
ATOM     97  F   UNL A   1      44.251  27.083  36.012  1.00  0.00    -0.200 F 
ATOM     98  C   UNL A   1      44.333  25.548  34.222  1.00  0.00     0.200 A 
ATOM     99  F   UNL A   1      44.371  24.053  32.395  1.00  0.00    -0.200 F 
ATOM    100  F   UNL A   1      44.251  24.522  35.080  1.00  0.00    -0.200 F 
ENDBRANCH  67  90
ENDBRANCH  41  42
ENDBRANCH  33  36
ENDBRANCH  31  32
ENDBRANCH  30  31
ENDBRANCH  29  30
ENDBRANCH   1  29
TORSDOF 15
ENDMDL
MODEL 3
REMARK VINA RESULT:     -12.7      1.282      2.097
REMARK SMILES Cc1cc2n(n1)[C@H](C(F)(F)F)CCN2C(=O)c1cnn([C@@H](C)C(=O)NCCCCNC(=O)c2ccc(-c3c4nc(c(-c5c(F)c(F)c(F)c(F)c5F)c5ccc([nH]5)c(-c5c(F)c(F)c(F)c(F)c5F)c5nc(c(-c6c(F)c(F)c(F)c(F)c6F)c6ccc3[nH]6)C=C5)C=C4)cc2)c1
REMARK SMILES IDX 26 1 25 2 23 3 24 4 21 6 22 7 20 8 17 9 18 10 96 11 19 12
REMARK SMILES IDX 15 13 16 14 14 15 1 16 2 17 3 18 6 19 4 20 5 21 7 22 13 23
REMARK SMILES IDX 12 24 8 25 9 26 10 27 11 28 27 29 28 30 29 31 30 32 31 33
REMARK SMILES IDX 32 35 33 36 34 37 95 38 35 39 94 40 36 41 37 42 38 43 88 44
REMARK SMILES IDX 39 45 93 46 87 47 89 48 40 49 92 50 86 51 85 52 41 54 73 55
REMARK SMILES IDX 53 56 72 57 54 58 57 59 71 60 90 61 55 62 56 63 70 65 91 66
REMARK SMILES IDX 58 67 42 68 43 69 51 70 44 71 45 72 49 73 52 74 46 75 47 76
REMARK SMILES IDX 50 77 48 78 74 79 75 80 83 81 76 82 77 83 81 84 84 85 78 86
REMARK SMILES IDX 79 87 82 88 80 89 59 90 60 91 68 92 61 93 62 94 66 95 69 96
REMARK SMILES IDX 63 97 64 98 67 99 65 100
REMARK H PARENT 25 5 30 34 89 53 57 64
REMARK Flexibility Score: inf
ROOT
ATOM      1  C   UNL A   1      38.832  21.442  25.730  1.00  0.00     0.116 C 
ENDROOT
BRANCH   1   2
ATOM      2  N   UNL A   1      38.097  22.632  26.123  1.00  0.00    -0.354 N 
ATOM      3  C   UNL A   1      36.981  23.220  25.607  1.00  0.00     0.244 C 
ATOM      4  O   UNL A   1      36.644  24.292  26.127  1.00  0.00    -0.273 OA
ATOM      5  H   UNL A   1      38.473  23.097  26.904  1.00  0.00     0.163 HD
BRANCH   3   6
ATOM      6  C   UNL A   1      36.125  22.637  24.482  1.00  0.00     0.193 C 
ATOM      7  C   UNL A   1      36.663  22.892  23.076  1.00  0.00     0.044 C 
BRANCH   6   8
ATOM      8  N   UNL A   1      34.709  22.937  24.645  1.00  0.00    -0.260 N 
ATOM      9  C   UNL A   1      32.707  23.868  24.525  1.00  0.00     0.078 A 
ATOM     10  C   UNL A   1      32.675  22.571  25.049  1.00  0.00     0.149 A 
ATOM     11  C   UNL A   1      34.046  24.064  24.229  1.00  0.00     0.123 A 
ATOM     12  N   UNL A   1      33.890  22.090  25.294  1.00  0.00    -0.180 NA
BRANCH   9  13
ATOM     13  C   UNL A   1      31.627  24.773  24.208  1.00  0.00     0.262 C 
ATOM     14  O   UNL A   1      30.816  24.550  23.326  1.00  0.00    -0.269 OA
BRANCH  13  15
ATOM     15  N   UNL A   1      31.617  26.015  24.987  1.00  0.00    -0.293 N 
ATOM     16  C   UNL A   1      30.216  29.696  21.855  1.00  0.00     0.069 C 
ATOM     17  C   UNL A   1      30.600  28.871  23.028  1.00  0.00     0.062 A 
ATOM     18  C   UNL A   1      30.786  27.469  23.082  1.00  0.00     0.072 A 
ATOM     19  N   UNL A   1      30.828  29.445  24.214  1.00  0.00    -0.176 NA
ATOM     20  C   UNL A   1      31.224  27.208  24.361  1.00  0.00     0.134 A 
ATOM     21  N   UNL A   1      31.248  28.431  24.978  1.00  0.00    -0.237 N 
ATOM     22  C   UNL A   1      31.682  28.656  26.339  1.00  0.00     0.216 C 
ATOM     23  C   UNL A   1      32.240  26.137  26.329  1.00  0.00     0.130 C 
ATOM     24  C   UNL A   1      31.702  27.334  27.117  1.00  0.00     0.059 C 
BRANCH  22  25
ATOM     25  C   UNL A   1      33.030  29.342  26.351  1.00  0.00     0.410 C 
ATOM     26  F   UNL A   1      32.918  30.641  26.706  1.00  0.00    -0.169 F 
ATOM     27  F   UNL A   1      33.923  28.751  27.166  1.00  0.00    -0.169 F 
ATOM     28  F   UNL A   1      33.563  29.322  25.103  1.00  0.00    -0.169 F 
ENDBRANCH  22  25
ENDBRANCH  13  15
ENDBRANCH   9  13
ENDBRANCH   6   8
ENDBRANCH   3   6
ENDBRANCH   1   2
BRANCH   1  29
ATOM     29  C   UNL A   1      40.107  21.231  26.555  1.00  0.00     0.023 C 
BRANCH  29  30
ATOM     30  C   UNL A   1      40.894  19.946  26.281  1.00  0.00     0.023 C 
BRANCH  30  31
ATOM     31  C   UNL A   1      42.289  19.897  26.891  1.00  0.00     0.116 C 
BRANCH  31  32
ATOM     32  N   UNL A   1      43.328  19.560  25.920  1.00  0.00    -0.352 N 
ATOM     33  C   UNL A   1      44.029  20.419  25.098  1.00  0.00     0.251 C 
ATOM     34  H   UNL A   1      43.556  18.606  25.844  1.00  0.00     0.163 HD
ATOM     35  O   UNL A   1      44.608  20.010  24.099  1.00  0.00    -0.269 OA
BRANCH  33  36
ATOM     36  C   UNL A   1      44.064  21.848  25.446  1.00  0.00     0.039 A 
ATOM     37  C   UNL A   1      43.096  22.727  24.959  1.00  0.00     0.014 A 
ATOM     38  C   UNL A   1      45.042  22.279  26.339  1.00  0.00     0.014 A 
ATOM     39  C   UNL A   1      43.055  24.024  25.465  1.00  0.00     0.010 A 
ATOM     40  C   UNL A   1      44.928  23.521  26.923  1.00  0.00     0.010 A 
ATOM     41  C   UNL A   1      43.951  24.410  26.477  1.00  0.00    -0.014 A 
BRANCH  41  42
ATOM     42  C   UNL A   1      43.761  25.688  27.168  1.00  0.00     0.031 A 
ATOM     43  C   UNL A   1      44.734  26.756  26.802  1.00  0.00     0.074 A 
ATOM     44  C   UNL A   1      42.666  25.991  27.901  1.00  0.00     0.049 A 
ATOM     45  N   UNL A   1      45.567  27.371  27.574  1.00  0.00    -0.248 NA
ATOM     46  C   UNL A   1      44.856  27.132  25.383  1.00  0.00     0.031 C 
ATOM     47  C   UNL A   1      41.459  25.174  28.061  1.00  0.00     0.029 A 
ATOM     48  N   UNL A   1      42.342  27.146  28.560  1.00  0.00    -0.354 N 
ATOM     49  C   UNL A   1      46.175  28.353  26.788  1.00  0.00     0.074 A 
ATOM     50  C   UNL A   1      45.828  28.046  25.427  1.00  0.00     0.031 C 
ATOM     51  C   UNL A   1      40.458  25.937  28.545  1.00  0.00     0.029 A 
ATOM     52  C   UNL A   1      41.002  27.231  28.913  1.00  0.00     0.049 A 
ATOM     53  H   UNL A   1      42.998  27.851  28.766  1.00  0.00     0.167 HD
ATOM     54  C   UNL A   1      46.667  29.486  27.363  1.00  0.00     0.037 A 
ATOM     55  C   UNL A   1      40.354  28.275  29.476  1.00  0.00     0.037 A 
ATOM     56  C   UNL A   1      46.787  29.319  28.789  1.00  0.00     0.049 A 
ATOM     57  C   UNL A   1      41.348  29.133  30.156  1.00  0.00     0.074 A 
ATOM     58  C   UNL A   1      47.672  28.752  29.676  1.00  0.00     0.029 A 
ATOM     59  N   UNL A   1      45.626  29.558  29.466  1.00  0.00    -0.354 N 
ATOM     60  N   UNL A   1      42.032  28.752  31.199  1.00  0.00    -0.248 NA
ATOM     61  C   UNL A   1      41.826  30.346  29.501  1.00  0.00     0.031 C 
ATOM     62  C   UNL A   1      46.947  28.544  30.890  1.00  0.00     0.029 A 
ATOM     63  C   UNL A   1      45.647  29.007  30.717  1.00  0.00     0.049 A 
ATOM     64  H   UNL A   1      44.866  30.066  29.099  1.00  0.00     0.167 HD
ATOM     65  C   UNL A   1      43.239  29.405  31.064  1.00  0.00     0.074 A 
ATOM     66  C   UNL A   1      42.991  30.499  30.137  1.00  0.00     0.031 C 
ATOM     67  C   UNL A   1      44.404  28.797  31.423  1.00  0.00     0.037 A 
BRANCH  54  68
ATOM     68  C   UNL A   1      46.565  30.891  26.782  1.00  0.00     0.064 A 
ATOM     69  C   UNL A   1      47.716  31.714  26.804  1.00  0.00     0.173 A 
ATOM     70  C   UNL A   1      45.353  31.571  26.538  1.00  0.00     0.173 A 
ATOM     71  F   UNL A   1      48.932  31.186  27.011  1.00  0.00    -0.203 F 
ATOM     72  C   UNL A   1      47.641  33.108  26.711  1.00  0.00     0.198 A 
ATOM     73  C   UNL A   1      45.288  32.960  26.399  1.00  0.00     0.198 A 
ATOM     74  F   UNL A   1      44.170  30.949  26.530  1.00  0.00    -0.203 F 
ATOM     75  F   UNL A   1      48.746  33.848  26.877  1.00  0.00    -0.200 F 
ATOM     76  C   UNL A   1      46.423  33.731  26.524  1.00  0.00     0.200 A 
ATOM     77  F   UNL A   1      44.095  33.547  26.229  1.00  0.00    -0.200 F 
ATOM     78  F   UNL A   1      46.335  35.067  26.507  1.00  0.00    -0.200 F 
ENDBRANCH  54  68
BRANCH  55  79
ATOM     79  C   UNL A   1      38.931  28.650  29.346  1.00  0.00     0.064 A 
ATOM     80  C   UNL A   1      38.106  28.799  30.470  1.00  0.00     0.173 A 
ATOM     81  C   UNL A   1      38.420  29.116  28.120  1.00  0.00     0.173 A 
ATOM     82  F   UNL A   1      38.536  28.409  31.678  1.00  0.00    -0.203 F 
ATOM     83  C   UNL A   1      36.850  29.407  30.378  1.00  0.00     0.198 A 
ATOM     84  C   UNL A   1      37.165  29.717  28.027  1.00  0.00     0.198 A 
ATOM     85  F   UNL A   1      39.168  29.075  27.007  1.00  0.00    -0.203 F 
ATOM     86  F   UNL A   1      36.113  29.586  31.482  1.00  0.00    -0.200 F 
ATOM     87  C   UNL A   1      36.387  29.876  29.160  1.00  0.00     0.200 A 
ATOM     88  F   UNL A   1      36.741  30.192  26.847  1.00  0.00    -0.200 F 
ATOM     89  F   UNL A   1      35.211  30.514  29.081  1.00  0.00    -0.200 F 
ENDBRANCH  55  79
BRANCH  67  90
ATOM     90  C   UNL A   1      44.338  27.729  32.464  1.00  0.00     0.064 A 
ATOM     91  C   UNL A   1      44.232  26.357  32.189  1.00  0.00     0.173 A 
ATOM     92  C   UNL A   1      44.442  28.117  33.806  1.00  0.00     0.173 A 
ATOM     93  F   UNL A   1      44.205  25.904  30.928  1.00  0.00    -0.203 F 
ATOM     94  C   UNL A   1      44.186  25.420  33.220  1.00  0.00     0.198 A 
ATOM     95  C   UNL A   1      44.433  27.178  34.832  1.00  0.00     0.198 A 
ATOM     96  F   UNL A   1      44.584  29.414  34.121  1.00  0.00    -0.203 F 
ATOM     97  F   UNL A   1      44.059  24.115  32.938  1.00  0.00    -0.200 F 
ATOM     98  C   UNL A   1      44.293  25.831  34.540  1.00  0.00     0.200 A 
ATOM     99  F   UNL A   1      44.576  27.579  36.102  1.00  0.00    -0.200 F 
ATOM    100  F   UNL A   1      44.278  24.928  35.530  1.00  0.00    -0.200 F 
ENDBRANCH  67  90
ENDBRANCH  41  42
ENDBRANCH  33  36
ENDBRANCH  31  32
ENDBRANCH  30  31
ENDBRANCH  29  30
ENDBRANCH   1  29
TORSDOF 15
ENDMDL
