MODEL 1
REMARK VINA RESULT:     -12.8      0.000      0.000
REMARK SMILES CC(=O)NS(=O)(=O)c1cc(-c2ccn(C(F)F)c(=O)c2)ccc1C(=O)NCCCCNC(=O)c1ccc(-c2c3nc(c(-c4c(F)c(F)c(F)c(F)c4F)c4ccc([nH]4)c(-c4c(F)c(F)c(F)c(F)c4F)c4nc(c(-c5c(F)c(F)c(F)c(F)c5F)c5ccc2[nH]5)C=C4)C=C3)cc1
REMARK SMILES IDX 28 1 27 2 26 3 24 4 25 5 23 7 8 8 9 9 10 10 22 11 21 12 5 13
REMARK SMILES IDX 6 14 7 15 4 16 1 17 2 18 3 19 11 21 12 22 20 23 13 24 18 25
REMARK SMILES IDX 14 26 19 27 15 28 16 29 17 30 29 31 30 32 31 33 32 34 33 36
REMARK SMILES IDX 34 37 35 38 96 39 36 40 95 41 37 42 38 43 39 44 89 45 40 46
REMARK SMILES IDX 94 47 88 48 90 49 41 50 93 51 87 52 86 53 42 55 74 56 54 57
REMARK SMILES IDX 73 58 55 59 58 60 72 61 91 62 56 63 57 64 71 66 92 67 59 68
REMARK SMILES IDX 43 69 44 70 52 71 45 72 46 73 50 74 53 75 47 76 48 77 51 78
REMARK SMILES IDX 49 79 75 80 76 81 84 82 77 83 78 84 82 85 85 86 79 87 80 88
REMARK SMILES IDX 83 89 81 90 60 91 61 92 69 93 62 94 63 95 67 96 70 97 64 98
REMARK SMILES IDX 65 99 68 100 66 101
REMARK H PARENT 26 6 4 20 31 35 90 54 58 65
REMARK Flexibility Score: inf
ROOT
ATOM      1  C   UNL A   1      31.439  28.597  23.990  1.00  0.00     0.023 C 
ENDROOT
BRANCH   1   2
ATOM      2  C   UNL A   1      31.020  27.134  23.805  1.00  0.00     0.116 C 
BRANCH   2   3
ATOM      3  N   UNL A   1      30.801  26.519  25.101  1.00  0.00    -0.352 N 
ATOM      4  C   UNL A   1      31.478  25.544  25.774  1.00  0.00     0.252 C 
ATOM      5  O   UNL A   1      31.062  25.170  26.869  1.00  0.00    -0.269 OA
ATOM      6  H   UNL A   1      30.020  26.871  25.585  1.00  0.00     0.163 HD
BRANCH   4   7
ATOM      7  C   UNL A   1      32.763  24.973  25.311  1.00  0.00     0.060 A 
ATOM      8  C   UNL A   1      32.943  23.699  24.764  1.00  0.00     0.101 A 
ATOM      9  C   UNL A   1      34.238  23.175  24.619  1.00  0.00     0.031 A 
ATOM     10  C   UNL A   1      35.352  23.878  25.094  1.00  0.00    -0.017 A 
ATOM     11  C   UNL A   1      33.900  25.710  25.699  1.00  0.00     0.016 A 
ATOM     12  C   UNL A   1      35.184  25.165  25.601  1.00  0.00     0.009 A 
BRANCH   8  13
ATOM     13  S   UNL A   1      31.586  22.645  24.371  1.00  0.00     0.264 S 
ATOM     14  O   UNL A   1      30.806  23.351  23.378  1.00  0.00    -0.201 OA
ATOM     15  O   UNL A   1      31.010  22.127  25.586  1.00  0.00    -0.201 OA
BRANCH  13  16
ATOM     16  N   UNL A   1      32.245  21.363  23.546  1.00  0.00    -0.249 N 
ATOM     17  C   UNL A   1      32.923  19.901  25.455  1.00  0.00     0.115 C 
ATOM     18  C   UNL A   1      32.487  20.071  24.029  1.00  0.00     0.230 C 
ATOM     19  O   UNL A   1      32.481  19.141  23.235  1.00  0.00    -0.274 OA
ATOM     20  H   UNL A   1      32.494  21.532  22.609  1.00  0.00     0.183 HD
ENDBRANCH  13  16
ENDBRANCH   8  13
BRANCH  10  21
ATOM     21  C   UNL A   1      36.616  23.140  25.263  1.00  0.00    -0.011 A 
ATOM     22  C   UNL A   1      37.718  23.727  26.004  1.00  0.00     0.027 A 
ATOM     23  C   UNL A   1      36.704  21.863  24.858  1.00  0.00     0.080 A 
ATOM     24  C   UNL A   1      38.775  22.988  26.351  1.00  0.00     0.095 A 
ATOM     25  C   UNL A   1      37.900  21.039  25.201  1.00  0.00     0.255 A 
ATOM     26  N   UNL A   1      38.863  21.661  25.981  1.00  0.00    -0.258 N 
ATOM     27  O   UNL A   1      37.938  19.876  24.812  1.00  0.00    -0.269 OA
BRANCH  26  28
ATOM     28  C   UNL A   1      39.981  20.859  26.412  1.00  0.00     0.451 C 
ATOM     29  F   UNL A   1      41.022  20.979  25.554  1.00  0.00    -0.185 F 
ATOM     30  F   UNL A   1      40.402  21.228  27.645  1.00  0.00    -0.185 F 
ENDBRANCH  26  28
ENDBRANCH  10  21
ENDBRANCH   4   7
ENDBRANCH   2   3
ENDBRANCH   1   2
BRANCH   1  31
ATOM     31  C   UNL A   1      32.941  28.852  23.879  1.00  0.00     0.023 C 
BRANCH  31  32
ATOM     32  C   UNL A   1      33.605  29.189  25.212  1.00  0.00     0.116 C 
BRANCH  32  33
ATOM     33  N   UNL A   1      32.939  30.286  25.907  1.00  0.00    -0.352 N 
ATOM     34  C   UNL A   1      33.324  31.002  27.013  1.00  0.00     0.251 C 
ATOM     35  H   UNL A   1      32.076  30.556  25.521  1.00  0.00     0.163 HD
ATOM     36  O   UNL A   1      32.544  31.783  27.548  1.00  0.00    -0.269 OA
BRANCH  34  37
ATOM     37  C   UNL A   1      34.674  30.819  27.578  1.00  0.00     0.039 A 
ATOM     38  C   UNL A   1      35.521  31.928  27.677  1.00  0.00     0.014 A 
ATOM     39  C   UNL A   1      35.104  29.561  28.004  1.00  0.00     0.014 A 
ATOM     40  C   UNL A   1      36.766  31.793  28.292  1.00  0.00     0.010 A 
ATOM     41  C   UNL A   1      36.322  29.438  28.664  1.00  0.00     0.010 A 
ATOM     42  C   UNL A   1      37.152  30.557  28.832  1.00  0.00    -0.014 A 
BRANCH  42  43
ATOM     43  C   UNL A   1      38.399  30.400  29.614  1.00  0.00     0.031 A 
ATOM     44  C   UNL A   1      39.540  29.612  29.048  1.00  0.00     0.074 A 
ATOM     45  C   UNL A   1      38.452  30.853  30.881  1.00  0.00     0.049 A 
ATOM     46  N   UNL A   1      40.577  29.108  29.664  1.00  0.00    -0.248 NA
ATOM     47  C   UNL A   1      39.486  29.319  27.608  1.00  0.00     0.031 C 
ATOM     48  C   UNL A   1      37.391  31.594  31.565  1.00  0.00     0.029 A 
ATOM     49  N   UNL A   1      39.437  30.729  31.826  1.00  0.00    -0.354 N 
ATOM     50  C   UNL A   1      41.247  28.355  28.711  1.00  0.00     0.074 A 
ATOM     51  C   UNL A   1      40.533  28.518  27.461  1.00  0.00     0.031 C 
ATOM     52  C   UNL A   1      37.788  31.870  32.818  1.00  0.00     0.029 A 
ATOM     53  C   UNL A   1      39.112  31.296  33.032  1.00  0.00     0.049 A 
ATOM     54  H   UNL A   1      40.294  30.276  31.656  1.00  0.00     0.167 HD
ATOM     55  C   UNL A   1      42.334  27.568  28.882  1.00  0.00     0.037 A 
ATOM     56  C   UNL A   1      39.801  31.332  34.186  1.00  0.00     0.037 A 
ATOM     57  C   UNL A   1      43.075  27.461  30.109  1.00  0.00     0.049 A 
ATOM     58  C   UNL A   1      41.131  30.649  34.274  1.00  0.00     0.074 A 
ATOM     59  C   UNL A   1      44.160  26.655  30.406  1.00  0.00     0.029 A 
ATOM     60  N   UNL A   1      42.823  28.226  31.238  1.00  0.00    -0.354 N 
ATOM     61  N   UNL A   1      41.711  29.868  33.396  1.00  0.00    -0.248 NA
ATOM     62  C   UNL A   1      41.903  30.849  35.508  1.00  0.00     0.031 C 
ATOM     63  C   UNL A   1      44.584  26.954  31.708  1.00  0.00     0.029 A 
ATOM     64  C   UNL A   1      43.763  27.948  32.215  1.00  0.00     0.049 A 
ATOM     65  H   UNL A   1      42.086  28.870  31.330  1.00  0.00     0.167 HD
ATOM     66  C   UNL A   1      42.904  29.469  33.975  1.00  0.00     0.074 A 
ATOM     67  C   UNL A   1      42.983  30.115  35.269  1.00  0.00     0.031 C 
ATOM     68  C   UNL A   1      43.838  28.621  33.484  1.00  0.00     0.037 A 
BRANCH  55  69
ATOM     69  C   UNL A   1      42.750  26.725  27.721  1.00  0.00     0.064 A 
ATOM     70  C   UNL A   1      43.697  27.169  26.791  1.00  0.00     0.173 A 
ATOM     71  C   UNL A   1      42.191  25.451  27.546  1.00  0.00     0.173 A 
ATOM     72  F   UNL A   1      44.240  28.389  26.910  1.00  0.00    -0.203 F 
ATOM     73  C   UNL A   1      44.066  26.365  25.715  1.00  0.00     0.198 A 
ATOM     74  C   UNL A   1      42.568  24.647  26.476  1.00  0.00     0.198 A 
ATOM     75  F   UNL A   1      41.272  24.991  28.409  1.00  0.00    -0.203 F 
ATOM     76  F   UNL A   1      44.954  26.815  24.819  1.00  0.00    -0.200 F 
ATOM     77  C   UNL A   1      43.504  25.105  25.559  1.00  0.00     0.200 A 
ATOM     78  F   UNL A   1      42.021  23.432  26.324  1.00  0.00    -0.200 F 
ATOM     79  F   UNL A   1      43.856  24.336  24.520  1.00  0.00    -0.200 F 
ENDBRANCH  55  69
BRANCH  56  80
ATOM     80  C   UNL A   1      39.240  32.059  35.345  1.00  0.00     0.064 A 
ATOM     81  C   UNL A   1      38.462  31.387  36.297  1.00  0.00     0.173 A 
ATOM     82  C   UNL A   1      39.497  33.422  35.543  1.00  0.00     0.173 A 
ATOM     83  F   UNL A   1      38.183  30.086  36.134  1.00  0.00    -0.203 F 
ATOM     84  C   UNL A   1      37.956  32.056  37.408  1.00  0.00     0.198 A 
ATOM     85  C   UNL A   1      38.998  34.088  36.659  1.00  0.00     0.198 A 
ATOM     86  F   UNL A   1      40.241  34.099  34.656  1.00  0.00    -0.203 F 
ATOM     87  F   UNL A   1      37.204  31.397  38.299  1.00  0.00    -0.200 F 
ATOM     88  C   UNL A   1      38.228  33.405  37.590  1.00  0.00     0.200 A 
ATOM     89  F   UNL A   1      39.264  35.389  36.835  1.00  0.00    -0.200 F 
ATOM     90  F   UNL A   1      37.743  34.047  38.662  1.00  0.00    -0.200 F 
ENDBRANCH  56  80
BRANCH  68  91
ATOM     91  C   UNL A   1      45.030  28.356  34.343  1.00  0.00     0.064 A 
ATOM     92  C   UNL A   1      45.017  27.324  35.292  1.00  0.00     0.173 A 
ATOM     93  C   UNL A   1      46.196  29.119  34.202  1.00  0.00     0.173 A 
ATOM     94  F   UNL A   1      43.915  26.580  35.464  1.00  0.00    -0.203 F 
ATOM     95  C   UNL A   1      46.138  27.066  36.075  1.00  0.00     0.198 A 
ATOM     96  C   UNL A   1      47.315  28.856  34.985  1.00  0.00     0.198 A 
ATOM     97  F   UNL A   1      46.243  30.122  33.314  1.00  0.00    -0.203 F 
ATOM     98  F   UNL A   1      46.106  26.083  36.985  1.00  0.00    -0.200 F 
ATOM     99  C   UNL A   1      47.285  27.831  35.920  1.00  0.00     0.200 A 
ATOM    100  F   UNL A   1      48.421  29.600  34.844  1.00  0.00    -0.200 F 
ATOM    101  F   UNL A   1      48.362  27.584  36.680  1.00  0.00    -0.200 F 
ENDBRANCH  68  91
ENDBRANCH  42  43
ENDBRANCH  34  37
ENDBRANCH  32  33
ENDBRANCH  31  32
ENDBRANCH   1  31
TORSDOF 15
ENDMDL
MODEL 2
REMARK VINA RESULT:     -12.5      0.569      7.189
REMARK SMILES CC(=O)NS(=O)(=O)c1cc(-c2ccn(C(F)F)c(=O)c2)ccc1C(=O)NCCCCNC(=O)c1ccc(-c2c3nc(c(-c4c(F)c(F)c(F)c(F)c4F)c4ccc([nH]4)c(-c4c(F)c(F)c(F)c(F)c4F)c4nc(c(-c5c(F)c(F)c(F)c(F)c5F)c5ccc2[nH]5)C=C4)C=C3)cc1
REMARK SMILES IDX 28 1 27 2 26 3 24 4 25 5 23 7 8 8 9 9 10 10 22 11 21 12 5 13
REMARK SMILES IDX 6 14 7 15 4 16 1 17 2 18 3 19 11 21 12 22 20 23 13 24 18 25
REMARK SMILES IDX 14 26 19 27 15 28 16 29 17 30 29 31 30 32 31 33 32 34 33 36
REMARK SMILES IDX 34 37 35 38 96 39 36 40 95 41 37 42 38 43 39 44 89 45 40 46
REMARK SMILES IDX 94 47 88 48 90 49 41 50 93 51 87 52 86 53 42 55 74 56 54 57
REMARK SMILES IDX 73 58 55 59 58 60 72 61 91 62 56 63 57 64 71 66 92 67 59 68
REMARK SMILES IDX 43 69 44 70 52 71 45 72 46 73 50 74 53 75 47 76 48 77 51 78
REMARK SMILES IDX 49 79 75 80 76 81 84 82 77 83 78 84 82 85 85 86 79 87 80 88
REMARK SMILES IDX 83 89 81 90 60 91 61 92 69 93 62 94 63 95 67 96 70 97 64 98
REMARK SMILES IDX 65 99 68 100 66 101
REMARK H PARENT 26 6 4 20 31 35 90 54 58 65
REMARK Flexibility Score: inf
ROOT
ATOM      1  C   UNL A   1      31.204  28.730  24.037  1.00  0.00     0.023 C 
ENDROOT
BRANCH   1   2
ATOM      2  C   UNL A   1      30.968  27.229  23.837  1.00  0.00     0.116 C 
BRANCH   2   3
ATOM      3  N   UNL A   1      30.731  26.595  25.120  1.00  0.00    -0.352 N 
ATOM      4  C   UNL A   1      31.406  25.618  25.793  1.00  0.00     0.252 C 
ATOM      5  O   UNL A   1      30.972  25.225  26.876  1.00  0.00    -0.269 OA
ATOM      6  H   UNL A   1      29.936  26.931  25.593  1.00  0.00     0.163 HD
BRANCH   4   7
ATOM      7  C   UNL A   1      32.705  25.067  25.349  1.00  0.00     0.060 A 
ATOM      8  C   UNL A   1      32.920  23.783  24.840  1.00  0.00     0.101 A 
ATOM      9  C   UNL A   1      34.228  23.289  24.711  1.00  0.00     0.031 A 
ATOM     10  C   UNL A   1      35.322  24.034  25.167  1.00  0.00    -0.017 A 
ATOM     11  C   UNL A   1      33.822  25.845  25.716  1.00  0.00     0.016 A 
ATOM     12  C   UNL A   1      35.120  25.330  25.636  1.00  0.00     0.009 A 
BRANCH   8  13
ATOM     13  S   UNL A   1      31.591  22.683  24.476  1.00  0.00     0.264 S 
ATOM     14  O   UNL A   1      30.789  23.344  23.470  1.00  0.00    -0.201 OA
ATOM     15  O   UNL A   1      31.033  22.177  25.705  1.00  0.00    -0.201 OA
BRANCH  13  16
ATOM     16  N   UNL A   1      32.282  21.401  23.679  1.00  0.00    -0.249 N 
ATOM     17  C   UNL A   1      33.018  20.009  25.618  1.00  0.00     0.115 C 
ATOM     18  C   UNL A   1      32.567  20.130  24.192  1.00  0.00     0.230 C 
ATOM     19  O   UNL A   1      32.584  19.179  23.421  1.00  0.00    -0.274 OA
ATOM     20  H   UNL A   1      32.520  21.553  22.735  1.00  0.00     0.183 HD
ENDBRANCH  13  16
ENDBRANCH   8  13
BRANCH  10  21
ATOM     21  C   UNL A   1      36.604  23.334  25.358  1.00  0.00    -0.011 A 
ATOM     22  C   UNL A   1      37.688  23.970  26.086  1.00  0.00     0.027 A 
ATOM     23  C   UNL A   1      36.727  22.050  24.988  1.00  0.00     0.080 A 
ATOM     24  C   UNL A   1      38.764  23.268  26.456  1.00  0.00     0.095 A 
ATOM     25  C   UNL A   1      37.944  21.266  25.357  1.00  0.00     0.255 A 
ATOM     26  N   UNL A   1      38.888  21.935  26.121  1.00  0.00    -0.258 N 
ATOM     27  O   UNL A   1      38.013  20.095  24.999  1.00  0.00    -0.269 OA
BRANCH  26  28
ATOM     28  C   UNL A   1      40.024  21.174  26.577  1.00  0.00     0.451 C 
ATOM     29  F   UNL A   1      41.053  21.270  25.701  1.00  0.00    -0.185 F 
ATOM     30  F   UNL A   1      40.454  21.609  27.785  1.00  0.00    -0.185 F 
ENDBRANCH  26  28
ENDBRANCH  10  21
ENDBRANCH   4   7
ENDBRANCH   2   3
ENDBRANCH   1   2
BRANCH   1  31
ATOM     31  C   UNL A   1      32.664  29.126  24.247  1.00  0.00     0.023 C 
BRANCH  31  32
ATOM     32  C   UNL A   1      33.041  29.323  25.713  1.00  0.00     0.116 C 
BRANCH  32  33
ATOM     33  N   UNL A   1      32.820  30.692  26.170  1.00  0.00    -0.352 N 
ATOM     34  C   UNL A   1      33.485  31.432  27.114  1.00  0.00     0.251 C 
ATOM     35  H   UNL A   1      32.075  31.159  25.729  1.00  0.00     0.163 HD
ATOM     36  O   UNL A   1      33.043  32.518  27.475  1.00  0.00    -0.269 OA
BRANCH  34  37
ATOM     37  C   UNL A   1      34.728  30.915  27.718  1.00  0.00     0.039 A 
ATOM     38  C   UNL A   1      35.761  31.811  28.008  1.00  0.00     0.014 A 
ATOM     39  C   UNL A   1      34.874  29.554  27.992  1.00  0.00     0.014 A 
ATOM     40  C   UNL A   1      36.907  31.356  28.662  1.00  0.00     0.010 A 
ATOM     41  C   UNL A   1      35.992  29.110  28.690  1.00  0.00     0.010 A 
ATOM     42  C   UNL A   1      37.006  30.011  29.049  1.00  0.00    -0.014 A 
BRANCH  42  43
ATOM     43  C   UNL A   1      38.136  29.513  29.866  1.00  0.00     0.031 A 
ATOM     44  C   UNL A   1      38.301  29.985  31.278  1.00  0.00     0.074 A 
ATOM     45  C   UNL A   1      39.081  28.744  29.295  1.00  0.00     0.049 A 
ATOM     46  N   UNL A   1      39.352  29.917  32.051  1.00  0.00    -0.248 NA
ATOM     47  C   UNL A   1      37.143  30.659  31.885  1.00  0.00     0.031 C 
ATOM     48  C   UNL A   1      39.063  28.254  27.916  1.00  0.00     0.029 A 
ATOM     49  N   UNL A   1      40.259  28.261  29.805  1.00  0.00    -0.354 N 
ATOM     50  C   UNL A   1      39.020  30.624  33.197  1.00  0.00     0.074 A 
ATOM     51  C   UNL A   1      37.647  31.061  33.044  1.00  0.00     0.031 C 
ATOM     52  C   UNL A   1      40.170  27.529  27.693  1.00  0.00     0.029 A 
ATOM     53  C   UNL A   1      40.990  27.534  28.901  1.00  0.00     0.049 A 
ATOM     54  H   UNL A   1      40.551  28.421  30.732  1.00  0.00     0.167 HD
ATOM     55  C   UNL A   1      39.808  30.912  34.258  1.00  0.00     0.037 A 
ATOM     56  C   UNL A   1      42.195  26.952  29.028  1.00  0.00     0.037 A 
ATOM     57  C   UNL A   1      41.149  30.421  34.432  1.00  0.00     0.049 A 
ATOM     58  C   UNL A   1      42.947  27.088  30.317  1.00  0.00     0.074 A 
ATOM     59  C   UNL A   1      42.053  30.695  35.443  1.00  0.00     0.029 A 
ATOM     60  N   UNL A   1      41.760  29.513  33.581  1.00  0.00    -0.354 N 
ATOM     61  N   UNL A   1      42.663  27.830  31.358  1.00  0.00    -0.248 NA
ATOM     62  C   UNL A   1      44.185  26.308  30.451  1.00  0.00     0.031 C 
ATOM     63  C   UNL A   1      43.204  29.927  35.219  1.00  0.00     0.029 A 
ATOM     64  C   UNL A   1      43.009  29.176  34.071  1.00  0.00     0.049 A 
ATOM     65  H   UNL A   1      41.364  29.161  32.753  1.00  0.00     0.167 HD
ATOM     66  C   UNL A   1      43.691  27.623  32.263  1.00  0.00     0.074 A 
ATOM     67  C   UNL A   1      44.595  26.663  31.662  1.00  0.00     0.031 C 
ATOM     68  C   UNL A   1      43.880  28.200  33.473  1.00  0.00     0.037 A 
BRANCH  55  69
ATOM     69  C   UNL A   1      39.250  31.844  35.283  1.00  0.00     0.064 A 
ATOM     70  C   UNL A   1      38.467  31.383  36.348  1.00  0.00     0.173 A 
ATOM     71  C   UNL A   1      39.512  33.219  35.196  1.00  0.00     0.173 A 
ATOM     72  F   UNL A   1      38.175  30.079  36.455  1.00  0.00    -0.203 F 
ATOM     73  C   UNL A   1      37.956  32.272  37.289  1.00  0.00     0.198 A 
ATOM     74  C   UNL A   1      39.008  34.104  36.143  1.00  0.00     0.198 A 
ATOM     75  F   UNL A   1      40.251  33.704  34.185  1.00  0.00    -0.203 F 
ATOM     76  F   UNL A   1      37.186  31.818  38.287  1.00  0.00    -0.200 F 
ATOM     77  C   UNL A   1      38.227  33.630  37.188  1.00  0.00     0.200 A 
ATOM     78  F   UNL A   1      39.267  35.415  36.042  1.00  0.00    -0.200 F 
ATOM     79  F   UNL A   1      37.729  34.484  38.092  1.00  0.00    -0.200 F 
ENDBRANCH  55  69
BRANCH  56  80
ATOM     80  C   UNL A   1      42.751  26.175  27.899  1.00  0.00     0.064 A 
ATOM     81  C   UNL A   1      43.507  26.808  26.905  1.00  0.00     0.173 A 
ATOM     82  C   UNL A   1      42.568  24.789  27.812  1.00  0.00     0.173 A 
ATOM     83  F   UNL A   1      43.691  28.135  26.949  1.00  0.00    -0.203 F 
ATOM     84  C   UNL A   1      44.061  26.081  25.856  1.00  0.00     0.198 A 
ATOM     85  C   UNL A   1      43.130  24.061  26.766  1.00  0.00     0.198 A 
ATOM     86  F   UNL A   1      41.853  24.146  28.747  1.00  0.00    -0.203 F 
ATOM     87  F   UNL A   1      44.770  26.708  24.909  1.00  0.00    -0.200 F 
ATOM     88  C   UNL A   1      43.875  24.707  25.789  1.00  0.00     0.200 A 
ATOM     89  F   UNL A   1      42.952  22.734  26.705  1.00  0.00    -0.200 F 
ATOM     90  F   UNL A   1      44.411  24.006  24.781  1.00  0.00    -0.200 F 
ENDBRANCH  56  80
BRANCH  68  91
ATOM     91  C   UNL A   1      45.101  27.797  34.231  1.00  0.00     0.064 A 
ATOM     92  C   UNL A   1      46.314  28.475  34.054  1.00  0.00     0.173 A 
ATOM     93  C   UNL A   1      45.052  26.746  35.157  1.00  0.00     0.173 A 
ATOM     94  F   UNL A   1      46.403  29.478  33.169  1.00  0.00    -0.203 F 
ATOM     95  C   UNL A   1      47.444  28.110  34.780  1.00  0.00     0.198 A 
ATOM     96  C   UNL A   1      46.183  26.386  35.882  1.00  0.00     0.198 A 
ATOM     97  F   UNL A   1      43.912  26.065  35.346  1.00  0.00    -0.203 F 
ATOM     98  F   UNL A   1      48.599  28.762  34.591  1.00  0.00    -0.200 F 
ATOM     99  C   UNL A   1      47.377  27.068  35.693  1.00  0.00     0.200 A 
ATOM    100  F   UNL A   1      46.122  25.374  36.758  1.00  0.00    -0.200 F 
ATOM    101  F   UNL A   1      48.468  26.715  36.387  1.00  0.00    -0.200 F 
ENDBRANCH  68  91
ENDBRANCH  42  43
ENDBRANCH  34  37
ENDBRANCH  32  33
ENDBRANCH  31  32
ENDBRANCH   1  31
TORSDOF 15
ENDMDL
MODEL 3
REMARK VINA RESULT:     -12.4      4.732     10.633
REMARK SMILES CC(=O)NS(=O)(=O)c1cc(-c2ccn(C(F)F)c(=O)c2)ccc1C(=O)NCCCCNC(=O)c1ccc(-c2c3nc(c(-c4c(F)c(F)c(F)c(F)c4F)c4ccc([nH]4)c(-c4c(F)c(F)c(F)c(F)c4F)c4nc(c(-c5c(F)c(F)c(F)c(F)c5F)c5ccc2[nH]5)C=C4)C=C3)cc1
REMARK SMILES IDX 28 1 27 2 26 3 24 4 25 5 23 7 8 8 9 9 10 10 22 11 21 12 5 13
REMARK SMILES IDX 6 14 7 15 4 16 1 17 2 18 3 19 11 21 12 22 20 23 13 24 18 25
REMARK SMILES IDX 14 26 19 27 15 28 16 29 17 30 29 31 30 32 31 33 32 34 33 36
REMARK SMILES IDX 34 37 35 38 96 39 36 40 95 41 37 42 38 43 39 44 89 45 40 46
REMARK SMILES IDX 94 47 88 48 90 49 41 50 93 51 87 52 86 53 42 55 74 56 54 57
REMARK SMILES IDX 73 58 55 59 58 60 72 61 91 62 56 63 57 64 71 66 92 67 59 68
REMARK SMILES IDX 43 69 44 70 52 71 45 72 46 73 50 74 53 75 47 76 48 77 51 78
REMARK SMILES IDX 49 79 75 80 76 81 84 82 77 83 78 84 82 85 85 86 79 87 80 88
REMARK SMILES IDX 83 89 81 90 60 91 61 92 69 93 62 94 63 95 67 96 70 97 64 98
REMARK SMILES IDX 65 99 68 100 66 101
REMARK H PARENT 26 6 4 20 31 35 90 54 58 65
REMARK Flexibility Score: inf
ROOT
ATOM      1  C   UNL A   1      37.186  33.673  29.828  1.00  0.00     0.023 C 
ENDROOT
BRANCH   1   2
ATOM      2  C   UNL A   1      37.616  33.843  31.289  1.00  0.00     0.116 C 
BRANCH   2   3
ATOM      3  N   UNL A   1      36.462  33.713  32.158  1.00  0.00    -0.352 N 
ATOM      4  C   UNL A   1      36.189  32.865  33.193  1.00  0.00     0.252 C 
ATOM      5  O   UNL A   1      35.101  32.942  33.762  1.00  0.00    -0.269 OA
ATOM      6  H   UNL A   1      35.742  34.356  31.968  1.00  0.00     0.163 HD
BRANCH   4   7
ATOM      7  C   UNL A   1      37.176  31.915  33.753  1.00  0.00     0.060 A 
ATOM      8  C   UNL A   1      38.175  32.224  34.682  1.00  0.00     0.101 A 
ATOM      9  C   UNL A   1      39.212  31.309  34.926  1.00  0.00     0.031 A 
ATOM     10  C   UNL A   1      39.307  30.122  34.190  1.00  0.00    -0.017 A 
ATOM     11  C   UNL A   1      37.232  30.674  33.086  1.00  0.00     0.016 A 
ATOM     12  C   UNL A   1      38.294  29.789  33.294  1.00  0.00     0.009 A 
BRANCH   8  13
ATOM     13  S   UNL A   1      38.270  33.798  35.470  1.00  0.00     0.264 S 
ATOM     14  O   UNL A   1      37.263  33.787  36.507  1.00  0.00    -0.201 OA
ATOM     15  O   UNL A   1      38.344  34.834  34.470  1.00  0.00    -0.201 OA
BRANCH  13  16
ATOM     16  N   UNL A   1      39.713  33.796  36.291  1.00  0.00    -0.249 N 
ATOM     17  C   UNL A   1      39.636  36.060  37.344  1.00  0.00     0.115 C 
ATOM     18  C   UNL A   1      40.094  34.632  37.348  1.00  0.00     0.230 C 
ATOM     19  O   UNL A   1      40.911  34.212  38.158  1.00  0.00    -0.274 OA
ATOM     20  H   UNL A   1      40.376  33.128  36.002  1.00  0.00     0.183 HD
ENDBRANCH  13  16
ENDBRANCH   8  13
BRANCH  10  21
ATOM     21  C   UNL A   1      40.589  29.396  34.212  1.00  0.00    -0.011 A 
ATOM     22  C   UNL A   1      40.923  28.460  33.153  1.00  0.00     0.027 A 
ATOM     23  C   UNL A   1      41.517  29.704  35.131  1.00  0.00     0.080 A 
ATOM     24  C   UNL A   1      42.161  27.968  33.044  1.00  0.00     0.095 A 
ATOM     25  C   UNL A   1      42.892  29.128  35.046  1.00  0.00     0.255 A 
ATOM     26  N   UNL A   1      43.140  28.308  33.956  1.00  0.00    -0.258 N 
ATOM     27  O   UNL A   1      43.708  29.438  35.907  1.00  0.00    -0.269 OA
BRANCH  26  28
ATOM     28  C   UNL A   1      44.486  27.819  33.792  1.00  0.00     0.451 C 
ATOM     29  F   UNL A   1      44.570  26.981  32.731  1.00  0.00    -0.185 F 
ATOM     30  F   UNL A   1      45.358  28.837  33.599  1.00  0.00    -0.185 F 
ENDBRANCH  26  28
ENDBRANCH  10  21
ENDBRANCH   4   7
ENDBRANCH   2   3
ENDBRANCH   1   2
BRANCH   1  31
ATOM     31  C   UNL A   1      35.695  33.407  29.626  1.00  0.00     0.023 C 
BRANCH  31  32
ATOM     32  C   UNL A   1      35.298  33.221  28.164  1.00  0.00     0.116 C 
BRANCH  32  33
ATOM     33  N   UNL A   1      34.336  32.139  27.979  1.00  0.00    -0.352 N 
ATOM     34  C   UNL A   1      34.525  30.782  27.905  1.00  0.00     0.251 C 
ATOM     35  H   UNL A   1      33.400  32.430  27.893  1.00  0.00     0.163 HD
ATOM     36  O   UNL A   1      33.601  30.043  27.580  1.00  0.00    -0.269 OA
BRANCH  34  37
ATOM     37  C   UNL A   1      35.852  30.205  28.196  1.00  0.00     0.039 A 
ATOM     38  C   UNL A   1      36.844  30.262  27.213  1.00  0.00     0.014 A 
ATOM     39  C   UNL A   1      36.113  29.607  29.430  1.00  0.00     0.014 A 
ATOM     40  C   UNL A   1      38.130  29.805  27.502  1.00  0.00     0.010 A 
ATOM     41  C   UNL A   1      37.406  29.200  29.737  1.00  0.00     0.010 A 
ATOM     42  C   UNL A   1      38.429  29.315  28.783  1.00  0.00    -0.014 A 
BRANCH  42  43
ATOM     43  C   UNL A   1      39.808  28.950  29.178  1.00  0.00     0.031 A 
ATOM     44  C   UNL A   1      40.644  29.921  29.954  1.00  0.00     0.074 A 
ATOM     45  C   UNL A   1      40.349  27.803  28.727  1.00  0.00     0.049 A 
ATOM     46  N   UNL A   1      41.938  29.930  30.138  1.00  0.00    -0.248 NA
ATOM     47  C   UNL A   1      39.934  31.053  30.570  1.00  0.00     0.031 C 
ATOM     48  C   UNL A   1      39.657  26.794  27.923  1.00  0.00     0.029 A 
ATOM     49  N   UNL A   1      41.620  27.309  28.861  1.00  0.00    -0.354 N 
ATOM     50  C   UNL A   1      42.212  31.116  30.803  1.00  0.00     0.074 A 
ATOM     51  C   UNL A   1      40.943  31.772  31.046  1.00  0.00     0.031 C 
ATOM     52  C   UNL A   1      40.508  25.794  27.646  1.00  0.00     0.029 A 
ATOM     53  C   UNL A   1      41.812  26.110  28.222  1.00  0.00     0.049 A 
ATOM     54  H   UNL A   1      42.328  27.770  29.367  1.00  0.00     0.167 HD
ATOM     55  C   UNL A   1      43.420  31.623  31.141  1.00  0.00     0.037 A 
ATOM     56  C   UNL A   1      42.920  25.359  28.102  1.00  0.00     0.037 A 
ATOM     57  C   UNL A   1      44.670  30.939  30.955  1.00  0.00     0.049 A 
ATOM     58  C   UNL A   1      44.206  25.840  28.704  1.00  0.00     0.074 A 
ATOM     59  C   UNL A   1      45.955  31.383  31.214  1.00  0.00     0.029 A 
ATOM     60  N   UNL A   1      44.781  29.635  30.497  1.00  0.00    -0.354 N 
ATOM     61  N   UNL A   1      44.471  26.999  29.252  1.00  0.00    -0.248 NA
ATOM     62  C   UNL A   1      45.344  24.911  28.672  1.00  0.00     0.031 C 
ATOM     63  C   UNL A   1      46.844  30.334  30.939  1.00  0.00     0.029 A 
ATOM     64  C   UNL A   1      46.107  29.240  30.515  1.00  0.00     0.049 A 
ATOM     65  H   UNL A   1      44.028  29.073  30.204  1.00  0.00     0.167 HD
ATOM     66  C   UNL A   1      45.807  26.950  29.614  1.00  0.00     0.074 A 
ATOM     67  C   UNL A   1      46.294  25.635  29.251  1.00  0.00     0.031 C 
ATOM     68  C   UNL A   1      46.566  27.920  30.175  1.00  0.00     0.037 A 
BRANCH  55  69
ATOM     69  C   UNL A   1      43.440  33.009  31.698  1.00  0.00     0.064 A 
ATOM     70  C   UNL A   1      43.412  33.248  33.077  1.00  0.00     0.173 A 
ATOM     71  C   UNL A   1      43.495  34.111  30.832  1.00  0.00     0.173 A 
ATOM     72  F   UNL A   1      43.337  32.224  33.938  1.00  0.00    -0.203 F 
ATOM     73  C   UNL A   1      43.429  34.550  33.571  1.00  0.00     0.198 A 
ATOM     74  C   UNL A   1      43.522  35.410  31.329  1.00  0.00     0.198 A 
ATOM     75  F   UNL A   1      43.515  33.926  29.503  1.00  0.00    -0.203 F 
ATOM     76  F   UNL A   1      43.374  34.763  34.893  1.00  0.00    -0.200 F 
ATOM     77  C   UNL A   1      43.486  35.628  32.699  1.00  0.00     0.200 A 
ATOM     78  F   UNL A   1      43.573  36.450  30.486  1.00  0.00    -0.200 F 
ATOM     79  F   UNL A   1      43.497  36.880  33.178  1.00  0.00    -0.200 F 
ENDBRANCH  55  69
BRANCH  56  80
ATOM     80  C   UNL A   1      42.849  24.065  27.391  1.00  0.00     0.064 A 
ATOM     81  C   UNL A   1      43.158  23.985  26.027  1.00  0.00     0.173 A 
ATOM     82  C   UNL A   1      42.507  22.884  28.063  1.00  0.00     0.173 A 
ATOM     83  F   UNL A   1      43.476  25.096  25.348  1.00  0.00    -0.203 F 
ATOM     84  C   UNL A   1      43.125  22.766  25.357  1.00  0.00     0.198 A 
ATOM     85  C   UNL A   1      42.482  21.664  27.393  1.00  0.00     0.198 A 
ATOM     86  F   UNL A   1      42.208  22.919  29.370  1.00  0.00    -0.203 F 
ATOM     87  F   UNL A   1      43.412  22.715  24.049  1.00  0.00    -0.200 F 
ATOM     88  C   UNL A   1      42.790  21.606  26.041  1.00  0.00     0.200 A 
ATOM     89  F   UNL A   1      42.162  20.544  28.056  1.00  0.00    -0.200 F 
ATOM     90  F   UNL A   1      42.761  20.432  25.395  1.00  0.00    -0.200 F 
ENDBRANCH  56  80
BRANCH  68  91
ATOM     91  C   UNL A   1      47.998  27.590  30.442  1.00  0.00     0.064 A 
ATOM     92  C   UNL A   1      48.399  27.078  31.683  1.00  0.00     0.173 A 
ATOM     93  C   UNL A   1      48.967  27.763  29.445  1.00  0.00     0.173 A 
ATOM     94  F   UNL A   1      47.501  26.910  32.664  1.00  0.00    -0.203 F 
ATOM     95  C   UNL A   1      49.730  26.750  31.919  1.00  0.00     0.198 A 
ATOM     96  C   UNL A   1      50.297  27.432  29.685  1.00  0.00     0.198 A 
ATOM     97  F   UNL A   1      48.625  28.261  28.249  1.00  0.00    -0.203 F 
ATOM     98  F   UNL A   1      50.099  26.272  33.115  1.00  0.00    -0.200 F 
ATOM     99  C   UNL A   1      50.677  26.926  30.921  1.00  0.00     0.200 A 
ATOM    100  F   UNL A   1      51.215  27.610  28.725  1.00  0.00    -0.200 F 
ATOM    101  F   UNL A   1      51.961  26.616  31.152  1.00  0.00    -0.200 F 
ENDBRANCH  68  91
ENDBRANCH  42  43
ENDBRANCH  34  37
ENDBRANCH  32  33
ENDBRANCH  31  32
ENDBRANCH   1  31
TORSDOF 15
ENDMDL
