MODEL 1
REMARK VINA RESULT:     -12.0      0.000      0.000
REMARK SMILES Cc1ccc(C)c([C@@H](O)[C@@H](C)[C@@H](C)C(=O)NCCCCNC(=O)c2ccc(-c3c4nc(c(-c5c(F)c(F)c(F)c(F)c5F)c5ccc([nH]5)c(-c5c(F)c(F)c(F)c(F)c5F)c5nc(c(-c6c(F)c(F)c(F)c(F)c6F)c6ccc3[nH]6)C=C5)C=C4)cc2)c1
REMARK SMILES IDX 18 1 17 2 16 3 14 4 15 5 12 7 13 8 10 9 11 10 8 11 7 12 1 13
REMARK SMILES IDX 2 14 3 15 87 16 4 17 5 18 6 19 9 20 19 22 20 23 21 24 22 25
REMARK SMILES IDX 23 27 24 28 25 29 86 30 26 31 85 32 27 33 28 34 29 35 79 36
REMARK SMILES IDX 30 37 84 38 78 39 80 40 31 41 83 42 77 43 76 44 32 46 64 47
REMARK SMILES IDX 44 48 63 49 45 50 48 51 62 52 81 53 46 54 47 55 61 57 82 58
REMARK SMILES IDX 49 59 33 60 34 61 42 62 35 63 36 64 40 65 43 66 37 67 38 68
REMARK SMILES IDX 41 69 39 70 65 71 66 72 74 73 67 74 68 75 72 76 75 77 69 78
REMARK SMILES IDX 70 79 73 80 71 81 50 82 51 83 59 84 52 85 53 86 57 87 60 88
REMARK SMILES IDX 54 89 55 90 58 91 56 92
REMARK H PARENT 16 6 9 21 21 26 80 45 48 56
REMARK Flexibility Score: inf
ROOT
ATOM      1  C   UNL A   1      38.846  22.246  25.920  1.00  0.00     0.023 C 
ENDROOT
BRANCH   1   2
ATOM      2  C   UNL A   1      37.347  22.106  25.631  1.00  0.00     0.116 C 
BRANCH   2   3
ATOM      3  N   UNL A   1      36.937  22.532  24.310  1.00  0.00    -0.356 N 
ATOM      4  C   UNL A   1      35.710  22.875  23.827  1.00  0.00     0.223 C 
ATOM      5  O   UNL A   1      35.665  23.350  22.689  1.00  0.00    -0.275 OA
ATOM      6  H   UNL A   1      37.666  22.582  23.650  1.00  0.00     0.163 HD
BRANCH   4   7
ATOM      7  C   UNL A   1      34.419  22.697  24.641  1.00  0.00     0.081 C 
ATOM      8  C   UNL A   1      33.342  22.096  23.738  1.00  0.00     0.018 C 
BRANCH   7   9
ATOM      9  C   UNL A   1      34.071  23.974  25.462  1.00  0.00     0.031 C 
ATOM     10  C   UNL A   1      33.383  23.550  26.776  1.00  0.00     0.011 C 
BRANCH   9  11
ATOM     11  C   UNL A   1      33.239  25.066  24.739  1.00  0.00     0.148 C 
BRANCH  11  12
ATOM     12  C   UNL A   1      32.885  26.241  25.653  1.00  0.00    -0.016 A 
ATOM     13  C   UNL A   1      34.834  29.116  27.271  1.00  0.00     0.044 C 
ATOM     14  C   UNL A   1      33.707  28.224  26.846  1.00  0.00    -0.051 A 
ATOM     15  C   UNL A   1      32.404  28.525  27.237  1.00  0.00     0.004 A 
ATOM     16  C   UNL A   1      33.936  27.093  26.052  1.00  0.00     0.010 A 
ATOM     17  C   UNL A   1      31.354  27.688  26.871  1.00  0.00     0.004 A 
ATOM     18  C   UNL A   1      31.575  26.533  26.102  1.00  0.00    -0.045 A 
ATOM     19  C   UNL A   1      30.355  25.702  25.808  1.00  0.00     0.045 C 
ENDBRANCH  11  12
BRANCH  11  20
ATOM     20  O   UNL A   1      33.904  25.589  23.595  1.00  0.00    -0.388 OA
ATOM     21  H   UNL A   1      33.363  26.290  23.199  1.00  0.00     0.211 HD
ENDBRANCH  11  20
ENDBRANCH   9  11
ENDBRANCH   7   9
ENDBRANCH   4   7
ENDBRANCH   2   3
ENDBRANCH   1   2
BRANCH   1  22
ATOM     22  C   UNL A   1      39.697  20.994  26.167  1.00  0.00     0.023 C 
BRANCH  22  23
ATOM     23  C   UNL A   1      41.000  21.155  26.952  1.00  0.00     0.116 C 
BRANCH  23  24
ATOM     24  N   UNL A   1      42.100  21.783  26.195  1.00  0.00    -0.352 N 
ATOM     25  C   UNL A   1      42.425  23.102  25.878  1.00  0.00     0.251 C 
ATOM     26  H   UNL A   1      42.743  21.130  25.837  1.00  0.00     0.163 HD
ATOM     27  O   UNL A   1      43.255  23.329  25.015  1.00  0.00    -0.269 OA
BRANCH  25  28
ATOM     28  C   UNL A   1      41.810  24.239  26.604  1.00  0.00     0.039 A 
ATOM     29  C   UNL A   1      40.708  24.980  26.173  1.00  0.00     0.014 A 
ATOM     30  C   UNL A   1      42.507  24.726  27.677  1.00  0.00     0.014 A 
ATOM     31  C   UNL A   1      40.468  26.234  26.770  1.00  0.00     0.010 A 
ATOM     32  C   UNL A   1      41.989  25.654  28.509  1.00  0.00     0.010 A 
ATOM     33  C   UNL A   1      41.207  26.597  27.898  1.00  0.00    -0.014 A 
BRANCH  33  34
ATOM     34  C   UNL A   1      41.201  27.868  28.596  1.00  0.00     0.031 A 
ATOM     35  C   UNL A   1      42.249  28.806  28.149  1.00  0.00     0.074 A 
ATOM     36  C   UNL A   1      40.104  28.357  29.218  1.00  0.00     0.049 A 
ATOM     37  N   UNL A   1      43.362  29.072  28.742  1.00  0.00    -0.248 NA
ATOM     38  C   UNL A   1      42.143  29.366  26.790  1.00  0.00     0.031 C 
ATOM     39  C   UNL A   1      38.758  27.780  29.316  1.00  0.00     0.029 A 
ATOM     40  N   UNL A   1      39.958  29.569  29.824  1.00  0.00    -0.354 N 
ATOM     41  C   UNL A   1      44.001  29.984  27.913  1.00  0.00     0.074 A 
ATOM     42  C   UNL A   1      43.372  29.854  26.630  1.00  0.00     0.031 C 
ATOM     43  C   UNL A   1      37.902  28.710  29.807  1.00  0.00     0.029 A 
ATOM     44  C   UNL A   1      38.656  29.898  30.172  1.00  0.00     0.049 A 
ATOM     45  H   UNL A   1      40.719  30.167  30.002  1.00  0.00     0.167 HD
ATOM     46  C   UNL A   1      44.759  30.993  28.424  1.00  0.00     0.037 A 
ATOM     47  C   UNL A   1      38.240  31.082  30.690  1.00  0.00     0.037 A 
ATOM     48  C   UNL A   1      44.970  30.792  29.841  1.00  0.00     0.049 A 
ATOM     49  C   UNL A   1      39.443  31.790  31.201  1.00  0.00     0.074 A 
ATOM     50  C   UNL A   1      45.524  29.790  30.617  1.00  0.00     0.029 A 
ATOM     51  N   UNL A   1      44.213  31.554  30.701  1.00  0.00    -0.354 N 
ATOM     52  N   UNL A   1      40.143  31.402  32.231  1.00  0.00    -0.248 NA
ATOM     53  C   UNL A   1      40.117  32.729  30.315  1.00  0.00     0.031 C 
ATOM     54  C   UNL A   1      44.724  29.742  31.798  1.00  0.00     0.029 A 
ATOM     55  C   UNL A   1      43.758  30.745  31.708  1.00  0.00     0.049 A 
ATOM     56  H   UNL A   1      44.030  32.516  30.607  1.00  0.00     0.167 HD
ATOM     57  C   UNL A   1      41.457  31.692  31.896  1.00  0.00     0.074 A 
ATOM     58  C   UNL A   1      41.365  32.622  30.776  1.00  0.00     0.031 C 
ATOM     59  C   UNL A   1      42.481  30.922  32.367  1.00  0.00     0.037 A 
BRANCH  46  60
ATOM     60  C   UNL A   1      44.966  32.352  27.778  1.00  0.00     0.064 A 
ATOM     61  C   UNL A   1      46.194  32.592  27.128  1.00  0.00     0.173 A 
ATOM     62  C   UNL A   1      44.169  33.501  27.985  1.00  0.00     0.173 A 
ATOM     63  F   UNL A   1      47.031  31.580  26.850  1.00  0.00    -0.203 F 
ATOM     64  C   UNL A   1      46.641  33.882  26.832  1.00  0.00     0.198 A 
ATOM     65  C   UNL A   1      44.595  34.782  27.637  1.00  0.00     0.198 A 
ATOM     66  F   UNL A   1      42.994  33.473  28.618  1.00  0.00    -0.203 F 
ATOM     67  F   UNL A   1      47.878  34.059  26.350  1.00  0.00    -0.200 F 
ATOM     68  C   UNL A   1      45.847  34.978  27.102  1.00  0.00     0.200 A 
ATOM     69  F   UNL A   1      43.806  35.832  27.908  1.00  0.00    -0.200 F 
ATOM     70  F   UNL A   1      46.299  36.219  26.888  1.00  0.00    -0.200 F 
ENDBRANCH  46  60
BRANCH  47  71
ATOM     71  C   UNL A   1      36.921  31.750  30.591  1.00  0.00     0.064 A 
ATOM     72  C   UNL A   1      36.065  31.843  31.701  1.00  0.00     0.173 A 
ATOM     73  C   UNL A   1      36.590  32.543  29.477  1.00  0.00     0.173 A 
ATOM     74  F   UNL A   1      36.332  31.154  32.819  1.00  0.00    -0.203 F 
ATOM     75  C   UNL A   1      34.957  32.698  31.704  1.00  0.00     0.198 A 
ATOM     76  C   UNL A   1      35.480  33.391  29.477  1.00  0.00     0.198 A 
ATOM     77  F   UNL A   1      37.392  32.581  28.403  1.00  0.00    -0.203 F 
ATOM     78  F   UNL A   1      34.198  32.806  32.804  1.00  0.00    -0.200 F 
ATOM     79  C   UNL A   1      34.671  33.478  30.596  1.00  0.00     0.200 A 
ATOM     80  F   UNL A   1      35.236  34.171  28.416  1.00  0.00    -0.200 F 
ATOM     81  F   UNL A   1      33.647  34.342  30.622  1.00  0.00    -0.200 F 
ENDBRANCH  47  71
BRANCH  59  82
ATOM     82  C   UNL A   1      42.180  30.005  33.519  1.00  0.00     0.064 A 
ATOM     83  C   UNL A   1      41.771  28.667  33.375  1.00  0.00     0.173 A 
ATOM     84  C   UNL A   1      42.439  30.463  34.816  1.00  0.00     0.173 A 
ATOM     85  F   UNL A   1      41.597  28.125  32.165  1.00  0.00    -0.203 F 
ATOM     86  C   UNL A   1      41.585  27.845  34.484  1.00  0.00     0.198 A 
ATOM     87  C   UNL A   1      42.290  29.628  35.920  1.00  0.00     0.198 A 
ATOM     88  F   UNL A   1      42.883  31.715  35.011  1.00  0.00    -0.203 F 
ATOM     89  F   UNL A   1      41.179  26.577  34.320  1.00  0.00    -0.200 F 
ATOM     90  C   UNL A   1      41.853  28.324  35.756  1.00  0.00     0.200 A 
ATOM     91  F   UNL A   1      42.597  30.081  37.144  1.00  0.00    -0.200 F 
ATOM     92  F   UNL A   1      41.715  27.521  36.820  1.00  0.00    -0.200 F 
ENDBRANCH  59  82
ENDBRANCH  33  34
ENDBRANCH  25  28
ENDBRANCH  23  24
ENDBRANCH  22  23
ENDBRANCH   1  22
TORSDOF 15
ENDMDL
MODEL 2
REMARK VINA RESULT:     -11.9      2.698      3.831
REMARK SMILES Cc1ccc(C)c([C@@H](O)[C@@H](C)[C@@H](C)C(=O)NCCCCNC(=O)c2ccc(-c3c4nc(c(-c5c(F)c(F)c(F)c(F)c5F)c5ccc([nH]5)c(-c5c(F)c(F)c(F)c(F)c5F)c5nc(c(-c6c(F)c(F)c(F)c(F)c6F)c6ccc3[nH]6)C=C5)C=C4)cc2)c1
REMARK SMILES IDX 18 1 17 2 16 3 14 4 15 5 12 7 13 8 10 9 11 10 8 11 7 12 1 13
REMARK SMILES IDX 2 14 3 15 87 16 4 17 5 18 6 19 9 20 19 22 20 23 21 24 22 25
REMARK SMILES IDX 23 27 24 28 25 29 86 30 26 31 85 32 27 33 28 34 29 35 79 36
REMARK SMILES IDX 30 37 84 38 78 39 80 40 31 41 83 42 77 43 76 44 32 46 64 47
REMARK SMILES IDX 44 48 63 49 45 50 48 51 62 52 81 53 46 54 47 55 61 57 82 58
REMARK SMILES IDX 49 59 33 60 34 61 42 62 35 63 36 64 40 65 43 66 37 67 38 68
REMARK SMILES IDX 41 69 39 70 65 71 66 72 74 73 67 74 68 75 72 76 75 77 69 78
REMARK SMILES IDX 70 79 73 80 71 81 50 82 51 83 59 84 52 85 53 86 57 87 60 88
REMARK SMILES IDX 54 89 55 90 58 91 56 92
REMARK H PARENT 16 6 9 21 21 26 80 45 48 56
REMARK Flexibility Score: inf
ROOT
ATOM      1  C   UNL A   1      40.333  20.816  26.457  1.00  0.00     0.023 C 
ENDROOT
BRANCH   1   2
ATOM      2  C   UNL A   1      39.035  21.263  25.775  1.00  0.00     0.116 C 
BRANCH   2   3
ATOM      3  N   UNL A   1      38.756  22.681  25.863  1.00  0.00    -0.356 N 
ATOM      4  C   UNL A   1      37.571  23.353  25.912  1.00  0.00     0.223 C 
ATOM      5  O   UNL A   1      37.621  24.565  26.139  1.00  0.00    -0.275 OA
ATOM      6  H   UNL A   1      39.555  23.255  25.891  1.00  0.00     0.163 HD
BRANCH   4   7
ATOM      7  C   UNL A   1      36.216  22.660  25.705  1.00  0.00     0.081 C 
ATOM      8  C   UNL A   1      36.161  22.090  24.287  1.00  0.00     0.018 C 
BRANCH   7   9
ATOM      9  C   UNL A   1      35.032  23.546  26.194  1.00  0.00     0.031 C 
ATOM     10  C   UNL A   1      34.225  22.761  27.250  1.00  0.00     0.011 C 
BRANCH   9  11
ATOM     11  C   UNL A   1      34.089  24.120  25.104  1.00  0.00     0.148 C 
BRANCH  11  12
ATOM     12  C   UNL A   1      33.166  25.216  25.638  1.00  0.00    -0.016 A 
ATOM     13  C   UNL A   1      33.647  28.796  26.919  1.00  0.00     0.044 C 
ATOM     14  C   UNL A   1      32.999  27.514  26.490  1.00  0.00    -0.051 A 
ATOM     15  C   UNL A   1      31.612  27.393  26.535  1.00  0.00     0.004 A 
ATOM     16  C   UNL A   1      33.763  26.432  26.036  1.00  0.00     0.010 A 
ATOM     17  C   UNL A   1      31.002  26.197  26.167  1.00  0.00     0.004 A 
ATOM     18  C   UNL A   1      31.760  25.093  25.739  1.00  0.00    -0.045 A 
ATOM     19  C   UNL A   1      30.975  23.854  25.404  1.00  0.00     0.045 C 
ENDBRANCH  11  12
BRANCH  11  20
ATOM     20  O   UNL A   1      34.803  24.654  23.994  1.00  0.00    -0.388 OA
ATOM     21  H   UNL A   1      35.756  24.543  24.138  1.00  0.00     0.211 HD
ENDBRANCH  11  20
ENDBRANCH   9  11
ENDBRANCH   7   9
ENDBRANCH   4   7
ENDBRANCH   2   3
ENDBRANCH   1   2
BRANCH   1  22
ATOM     22  C   UNL A   1      40.957  19.461  26.098  1.00  0.00     0.023 C 
BRANCH  22  23
ATOM     23  C   UNL A   1      42.445  19.258  26.387  1.00  0.00     0.116 C 
BRANCH  23  24
ATOM     24  N   UNL A   1      43.297  19.165  25.186  1.00  0.00    -0.352 N 
ATOM     25  C   UNL A   1      44.037  20.092  24.452  1.00  0.00     0.251 C 
ATOM     26  H   UNL A   1      43.357  18.252  24.826  1.00  0.00     0.163 HD
ATOM     27  O   UNL A   1      44.448  19.796  23.343  1.00  0.00    -0.269 OA
BRANCH  25  28
ATOM     28  C   UNL A   1      44.373  21.422  25.013  1.00  0.00     0.039 A 
ATOM     29  C   UNL A   1      45.574  21.762  25.639  1.00  0.00     0.014 A 
ATOM     30  C   UNL A   1      43.346  22.323  25.106  1.00  0.00     0.014 A 
ATOM     31  C   UNL A   1      45.611  22.926  26.433  1.00  0.00     0.010 A 
ATOM     32  C   UNL A   1      43.548  23.610  25.457  1.00  0.00     0.010 A 
ATOM     33  C   UNL A   1      44.521  23.799  26.402  1.00  0.00    -0.014 A 
BRANCH  33  34
ATOM     34  C   UNL A   1      44.304  24.983  27.211  1.00  0.00     0.031 A 
ATOM     35  C   UNL A   1      45.243  26.086  26.929  1.00  0.00     0.074 A 
ATOM     36  C   UNL A   1      43.117  25.264  27.795  1.00  0.00     0.049 A 
ATOM     37  N   UNL A   1      46.273  26.430  27.623  1.00  0.00    -0.248 NA
ATOM     38  C   UNL A   1      45.145  26.761  25.623  1.00  0.00     0.031 C 
ATOM     39  C   UNL A   1      41.857  24.513  27.743  1.00  0.00     0.029 A 
ATOM     40  N   UNL A   1      42.775  26.380  28.498  1.00  0.00    -0.354 N 
ATOM     41  C   UNL A   1      46.834  27.494  26.929  1.00  0.00     0.074 A 
ATOM     42  C   UNL A   1      46.305  27.415  25.597  1.00  0.00     0.031 C 
ATOM     43  C   UNL A   1      40.857  25.273  28.255  1.00  0.00     0.029 A 
ATOM     44  C   UNL A   1      41.423  26.505  28.780  1.00  0.00     0.049 A 
ATOM     45  H   UNL A   1      43.439  27.048  28.784  1.00  0.00     0.167 HD
ATOM     46  C   UNL A   1      47.419  28.535  27.583  1.00  0.00     0.037 A 
ATOM     47  C   UNL A   1      40.824  27.569  29.373  1.00  0.00     0.037 A 
ATOM     48  C   UNL A   1      47.571  28.220  28.988  1.00  0.00     0.049 A 
ATOM     49  C   UNL A   1      41.889  28.369  30.033  1.00  0.00     0.074 A 
ATOM     50  C   UNL A   1      48.205  27.224  29.705  1.00  0.00     0.029 A 
ATOM     51  N   UNL A   1      46.669  28.790  29.857  1.00  0.00    -0.354 N 
ATOM     52  N   UNL A   1      42.572  27.971  31.070  1.00  0.00    -0.248 NA
ATOM     53  C   UNL A   1      42.484  29.469  29.287  1.00  0.00     0.031 C 
ATOM     54  C   UNL A   1      47.351  26.957  30.817  1.00  0.00     0.029 A 
ATOM     55  C   UNL A   1      46.267  27.833  30.750  1.00  0.00     0.049 A 
ATOM     56  H   UNL A   1      46.365  29.725  29.839  1.00  0.00     0.167 HD
ATOM     57  C   UNL A   1      43.853  28.457  30.858  1.00  0.00     0.074 A 
ATOM     58  C   UNL A   1      43.705  29.476  29.825  1.00  0.00     0.031 C 
ATOM     59  C   UNL A   1      44.941  27.779  31.329  1.00  0.00     0.037 A 
BRANCH  46  60
ATOM     60  C   UNL A   1      47.481  29.967  27.082  1.00  0.00     0.064 A 
ATOM     61  C   UNL A   1      48.711  30.649  27.188  1.00  0.00     0.173 A 
ATOM     62  C   UNL A   1      46.373  30.785  26.763  1.00  0.00     0.173 A 
ATOM     63  F   UNL A   1      49.843  29.981  27.461  1.00  0.00    -0.203 F 
ATOM     64  C   UNL A   1      48.799  32.041  27.113  1.00  0.00     0.198 A 
ATOM     65  C   UNL A   1      46.477  32.169  26.634  1.00  0.00     0.198 A 
ATOM     66  F   UNL A   1      45.126  30.321  26.660  1.00  0.00    -0.203 F 
ATOM     67  F   UNL A   1      49.968  32.644  27.369  1.00  0.00    -0.200 F 
ATOM     68  C   UNL A   1      47.678  32.802  26.852  1.00  0.00     0.200 A 
ATOM     69  F   UNL A   1      45.373  32.888  26.379  1.00  0.00    -0.200 F 
ATOM     70  F   UNL A   1      47.744  34.139  26.852  1.00  0.00    -0.200 F 
ENDBRANCH  46  60
BRANCH  47  71
ATOM     71  C   UNL A   1      39.436  28.070  29.241  1.00  0.00     0.064 A 
ATOM     72  C   UNL A   1      38.590  28.181  30.358  1.00  0.00     0.173 A 
ATOM     73  C   UNL A   1      39.000  28.702  28.061  1.00  0.00     0.173 A 
ATOM     74  F   UNL A   1      38.950  27.646  31.533  1.00  0.00    -0.203 F 
ATOM     75  C   UNL A   1      37.392  28.902  30.303  1.00  0.00     0.198 A 
ATOM     76  C   UNL A   1      37.800  29.415  28.005  1.00  0.00     0.198 A 
ATOM     77  F   UNL A   1      39.778  28.718  26.970  1.00  0.00    -0.203 F 
ATOM     78  F   UNL A   1      36.641  29.038  31.406  1.00  0.00    -0.200 F 
ATOM     79  C   UNL A   1      37.003  29.527  29.130  1.00  0.00     0.200 A 
ATOM     80  F   UNL A   1      37.454  30.050  26.877  1.00  0.00    -0.200 F 
ATOM     81  F   UNL A   1      35.888  30.268  29.095  1.00  0.00    -0.200 F 
ENDBRANCH  47  71
BRANCH  59  82
ATOM     82  C   UNL A   1      44.697  26.721  32.367  1.00  0.00     0.064 A 
ATOM     83  C   UNL A   1      44.512  25.358  32.075  1.00  0.00     0.173 A 
ATOM     84  C   UNL A   1      44.780  27.083  33.717  1.00  0.00     0.173 A 
ATOM     85  F   UNL A   1      44.520  24.916  30.812  1.00  0.00    -0.203 F 
ATOM     86  C   UNL A   1      44.371  24.413  33.089  1.00  0.00     0.198 A 
ATOM     87  C   UNL A   1      44.676  26.133  34.728  1.00  0.00     0.198 A 
ATOM     88  F   UNL A   1      45.008  28.363  34.056  1.00  0.00    -0.203 F 
ATOM     89  F   UNL A   1      44.180  23.122  32.782  1.00  0.00    -0.200 F 
ATOM     90  C   UNL A   1      44.461  24.801  34.415  1.00  0.00     0.200 A 
ATOM     91  F   UNL A   1      44.813  26.505  36.009  1.00  0.00    -0.200 F 
ATOM     92  F   UNL A   1      44.366  23.887  35.391  1.00  0.00    -0.200 F 
ENDBRANCH  59  82
ENDBRANCH  33  34
ENDBRANCH  25  28
ENDBRANCH  23  24
ENDBRANCH  22  23
ENDBRANCH   1  22
TORSDOF 15
ENDMDL
MODEL 3
REMARK VINA RESULT:     -11.8      3.118      8.928
REMARK SMILES Cc1ccc(C)c([C@@H](O)[C@@H](C)[C@@H](C)C(=O)NCCCCNC(=O)c2ccc(-c3c4nc(c(-c5c(F)c(F)c(F)c(F)c5F)c5ccc([nH]5)c(-c5c(F)c(F)c(F)c(F)c5F)c5nc(c(-c6c(F)c(F)c(F)c(F)c6F)c6ccc3[nH]6)C=C5)C=C4)cc2)c1
REMARK SMILES IDX 18 1 17 2 16 3 14 4 15 5 12 7 13 8 10 9 11 10 8 11 7 12 1 13
REMARK SMILES IDX 2 14 3 15 87 16 4 17 5 18 6 19 9 20 19 22 20 23 21 24 22 25
REMARK SMILES IDX 23 27 24 28 25 29 86 30 26 31 85 32 27 33 28 34 29 35 79 36
REMARK SMILES IDX 30 37 84 38 78 39 80 40 31 41 83 42 77 43 76 44 32 46 64 47
REMARK SMILES IDX 44 48 63 49 45 50 48 51 62 52 81 53 46 54 47 55 61 57 82 58
REMARK SMILES IDX 49 59 33 60 34 61 42 62 35 63 36 64 40 65 43 66 37 67 38 68
REMARK SMILES IDX 41 69 39 70 65 71 66 72 74 73 67 74 68 75 72 76 75 77 69 78
REMARK SMILES IDX 70 79 73 80 71 81 50 82 51 83 59 84 52 85 53 86 57 87 60 88
REMARK SMILES IDX 54 89 55 90 58 91 56 92
REMARK H PARENT 16 6 9 21 21 26 80 45 48 56
REMARK Flexibility Score: inf
ROOT
ATOM      1  C   UNL A   1      32.053  28.389  27.443  1.00  0.00     0.023 C 
ENDROOT
BRANCH   1   2
ATOM      2  C   UNL A   1      31.575  27.391  26.381  1.00  0.00     0.116 C 
BRANCH   2   3
ATOM      3  N   UNL A   1      31.109  26.123  26.899  1.00  0.00    -0.356 N 
ATOM      4  C   UNL A   1      31.374  24.848  26.500  1.00  0.00     0.223 C 
ATOM      5  O   UNL A   1      30.959  23.935  27.220  1.00  0.00    -0.275 OA
ATOM      6  H   UNL A   1      30.499  26.195  27.669  1.00  0.00     0.163 HD
BRANCH   4   7
ATOM      7  C   UNL A   1      32.157  24.525  25.219  1.00  0.00     0.081 C 
ATOM      8  C   UNL A   1      31.413  23.437  24.443  1.00  0.00     0.018 C 
BRANCH   7   9
ATOM      9  C   UNL A   1      33.675  24.329  25.502  1.00  0.00     0.031 C 
ATOM     10  C   UNL A   1      34.461  24.570  24.195  1.00  0.00     0.011 C 
BRANCH   9  11
ATOM     11  C   UNL A   1      34.098  22.985  26.151  1.00  0.00     0.148 C 
BRANCH  11  12
ATOM     12  C   UNL A   1      35.566  22.639  25.892  1.00  0.00    -0.016 A 
ATOM     13  C   UNL A   1      38.924  24.381  26.507  1.00  0.00     0.044 C 
ATOM     14  C   UNL A   1      37.906  23.353  26.116  1.00  0.00    -0.051 A 
ATOM     15  C   UNL A   1      38.325  22.128  25.602  1.00  0.00     0.004 A 
ATOM     16  C   UNL A   1      36.534  23.596  26.265  1.00  0.00     0.010 A 
ATOM     17  C   UNL A   1      37.387  21.177  25.208  1.00  0.00     0.004 A 
ATOM     18  C   UNL A   1      36.008  21.422  25.324  1.00  0.00    -0.045 A 
ATOM     19  C   UNL A   1      35.108  20.321  24.830  1.00  0.00     0.045 C 
ENDBRANCH  11  12
BRANCH  11  20
ATOM     20  O   UNL A   1      33.890  22.972  27.559  1.00  0.00    -0.388 OA
ATOM     21  H   UNL A   1      34.298  22.178  27.939  1.00  0.00     0.211 HD
ENDBRANCH  11  20
ENDBRANCH   9  11
ENDBRANCH   7   9
ENDBRANCH   4   7
ENDBRANCH   2   3
ENDBRANCH   1   2
BRANCH   1  22
ATOM     22  C   UNL A   1      32.165  29.879  27.096  1.00  0.00     0.023 C 
BRANCH  22  23
ATOM     23  C   UNL A   1      33.562  30.498  27.035  1.00  0.00     0.116 C 
BRANCH  23  24
ATOM     24  N   UNL A   1      33.889  31.390  28.164  1.00  0.00    -0.352 N 
ATOM     25  C   UNL A   1      34.991  31.515  29.010  1.00  0.00     0.251 C 
ATOM     26  H   UNL A   1      33.175  32.037  28.363  1.00  0.00     0.163 HD
ATOM     27  O   UNL A   1      34.896  32.169  30.034  1.00  0.00    -0.269 OA
BRANCH  25  28
ATOM     28  C   UNL A   1      36.295  30.901  28.665  1.00  0.00     0.039 A 
ATOM     29  C   UNL A   1      36.475  29.752  27.891  1.00  0.00     0.014 A 
ATOM     30  C   UNL A   1      37.391  31.382  29.329  1.00  0.00     0.014 A 
ATOM     31  C   UNL A   1      37.718  29.090  27.952  1.00  0.00     0.010 A 
ATOM     32  C   UNL A   1      38.648  31.016  29.001  1.00  0.00     0.010 A 
ATOM     33  C   UNL A   1      38.781  29.709  28.613  1.00  0.00    -0.014 A 
BRANCH  33  34
ATOM     34  C   UNL A   1      40.097  29.167  28.887  1.00  0.00     0.031 A 
ATOM     35  C   UNL A   1      40.367  28.935  30.319  1.00  0.00     0.074 A 
ATOM     36  C   UNL A   1      40.816  28.487  27.965  1.00  0.00     0.049 A 
ATOM     37  N   UNL A   1      41.072  29.671  31.109  1.00  0.00    -0.248 NA
ATOM     38  C   UNL A   1      39.607  27.874  31.004  1.00  0.00     0.031 C 
ATOM     39  C   UNL A   1      40.464  28.144  26.582  1.00  0.00     0.029 A 
ATOM     40  N   UNL A   1      42.015  27.861  28.136  1.00  0.00    -0.354 N 
ATOM     41  C   UNL A   1      40.994  29.045  32.346  1.00  0.00     0.074 A 
ATOM     42  C   UNL A   1      39.850  28.182  32.277  1.00  0.00     0.031 C 
ATOM     43  C   UNL A   1      41.357  27.245  26.098  1.00  0.00     0.029 A 
ATOM     44  C   UNL A   1      42.406  27.046  27.084  1.00  0.00     0.049 A 
ATOM     45  H   UNL A   1      42.563  27.980  28.945  1.00  0.00     0.167 HD
ATOM     46  C   UNL A   1      42.053  29.035  33.201  1.00  0.00     0.037 A 
ATOM     47  C   UNL A   1      43.500  26.242  27.058  1.00  0.00     0.037 A 
ATOM     48  C   UNL A   1      43.080  29.943  32.735  1.00  0.00     0.049 A 
ATOM     49  C   UNL A   1      44.409  26.694  28.144  1.00  0.00     0.074 A 
ATOM     50  C   UNL A   1      43.138  31.293  32.450  1.00  0.00     0.029 A 
ATOM     51  N   UNL A   1      44.174  29.383  32.115  1.00  0.00    -0.354 N 
ATOM     52  N   UNL A   1      45.046  27.832  28.145  1.00  0.00    -0.248 NA
ATOM     53  C   UNL A   1      44.303  26.044  29.443  1.00  0.00     0.031 C 
ATOM     54  C   UNL A   1      44.003  31.405  31.320  1.00  0.00     0.029 A 
ATOM     55  C   UNL A   1      44.468  30.127  31.003  1.00  0.00     0.049 A 
ATOM     56  H   UNL A   1      44.661  28.585  32.419  1.00  0.00     0.167 HD
ATOM     57  C   UNL A   1      45.035  28.243  29.470  1.00  0.00     0.074 A 
ATOM     58  C   UNL A   1      44.689  27.049  30.233  1.00  0.00     0.031 C 
ATOM     59  C   UNL A   1      45.018  29.571  29.786  1.00  0.00     0.037 A 
BRANCH  46  60
ATOM     60  C   UNL A   1      42.361  27.942  34.209  1.00  0.00     0.064 A 
ATOM     61  C   UNL A   1      42.971  26.762  33.735  1.00  0.00     0.173 A 
ATOM     62  C   UNL A   1      41.863  27.864  35.530  1.00  0.00     0.173 A 
ATOM     63  F   UNL A   1      43.506  26.714  32.505  1.00  0.00    -0.203 F 
ATOM     64  C   UNL A   1      42.962  25.573  34.468  1.00  0.00     0.198 A 
ATOM     65  C   UNL A   1      41.907  26.690  36.279  1.00  0.00     0.198 A 
ATOM     66  F   UNL A   1      41.222  28.869  36.131  1.00  0.00    -0.203 F 
ATOM     67  F   UNL A   1      43.424  24.447  33.907  1.00  0.00    -0.200 F 
ATOM     68  C   UNL A   1      42.416  25.534  35.735  1.00  0.00     0.200 A 
ATOM     69  F   UNL A   1      41.371  26.677  37.509  1.00  0.00    -0.200 F 
ATOM     70  F   UNL A   1      42.340  24.382  36.411  1.00  0.00    -0.200 F 
ENDBRANCH  46  60
BRANCH  47  71
ATOM     71  C   UNL A   1      43.735  24.983  26.313  1.00  0.00     0.064 A 
ATOM     72  C   UNL A   1      44.796  24.862  25.401  1.00  0.00     0.173 A 
ATOM     73  C   UNL A   1      43.085  23.790  26.679  1.00  0.00     0.173 A 
ATOM     74  F   UNL A   1      45.497  25.943  25.032  1.00  0.00    -0.203 F 
ATOM     75  C   UNL A   1      45.199  23.617  24.904  1.00  0.00     0.198 A 
ATOM     76  C   UNL A   1      43.482  22.549  26.177  1.00  0.00     0.198 A 
ATOM     77  F   UNL A   1      42.114  23.798  27.604  1.00  0.00    -0.203 F 
ATOM     78  F   UNL A   1      46.256  23.534  24.083  1.00  0.00    -0.200 F 
ATOM     79  C   UNL A   1      44.548  22.460  25.300  1.00  0.00     0.200 A 
ATOM     80  F   UNL A   1      42.871  21.432  26.599  1.00  0.00    -0.200 F 
ATOM     81  F   UNL A   1      44.972  21.264  24.873  1.00  0.00    -0.200 F 
ENDBRANCH  47  71
BRANCH  59  82
ATOM     82  C   UNL A   1      45.372  30.543  28.696  1.00  0.00     0.064 A 
ATOM     83  C   UNL A   1      44.440  31.100  27.802  1.00  0.00     0.173 A 
ATOM     84  C   UNL A   1      46.686  31.024  28.638  1.00  0.00     0.173 A 
ATOM     85  F   UNL A   1      43.146  30.766  27.858  1.00  0.00    -0.203 F 
ATOM     86  C   UNL A   1      44.820  32.058  26.866  1.00  0.00     0.198 A 
ATOM     87  C   UNL A   1      47.055  32.010  27.727  1.00  0.00     0.198 A 
ATOM     88  F   UNL A   1      47.608  30.568  29.502  1.00  0.00    -0.203 F 
ATOM     89  F   UNL A   1      43.914  32.561  26.014  1.00  0.00    -0.200 F 
ATOM     90  C   UNL A   1      46.126  32.518  26.834  1.00  0.00     0.200 A 
ATOM     91  F   UNL A   1      48.308  32.487  27.733  1.00  0.00    -0.200 F 
ATOM     92  F   UNL A   1      46.483  33.471  25.961  1.00  0.00    -0.200 F 
ENDBRANCH  59  82
ENDBRANCH  33  34
ENDBRANCH  25  28
ENDBRANCH  23  24
ENDBRANCH  22  23
ENDBRANCH   1  22
TORSDOF 15
ENDMDL
