MODEL 1
REMARK VINA RESULT:     -12.2      0.000      0.000
REMARK SMILES Cc1nn(C)c(=O)c(C(=O)N2CCCC[C@H]2C(=O)NCCCCNC(=O)c2ccc(-c3c4nc(c(-c5c(F)c(F)c(F)c(F)c5F)c5ccc([nH]5)c(-c5c(F)c(F)c(F)c(F)c5F)c5nc(c(-c6c(F)c(F)c(F)c(F)c6F)c6ccc3[nH]6)C=C5)C=C4)cc2)c1C
REMARK SMILES IDX 21 1 20 2 19 3 17 4 18 5 16 7 11 8 12 9 13 10 15 11 14 12
REMARK SMILES IDX 9 13 10 14 8 15 1 16 2 17 3 18 90 19 4 20 91 21 5 22 6 23
REMARK SMILES IDX 7 24 22 25 23 26 24 27 25 28 26 30 27 31 28 32 89 33 29 34
REMARK SMILES IDX 88 35 30 36 31 37 32 38 82 39 33 40 87 41 81 42 83 43 34 44
REMARK SMILES IDX 86 45 80 46 79 47 35 49 67 50 47 51 66 52 48 53 51 54 65 55
REMARK SMILES IDX 84 56 49 57 50 58 64 60 85 61 52 62 36 63 37 64 45 65 38 66
REMARK SMILES IDX 39 67 43 68 46 69 40 70 41 71 44 72 42 73 68 74 69 75 77 76
REMARK SMILES IDX 70 77 71 78 75 79 78 80 72 81 73 82 76 83 74 84 53 85 54 86
REMARK SMILES IDX 62 87 55 88 56 89 60 90 63 91 57 92 58 93 61 94 59 95
REMARK H PARENT 19 6 24 29 83 48 51 59
REMARK Flexibility Score: inf
ROOT
ATOM      1  C   UNL A   1      38.996  22.832  26.270  1.00  0.00     0.023 C 
ENDROOT
BRANCH   1   2
ATOM      2  C   UNL A   1      37.753  23.572  25.789  1.00  0.00     0.116 C 
BRANCH   2   3
ATOM      3  N   UNL A   1      37.381  23.246  24.424  1.00  0.00    -0.354 N 
ATOM      4  C   UNL A   1      36.236  23.371  23.696  1.00  0.00     0.242 C 
ATOM      5  O   UNL A   1      36.336  23.011  22.514  1.00  0.00    -0.273 OA
ATOM      6  H   UNL A   1      38.119  22.845  23.911  1.00  0.00     0.163 HD
BRANCH   4   7
ATOM      7  C   UNL A   1      34.830  23.753  24.273  1.00  0.00     0.174 C 
ATOM      8  N   UNL A   1      33.823  24.233  23.338  1.00  0.00    -0.326 N 
ATOM      9  C   UNL A   1      33.216  23.159  22.508  1.00  0.00     0.120 C 
ATOM     10  C   UNL A   1      32.741  21.943  23.296  1.00  0.00     0.022 C 
ATOM     11  C   UNL A   1      34.294  22.578  25.119  1.00  0.00     0.035 C 
ATOM     12  C   UNL A   1      33.817  21.432  24.238  1.00  0.00     0.004 C 
BRANCH   8  13
ATOM     13  C   UNL A   1      33.537  25.549  22.986  1.00  0.00     0.260 C 
ATOM     14  O   UNL A   1      34.026  25.947  21.914  1.00  0.00    -0.269 OA
BRANCH  13  15
ATOM     15  C   UNL A   1      32.832  26.660  23.784  1.00  0.00     0.111 A 
ATOM     16  C   UNL A   1      33.163  29.752  25.966  1.00  0.00     0.069 C 
ATOM     17  C   UNL A   1      32.594  28.767  24.956  1.00  0.00     0.062 A 
ATOM     18  N   UNL A   1      31.785  29.297  24.103  1.00  0.00    -0.175 NA
ATOM     19  C   UNL A   1      33.080  27.330  24.940  1.00  0.00    -0.010 A 
ATOM     20  N   UNL A   1      31.275  28.491  23.147  1.00  0.00    -0.232 N 
ATOM     21  C   UNL A   1      33.931  26.968  26.117  1.00  0.00     0.047 C 
ATOM     22  C   UNL A   1      30.265  29.096  22.296  1.00  0.00     0.178 C 
ATOM     23  C   UNL A   1      31.597  27.152  23.032  1.00  0.00     0.279 A 
ATOM     24  O   UNL A   1      30.905  26.364  22.387  1.00  0.00    -0.267 OA
ENDBRANCH  13  15
ENDBRANCH   8  13
ENDBRANCH   4   7
ENDBRANCH   2   3
ENDBRANCH   1   2
BRANCH   1  25
ATOM     25  C   UNL A   1      39.161  21.424  25.716  1.00  0.00     0.023 C 
BRANCH  25  26
ATOM     26  C   UNL A   1      39.758  20.424  26.693  1.00  0.00     0.116 C 
BRANCH  26  27
ATOM     27  N   UNL A   1      40.708  19.499  26.088  1.00  0.00    -0.352 N 
ATOM     28  C   UNL A   1      42.059  19.681  25.902  1.00  0.00     0.251 C 
ATOM     29  H   UNL A   1      40.340  18.642  25.774  1.00  0.00     0.163 HD
ATOM     30  O   UNL A   1      42.747  18.841  25.335  1.00  0.00    -0.269 OA
BRANCH  28  31
ATOM     31  C   UNL A   1      42.648  20.951  26.357  1.00  0.00     0.039 A 
ATOM     32  C   UNL A   1      42.982  21.911  25.403  1.00  0.00     0.014 A 
ATOM     33  C   UNL A   1      42.723  21.230  27.724  1.00  0.00     0.014 A 
ATOM     34  C   UNL A   1      43.312  23.197  25.822  1.00  0.00     0.010 A 
ATOM     35  C   UNL A   1      42.972  22.531  28.134  1.00  0.00     0.010 A 
ATOM     36  C   UNL A   1      43.260  23.526  27.187  1.00  0.00    -0.014 A 
BRANCH  36  37
ATOM     37  C   UNL A   1      43.508  24.909  27.652  1.00  0.00     0.031 A 
ATOM     38  C   UNL A   1      44.919  25.378  27.848  1.00  0.00     0.074 A 
ATOM     39  C   UNL A   1      42.471  25.710  27.960  1.00  0.00     0.049 A 
ATOM     40  N   UNL A   1      45.354  26.510  28.335  1.00  0.00    -0.248 NA
ATOM     41  C   UNL A   1      45.985  24.433  27.474  1.00  0.00     0.031 C 
ATOM     42  C   UNL A   1      41.056  25.345  27.848  1.00  0.00     0.029 A 
ATOM     43  N   UNL A   1      42.444  26.997  28.431  1.00  0.00    -0.354 N 
ATOM     44  C   UNL A   1      46.738  26.407  28.340  1.00  0.00     0.074 A 
ATOM     45  C   UNL A   1      47.071  25.082  27.865  1.00  0.00     0.031 C 
ATOM     46  C   UNL A   1      40.302  26.398  28.204  1.00  0.00     0.029 A 
ATOM     47  C   UNL A   1      41.177  27.497  28.601  1.00  0.00     0.049 A 
ATOM     48  H   UNL A   1      43.258  27.515  28.629  1.00  0.00     0.167 HD
ATOM     49  C   UNL A   1      47.649  27.346  28.683  1.00  0.00     0.037 A 
ATOM     50  C   UNL A   1      40.771  28.709  29.024  1.00  0.00     0.037 A 
ATOM     51  C   UNL A   1      47.313  28.672  29.122  1.00  0.00     0.049 A 
ATOM     52  C   UNL A   1      41.804  29.737  29.394  1.00  0.00     0.074 A 
ATOM     53  C   UNL A   1      48.161  29.709  29.466  1.00  0.00     0.029 A 
ATOM     54  N   UNL A   1      46.017  29.146  29.266  1.00  0.00    -0.354 N 
ATOM     55  N   UNL A   1      43.111  29.638  29.371  1.00  0.00    -0.248 NA
ATOM     56  C   UNL A   1      41.308  31.044  29.847  1.00  0.00     0.031 C 
ATOM     57  C   UNL A   1      47.378  30.805  29.840  1.00  0.00     0.029 A 
ATOM     58  C   UNL A   1      46.043  30.462  29.695  1.00  0.00     0.049 A 
ATOM     59  H   UNL A   1      45.202  28.625  29.089  1.00  0.00     0.167 HD
ATOM     60  C   UNL A   1      43.595  30.873  29.781  1.00  0.00     0.074 A 
ATOM     61  C   UNL A   1      42.440  31.709  30.039  1.00  0.00     0.031 C 
ATOM     62  C   UNL A   1      44.879  31.277  29.930  1.00  0.00     0.037 A 
BRANCH  49  63
ATOM     63  C   UNL A   1      49.096  26.971  28.573  1.00  0.00     0.064 A 
ATOM     64  C   UNL A   1      49.794  26.432  29.664  1.00  0.00     0.173 A 
ATOM     65  C   UNL A   1      49.787  27.128  27.362  1.00  0.00     0.173 A 
ATOM     66  F   UNL A   1      49.182  26.281  30.848  1.00  0.00    -0.203 F 
ATOM     67  C   UNL A   1      51.138  26.088  29.555  1.00  0.00     0.198 A 
ATOM     68  C   UNL A   1      51.123  26.757  27.250  1.00  0.00     0.198 A 
ATOM     69  F   UNL A   1      49.164  27.639  26.289  1.00  0.00    -0.203 F 
ATOM     70  F   UNL A   1      51.796  25.620  30.625  1.00  0.00    -0.200 F 
ATOM     71  C   UNL A   1      51.800  26.243  28.347  1.00  0.00     0.200 A 
ATOM     72  F   UNL A   1      51.761  26.900  26.079  1.00  0.00    -0.200 F 
ATOM     73  F   UNL A   1      53.093  25.906  28.241  1.00  0.00    -0.200 F 
ENDBRANCH  49  63
BRANCH  50  74
ATOM     74  C   UNL A   1      39.322  29.030  29.064  1.00  0.00     0.064 A 
ATOM     75  C   UNL A   1      38.615  28.978  30.273  1.00  0.00     0.173 A 
ATOM     76  C   UNL A   1      38.623  29.418  27.913  1.00  0.00     0.173 A 
ATOM     77  F   UNL A   1      39.240  28.595  31.396  1.00  0.00    -0.203 F 
ATOM     78  C   UNL A   1      37.260  29.294  30.330  1.00  0.00     0.198 A 
ATOM     79  C   UNL A   1      37.271  29.755  27.975  1.00  0.00     0.198 A 
ATOM     80  F   UNL A   1      39.255  29.489  26.733  1.00  0.00    -0.203 F 
ATOM     81  F   UNL A   1      36.602  29.210  31.494  1.00  0.00    -0.200 F 
ATOM     82  C   UNL A   1      36.590  29.688  29.181  1.00  0.00     0.200 A 
ATOM     83  F   UNL A   1      36.630  30.147  26.865  1.00  0.00    -0.200 F 
ATOM     84  F   UNL A   1      35.289  30.002  29.237  1.00  0.00    -0.200 F 
ENDBRANCH  50  74
BRANCH  62  85
ATOM     85  C   UNL A   1      45.111  32.692  30.365  1.00  0.00     0.064 A 
ATOM     86  C   UNL A   1      45.277  33.022  31.718  1.00  0.00     0.173 A 
ATOM     87  C   UNL A   1      45.246  33.712  29.413  1.00  0.00     0.173 A 
ATOM     88  F   UNL A   1      45.145  32.081  32.664  1.00  0.00    -0.203 F 
ATOM     89  C   UNL A   1      45.561  34.330  32.101  1.00  0.00     0.198 A 
ATOM     90  C   UNL A   1      45.552  35.014  29.798  1.00  0.00     0.198 A 
ATOM     91  F   UNL A   1      45.101  33.441  28.107  1.00  0.00    -0.203 F 
ATOM     92  F   UNL A   1      45.691  34.631  33.401  1.00  0.00    -0.200 F 
ATOM     93  C   UNL A   1      45.707  35.322  31.142  1.00  0.00     0.200 A 
ATOM     94  F   UNL A   1      45.705  35.968  28.870  1.00  0.00    -0.200 F 
ATOM     95  F   UNL A   1      45.996  36.577  31.512  1.00  0.00    -0.200 F 
ENDBRANCH  62  85
ENDBRANCH  36  37
ENDBRANCH  28  31
ENDBRANCH  26  27
ENDBRANCH  25  26
ENDBRANCH   1  25
TORSDOF 13
ENDMDL
MODEL 2
REMARK VINA RESULT:     -12.2      4.836     10.316
REMARK SMILES Cc1nn(C)c(=O)c(C(=O)N2CCCC[C@H]2C(=O)NCCCCNC(=O)c2ccc(-c3c4nc(c(-c5c(F)c(F)c(F)c(F)c5F)c5ccc([nH]5)c(-c5c(F)c(F)c(F)c(F)c5F)c5nc(c(-c6c(F)c(F)c(F)c(F)c6F)c6ccc3[nH]6)C=C5)C=C4)cc2)c1C
REMARK SMILES IDX 21 1 20 2 19 3 17 4 18 5 16 7 11 8 12 9 13 10 15 11 14 12
REMARK SMILES IDX 9 13 10 14 8 15 1 16 2 17 3 18 90 19 4 20 91 21 5 22 6 23
REMARK SMILES IDX 7 24 22 25 23 26 24 27 25 28 26 30 27 31 28 32 89 33 29 34
REMARK SMILES IDX 88 35 30 36 31 37 32 38 82 39 33 40 87 41 81 42 83 43 34 44
REMARK SMILES IDX 86 45 80 46 79 47 35 49 67 50 47 51 66 52 48 53 51 54 65 55
REMARK SMILES IDX 84 56 49 57 50 58 64 60 85 61 52 62 36 63 37 64 45 65 38 66
REMARK SMILES IDX 39 67 43 68 46 69 40 70 41 71 44 72 42 73 68 74 69 75 77 76
REMARK SMILES IDX 70 77 71 78 75 79 78 80 72 81 73 82 76 83 74 84 53 85 54 86
REMARK SMILES IDX 62 87 55 88 56 89 60 90 63 91 57 92 58 93 61 94 59 95
REMARK H PARENT 19 6 24 29 83 48 51 59
REMARK Flexibility Score: inf
ROOT
ATOM      1  C   UNL A   1      32.249  30.499  26.070  1.00  0.00     0.023 C 
ENDROOT
BRANCH   1   2
ATOM      2  C   UNL A   1      32.176  29.158  26.793  1.00  0.00     0.116 C 
BRANCH   2   3
ATOM      3  N   UNL A   1      31.391  28.164  26.082  1.00  0.00    -0.354 N 
ATOM      4  C   UNL A   1      31.691  27.009  25.427  1.00  0.00     0.242 C 
ATOM      5  O   UNL A   1      30.707  26.400  24.981  1.00  0.00    -0.273 OA
ATOM      6  H   UNL A   1      30.428  28.372  26.072  1.00  0.00     0.163 HD
BRANCH   4   7
ATOM      7  C   UNL A   1      33.135  26.519  25.065  1.00  0.00     0.174 C 
ATOM      8  N   UNL A   1      33.272  25.192  24.482  1.00  0.00    -0.326 N 
ATOM      9  C   UNL A   1      32.865  25.120  23.054  1.00  0.00     0.120 C 
ATOM     10  C   UNL A   1      33.468  26.206  22.169  1.00  0.00     0.022 C 
ATOM     11  C   UNL A   1      33.829  27.588  24.193  1.00  0.00     0.035 C 
ATOM     12  C   UNL A   1      33.281  27.587  22.773  1.00  0.00     0.004 C 
BRANCH   8  13
ATOM     13  C   UNL A   1      33.514  23.988  25.137  1.00  0.00     0.260 C 
ATOM     14  O   UNL A   1      33.167  23.936  26.331  1.00  0.00    -0.269 OA
BRANCH  13  15
ATOM     15  C   UNL A   1      34.285  22.741  24.672  1.00  0.00     0.111 A 
ATOM     16  C   UNL A   1      37.425  20.620  24.942  1.00  0.00     0.069 C 
ATOM     17  C   UNL A   1      35.966  20.997  24.733  1.00  0.00     0.062 A 
ATOM     18  N   UNL A   1      35.139  20.028  24.929  1.00  0.00    -0.175 NA
ATOM     19  C   UNL A   1      35.589  22.438  24.441  1.00  0.00    -0.010 A 
ATOM     20  N   UNL A   1      33.822  20.301  24.805  1.00  0.00    -0.232 N 
ATOM     21  C   UNL A   1      36.763  23.321  24.152  1.00  0.00     0.047 C 
ATOM     22  C   UNL A   1      32.936  19.153  24.898  1.00  0.00     0.178 C 
ATOM     23  C   UNL A   1      33.333  21.558  24.505  1.00  0.00     0.279 A 
ATOM     24  O   UNL A   1      32.190  21.733  24.080  1.00  0.00    -0.267 OA
ENDBRANCH  13  15
ENDBRANCH   8  13
ENDBRANCH   4   7
ENDBRANCH   2   3
ENDBRANCH   1   2
BRANCH   1  25
ATOM     25  C   UNL A   1      31.781  31.696  26.886  1.00  0.00     0.023 C 
BRANCH  25  26
ATOM     26  C   UNL A   1      32.895  32.622  27.348  1.00  0.00     0.116 C 
BRANCH  26  27
ATOM     27  N   UNL A   1      32.451  33.979  27.643  1.00  0.00    -0.352 N 
ATOM     28  C   UNL A   1      32.991  34.864  28.547  1.00  0.00     0.251 C 
ATOM     29  H   UNL A   1      31.673  34.301  27.134  1.00  0.00     0.163 HD
ATOM     30  O   UNL A   1      32.496  35.968  28.737  1.00  0.00    -0.269 OA
BRANCH  28  31
ATOM     31  C   UNL A   1      34.156  34.419  29.329  1.00  0.00     0.039 A 
ATOM     32  C   UNL A   1      33.935  33.701  30.504  1.00  0.00     0.014 A 
ATOM     33  C   UNL A   1      35.443  34.591  28.815  1.00  0.00     0.014 A 
ATOM     34  C   UNL A   1      35.011  33.071  31.124  1.00  0.00     0.010 A 
ATOM     35  C   UNL A   1      36.497  33.896  29.387  1.00  0.00     0.010 A 
ATOM     36  C   UNL A   1      36.288  33.124  30.541  1.00  0.00    -0.014 A 
BRANCH  36  37
ATOM     37  C   UNL A   1      37.429  32.382  31.123  1.00  0.00     0.031 A 
ATOM     38  C   UNL A   1      37.919  32.743  32.494  1.00  0.00     0.074 A 
ATOM     39  C   UNL A   1      38.057  31.439  30.397  1.00  0.00     0.049 A 
ATOM     40  N   UNL A   1      38.955  32.287  33.148  1.00  0.00    -0.248 NA
ATOM     41  C   UNL A   1      37.160  33.779  33.213  1.00  0.00     0.031 C 
ATOM     42  C   UNL A   1      37.693  31.034  29.037  1.00  0.00     0.029 A 
ATOM     43  N   UNL A   1      39.137  30.650  30.699  1.00  0.00    -0.354 N 
ATOM     44  C   UNL A   1      38.980  32.991  34.344  1.00  0.00     0.074 A 
ATOM     45  C   UNL A   1      37.894  33.944  34.303  1.00  0.00     0.031 C 
ATOM     46  C   UNL A   1      38.510  30.046  28.638  1.00  0.00     0.029 A 
ATOM     47  C   UNL A   1      39.477  29.773  29.699  1.00  0.00     0.049 A 
ATOM     48  H   UNL A   1      39.623  30.707  31.553  1.00  0.00     0.167 HD
ATOM     49  C   UNL A   1      39.818  32.832  35.394  1.00  0.00     0.037 A 
ATOM     50  C   UNL A   1      40.455  28.850  29.648  1.00  0.00     0.037 A 
ATOM     51  C   UNL A   1      40.874  31.859  35.442  1.00  0.00     0.049 A 
ATOM     52  C   UNL A   1      41.369  28.690  30.831  1.00  0.00     0.074 A 
ATOM     53  C   UNL A   1      41.761  31.598  36.471  1.00  0.00     0.029 A 
ATOM     54  N   UNL A   1      41.177  30.978  34.415  1.00  0.00    -0.354 N 
ATOM     55  N   UNL A   1      41.369  29.342  31.968  1.00  0.00    -0.248 NA
ATOM     56  C   UNL A   1      42.419  27.667  30.727  1.00  0.00     0.031 C 
ATOM     57  C   UNL A   1      42.616  30.572  36.057  1.00  0.00     0.029 A 
ATOM     58  C   UNL A   1      42.239  30.171  34.785  1.00  0.00     0.049 A 
ATOM     59  H   UNL A   1      40.707  30.932  33.552  1.00  0.00     0.167 HD
ATOM     60  C   UNL A   1      42.396  28.795  32.724  1.00  0.00     0.074 A 
ATOM     61  C   UNL A   1      42.995  27.749  31.918  1.00  0.00     0.031 C 
ATOM     62  C   UNL A   1      42.807  29.128  33.970  1.00  0.00     0.037 A 
BRANCH  49  63
ATOM     63  C   UNL A   1      39.604  33.721  36.582  1.00  0.00     0.064 A 
ATOM     64  C   UNL A   1      38.801  33.317  37.658  1.00  0.00     0.173 A 
ATOM     65  C   UNL A   1      40.224  34.977  36.658  1.00  0.00     0.173 A 
ATOM     66  F   UNL A   1      38.170  32.133  37.623  1.00  0.00    -0.203 F 
ATOM     67  C   UNL A   1      38.605  34.148  38.757  1.00  0.00     0.198 A 
ATOM     68  C   UNL A   1      40.049  35.793  37.771  1.00  0.00     0.198 A 
ATOM     69  F   UNL A   1      41.003  35.409  35.655  1.00  0.00    -0.203 F 
ATOM     70  F   UNL A   1      37.794  33.761  39.752  1.00  0.00    -0.200 F 
ATOM     71  C   UNL A   1      39.235  35.382  38.817  1.00  0.00     0.200 A 
ATOM     72  F   UNL A   1      40.664  36.982  37.832  1.00  0.00    -0.200 F 
ATOM     73  F   UNL A   1      39.050  36.179  39.878  1.00  0.00    -0.200 F 
ENDBRANCH  49  63
BRANCH  50  74
ATOM     74  C   UNL A   1      40.581  27.970  28.459  1.00  0.00     0.064 A 
ATOM     75  C   UNL A   1      41.353  28.367  27.359  1.00  0.00     0.173 A 
ATOM     76  C   UNL A   1      39.960  26.714  28.404  1.00  0.00     0.173 A 
ATOM     77  F   UNL A   1      41.950  29.568  27.360  1.00  0.00    -0.203 F 
ATOM     78  C   UNL A   1      41.495  27.545  26.244  1.00  0.00     0.198 A 
ATOM     79  C   UNL A   1      40.120  25.883  27.296  1.00  0.00     0.198 A 
ATOM     80  F   UNL A   1      39.216  26.286  29.434  1.00  0.00    -0.203 F 
ATOM     81  F   UNL A   1      42.216  27.961  25.195  1.00  0.00    -0.200 F 
ATOM     82  C   UNL A   1      40.883  26.300  26.216  1.00  0.00     0.200 A 
ATOM     83  F   UNL A   1      39.538  24.676  27.278  1.00  0.00    -0.200 F 
ATOM     84  F   UNL A   1      41.027  25.505  25.148  1.00  0.00    -0.200 F 
ENDBRANCH  50  74
BRANCH  62  85
ATOM     85  C   UNL A   1      43.938  28.340  34.559  1.00  0.00     0.064 A 
ATOM     86  C   UNL A   1      45.265  28.777  34.451  1.00  0.00     0.173 A 
ATOM     87  C   UNL A   1      43.680  27.179  35.302  1.00  0.00     0.173 A 
ATOM     88  F   UNL A   1      45.560  29.875  33.740  1.00  0.00    -0.203 F 
ATOM     89  C   UNL A   1      46.298  28.071  35.062  1.00  0.00     0.198 A 
ATOM     90  C   UNL A   1      44.713  26.489  35.930  1.00  0.00     0.198 A 
ATOM     91  F   UNL A   1      42.424  26.728  35.437  1.00  0.00    -0.203 F 
ATOM     92  F   UNL A   1      47.564  28.490  34.926  1.00  0.00    -0.200 F 
ATOM     93  C   UNL A   1      46.021  26.934  35.807  1.00  0.00     0.200 A 
ATOM     94  F   UNL A   1      44.442  25.399  36.659  1.00  0.00    -0.200 F 
ATOM     95  F   UNL A   1      47.015  26.266  36.407  1.00  0.00    -0.200 F 
ENDBRANCH  62  85
ENDBRANCH  36  37
ENDBRANCH  28  31
ENDBRANCH  26  27
ENDBRANCH  25  26
ENDBRANCH   1  25
TORSDOF 13
ENDMDL
MODEL 3
REMARK VINA RESULT:     -12.2      4.820     10.283
REMARK SMILES Cc1nn(C)c(=O)c(C(=O)N2CCCC[C@H]2C(=O)NCCCCNC(=O)c2ccc(-c3c4nc(c(-c5c(F)c(F)c(F)c(F)c5F)c5ccc([nH]5)c(-c5c(F)c(F)c(F)c(F)c5F)c5nc(c(-c6c(F)c(F)c(F)c(F)c6F)c6ccc3[nH]6)C=C5)C=C4)cc2)c1C
REMARK SMILES IDX 21 1 20 2 19 3 17 4 18 5 16 7 11 8 12 9 13 10 15 11 14 12
REMARK SMILES IDX 9 13 10 14 8 15 1 16 2 17 3 18 90 19 4 20 91 21 5 22 6 23
REMARK SMILES IDX 7 24 22 25 23 26 24 27 25 28 26 30 27 31 28 32 89 33 29 34
REMARK SMILES IDX 88 35 30 36 31 37 32 38 82 39 33 40 87 41 81 42 83 43 34 44
REMARK SMILES IDX 86 45 80 46 79 47 35 49 67 50 47 51 66 52 48 53 51 54 65 55
REMARK SMILES IDX 84 56 49 57 50 58 64 60 85 61 52 62 36 63 37 64 45 65 38 66
REMARK SMILES IDX 39 67 43 68 46 69 40 70 41 71 44 72 42 73 68 74 69 75 77 76
REMARK SMILES IDX 70 77 71 78 75 79 78 80 72 81 73 82 76 83 74 84 53 85 54 86
REMARK SMILES IDX 62 87 55 88 56 89 60 90 63 91 57 92 58 93 61 94 59 95
REMARK H PARENT 19 6 24 29 83 48 51 59
REMARK Flexibility Score: inf
ROOT
ATOM      1  C   UNL A   1      32.301  30.456  26.148  1.00  0.00     0.023 C 
ENDROOT
BRANCH   1   2
ATOM      2  C   UNL A   1      32.184  29.143  26.914  1.00  0.00     0.116 C 
BRANCH   2   3
ATOM      3  N   UNL A   1      31.403  28.137  26.217  1.00  0.00    -0.354 N 
ATOM      4  C   UNL A   1      31.711  26.987  25.555  1.00  0.00     0.242 C 
ATOM      5  O   UNL A   1      30.730  26.363  25.126  1.00  0.00    -0.273 OA
ATOM      6  H   UNL A   1      30.437  28.328  26.225  1.00  0.00     0.163 HD
BRANCH   4   7
ATOM      7  C   UNL A   1      33.155  26.522  25.165  1.00  0.00     0.174 C 
ATOM      8  N   UNL A   1      33.303  25.203  24.568  1.00  0.00    -0.326 N 
ATOM      9  C   UNL A   1      32.874  25.136  23.147  1.00  0.00     0.120 C 
ATOM     10  C   UNL A   1      33.447  26.239  22.261  1.00  0.00     0.022 C 
ATOM     11  C   UNL A   1      33.819  27.609  24.292  1.00  0.00     0.035 C 
ATOM     12  C   UNL A   1      33.249  27.612  22.881  1.00  0.00     0.004 C 
BRANCH   8  13
ATOM     13  C   UNL A   1      33.574  23.997  25.209  1.00  0.00     0.260 C 
ATOM     14  O   UNL A   1      33.246  23.929  26.408  1.00  0.00    -0.269 OA
BRANCH  13  15
ATOM     15  C   UNL A   1      34.357  22.766  24.722  1.00  0.00     0.111 A 
ATOM     16  C   UNL A   1      37.519  20.672  24.954  1.00  0.00     0.069 C 
ATOM     17  C   UNL A   1      36.056  21.039  24.751  1.00  0.00     0.062 A 
ATOM     18  N   UNL A   1      35.238  20.058  24.929  1.00  0.00    -0.175 NA
ATOM     19  C   UNL A   1      35.665  22.481  24.486  1.00  0.00    -0.010 A 
ATOM     20  N   UNL A   1      33.919  20.320  24.810  1.00  0.00    -0.232 N 
ATOM     21  C   UNL A   1      36.829  23.381  24.213  1.00  0.00     0.047 C 
ATOM     22  C   UNL A   1      33.044  19.162  24.882  1.00  0.00     0.178 C 
ATOM     23  C   UNL A   1      33.417  21.577  24.533  1.00  0.00     0.279 A 
ATOM     24  O   UNL A   1      32.273  21.749  24.111  1.00  0.00    -0.267 OA
ENDBRANCH  13  15
ENDBRANCH   8  13
ENDBRANCH   4   7
ENDBRANCH   2   3
ENDBRANCH   1   2
BRANCH   1  25
ATOM     25  C   UNL A   1      31.820  31.687  26.903  1.00  0.00     0.023 C 
BRANCH  25  26
ATOM     26  C   UNL A   1      32.926  32.631  27.346  1.00  0.00     0.116 C 
BRANCH  26  27
ATOM     27  N   UNL A   1      32.465  33.978  27.658  1.00  0.00    -0.352 N 
ATOM     28  C   UNL A   1      32.989  34.857  28.576  1.00  0.00     0.251 C 
ATOM     29  H   UNL A   1      31.684  34.298  27.150  1.00  0.00     0.163 HD
ATOM     30  O   UNL A   1      32.480  35.952  28.780  1.00  0.00    -0.269 OA
BRANCH  28  31
ATOM     31  C   UNL A   1      34.157  34.415  29.357  1.00  0.00     0.039 A 
ATOM     32  C   UNL A   1      33.940  33.701  30.534  1.00  0.00     0.014 A 
ATOM     33  C   UNL A   1      35.443  34.586  28.838  1.00  0.00     0.014 A 
ATOM     34  C   UNL A   1      35.019  33.074  31.154  1.00  0.00     0.010 A 
ATOM     35  C   UNL A   1      36.499  33.893  29.410  1.00  0.00     0.010 A 
ATOM     36  C   UNL A   1      36.294  33.125  30.567  1.00  0.00    -0.014 A 
BRANCH  36  37
ATOM     37  C   UNL A   1      37.437  32.386  31.148  1.00  0.00     0.031 A 
ATOM     38  C   UNL A   1      37.931  32.753  32.516  1.00  0.00     0.074 A 
ATOM     39  C   UNL A   1      38.063  31.441  30.423  1.00  0.00     0.049 A 
ATOM     40  N   UNL A   1      38.969  32.300  33.168  1.00  0.00    -0.248 NA
ATOM     41  C   UNL A   1      37.174  33.791  33.234  1.00  0.00     0.031 C 
ATOM     42  C   UNL A   1      37.695  31.031  29.066  1.00  0.00     0.029 A 
ATOM     43  N   UNL A   1      39.144  30.653  30.725  1.00  0.00    -0.354 N 
ATOM     44  C   UNL A   1      38.998  33.007  34.361  1.00  0.00     0.074 A 
ATOM     45  C   UNL A   1      37.911  33.960  34.321  1.00  0.00     0.031 C 
ATOM     46  C   UNL A   1      38.512  30.041  28.669  1.00  0.00     0.029 A 
ATOM     47  C   UNL A   1      39.481  29.773  29.727  1.00  0.00     0.049 A 
ATOM     48  H   UNL A   1      39.633  30.713  31.577  1.00  0.00     0.167 HD
ATOM     49  C   UNL A   1      39.839  32.853  35.410  1.00  0.00     0.037 A 
ATOM     50  C   UNL A   1      40.460  28.850  29.677  1.00  0.00     0.037 A 
ATOM     51  C   UNL A   1      40.896  31.881  35.458  1.00  0.00     0.049 A 
ATOM     52  C   UNL A   1      41.378  28.695  30.858  1.00  0.00     0.074 A 
ATOM     53  C   UNL A   1      41.785  31.624  36.486  1.00  0.00     0.029 A 
ATOM     54  N   UNL A   1      41.196  30.996  34.434  1.00  0.00    -0.354 N 
ATOM     55  N   UNL A   1      41.381  29.351  31.992  1.00  0.00    -0.248 NA
ATOM     56  C   UNL A   1      42.427  27.672  30.754  1.00  0.00     0.031 C 
ATOM     57  C   UNL A   1      42.640  30.597  36.073  1.00  0.00     0.029 A 
ATOM     58  C   UNL A   1      42.259  30.191  34.803  1.00  0.00     0.049 A 
ATOM     59  H   UNL A   1      40.722  30.947  33.572  1.00  0.00     0.167 HD
ATOM     60  C   UNL A   1      42.411  28.807  32.747  1.00  0.00     0.074 A 
ATOM     61  C   UNL A   1      43.008  27.759  31.944  1.00  0.00     0.031 C 
ATOM     62  C   UNL A   1      42.825  29.145  33.991  1.00  0.00     0.037 A 
BRANCH  49  63
ATOM     63  C   UNL A   1      39.628  33.746  36.595  1.00  0.00     0.064 A 
ATOM     64  C   UNL A   1      40.220  35.016  36.664  1.00  0.00     0.173 A 
ATOM     65  C   UNL A   1      38.812  33.341  37.662  1.00  0.00     0.173 A 
ATOM     66  F   UNL A   1      41.024  35.440  35.678  1.00  0.00    -0.203 F 
ATOM     67  C   UNL A   1      40.021  35.839  37.769  1.00  0.00     0.198 A 
ATOM     68  C   UNL A   1      38.594  34.178  38.752  1.00  0.00     0.198 A 
ATOM     69  F   UNL A   1      38.224  32.135  37.644  1.00  0.00    -0.203 F 
ATOM     70  F   UNL A   1      40.636  37.029  37.834  1.00  0.00    -0.200 F 
ATOM     71  C   UNL A   1      39.204  35.424  38.809  1.00  0.00     0.200 A 
ATOM     72  F   UNL A   1      37.797  33.779  39.753  1.00  0.00    -0.200 F 
ATOM     73  F   UNL A   1      39.009  36.219  39.869  1.00  0.00    -0.200 F 
ENDBRANCH  49  63
BRANCH  50  74
ATOM     74  C   UNL A   1      40.582  27.966  28.491  1.00  0.00     0.064 A 
ATOM     75  C   UNL A   1      39.925  26.729  28.455  1.00  0.00     0.173 A 
ATOM     76  C   UNL A   1      41.329  28.343  27.365  1.00  0.00     0.173 A 
ATOM     77  F   UNL A   1      39.214  26.319  29.515  1.00  0.00    -0.203 F 
ATOM     78  C   UNL A   1      40.016  25.897  27.342  1.00  0.00     0.198 A 
ATOM     79  C   UNL A   1      41.402  27.519  26.243  1.00  0.00     0.198 A 
ATOM     80  F   UNL A   1      41.972  29.520  27.348  1.00  0.00    -0.203 F 
ATOM     81  F   UNL A   1      39.399  24.707  27.345  1.00  0.00    -0.200 F 
ATOM     82  C   UNL A   1      40.750  26.295  26.234  1.00  0.00     0.200 A 
ATOM     83  F   UNL A   1      42.101  27.912  25.171  1.00  0.00    -0.200 F 
ATOM     84  F   UNL A   1      40.829  25.500  25.159  1.00  0.00    -0.200 F 
ENDBRANCH  50  74
BRANCH  62  85
ATOM     85  C   UNL A   1      43.958  28.360  34.579  1.00  0.00     0.064 A 
ATOM     86  C   UNL A   1      43.734  27.165  35.277  1.00  0.00     0.173 A 
ATOM     87  C   UNL A   1      45.284  28.770  34.375  1.00  0.00     0.173 A 
ATOM     88  F   UNL A   1      42.482  26.742  35.506  1.00  0.00    -0.203 F 
ATOM     89  C   UNL A   1      44.801  26.412  35.758  1.00  0.00     0.198 A 
ATOM     90  C   UNL A   1      46.348  28.001  34.837  1.00  0.00     0.198 A 
ATOM     91  F   UNL A   1      45.546  29.903  33.707  1.00  0.00    -0.203 F 
ATOM     92  F   UNL A   1      44.566  25.285  36.445  1.00  0.00    -0.200 F 
ATOM     93  C   UNL A   1      46.105  26.825  35.530  1.00  0.00     0.200 A 
ATOM     94  F   UNL A   1      47.607  28.396  34.606  1.00  0.00    -0.200 F 
ATOM     95  F   UNL A   1      47.131  26.089  35.980  1.00  0.00    -0.200 F 
ENDBRANCH  62  85
ENDBRANCH  36  37
ENDBRANCH  28  31
ENDBRANCH  26  27
ENDBRANCH  25  26
ENDBRANCH   1  25
TORSDOF 13
ENDMDL
