MODEL 1
REMARK VINA RESULT:     -11.4      0.000      0.000
REMARK SMILES O=C(CNc1nccs1)NCCCCNC(=O)c1ccc(-c2c3nc(c(-c4c(F)c(F)c(F)c(F)c4F)c4ccc([nH]4)c(-c4c(F)c(F)c(F)c(F)c4F)c4nc(c(-c5c(F)c(F)c(F)c(F)c5F)c5ccc2[nH]5)C=C4)C=C3)cc1
REMARK SMILES IDX 12 1 11 2 10 3 1 4 2 5 3 7 4 8 5 10 6 11 9 12 7 13 8 14
REMARK SMILES IDX 13 15 14 16 15 17 16 18 17 20 18 21 19 22 80 23 20 24 79 25
REMARK SMILES IDX 21 26 22 27 23 28 73 29 24 30 78 31 72 32 74 33 25 34 77 35
REMARK SMILES IDX 71 36 70 37 26 39 58 40 38 41 57 42 39 43 42 44 56 45 75 46
REMARK SMILES IDX 40 47 41 48 55 50 76 51 43 52 27 53 28 54 36 55 29 56 30 57
REMARK SMILES IDX 34 58 37 59 31 60 32 61 35 62 33 63 59 64 60 65 68 66 61 67
REMARK SMILES IDX 62 68 66 69 69 70 63 71 64 72 67 73 65 74 44 75 45 76 53 77
REMARK SMILES IDX 46 78 47 79 51 80 54 81 48 82 49 83 52 84 50 85
REMARK H PARENT 10 6 4 9 15 19 74 38 42 49
REMARK Flexibility Score: inf
ROOT
ATOM      1  C   UNL A   1      31.426  30.641  26.518  1.00  0.00     0.023 C 
ENDROOT
BRANCH   1   2
ATOM      2  C   UNL A   1      32.285  30.000  25.428  1.00  0.00     0.116 C 
BRANCH   2   3
ATOM      3  N   UNL A   1      31.509  29.601  24.275  1.00  0.00    -0.355 N 
ATOM      4  O   UNL A   1      31.020  27.462  24.982  1.00  0.00    -0.273 OA
ATOM      5  C   UNL A   1      30.909  28.360  24.154  1.00  0.00     0.239 C 
ATOM      6  H   UNL A   1      31.402  30.245  23.538  1.00  0.00     0.163 HD
BRANCH   5   7
ATOM      7  C   UNL A   1      30.107  28.204  22.853  1.00  0.00     0.215 C 
BRANCH   7   8
ATOM      8  N   UNL A   1      28.817  28.869  22.998  1.00  0.00    -0.352 N 
ATOM      9  H   UNL A   1      28.121  28.448  23.552  1.00  0.00     0.163 HD
BRANCH   8  10
ATOM     10  C   UNL A   1      28.554  30.040  22.395  1.00  0.00     0.183 A 
ATOM     11  N   UNL A   1      28.406  30.212  21.104  1.00  0.00    -0.229 NA
ATOM     12  S   UNL A   1      28.437  31.480  23.338  1.00  0.00    -0.106 S 
ATOM     13  C   UNL A   1      28.173  31.544  20.824  1.00  0.00     0.125 A 
ATOM     14  C   UNL A   1      28.186  32.389  21.909  1.00  0.00     0.088 A 
ENDBRANCH   8  10
ENDBRANCH   7   8
ENDBRANCH   5   7
ENDBRANCH   2   3
ENDBRANCH   1   2
BRANCH   1  15
ATOM     15  C   UNL A   1      31.427  32.171  26.534  1.00  0.00     0.023 C 
BRANCH  15  16
ATOM     16  C   UNL A   1      32.594  32.825  27.269  1.00  0.00     0.116 C 
BRANCH  16  17
ATOM     17  N   UNL A   1      32.339  34.210  27.632  1.00  0.00    -0.352 N 
ATOM     18  C   UNL A   1      32.962  35.002  28.568  1.00  0.00     0.251 C 
ATOM     19  H   UNL A   1      31.611  34.646  27.134  1.00  0.00     0.163 HD
ATOM     20  O   UNL A   1      32.514  36.119  28.820  1.00  0.00    -0.269 OA
BRANCH  18  21
ATOM     21  C   UNL A   1      34.150  34.511  29.302  1.00  0.00     0.039 A 
ATOM     22  C   UNL A   1      33.977  33.981  30.584  1.00  0.00     0.014 A 
ATOM     23  C   UNL A   1      35.429  34.574  28.745  1.00  0.00     0.014 A 
ATOM     24  C   UNL A   1      35.070  33.445  31.272  1.00  0.00     0.010 A 
ATOM     25  C   UNL A   1      36.504  33.971  29.398  1.00  0.00     0.010 A 
ATOM     26  C   UNL A   1      36.336  33.396  30.667  1.00  0.00    -0.014 A 
BRANCH  26  27
ATOM     27  C   UNL A   1      37.487  32.736  31.339  1.00  0.00     0.031 A 
ATOM     28  C   UNL A   1      38.198  31.585  30.682  1.00  0.00     0.074 A 
ATOM     29  C   UNL A   1      37.853  33.131  32.574  1.00  0.00     0.049 A 
ATOM     30  N   UNL A   1      39.171  30.838  31.142  1.00  0.00    -0.248 NA
ATOM     31  C   UNL A   1      37.736  31.206  29.337  1.00  0.00     0.031 C 
ATOM     32  C   UNL A   1      37.219  34.204  33.342  1.00  0.00     0.029 A 
ATOM     33  N   UNL A   1      38.842  32.667  33.409  1.00  0.00    -0.354 N 
ATOM     34  C   UNL A   1      39.431  29.902  30.151  1.00  0.00     0.074 A 
ATOM     35  C   UNL A   1      38.474  30.134  29.091  1.00  0.00     0.031 C 
ATOM     36  C   UNL A   1      37.843  34.328  34.523  1.00  0.00     0.029 A 
ATOM     37  C   UNL A   1      38.893  33.320  34.617  1.00  0.00     0.049 A 
ATOM     38  H   UNL A   1      39.455  31.937  33.164  1.00  0.00     0.167 HD
ATOM     39  C   UNL A   1      40.396  28.950  30.116  1.00  0.00     0.037 A 
ATOM     40  C   UNL A   1      39.687  33.119  35.687  1.00  0.00     0.037 A 
ATOM     41  C   UNL A   1      41.355  28.728  31.168  1.00  0.00     0.049 A 
ATOM     42  C   UNL A   1      40.735  32.039  35.633  1.00  0.00     0.074 A 
ATOM     43  C   UNL A   1      42.400  27.821  31.206  1.00  0.00     0.029 A 
ATOM     44  N   UNL A   1      41.382  29.417  32.372  1.00  0.00    -0.354 N 
ATOM     45  N   UNL A   1      41.013  31.202  34.665  1.00  0.00    -0.248 NA
ATOM     46  C   UNL A   1      41.585  31.883  36.823  1.00  0.00     0.031 C 
ATOM     47  C   UNL A   1      43.024  27.921  32.453  1.00  0.00     0.029 A 
ATOM     48  C   UNL A   1      42.410  28.937  33.170  1.00  0.00     0.049 A 
ATOM     49  H   UNL A   1      40.764  30.141  32.623  1.00  0.00     0.167 HD
ATOM     50  C   UNL A   1      42.086  30.442  35.112  1.00  0.00     0.074 A 
ATOM     51  C   UNL A   1      42.418  30.928  36.435  1.00  0.00     0.031 C 
ATOM     52  C   UNL A   1      42.736  29.432  34.484  1.00  0.00     0.037 A 
BRANCH  39  53
ATOM     53  C   UNL A   1      40.462  28.072  28.898  1.00  0.00     0.064 A 
ATOM     54  C   UNL A   1      39.757  26.861  28.824  1.00  0.00     0.173 A 
ATOM     55  C   UNL A   1      41.208  28.464  27.776  1.00  0.00     0.173 A 
ATOM     56  F   UNL A   1      39.035  26.434  29.872  1.00  0.00    -0.203 F 
ATOM     57  C   UNL A   1      39.826  26.058  27.688  1.00  0.00     0.198 A 
ATOM     58  C   UNL A   1      41.245  27.676  26.627  1.00  0.00     0.198 A 
ATOM     59  F   UNL A   1      41.894  29.617  27.787  1.00  0.00    -0.203 F 
ATOM     60  F   UNL A   1      39.190  24.879  27.663  1.00  0.00    -0.200 F 
ATOM     61  C   UNL A   1      40.563  26.470  26.588  1.00  0.00     0.200 A 
ATOM     62  F   UNL A   1      41.946  28.084  25.561  1.00  0.00    -0.200 F 
ATOM     63  F   UNL A   1      40.623  25.700  25.492  1.00  0.00    -0.200 F 
ENDBRANCH  39  53
BRANCH  40  64
ATOM     64  C   UNL A   1      39.530  33.969  36.898  1.00  0.00     0.064 A 
ATOM     65  C   UNL A   1      38.767  33.534  37.991  1.00  0.00     0.173 A 
ATOM     66  C   UNL A   1      40.133  35.232  36.985  1.00  0.00     0.173 A 
ATOM     67  F   UNL A   1      38.153  32.344  37.948  1.00  0.00    -0.203 F 
ATOM     68  C   UNL A   1      38.594  34.341  39.114  1.00  0.00     0.198 A 
ATOM     69  C   UNL A   1      39.986  36.024  38.121  1.00  0.00     0.198 A 
ATOM     70  F   UNL A   1      40.876  35.693  35.968  1.00  0.00    -0.203 F 
ATOM     71  F   UNL A   1      37.817  33.923  40.123  1.00  0.00    -0.200 F 
ATOM     72  C   UNL A   1      39.208  35.582  39.182  1.00  0.00     0.200 A 
ATOM     73  F   UNL A   1      40.594  37.215  38.188  1.00  0.00    -0.200 F 
ATOM     74  F   UNL A   1      39.046  36.356  40.263  1.00  0.00    -0.200 F 
ENDBRANCH  40  64
BRANCH  52  75
ATOM     75  C   UNL A   1      43.900  28.807  35.199  1.00  0.00     0.064 A 
ATOM     76  C   UNL A   1      45.212  29.271  35.025  1.00  0.00     0.173 A 
ATOM     77  C   UNL A   1      43.693  27.753  36.102  1.00  0.00     0.173 A 
ATOM     78  F   UNL A   1      45.467  30.267  34.162  1.00  0.00    -0.203 F 
ATOM     79  C   UNL A   1      46.276  28.684  35.706  1.00  0.00     0.198 A 
ATOM     80  C   UNL A   1      44.754  27.192  36.808  1.00  0.00     0.198 A 
ATOM     81  F   UNL A   1      42.458  27.275  36.314  1.00  0.00    -0.203 F 
ATOM     82  F   UNL A   1      47.527  29.110  35.483  1.00  0.00    -0.200 F 
ATOM     83  C   UNL A   1      46.046  27.652  36.602  1.00  0.00     0.200 A 
ATOM     84  F   UNL A   1      44.527  26.205  37.685  1.00  0.00    -0.200 F 
ATOM     85  F   UNL A   1      47.069  27.095  37.263  1.00  0.00    -0.200 F 
ENDBRANCH  52  75
ENDBRANCH  26  27
ENDBRANCH  18  21
ENDBRANCH  16  17
ENDBRANCH  15  16
ENDBRANCH   1  15
TORSDOF 13
ENDMDL
MODEL 2
REMARK VINA RESULT:     -11.3      4.453     10.219
REMARK SMILES O=C(CNc1nccs1)NCCCCNC(=O)c1ccc(-c2c3nc(c(-c4c(F)c(F)c(F)c(F)c4F)c4ccc([nH]4)c(-c4c(F)c(F)c(F)c(F)c4F)c4nc(c(-c5c(F)c(F)c(F)c(F)c5F)c5ccc2[nH]5)C=C4)C=C3)cc1
REMARK SMILES IDX 12 1 11 2 10 3 1 4 2 5 3 7 4 8 5 10 6 11 9 12 7 13 8 14
REMARK SMILES IDX 13 15 14 16 15 17 16 18 17 20 18 21 19 22 80 23 20 24 79 25
REMARK SMILES IDX 21 26 22 27 23 28 73 29 24 30 78 31 72 32 74 33 25 34 77 35
REMARK SMILES IDX 71 36 70 37 26 39 58 40 38 41 57 42 39 43 42 44 56 45 75 46
REMARK SMILES IDX 40 47 41 48 55 50 76 51 43 52 27 53 28 54 36 55 29 56 30 57
REMARK SMILES IDX 34 58 37 59 31 60 32 61 35 62 33 63 59 64 60 65 68 66 61 67
REMARK SMILES IDX 62 68 66 69 69 70 63 71 64 72 67 73 65 74 44 75 45 76 53 77
REMARK SMILES IDX 46 78 47 79 51 80 54 81 48 82 49 83 52 84 50 85
REMARK H PARENT 10 6 4 9 15 19 74 38 42 49
REMARK Flexibility Score: inf
ROOT
ATOM      1  C   UNL A   1      34.426  34.927  28.216  1.00  0.00     0.023 C 
ENDROOT
BRANCH   1   2
ATOM      2  C   UNL A   1      33.369  35.322  29.247  1.00  0.00     0.116 C 
BRANCH   2   3
ATOM      3  N   UNL A   1      33.941  35.974  30.403  1.00  0.00    -0.355 N 
ATOM      4  O   UNL A   1      31.955  36.524  31.436  1.00  0.00    -0.273 OA
ATOM      5  C   UNL A   1      33.182  36.505  31.431  1.00  0.00     0.239 C 
ATOM      6  H   UNL A   1      34.921  36.043  30.463  1.00  0.00     0.163 HD
BRANCH   5   7
ATOM      7  C   UNL A   1      34.033  37.102  32.562  1.00  0.00     0.215 C 
BRANCH   7   8
ATOM      8  N   UNL A   1      34.113  36.149  33.662  1.00  0.00    -0.352 N 
ATOM      9  H   UNL A   1      33.579  36.308  34.473  1.00  0.00     0.163 HD
BRANCH   8  10
ATOM     10  C   UNL A   1      34.896  35.059  33.597  1.00  0.00     0.183 A 
ATOM     11  N   UNL A   1      36.205  35.061  33.662  1.00  0.00    -0.229 NA
ATOM     12  S   UNL A   1      34.183  33.507  33.361  1.00  0.00    -0.106 S 
ATOM     13  C   UNL A   1      36.691  33.775  33.534  1.00  0.00     0.125 A 
ATOM     14  C   UNL A   1      35.742  32.801  33.330  1.00  0.00     0.088 A 
ENDBRANCH   8  10
ENDBRANCH   7   8
ENDBRANCH   5   7
ENDBRANCH   2   3
ENDBRANCH   1   2
BRANCH   1  15
ATOM     15  C   UNL A   1      35.432  33.873  28.685  1.00  0.00     0.023 C 
BRANCH  15  16
ATOM     16  C   UNL A   1      34.851  32.713  29.488  1.00  0.00     0.116 C 
BRANCH  16  17
ATOM     17  N   UNL A   1      34.126  31.754  28.669  1.00  0.00    -0.352 N 
ATOM     18  C   UNL A   1      34.559  30.580  28.101  1.00  0.00     0.251 C 
ATOM     19  H   UNL A   1      33.184  31.980  28.496  1.00  0.00     0.163 HD
ATOM     20  O   UNL A   1      33.824  29.967  27.328  1.00  0.00    -0.269 OA
BRANCH  18  21
ATOM     21  C   UNL A   1      35.917  30.061  28.381  1.00  0.00     0.039 A 
ATOM     22  C   UNL A   1      36.911  30.219  27.410  1.00  0.00     0.014 A 
ATOM     23  C   UNL A   1      36.218  29.416  29.582  1.00  0.00     0.014 A 
ATOM     24  C   UNL A   1      38.219  29.802  27.675  1.00  0.00     0.010 A 
ATOM     25  C   UNL A   1      37.536  29.071  29.877  1.00  0.00     0.010 A 
ATOM     26  C   UNL A   1      38.553  29.264  28.928  1.00  0.00    -0.014 A 
BRANCH  26  27
ATOM     27  C   UNL A   1      39.958  28.912  29.267  1.00  0.00     0.031 A 
ATOM     28  C   UNL A   1      40.815  29.864  30.055  1.00  0.00     0.074 A 
ATOM     29  C   UNL A   1      40.486  27.759  28.809  1.00  0.00     0.049 A 
ATOM     30  N   UNL A   1      42.080  29.766  30.382  1.00  0.00    -0.248 NA
ATOM     31  C   UNL A   1      40.172  31.106  30.513  1.00  0.00     0.031 C 
ATOM     32  C   UNL A   1      39.777  26.769  27.997  1.00  0.00     0.029 A 
ATOM     33  N   UNL A   1      41.746  27.230  28.951  1.00  0.00    -0.354 N 
ATOM     34  C   UNL A   1      42.383  30.930  31.076  1.00  0.00     0.074 A 
ATOM     35  C   UNL A   1      41.188  31.748  31.069  1.00  0.00     0.031 C 
ATOM     36  C   UNL A   1      40.604  25.747  27.729  1.00  0.00     0.029 A 
ATOM     37  C   UNL A   1      41.912  26.026  28.311  1.00  0.00     0.049 A 
ATOM     38  H   UNL A   1      42.461  27.673  29.462  1.00  0.00     0.167 HD
ATOM     39  C   UNL A   1      43.544  31.277  31.685  1.00  0.00     0.037 A 
ATOM     40  C   UNL A   1      43.001  25.241  28.193  1.00  0.00     0.037 A 
ATOM     41  C   UNL A   1      44.727  30.457  31.700  1.00  0.00     0.049 A 
ATOM     42  C   UNL A   1      44.285  25.659  28.858  1.00  0.00     0.074 A 
ATOM     43  C   UNL A   1      45.937  30.698  32.329  1.00  0.00     0.029 A 
ATOM     44  N   UNL A   1      44.854  29.237  31.050  1.00  0.00    -0.354 N 
ATOM     45  N   UNL A   1      44.541  26.731  29.565  1.00  0.00    -0.248 NA
ATOM     46  C   UNL A   1      45.432  24.750  28.712  1.00  0.00     0.031 C 
ATOM     47  C   UNL A   1      46.812  29.654  32.014  1.00  0.00     0.029 A 
ATOM     48  C   UNL A   1      46.129  28.728  31.242  1.00  0.00     0.049 A 
ATOM     49  H   UNL A   1      44.143  28.798  30.530  1.00  0.00     0.167 HD
ATOM     50  C   UNL A   1      45.863  26.614  29.974  1.00  0.00     0.074 A 
ATOM     51  C   UNL A   1      46.352  25.357  29.448  1.00  0.00     0.031 C 
ATOM     52  C   UNL A   1      46.604  27.471  30.718  1.00  0.00     0.037 A 
BRANCH  39  53
ATOM     53  C   UNL A   1      43.590  32.605  32.386  1.00  0.00     0.064 A 
ATOM     54  C   UNL A   1      43.269  32.731  33.746  1.00  0.00     0.173 A 
ATOM     55  C   UNL A   1      43.996  33.760  31.701  1.00  0.00     0.173 A 
ATOM     56  F   UNL A   1      42.865  31.660  34.447  1.00  0.00    -0.203 F 
ATOM     57  C   UNL A   1      43.317  33.968  34.385  1.00  0.00     0.198 A 
ATOM     58  C   UNL A   1      44.078  34.990  32.351  1.00  0.00     0.198 A 
ATOM     59  F   UNL A   1      44.324  33.697  30.401  1.00  0.00    -0.203 F 
ATOM     60  F   UNL A   1      42.951  34.072  35.669  1.00  0.00    -0.200 F 
ATOM     61  C   UNL A   1      43.729  35.094  33.688  1.00  0.00     0.200 A 
ATOM     62  F   UNL A   1      44.491  36.073  31.680  1.00  0.00    -0.200 F 
ATOM     63  F   UNL A   1      43.782  36.283  34.305  1.00  0.00    -0.200 F 
ENDBRANCH  39  53
BRANCH  40  64
ATOM     64  C   UNL A   1      42.920  23.970  27.424  1.00  0.00     0.064 A 
ATOM     65  C   UNL A   1      42.519  22.776  28.041  1.00  0.00     0.173 A 
ATOM     66  C   UNL A   1      43.248  23.921  26.061  1.00  0.00     0.173 A 
ATOM     67  F   UNL A   1      42.217  22.767  29.347  1.00  0.00    -0.203 F 
ATOM     68  C   UNL A   1      42.472  21.579  27.329  1.00  0.00     0.198 A 
ATOM     69  C   UNL A   1      43.169  22.730  25.343  1.00  0.00     0.198 A 
ATOM     70  F   UNL A   1      43.633  25.035  25.422  1.00  0.00    -0.203 F 
ATOM     71  F   UNL A   1      42.136  20.443  27.956  1.00  0.00    -0.200 F 
ATOM     72  C   UNL A   1      42.790  21.557  25.980  1.00  0.00     0.200 A 
ATOM     73  F   UNL A   1      43.462  22.717  24.036  1.00  0.00    -0.200 F 
ATOM     74  F   UNL A   1      42.740  20.407  25.295  1.00  0.00    -0.200 F 
ENDBRANCH  40  64
BRANCH  52  75
ATOM     75  C   UNL A   1      48.013  27.064  31.044  1.00  0.00     0.064 A 
ATOM     76  C   UNL A   1      48.308  26.209  32.117  1.00  0.00     0.173 A 
ATOM     77  C   UNL A   1      49.081  27.506  30.247  1.00  0.00     0.173 A 
ATOM     78  F   UNL A   1      47.326  25.769  32.919  1.00  0.00    -0.203 F 
ATOM     79  C   UNL A   1      49.620  25.835  32.395  1.00  0.00     0.198 A 
ATOM     80  C   UNL A   1      50.388  27.102  30.508  1.00  0.00     0.198 A 
ATOM     81  F   UNL A   1      48.856  28.318  29.204  1.00  0.00    -0.203 F 
ATOM     82  F   UNL A   1      49.882  25.060  33.458  1.00  0.00    -0.200 F 
ATOM     83  C   UNL A   1      50.657  26.275  31.587  1.00  0.00     0.200 A 
ATOM     84  F   UNL A   1      51.386  27.515  29.715  1.00  0.00    -0.200 F 
ATOM     85  F   UNL A   1      51.918  25.907  31.851  1.00  0.00    -0.200 F 
ENDBRANCH  52  75
ENDBRANCH  26  27
ENDBRANCH  18  21
ENDBRANCH  16  17
ENDBRANCH  15  16
ENDBRANCH   1  15
TORSDOF 13
ENDMDL
MODEL 3
REMARK VINA RESULT:     -11.1      7.117     12.242
REMARK SMILES O=C(CNc1nccs1)NCCCCNC(=O)c1ccc(-c2c3nc(c(-c4c(F)c(F)c(F)c(F)c4F)c4ccc([nH]4)c(-c4c(F)c(F)c(F)c(F)c4F)c4nc(c(-c5c(F)c(F)c(F)c(F)c5F)c5ccc2[nH]5)C=C4)C=C3)cc1
REMARK SMILES IDX 12 1 11 2 10 3 1 4 2 5 3 7 4 8 5 10 6 11 9 12 7 13 8 14
REMARK SMILES IDX 13 15 14 16 15 17 16 18 17 20 18 21 19 22 80 23 20 24 79 25
REMARK SMILES IDX 21 26 22 27 23 28 73 29 24 30 78 31 72 32 74 33 25 34 77 35
REMARK SMILES IDX 71 36 70 37 26 39 58 40 38 41 57 42 39 43 42 44 56 45 75 46
REMARK SMILES IDX 40 47 41 48 55 50 76 51 43 52 27 53 28 54 36 55 29 56 30 57
REMARK SMILES IDX 34 58 37 59 31 60 32 61 35 62 33 63 59 64 60 65 68 66 61 67
REMARK SMILES IDX 62 68 66 69 69 70 63 71 64 72 67 73 65 74 44 75 45 76 53 77
REMARK SMILES IDX 46 78 47 79 51 80 54 81 48 82 49 83 52 84 50 85
REMARK H PARENT 10 6 4 9 15 19 74 38 42 49
REMARK Flexibility Score: inf
ROOT
ATOM      1  C   UNL A   1      37.210  21.220  24.632  1.00  0.00     0.023 C 
ENDROOT
BRANCH   1   2
ATOM      2  C   UNL A   1      35.983  21.383  25.528  1.00  0.00     0.116 C 
BRANCH   2   3
ATOM      3  N   UNL A   1      34.756  21.011  24.860  1.00  0.00    -0.355 N 
ATOM      4  O   UNL A   1      33.460  20.766  26.750  1.00  0.00    -0.273 OA
ATOM      5  C   UNL A   1      33.572  20.756  25.528  1.00  0.00     0.239 C 
ATOM      6  H   UNL A   1      34.764  20.935  23.878  1.00  0.00     0.163 HD
BRANCH   5   7
ATOM      7  C   UNL A   1      32.407  20.424  24.583  1.00  0.00     0.215 C 
BRANCH   7   8
ATOM      8  N   UNL A   1      32.728  19.222  23.824  1.00  0.00    -0.352 N 
ATOM      9  H   UNL A   1      32.797  19.279  22.843  1.00  0.00     0.163 HD
BRANCH   8  10
ATOM     10  C   UNL A   1      32.934  18.040  24.427  1.00  0.00     0.183 A 
ATOM     11  N   UNL A   1      32.141  17.493  25.316  1.00  0.00    -0.229 NA
ATOM     12  S   UNL A   1      34.365  17.140  24.081  1.00  0.00    -0.106 S 
ATOM     13  C   UNL A   1      32.665  16.293  25.750  1.00  0.00     0.125 A 
ATOM     14  C   UNL A   1      33.885  15.950  25.214  1.00  0.00     0.088 A 
ENDBRANCH   8  10
ENDBRANCH   7   8
ENDBRANCH   5   7
ENDBRANCH   2   3
ENDBRANCH   1   2
BRANCH   1  15
ATOM     15  C   UNL A   1      38.079  19.996  24.932  1.00  0.00     0.023 C 
BRANCH  15  16
ATOM     16  C   UNL A   1      39.132  20.183  26.020  1.00  0.00     0.116 C 
BRANCH  16  17
ATOM     17  N   UNL A   1      40.173  19.167  25.991  1.00  0.00    -0.352 N 
ATOM     18  C   UNL A   1      41.536  19.302  26.110  1.00  0.00     0.251 C 
ATOM     19  H   UNL A   1      39.854  18.244  25.867  1.00  0.00     0.163 HD
ATOM     20  O   UNL A   1      42.265  18.328  25.929  1.00  0.00    -0.269 OA
BRANCH  18  21
ATOM     21  C   UNL A   1      42.140  20.617  26.420  1.00  0.00     0.039 A 
ATOM     22  C   UNL A   1      42.584  21.419  25.364  1.00  0.00     0.014 A 
ATOM     23  C   UNL A   1      42.281  21.063  27.736  1.00  0.00     0.014 A 
ATOM     24  C   UNL A   1      43.095  22.694  25.623  1.00  0.00     0.010 A 
ATOM     25  C   UNL A   1      42.716  22.363  27.988  1.00  0.00     0.010 A 
ATOM     26  C   UNL A   1      43.125  23.196  26.934  1.00  0.00    -0.014 A 
BRANCH  26  27
ATOM     27  C   UNL A   1      43.564  24.588  27.218  1.00  0.00     0.031 A 
ATOM     28  C   UNL A   1      42.591  25.602  27.755  1.00  0.00     0.074 A 
ATOM     29  C   UNL A   1      44.828  24.960  26.932  1.00  0.00     0.049 A 
ATOM     30  N   UNL A   1      42.769  26.878  27.994  1.00  0.00    -0.248 NA
ATOM     31  C   UNL A   1      41.229  25.124  28.035  1.00  0.00     0.031 C 
ATOM     32  C   UNL A   1      45.857  24.087  26.366  1.00  0.00     0.029 A 
ATOM     33  N   UNL A   1      45.459  26.173  27.065  1.00  0.00    -0.354 N 
ATOM     34  C   UNL A   1      41.545  27.353  28.444  1.00  0.00     0.074 A 
ATOM     35  C   UNL A   1      40.616  26.245  28.387  1.00  0.00     0.031 C 
ATOM     36  C   UNL A   1      46.993  24.786  26.219  1.00  0.00     0.029 A 
ATOM     37  C   UNL A   1      46.765  26.164  26.637  1.00  0.00     0.049 A 
ATOM     38  H   UNL A   1      45.017  26.973  27.432  1.00  0.00     0.167 HD
ATOM     39  C   UNL A   1      41.229  28.595  28.889  1.00  0.00     0.037 A 
ATOM     40  C   UNL A   1      47.671  27.158  26.575  1.00  0.00     0.037 A 
ATOM     41  C   UNL A   1      42.158  29.693  28.956  1.00  0.00     0.049 A 
ATOM     42  C   UNL A   1      47.289  28.534  27.052  1.00  0.00     0.074 A 
ATOM     43  C   UNL A   1      41.947  30.974  29.434  1.00  0.00     0.029 A 
ATOM     44  N   UNL A   1      43.476  29.642  28.524  1.00  0.00    -0.354 N 
ATOM     45  N   UNL A   1      46.147  28.956  27.535  1.00  0.00    -0.248 NA
ATOM     46  C   UNL A   1      48.328  29.572  26.979  1.00  0.00     0.031 C 
ATOM     47  C   UNL A   1      43.118  31.714  29.241  1.00  0.00     0.029 A 
ATOM     48  C   UNL A   1      44.081  30.877  28.702  1.00  0.00     0.049 A 
ATOM     49  H   UNL A   1      43.917  28.847  28.148  1.00  0.00     0.167 HD
ATOM     50  C   UNL A   1      46.336  30.295  27.854  1.00  0.00     0.074 A 
ATOM     51  C   UNL A   1      47.709  30.612  27.522  1.00  0.00     0.031 C 
ATOM     52  C   UNL A   1      45.451  31.180  28.373  1.00  0.00     0.037 A 
BRANCH  39  53
ATOM     53  C   UNL A   1      39.814  28.832  29.338  1.00  0.00     0.064 A 
ATOM     54  C   UNL A   1      39.431  28.668  30.678  1.00  0.00     0.173 A 
ATOM     55  C   UNL A   1      38.839  29.263  28.426  1.00  0.00     0.173 A 
ATOM     56  F   UNL A   1      40.321  28.249  31.590  1.00  0.00    -0.203 F 
ATOM     57  C   UNL A   1      38.116  28.893  31.081  1.00  0.00     0.198 A 
ATOM     58  C   UNL A   1      37.534  29.521  28.839  1.00  0.00     0.198 A 
ATOM     59  F   UNL A   1      39.152  29.444  27.134  1.00  0.00    -0.203 F 
ATOM     60  F   UNL A   1      37.761  28.675  32.354  1.00  0.00    -0.200 F 
ATOM     61  C   UNL A   1      37.172  29.326  30.163  1.00  0.00     0.200 A 
ATOM     62  F   UNL A   1      36.627  29.955  27.954  1.00  0.00    -0.200 F 
ATOM     63  F   UNL A   1      35.908  29.549  30.553  1.00  0.00    -0.200 F 
ENDBRANCH  39  53
BRANCH  40  64
ATOM     64  C   UNL A   1      49.037  26.886  26.052  1.00  0.00     0.064 A 
ATOM     65  C   UNL A   1      49.325  27.013  24.685  1.00  0.00     0.173 A 
ATOM     66  C   UNL A   1      50.078  26.488  26.903  1.00  0.00     0.173 A 
ATOM     67  F   UNL A   1      48.359  27.369  23.827  1.00  0.00    -0.203 F 
ATOM     68  C   UNL A   1      50.596  26.729  24.189  1.00  0.00     0.198 A 
ATOM     69  C   UNL A   1      51.356  26.236  26.410  1.00  0.00     0.198 A 
ATOM     70  F   UNL A   1      49.856  26.356  28.219  1.00  0.00    -0.203 F 
ATOM     71  F   UNL A   1      50.831  26.808  22.872  1.00  0.00    -0.200 F 
ATOM     72  C   UNL A   1      51.613  26.348  25.052  1.00  0.00     0.200 A 
ATOM     73  F   UNL A   1      52.338  25.883  27.250  1.00  0.00    -0.200 F 
ATOM     74  F   UNL A   1      52.835  26.079  24.574  1.00  0.00    -0.200 F 
ENDBRANCH  40  64
BRANCH  52  75
ATOM     75  C   UNL A   1      45.948  32.570  28.654  1.00  0.00     0.064 A 
ATOM     76  C   UNL A   1      45.844  33.599  27.706  1.00  0.00     0.173 A 
ATOM     77  C   UNL A   1      46.503  32.886  29.904  1.00  0.00     0.173 A 
ATOM     78  F   UNL A   1      45.335  33.348  26.489  1.00  0.00    -0.203 F 
ATOM     79  C   UNL A   1      46.301  34.884  27.990  1.00  0.00     0.198 A 
ATOM     80  C   UNL A   1      46.927  34.179  30.196  1.00  0.00     0.198 A 
ATOM     81  F   UNL A   1      46.620  31.942  30.850  1.00  0.00    -0.203 F 
ATOM     82  F   UNL A   1      46.239  35.838  27.049  1.00  0.00    -0.200 F 
ATOM     83  C   UNL A   1      46.834  35.175  29.236  1.00  0.00     0.200 A 
ATOM     84  F   UNL A   1      47.427  34.462  31.407  1.00  0.00    -0.200 F 
ATOM     85  F   UNL A   1      47.265  36.413  29.511  1.00  0.00    -0.200 F 
ENDBRANCH  52  75
ENDBRANCH  26  27
ENDBRANCH  18  21
ENDBRANCH  16  17
ENDBRANCH  15  16
ENDBRANCH   1  15
TORSDOF 13
ENDMDL
