MODEL 1
REMARK VINA RESULT:     -13.1      0.000      0.000
REMARK SMILES CCC[N@@H+]1CC2(CCN(C(=O)Cn3nnnc3C)CC2)C[C@H]1C(=O)NCCCCNC(=O)c1ccc(-c2c3nc(c(-c4c(F)c(F)c(F)c(F)c4F)c4ccc([nH]4)c(-c4c(F)c(F)c(F)c(F)c4F)c4nc(c(-c5c(F)c(F)c(F)c(F)c5F)c5ccc2[nH]5)C=C4)C=C3)cc1
REMARK SMILES IDX 27 1 26 2 25 3 23 4 24 5 22 7 4 8 5 9 6 11 21 12 7 13 20 14
REMARK SMILES IDX 8 15 19 16 9 17 10 18 11 19 3 20 2 21 1 22 12 23 13 24 14 25
REMARK SMILES IDX 17 26 15 27 16 28 18 29 28 30 29 31 30 32 31 33 32 35 33 36
REMARK SMILES IDX 34 37 95 38 35 39 94 40 36 41 37 42 38 43 88 44 39 45 93 46
REMARK SMILES IDX 87 47 89 48 40 49 92 50 86 51 85 52 41 54 73 55 53 56 72 57
REMARK SMILES IDX 54 58 57 59 71 60 90 61 55 62 56 63 70 65 91 66 58 67 42 68
REMARK SMILES IDX 43 69 51 70 44 71 45 72 49 73 52 74 46 75 47 76 50 77 48 78
REMARK SMILES IDX 74 79 75 80 83 81 76 82 77 83 81 84 84 85 78 86 79 87 82 88
REMARK SMILES IDX 80 89 59 90 60 91 68 92 61 93 62 94 66 95 69 96 63 97 64 98
REMARK SMILES IDX 67 99 65 100
REMARK H PARENT 25 6 4 10 30 34 89 53 57 64
REMARK Flexibility Score: inf
ROOT
ATOM      1  C   UNL A   1      40.262  20.554  26.521  1.00  0.00     0.023 C 
ENDROOT
BRANCH   1   2
ATOM      2  C   UNL A   1      39.168  21.016  25.552  1.00  0.00     0.116 C 
BRANCH   2   3
ATOM      3  N   UNL A   1      38.611  22.324  25.822  1.00  0.00    -0.351 N 
ATOM      4  C   UNL A   1      37.419  22.919  25.552  1.00  0.00     0.278 C 
ATOM      5  O   UNL A   1      37.250  24.001  26.140  1.00  0.00    -0.268 OA
ATOM      6  H   UNL A   1      39.233  22.912  26.309  1.00  0.00     0.163 HD
BRANCH   4   7
ATOM      7  C   UNL A   1      36.265  22.391  24.646  1.00  0.00     0.274 C 
ATOM      8  N   UNL A   1      35.118  21.815  25.399  1.00  0.00    -0.324 N 
ATOM      9  C   UNL A   1      34.075  22.842  25.357  1.00  0.00     0.270 C 
ATOM     10  H   UNL A   1      35.316  21.590  26.374  1.00  0.00     0.348 HD
ATOM     11  C   UNL A   1      34.241  23.670  24.064  1.00  0.00     0.029 C 
ATOM     12  C   UNL A   1      35.665  23.321  23.591  1.00  0.00     0.088 C 
ATOM     13  C   UNL A   1      34.148  25.204  24.190  1.00  0.00     0.034 C 
ATOM     14  C   UNL A   1      33.096  23.307  23.083  1.00  0.00     0.034 C 
ATOM     15  C   UNL A   1      32.857  25.623  24.849  1.00  0.00     0.120 C 
ATOM     16  C   UNL A   1      31.719  23.801  23.598  1.00  0.00     0.120 C 
ATOM     17  N   UNL A   1      31.718  25.203  24.043  1.00  0.00    -0.341 N 
ATOM     18  C   UNL A   1      30.534  25.934  23.959  1.00  0.00     0.244 C 
ATOM     19  O   UNL A   1      29.502  25.450  23.485  1.00  0.00    -0.273 OA
BRANCH   8  20
ATOM     20  C   UNL A   1      34.741  20.525  24.766  1.00  0.00     0.262 C 
BRANCH  20  21
ATOM     21  C   UNL A   1      33.258  20.118  24.802  1.00  0.00     0.058 C 
ATOM     22  C   UNL A   1      33.002  18.675  25.220  1.00  0.00     0.010 C 
ENDBRANCH  20  21
ENDBRANCH   8  20
BRANCH  18  23
ATOM     23  C   UNL A   1      30.526  27.378  24.425  1.00  0.00     0.248 C 
BRANCH  23  24
ATOM     24  N   UNL A   1      30.156  28.276  23.360  1.00  0.00    -0.220 N 
ATOM     25  N   UNL A   1      31.105  28.813  22.572  1.00  0.00    -0.044 NA
ATOM     26  C   UNL A   1      28.921  28.646  22.904  1.00  0.00     0.148 A 
ATOM     27  N   UNL A   1      30.453  29.553  21.691  1.00  0.00    -0.024 NA
ATOM     28  N   UNL A   1      29.100  29.455  21.879  1.00  0.00    -0.114 NA
ATOM     29  C   UNL A   1      27.620  28.198  23.437  1.00  0.00     0.091 C 
ENDBRANCH  23  24
ENDBRANCH  18  23
ENDBRANCH   4   7
ENDBRANCH   2   3
ENDBRANCH   1   2
BRANCH   1  30
ATOM     30  C   UNL A   1      41.317  19.614  25.925  1.00  0.00     0.023 C 
BRANCH  30  31
ATOM     31  C   UNL A   1      42.687  19.662  26.603  1.00  0.00     0.116 C 
BRANCH  31  32
ATOM     32  N   UNL A   1      43.827  19.524  25.686  1.00  0.00    -0.352 N 
ATOM     33  C   UNL A   1      44.325  20.506  24.840  1.00  0.00     0.251 C 
ATOM     34  H   UNL A   1      44.283  18.651  25.671  1.00  0.00     0.163 HD
ATOM     35  O   UNL A   1      44.831  20.227  23.754  1.00  0.00    -0.269 OA
BRANCH  33  36
ATOM     36  C   UNL A   1      44.226  21.907  25.278  1.00  0.00     0.039 A 
ATOM     37  C   UNL A   1      43.257  22.795  24.794  1.00  0.00     0.014 A 
ATOM     38  C   UNL A   1      45.103  22.283  26.288  1.00  0.00     0.014 A 
ATOM     39  C   UNL A   1      43.130  24.043  25.405  1.00  0.00     0.010 A 
ATOM     40  C   UNL A   1      44.820  23.392  27.026  1.00  0.00     0.010 A 
ATOM     41  C   UNL A   1      43.912  24.320  26.534  1.00  0.00    -0.014 A 
BRANCH  41  42
ATOM     42  C   UNL A   1      43.781  25.542  27.310  1.00  0.00     0.031 A 
ATOM     43  C   UNL A   1      44.697  26.640  26.902  1.00  0.00     0.074 A 
ATOM     44  C   UNL A   1      42.688  25.755  28.076  1.00  0.00     0.049 A 
ATOM     45  N   UNL A   1      45.658  27.167  27.585  1.00  0.00    -0.248 NA
ATOM     46  C   UNL A   1      44.629  27.120  25.511  1.00  0.00     0.031 C 
ATOM     47  C   UNL A   1      41.508  24.894  28.248  1.00  0.00     0.029 A 
ATOM     48  N   UNL A   1      42.334  26.871  28.761  1.00  0.00    -0.354 N 
ATOM     49  C   UNL A   1      46.180  28.187  26.792  1.00  0.00     0.074 A 
ATOM     50  C   UNL A   1      45.670  27.953  25.468  1.00  0.00     0.031 C 
ATOM     51  C   UNL A   1      40.492  25.614  28.772  1.00  0.00     0.029 A 
ATOM     52  C   UNL A   1      40.992  26.927  29.127  1.00  0.00     0.049 A 
ATOM     53  H   UNL A   1      42.975  27.584  28.981  1.00  0.00     0.167 HD
ATOM     54  C   UNL A   1      46.758  29.286  27.357  1.00  0.00     0.037 A 
ATOM     55  C   UNL A   1      40.357  28.018  29.626  1.00  0.00     0.037 A 
ATOM     56  C   UNL A   1      47.051  29.041  28.751  1.00  0.00     0.049 A 
ATOM     57  C   UNL A   1      41.417  28.946  30.115  1.00  0.00     0.074 A 
ATOM     58  C   UNL A   1      47.788  28.091  29.436  1.00  0.00     0.029 A 
ATOM     59  N   UNL A   1      46.215  29.596  29.693  1.00  0.00    -0.354 N 
ATOM     60  N   UNL A   1      42.194  28.681  31.131  1.00  0.00    -0.248 NA
ATOM     61  C   UNL A   1      41.940  29.915  29.161  1.00  0.00     0.031 C 
ATOM     62  C   UNL A   1      46.990  27.762  30.574  1.00  0.00     0.029 A 
ATOM     63  C   UNL A   1      45.873  28.596  30.567  1.00  0.00     0.049 A 
ATOM     64  H   UNL A   1      45.919  30.533  29.733  1.00  0.00     0.167 HD
ATOM     65  C   UNL A   1      43.453  29.110  30.735  1.00  0.00     0.074 A 
ATOM     66  C   UNL A   1      43.224  29.913  29.534  1.00  0.00     0.031 C 
ATOM     67  C   UNL A   1      44.589  28.526  31.220  1.00  0.00     0.037 A 
BRANCH  54  68
ATOM     68  C   UNL A   1      46.680  30.698  26.802  1.00  0.00     0.064 A 
ATOM     69  C   UNL A   1      47.854  31.485  26.811  1.00  0.00     0.173 A 
ATOM     70  C   UNL A   1      45.486  31.413  26.569  1.00  0.00     0.173 A 
ATOM     71  F   UNL A   1      49.056  30.919  26.998  1.00  0.00    -0.203 F 
ATOM     72  C   UNL A   1      47.814  32.879  26.743  1.00  0.00     0.198 A 
ATOM     73  C   UNL A   1      45.457  32.803  26.448  1.00  0.00     0.198 A 
ATOM     74  F   UNL A   1      44.283  30.832  26.549  1.00  0.00    -0.203 F 
ATOM     75  F   UNL A   1      48.940  33.584  26.918  1.00  0.00    -0.200 F 
ATOM     76  C   UNL A   1      46.613  33.539  26.580  1.00  0.00     0.200 A 
ATOM     77  F   UNL A   1      44.278  33.423  26.291  1.00  0.00    -0.200 F 
ATOM     78  F   UNL A   1      46.560  34.876  26.596  1.00  0.00    -0.200 F 
ENDBRANCH  54  68
BRANCH  55  79
ATOM     79  C   UNL A   1      38.957  28.459  29.400  1.00  0.00     0.064 A 
ATOM     80  C   UNL A   1      38.084  28.669  30.480  1.00  0.00     0.173 A 
ATOM     81  C   UNL A   1      38.530  28.954  28.151  1.00  0.00     0.173 A 
ATOM     82  F   UNL A   1      38.427  28.262  31.711  1.00  0.00    -0.203 F 
ATOM     83  C   UNL A   1      36.877  29.362  30.329  1.00  0.00     0.198 A 
ATOM     84  C   UNL A   1      37.324  29.640  28.000  1.00  0.00     0.198 A 
ATOM     85  F   UNL A   1      39.317  28.866  27.069  1.00  0.00    -0.203 F 
ATOM     86  F   UNL A   1      36.103  29.597  31.397  1.00  0.00    -0.200 F 
ATOM     87  C   UNL A   1      36.504  29.858  29.091  1.00  0.00     0.200 A 
ATOM     88  F   UNL A   1      36.991  30.141  26.801  1.00  0.00    -0.200 F 
ATOM     89  F   UNL A   1      35.381  30.577  28.956  1.00  0.00    -0.200 F 
ENDBRANCH  55  79
BRANCH  67  90
ATOM     90  C   UNL A   1      44.469  27.565  32.369  1.00  0.00     0.064 A 
ATOM     91  C   UNL A   1      44.315  27.953  33.713  1.00  0.00     0.173 A 
ATOM     92  C   UNL A   1      44.333  26.202  32.076  1.00  0.00     0.173 A 
ATOM     93  F   UNL A   1      44.327  29.242  34.066  1.00  0.00    -0.203 F 
ATOM     94  C   UNL A   1      44.079  27.012  34.715  1.00  0.00     0.198 A 
ATOM     95  C   UNL A   1      44.060  25.270  33.073  1.00  0.00     0.198 A 
ATOM     96  F   UNL A   1      44.415  25.779  30.804  1.00  0.00    -0.203 F 
ATOM     97  F   UNL A   1      43.943  27.409  35.990  1.00  0.00    -0.200 F 
ATOM     98  C   UNL A   1      43.943  25.674  34.393  1.00  0.00     0.200 A 
ATOM     99  F   UNL A   1      43.880  23.983  32.747  1.00  0.00    -0.200 F 
ATOM    100  F   UNL A   1      43.672  24.775  35.349  1.00  0.00    -0.200 F 
ENDBRANCH  67  90
ENDBRANCH  41  42
ENDBRANCH  33  36
ENDBRANCH  31  32
ENDBRANCH  30  31
ENDBRANCH   1  30
TORSDOF 15
ENDMDL
MODEL 2
REMARK VINA RESULT:     -12.8      5.557      9.450
REMARK SMILES CCC[N@@H+]1CC2(CCN(C(=O)Cn3nnnc3C)CC2)C[C@H]1C(=O)NCCCCNC(=O)c1ccc(-c2c3nc(c(-c4c(F)c(F)c(F)c(F)c4F)c4ccc([nH]4)c(-c4c(F)c(F)c(F)c(F)c4F)c4nc(c(-c5c(F)c(F)c(F)c(F)c5F)c5ccc2[nH]5)C=C4)C=C3)cc1
REMARK SMILES IDX 27 1 26 2 25 3 23 4 24 5 22 7 4 8 5 9 6 11 21 12 7 13 20 14
REMARK SMILES IDX 8 15 19 16 9 17 10 18 11 19 3 20 2 21 1 22 12 23 13 24 14 25
REMARK SMILES IDX 17 26 15 27 16 28 18 29 28 30 29 31 30 32 31 33 32 35 33 36
REMARK SMILES IDX 34 37 95 38 35 39 94 40 36 41 37 42 38 43 88 44 39 45 93 46
REMARK SMILES IDX 87 47 89 48 40 49 92 50 86 51 85 52 41 54 73 55 53 56 72 57
REMARK SMILES IDX 54 58 57 59 71 60 90 61 55 62 56 63 70 65 91 66 58 67 42 68
REMARK SMILES IDX 43 69 51 70 44 71 45 72 49 73 52 74 46 75 47 76 50 77 48 78
REMARK SMILES IDX 74 79 75 80 83 81 76 82 77 83 81 84 84 85 78 86 79 87 82 88
REMARK SMILES IDX 80 89 59 90 60 91 68 92 61 93 62 94 66 95 69 96 63 97 64 98
REMARK SMILES IDX 67 99 65 100
REMARK H PARENT 25 6 4 10 30 34 89 53 57 64
REMARK Flexibility Score: inf
ROOT
ATOM      1  C   UNL A   1      41.831  26.823  36.636  1.00  0.00     0.023 C 
ENDROOT
BRANCH   1   2
ATOM      2  C   UNL A   1      41.975  28.106  35.810  1.00  0.00     0.116 C 
BRANCH   2   3
ATOM      3  N   UNL A   1      41.132  29.208  36.221  1.00  0.00    -0.351 N 
ATOM      4  C   UNL A   1      40.304  30.062  35.564  1.00  0.00     0.278 C 
ATOM      5  O   UNL A   1      39.589  30.750  36.315  1.00  0.00    -0.268 OA
ATOM      6  H   UNL A   1      41.166  29.375  37.192  1.00  0.00     0.163 HD
BRANCH   4   7
ATOM      7  C   UNL A   1      40.132  30.241  34.025  1.00  0.00     0.274 C 
ATOM      8  N   UNL A   1      39.160  29.297  33.410  1.00  0.00    -0.324 N 
ATOM      9  C   UNL A   1      37.948  30.088  33.183  1.00  0.00     0.270 C 
ATOM     10  H   UNL A   1      38.921  28.492  33.989  1.00  0.00     0.348 HD
ATOM     11  C   UNL A   1      38.347  31.561  32.956  1.00  0.00     0.029 C 
ATOM     12  C   UNL A   1      39.798  31.627  33.471  1.00  0.00     0.088 C 
ATOM     13  C   UNL A   1      37.534  32.638  33.703  1.00  0.00     0.034 C 
ATOM     14  C   UNL A   1      38.147  31.914  31.460  1.00  0.00     0.034 C 
ATOM     15  C   UNL A   1      36.058  32.506  33.416  1.00  0.00     0.120 C 
ATOM     16  C   UNL A   1      36.645  31.932  31.069  1.00  0.00     0.120 C 
ATOM     17  N   UNL A   1      35.799  32.700  31.995  1.00  0.00    -0.341 N 
ATOM     18  C   UNL A   1      34.635  33.293  31.507  1.00  0.00     0.244 C 
ATOM     19  O   UNL A   1      34.319  33.223  30.316  1.00  0.00    -0.273 OA
BRANCH   8  20
ATOM     20  C   UNL A   1      39.768  28.732  32.179  1.00  0.00     0.262 C 
BRANCH  20  21
ATOM     21  C   UNL A   1      41.214  29.138  31.844  1.00  0.00     0.058 C 
ATOM     22  C   UNL A   1      42.255  28.051  32.086  1.00  0.00     0.010 C 
ENDBRANCH  20  21
ENDBRANCH   8  20
BRANCH  18  23
ATOM     23  C   UNL A   1      33.755  34.080  32.460  1.00  0.00     0.248 C 
BRANCH  23  24
ATOM     24  N   UNL A   1      33.337  35.332  31.883  1.00  0.00    -0.220 N 
ATOM     25  N   UNL A   1      32.692  35.347  30.701  1.00  0.00    -0.044 NA
ATOM     26  C   UNL A   1      33.394  36.602  32.388  1.00  0.00     0.148 A 
ATOM     27  N   UNL A   1      32.424  36.620  30.464  1.00  0.00    -0.024 NA
ATOM     28  N   UNL A   1      32.845  37.409  31.501  1.00  0.00    -0.114 NA
ATOM     29  C   UNL A   1      33.939  36.999  33.700  1.00  0.00     0.091 C 
ENDBRANCH  23  24
ENDBRANCH  18  23
ENDBRANCH   4   7
ENDBRANCH   2   3
ENDBRANCH   1   2
BRANCH   1  30
ATOM     30  C   UNL A   1      41.442  25.569  35.844  1.00  0.00     0.023 C 
BRANCH  30  31
ATOM     31  C   UNL A   1      42.037  24.260  36.364  1.00  0.00     0.116 C 
BRANCH  31  32
ATOM     32  N   UNL A   1      43.291  24.417  37.115  1.00  0.00    -0.352 N 
ATOM     33  C   UNL A   1      44.568  24.128  36.653  1.00  0.00     0.251 C 
ATOM     34  H   UNL A   1      43.219  24.760  38.035  1.00  0.00     0.163 HD
ATOM     35  O   UNL A   1      45.452  23.724  37.406  1.00  0.00    -0.269 OA
BRANCH  33  36
ATOM     36  C   UNL A   1      44.839  24.315  35.219  1.00  0.00     0.039 A 
ATOM     37  C   UNL A   1      44.898  23.256  34.305  1.00  0.00     0.014 A 
ATOM     38  C   UNL A   1      44.942  25.635  34.795  1.00  0.00     0.014 A 
ATOM     39  C   UNL A   1      44.977  23.551  32.943  1.00  0.00     0.010 A 
ATOM     40  C   UNL A   1      44.779  25.915  33.472  1.00  0.00     0.010 A 
ATOM     41  C   UNL A   1      44.900  24.891  32.542  1.00  0.00    -0.014 A 
BRANCH  41  42
ATOM     42  C   UNL A   1      44.862  25.301  31.149  1.00  0.00     0.031 A 
ATOM     43  C   UNL A   1      45.891  26.304  30.766  1.00  0.00     0.074 A 
ATOM     44  C   UNL A   1      44.188  24.568  30.235  1.00  0.00     0.049 A 
ATOM     45  N   UNL A   1      45.707  27.522  30.378  1.00  0.00    -0.248 NA
ATOM     46  C   UNL A   1      47.308  25.958  30.973  1.00  0.00     0.031 C 
ATOM     47  C   UNL A   1      43.449  23.312  30.433  1.00  0.00     0.029 A 
ATOM     48  N   UNL A   1      44.144  24.719  28.888  1.00  0.00    -0.354 N 
ATOM     49  C   UNL A   1      46.973  28.030  30.090  1.00  0.00     0.074 A 
ATOM     50  C   UNL A   1      47.907  27.116  30.688  1.00  0.00     0.031 C 
ATOM     51  C   UNL A   1      43.252  22.706  29.242  1.00  0.00     0.029 A 
ATOM     52  C   UNL A   1      43.696  23.601  28.191  1.00  0.00     0.049 A 
ATOM     53  H   UNL A   1      44.408  25.555  28.439  1.00  0.00     0.167 HD
ATOM     54  C   UNL A   1      47.138  29.003  29.147  1.00  0.00     0.037 A 
ATOM     55  C   UNL A   1      43.762  23.433  26.846  1.00  0.00     0.037 A 
ATOM     56  C   UNL A   1      45.868  29.617  28.830  1.00  0.00     0.049 A 
ATOM     57  C   UNL A   1      43.962  24.786  26.253  1.00  0.00     0.074 A 
ATOM     58  C   UNL A   1      44.888  30.258  29.567  1.00  0.00     0.029 A 
ATOM     59  N   UNL A   1      45.256  29.258  27.651  1.00  0.00    -0.354 N 
ATOM     60  N   UNL A   1      43.063  25.732  26.296  1.00  0.00    -0.248 NA
ATOM     61  C   UNL A   1      45.337  25.235  26.078  1.00  0.00     0.031 C 
ATOM     62  C   UNL A   1      43.656  29.770  29.036  1.00  0.00     0.029 A 
ATOM     63  C   UNL A   1      43.955  28.945  27.952  1.00  0.00     0.049 A 
ATOM     64  H   UNL A   1      45.672  29.231  26.760  1.00  0.00     0.167 HD
ATOM     65  C   UNL A   1      43.777  26.887  26.580  1.00  0.00     0.074 A 
ATOM     66  C   UNL A   1      45.181  26.528  26.379  1.00  0.00     0.031 C 
ATOM     67  C   UNL A   1      43.206  27.931  27.251  1.00  0.00     0.037 A 
BRANCH  54  68
ATOM     68  C   UNL A   1      48.331  29.124  28.215  1.00  0.00     0.064 A 
ATOM     69  C   UNL A   1      48.743  27.974  27.505  1.00  0.00     0.173 A 
ATOM     70  C   UNL A   1      49.262  30.185  28.223  1.00  0.00     0.173 A 
ATOM     71  F   UNL A   1      47.936  26.907  27.402  1.00  0.00    -0.203 F 
ATOM     72  C   UNL A   1      50.032  27.846  26.982  1.00  0.00     0.198 A 
ATOM     73  C   UNL A   1      50.530  30.072  27.652  1.00  0.00     0.198 A 
ATOM     74  F   UNL A   1      49.046  31.336  28.864  1.00  0.00    -0.203 F 
ATOM     75  F   UNL A   1      50.423  26.676  26.460  1.00  0.00    -0.200 F 
ATOM     76  C   UNL A   1      50.931  28.889  27.072  1.00  0.00     0.200 A 
ATOM     77  F   UNL A   1      51.388  31.097  27.752  1.00  0.00    -0.200 F 
ATOM     78  F   UNL A   1      52.192  28.743  26.645  1.00  0.00    -0.200 F 
ENDBRANCH  54  68
BRANCH  55  79
ATOM     79  C   UNL A   1      44.006  22.185  26.079  1.00  0.00     0.064 A 
ATOM     80  C   UNL A   1      45.310  21.798  25.728  1.00  0.00     0.173 A 
ATOM     81  C   UNL A   1      43.004  21.206  25.921  1.00  0.00     0.173 A 
ATOM     82  F   UNL A   1      46.330  22.656  25.881  1.00  0.00    -0.203 F 
ATOM     83  C   UNL A   1      45.600  20.504  25.281  1.00  0.00     0.198 A 
ATOM     84  C   UNL A   1      43.293  19.916  25.470  1.00  0.00     0.198 A 
ATOM     85  F   UNL A   1      41.738  21.449  26.290  1.00  0.00    -0.203 F 
ATOM     86  F   UNL A   1      46.867  20.155  25.018  1.00  0.00    -0.200 F 
ATOM     87  C   UNL A   1      44.593  19.560  25.165  1.00  0.00     0.200 A 
ATOM     88  F   UNL A   1      42.313  19.006  25.392  1.00  0.00    -0.200 F 
ATOM     89  F   UNL A   1      44.878  18.302  24.800  1.00  0.00    -0.200 F 
ENDBRANCH  55  79
BRANCH  67  90
ATOM     90  C   UNL A   1      41.720  27.914  27.478  1.00  0.00     0.064 A 
ATOM     91  C   UNL A   1      41.087  27.217  28.523  1.00  0.00     0.173 A 
ATOM     92  C   UNL A   1      40.927  28.776  26.710  1.00  0.00     0.173 A 
ATOM     93  F   UNL A   1      41.787  26.454  29.369  1.00  0.00    -0.203 F 
ATOM     94  C   UNL A   1      39.718  27.348  28.756  1.00  0.00     0.198 A 
ATOM     95  C   UNL A   1      39.569  28.933  26.968  1.00  0.00     0.198 A 
ATOM     96  F   UNL A   1      41.486  29.510  25.734  1.00  0.00    -0.203 F 
ATOM     97  F   UNL A   1      39.139  26.665  29.755  1.00  0.00    -0.200 F 
ATOM     98  C   UNL A   1      38.963  28.212  27.984  1.00  0.00     0.200 A 
ATOM     99  F   UNL A   1      38.854  29.810  26.249  1.00  0.00    -0.200 F 
ATOM    100  F   UNL A   1      37.656  28.373  28.235  1.00  0.00    -0.200 F 
ENDBRANCH  67  90
ENDBRANCH  41  42
ENDBRANCH  33  36
ENDBRANCH  31  32
ENDBRANCH  30  31
ENDBRANCH   1  30
TORSDOF 15
ENDMDL
MODEL 3
REMARK VINA RESULT:     -12.4      2.205      3.198
REMARK SMILES CCC[N@@H+]1CC2(CCN(C(=O)Cn3nnnc3C)CC2)C[C@H]1C(=O)NCCCCNC(=O)c1ccc(-c2c3nc(c(-c4c(F)c(F)c(F)c(F)c4F)c4ccc([nH]4)c(-c4c(F)c(F)c(F)c(F)c4F)c4nc(c(-c5c(F)c(F)c(F)c(F)c5F)c5ccc2[nH]5)C=C4)C=C3)cc1
REMARK SMILES IDX 27 1 26 2 25 3 23 4 24 5 22 7 4 8 5 9 6 11 21 12 7 13 20 14
REMARK SMILES IDX 8 15 19 16 9 17 10 18 11 19 3 20 2 21 1 22 12 23 13 24 14 25
REMARK SMILES IDX 17 26 15 27 16 28 18 29 28 30 29 31 30 32 31 33 32 35 33 36
REMARK SMILES IDX 34 37 95 38 35 39 94 40 36 41 37 42 38 43 88 44 39 45 93 46
REMARK SMILES IDX 87 47 89 48 40 49 92 50 86 51 85 52 41 54 73 55 53 56 72 57
REMARK SMILES IDX 54 58 57 59 71 60 90 61 55 62 56 63 70 65 91 66 58 67 42 68
REMARK SMILES IDX 43 69 51 70 44 71 45 72 49 73 52 74 46 75 47 76 50 77 48 78
REMARK SMILES IDX 74 79 75 80 83 81 76 82 77 83 81 84 84 85 78 86 79 87 82 88
REMARK SMILES IDX 80 89 59 90 60 91 68 92 61 93 62 94 66 95 69 96 63 97 64 98
REMARK SMILES IDX 67 99 65 100
REMARK H PARENT 25 6 4 10 30 34 89 53 57 64
REMARK Flexibility Score: inf
ROOT
ATOM      1  C   UNL A   1      37.936  20.632  25.386  1.00  0.00     0.023 C 
ENDROOT
BRANCH   1   2
ATOM      2  C   UNL A   1      36.519  21.121  25.072  1.00  0.00     0.116 C 
BRANCH   2   3
ATOM      3  N   UNL A   1      36.425  22.130  24.038  1.00  0.00    -0.351 N 
ATOM      4  C   UNL A   1      35.405  22.873  23.532  1.00  0.00     0.278 C 
ATOM      5  O   UNL A   1      35.776  23.791  22.779  1.00  0.00    -0.268 OA
ATOM      6  H   UNL A   1      37.290  22.318  23.607  1.00  0.00     0.163 HD
BRANCH   4   7
ATOM      7  C   UNL A   1      33.879  22.730  23.812  1.00  0.00     0.274 C 
ATOM      8  N   UNL A   1      33.437  23.347  25.092  1.00  0.00    -0.324 N 
ATOM      9  C   UNL A   1      32.790  24.604  24.710  1.00  0.00     0.270 C 
ATOM     10  H   UNL A   1      34.189  23.553  25.750  1.00  0.00     0.348 HD
ATOM     11  C   UNL A   1      32.189  24.448  23.296  1.00  0.00     0.029 C 
ATOM     12  C   UNL A   1      32.881  23.186  22.746  1.00  0.00     0.088 C 
ATOM     13  C   UNL A   1      32.432  25.593  22.293  1.00  0.00     0.034 C 
ATOM     14  C   UNL A   1      30.644  24.373  23.410  1.00  0.00     0.034 C 
ATOM     15  C   UNL A   1      31.970  26.917  22.852  1.00  0.00     0.120 C 
ATOM     16  C   UNL A   1      30.035  25.726  23.863  1.00  0.00     0.120 C 
ATOM     17  N   UNL A   1      30.535  26.886  23.108  1.00  0.00    -0.341 N 
ATOM     18  C   UNL A   1      29.713  28.002  22.967  1.00  0.00     0.244 C 
ATOM     19  O   UNL A   1      28.566  28.027  23.423  1.00  0.00    -0.273 OA
BRANCH   8  20
ATOM     20  C   UNL A   1      32.550  22.386  25.796  1.00  0.00     0.262 C 
BRANCH  20  21
ATOM     21  C   UNL A   1      31.725  22.911  26.983  1.00  0.00     0.058 C 
ATOM     22  C   UNL A   1      30.232  23.057  26.708  1.00  0.00     0.010 C 
ENDBRANCH  20  21
ENDBRANCH   8  20
BRANCH  18  23
ATOM     23  C   UNL A   1      30.227  29.203  22.196  1.00  0.00     0.248 C 
BRANCH  23  24
ATOM     24  N   UNL A   1      29.206  30.207  22.037  1.00  0.00    -0.220 N 
ATOM     25  N   UNL A   1      28.401  30.184  20.958  1.00  0.00    -0.044 NA
ATOM     26  C   UNL A   1      28.805  31.205  22.883  1.00  0.00     0.148 A 
ATOM     27  N   UNL A   1      27.568  31.199  21.119  1.00  0.00    -0.024 NA
ATOM     28  N   UNL A   1      27.801  31.837  22.308  1.00  0.00    -0.114 NA
ATOM     29  C   UNL A   1      29.370  31.504  24.213  1.00  0.00     0.091 C 
ENDBRANCH  23  24
ENDBRANCH  18  23
ENDBRANCH   4   7
ENDBRANCH   2   3
ENDBRANCH   1   2
BRANCH   1  30
ATOM     30  C   UNL A   1      38.949  21.728  25.740  1.00  0.00     0.023 C 
BRANCH  30  31
ATOM     31  C   UNL A   1      40.131  21.270  26.595  1.00  0.00     0.116 C 
BRANCH  31  32
ATOM     32  N   UNL A   1      41.446  21.446  25.964  1.00  0.00    -0.352 N 
ATOM     33  C   UNL A   1      42.089  22.653  25.726  1.00  0.00     0.251 C 
ATOM     34  H   UNL A   1      41.917  20.629  25.682  1.00  0.00     0.163 HD
ATOM     35  O   UNL A   1      42.826  22.813  24.755  1.00  0.00    -0.269 OA
BRANCH  33  36
ATOM     36  C   UNL A   1      41.859  23.754  26.676  1.00  0.00     0.039 A 
ATOM     37  C   UNL A   1      42.171  23.668  28.039  1.00  0.00     0.014 A 
ATOM     38  C   UNL A   1      41.395  24.939  26.120  1.00  0.00     0.014 A 
ATOM     39  C   UNL A   1      42.088  24.822  28.818  1.00  0.00     0.010 A 
ATOM     40  C   UNL A   1      41.544  26.098  26.821  1.00  0.00     0.010 A 
ATOM     41  C   UNL A   1      41.787  26.036  28.187  1.00  0.00    -0.014 A 
BRANCH  41  42
ATOM     42  C   UNL A   1      41.784  27.313  28.882  1.00  0.00     0.031 A 
ATOM     43  C   UNL A   1      42.851  28.257  28.456  1.00  0.00     0.074 A 
ATOM     44  C   UNL A   1      40.697  27.712  29.579  1.00  0.00     0.049 A 
ATOM     45  N   UNL A   1      43.843  28.701  29.153  1.00  0.00    -0.248 NA
ATOM     46  C   UNL A   1      42.903  28.650  27.037  1.00  0.00     0.031 C 
ATOM     47  C   UNL A   1      39.410  27.021  29.743  1.00  0.00     0.029 A 
ATOM     48  N   UNL A   1      40.463  28.906  30.178  1.00  0.00    -0.354 N 
ATOM     49  C   UNL A   1      44.525  29.593  28.327  1.00  0.00     0.074 A 
ATOM     50  C   UNL A   1      44.044  29.340  26.996  1.00  0.00     0.031 C 
ATOM     51  C   UNL A   1      38.475  27.896  30.173  1.00  0.00     0.029 A 
ATOM     52  C   UNL A   1      39.126  29.156  30.475  1.00  0.00     0.049 A 
ATOM     53  H   UNL A   1      41.182  29.545  30.388  1.00  0.00     0.167 HD
ATOM     54  C   UNL A   1      45.217  30.645  28.853  1.00  0.00     0.037 A 
ATOM     55  C   UNL A   1      38.618  30.349  30.876  1.00  0.00     0.037 A 
ATOM     56  C   UNL A   1      45.418  30.455  30.273  1.00  0.00     0.049 A 
ATOM     57  C   UNL A   1      39.768  31.164  31.360  1.00  0.00     0.074 A 
ATOM     58  C   UNL A   1      45.997  29.466  31.048  1.00  0.00     0.029 A 
ATOM     59  N   UNL A   1      44.623  31.172  31.138  1.00  0.00    -0.354 N 
ATOM     60  N   UNL A   1      40.461  30.870  32.427  1.00  0.00    -0.248 NA
ATOM     61  C   UNL A   1      40.451  31.995  30.378  1.00  0.00     0.031 C 
ATOM     62  C   UNL A   1      45.117  29.316  32.163  1.00  0.00     0.029 A 
ATOM     63  C   UNL A   1      44.118  30.283  32.052  1.00  0.00     0.049 A 
ATOM     64  H   UNL A   1      44.450  32.140  31.107  1.00  0.00     0.167 HD
ATOM     65  C   UNL A   1      41.780  31.109  32.069  1.00  0.00     0.074 A 
ATOM     66  C   UNL A   1      41.707  31.854  30.813  1.00  0.00     0.031 C 
ATOM     67  C   UNL A   1      42.810  30.419  32.644  1.00  0.00     0.037 A 
BRANCH  54  68
ATOM     68  C   UNL A   1      45.346  32.016  28.213  1.00  0.00     0.064 A 
ATOM     69  C   UNL A   1      46.635  32.583  28.104  1.00  0.00     0.173 A 
ATOM     70  C   UNL A   1      44.279  32.916  28.002  1.00  0.00     0.173 A 
ATOM     71  F   UNL A   1      47.732  31.826  28.258  1.00  0.00    -0.203 F 
ATOM     72  C   UNL A   1      46.831  33.957  27.947  1.00  0.00     0.198 A 
ATOM     73  C   UNL A   1      44.481  34.280  27.792  1.00  0.00     0.198 A 
ATOM     74  F   UNL A   1      42.996  32.554  28.089  1.00  0.00    -0.203 F 
ATOM     75  F   UNL A   1      48.071  34.462  28.011  1.00  0.00    -0.200 F 
ATOM     76  C   UNL A   1      45.753  34.808  27.810  1.00  0.00     0.200 A 
ATOM     77  F   UNL A   1      43.419  35.088  27.663  1.00  0.00    -0.200 F 
ATOM     78  F   UNL A   1      45.932  36.133  27.741  1.00  0.00    -0.200 F 
ENDBRANCH  54  68
BRANCH  55  79
ATOM     79  C   UNL A   1      37.297  30.948  30.556  1.00  0.00     0.064 A 
ATOM     80  C   UNL A   1      36.405  31.313  31.577  1.00  0.00     0.173 A 
ATOM     81  C   UNL A   1      36.999  31.434  29.266  1.00  0.00     0.173 A 
ATOM     82  F   UNL A   1      36.632  30.923  32.840  1.00  0.00    -0.203 F 
ATOM     83  C   UNL A   1      35.303  32.141  31.332  1.00  0.00     0.198 A 
ATOM     84  C   UNL A   1      35.897  32.256  29.022  1.00  0.00     0.198 A 
ATOM     85  F   UNL A   1      37.822  31.201  28.234  1.00  0.00    -0.203 F 
ATOM     86  F   UNL A   1      34.511  32.518  32.346  1.00  0.00    -0.200 F 
ATOM     87  C   UNL A   1      35.058  32.623  30.057  1.00  0.00     0.200 A 
ATOM     88  F   UNL A   1      35.691  32.739  27.789  1.00  0.00    -0.200 F 
ATOM     89  F   UNL A   1      34.042  33.468  29.832  1.00  0.00    -0.200 F 
ENDBRANCH  55  79
BRANCH  67  90
ATOM     90  C   UNL A   1      42.520  29.557  33.841  1.00  0.00     0.064 A 
ATOM     91  C   UNL A   1      42.074  28.225  33.768  1.00  0.00     0.173 A 
ATOM     92  C   UNL A   1      42.873  30.047  35.105  1.00  0.00     0.173 A 
ATOM     93  F   UNL A   1      41.815  27.646  32.591  1.00  0.00    -0.203 F 
ATOM     94  C   UNL A   1      41.949  27.440  34.914  1.00  0.00     0.198 A 
ATOM     95  C   UNL A   1      42.783  29.250  36.241  1.00  0.00     0.198 A 
ATOM     96  F   UNL A   1      43.358  31.293  35.230  1.00  0.00    -0.203 F 
ATOM     97  F   UNL A   1      41.514  26.174  34.817  1.00  0.00    -0.200 F 
ATOM     98  C   UNL A   1      42.312  27.950  36.148  1.00  0.00     0.200 A 
ATOM     99  F   UNL A   1      43.183  29.733  37.426  1.00  0.00    -0.200 F 
ATOM    100  F   UNL A   1      42.234  27.183  37.243  1.00  0.00    -0.200 F 
ENDBRANCH  67  90
ENDBRANCH  41  42
ENDBRANCH  33  36
ENDBRANCH  31  32
ENDBRANCH  30  31
ENDBRANCH   1  30
TORSDOF 15
ENDMDL
