MODEL 1
REMARK VINA RESULT:     -12.5      0.000      0.000
REMARK SMILES Cc1ccc(Cl)c(NC(=O)C[N@@H+]2CCC[C@H]2C(=O)NCCCCNC(=O)c2ccc(-c3c4nc(c(-c5c(F)c(F)c(F)c(F)c5F)c5ccc([nH]5)c(-c5c(F)c(F)c(F)c(F)c5F)c5nc(c(-c6c(F)c(F)c(F)c(F)c6F)c6ccc3[nH]6)C=C5)C=C4)cc2)c1Cl
REMARK SMILES IDX 21 1 20 2 19 3 17 4 18 5 16 7 12 8 13 9 14 11 15 12 11 13
REMARK SMILES IDX 9 14 8 15 10 17 7 18 1 19 2 20 3 21 90 22 4 23 91 24 5 25
REMARK SMILES IDX 6 26 22 27 23 28 24 29 25 30 26 32 27 33 28 34 89 35 29 36
REMARK SMILES IDX 88 37 30 38 31 39 32 40 82 41 33 42 87 43 81 44 83 45 34 46
REMARK SMILES IDX 86 47 80 48 79 49 35 51 67 52 47 53 66 54 48 55 51 56 65 57
REMARK SMILES IDX 84 58 49 59 50 60 64 62 85 63 52 64 36 65 37 66 45 67 38 68
REMARK SMILES IDX 39 69 43 70 46 71 40 72 41 73 44 74 42 75 68 76 69 77 77 78
REMARK SMILES IDX 70 79 71 80 75 81 78 82 72 83 73 84 76 85 74 86 53 87 54 88
REMARK SMILES IDX 62 89 55 90 56 91 60 92 63 93 57 94 58 95 61 96 59 97
REMARK H PARENT 19 6 12 10 8 16 24 31 83 50 51 61
REMARK Flexibility Score: inf
ROOT
ATOM      1  C   UNL A   1      37.270  21.525  24.453  1.00  0.00     0.023 C 
ENDROOT
BRANCH   1   2
ATOM      2  C   UNL A   1      36.702  22.596  25.375  1.00  0.00     0.116 C 
BRANCH   2   3
ATOM      3  N   UNL A   1      35.945  22.036  26.475  1.00  0.00    -0.351 N 
ATOM      4  C   UNL A   1      34.589  21.925  26.618  1.00  0.00     0.278 C 
ATOM      5  O   UNL A   1      34.180  21.319  27.613  1.00  0.00    -0.268 OA
ATOM      6  H   UNL A   1      36.480  21.687  27.224  1.00  0.00     0.163 HD
BRANCH   4   7
ATOM      7  C   UNL A   1      33.633  22.645  25.628  1.00  0.00     0.274 C 
ATOM      8  N   UNL A   1      33.367  21.821  24.418  1.00  0.00    -0.317 N 
ATOM      9  C   UNL A   1      32.240  20.962  24.841  1.00  0.00     0.263 C 
ATOM     10  H   UNL A   1      34.197  21.309  24.117  1.00  0.00     0.349 HD
ATOM     11  C   UNL A   1      31.315  21.880  25.618  1.00  0.00     0.068 C 
ATOM     12  C   UNL A   1      32.250  22.902  26.253  1.00  0.00     0.081 C 
BRANCH   8  13
ATOM     13  C   UNL A   1      32.961  22.644  23.244  1.00  0.00     0.364 C 
BRANCH  13  14
ATOM     14  C   UNL A   1      33.892  23.824  22.943  1.00  0.00     0.279 C 
ATOM     15  N   UNL A   1      33.623  25.147  23.134  1.00  0.00    -0.319 N 
ATOM     16  H   UNL A   1      34.283  25.733  22.697  1.00  0.00     0.170 HD
ATOM     17  O   UNL A   1      35.038  23.587  22.521  1.00  0.00    -0.268 OA
BRANCH  15  18
ATOM     18  C   UNL A   1      32.616  25.877  23.812  1.00  0.00     0.079 A 
ATOM     19  C   UNL A   1      28.866  26.695  23.768  1.00  0.00     0.046 C 
ATOM     20  C   UNL A   1      30.301  26.555  24.202  1.00  0.00    -0.030 A 
ATOM     21  C   UNL A   1      30.572  26.661  25.574  1.00  0.00     0.006 A 
ATOM     22  C   UNL A   1      31.355  26.235  23.316  1.00  0.00     0.069 A 
ATOM     23  C   UNL A   1      31.876  26.554  26.041  1.00  0.00     0.023 A 
ATOM     24  Cl  UNL A   1      31.162  26.593  21.629  1.00  0.00    -0.082 Cl
ATOM     25  C   UNL A   1      32.892  26.192  25.160  1.00  0.00     0.066 A 
ATOM     26  Cl  UNL A   1      34.498  26.070  25.807  1.00  0.00    -0.082 Cl
ENDBRANCH  15  18
ENDBRANCH  13  14
ENDBRANCH   8  13
ENDBRANCH   4   7
ENDBRANCH   2   3
ENDBRANCH   1   2
BRANCH   1  27
ATOM     27  C   UNL A   1      37.878  20.307  25.144  1.00  0.00     0.023 C 
BRANCH  27  28
ATOM     28  C   UNL A   1      39.253  20.529  25.757  1.00  0.00     0.116 C 
BRANCH  28  29
ATOM     29  N   UNL A   1      40.088  19.338  25.814  1.00  0.00    -0.352 N 
ATOM     30  C   UNL A   1      41.439  19.263  26.081  1.00  0.00     0.251 C 
ATOM     31  H   UNL A   1      39.634  18.482  25.640  1.00  0.00     0.163 HD
ATOM     32  O   UNL A   1      42.037  18.198  26.023  1.00  0.00    -0.269 OA
BRANCH  30  33
ATOM     33  C   UNL A   1      42.174  20.511  26.384  1.00  0.00     0.039 A 
ATOM     34  C   UNL A   1      42.690  21.266  25.328  1.00  0.00     0.014 A 
ATOM     35  C   UNL A   1      42.279  20.972  27.698  1.00  0.00     0.014 A 
ATOM     36  C   UNL A   1      43.230  22.528  25.585  1.00  0.00     0.010 A 
ATOM     37  C   UNL A   1      42.729  22.264  27.939  1.00  0.00     0.010 A 
ATOM     38  C   UNL A   1      43.205  23.058  26.885  1.00  0.00    -0.014 A 
BRANCH  38  39
ATOM     39  C   UNL A   1      43.669  24.439  27.173  1.00  0.00     0.031 A 
ATOM     40  C   UNL A   1      42.702  25.456  27.710  1.00  0.00     0.074 A 
ATOM     41  C   UNL A   1      44.931  24.799  26.871  1.00  0.00     0.049 A 
ATOM     42  N   UNL A   1      42.877  26.736  27.922  1.00  0.00    -0.248 NA
ATOM     43  C   UNL A   1      41.342  24.978  28.011  1.00  0.00     0.031 C 
ATOM     44  C   UNL A   1      45.947  23.922  26.288  1.00  0.00     0.029 A 
ATOM     45  N   UNL A   1      45.571  26.007  26.999  1.00  0.00    -0.354 N 
ATOM     46  C   UNL A   1      41.648  27.216  28.355  1.00  0.00     0.074 A 
ATOM     47  C   UNL A   1      40.721  26.106  28.320  1.00  0.00     0.031 C 
ATOM     48  C   UNL A   1      47.090  24.610  26.136  1.00  0.00     0.029 A 
ATOM     49  C   UNL A   1      46.878  25.986  26.576  1.00  0.00     0.049 A 
ATOM     50  H   UNL A   1      45.135  26.811  27.361  1.00  0.00     0.167 HD
ATOM     51  C   UNL A   1      41.329  28.464  28.774  1.00  0.00     0.037 A 
ATOM     52  C   UNL A   1      47.799  26.968  26.545  1.00  0.00     0.037 A 
ATOM     53  C   UNL A   1      42.262  29.555  28.848  1.00  0.00     0.049 A 
ATOM     54  C   UNL A   1      47.426  28.339  27.040  1.00  0.00     0.074 A 
ATOM     55  C   UNL A   1      42.054  30.840  29.316  1.00  0.00     0.029 A 
ATOM     56  N   UNL A   1      43.589  29.483  28.450  1.00  0.00    -0.354 N 
ATOM     57  N   UNL A   1      46.278  28.766  27.504  1.00  0.00    -0.248 NA
ATOM     58  C   UNL A   1      48.481  29.362  27.013  1.00  0.00     0.031 C 
ATOM     59  C   UNL A   1      43.248  31.556  29.172  1.00  0.00     0.029 A 
ATOM     60  C   UNL A   1      44.210  30.705  28.652  1.00  0.00     0.049 A 
ATOM     61  H   UNL A   1      44.025  28.683  28.078  1.00  0.00     0.167 HD
ATOM     62  C   UNL A   1      46.477  30.097  27.849  1.00  0.00     0.074 A 
ATOM     63  C   UNL A   1      47.861  30.402  27.553  1.00  0.00     0.031 C 
ATOM     64  C   UNL A   1      45.592  30.985  28.363  1.00  0.00     0.037 A 
BRANCH  51  65
ATOM     65  C   UNL A   1      39.910  28.707  29.197  1.00  0.00     0.064 A 
ATOM     66  C   UNL A   1      39.489  28.476  30.516  1.00  0.00     0.173 A 
ATOM     67  C   UNL A   1      38.965  29.193  28.283  1.00  0.00     0.173 A 
ATOM     68  F   UNL A   1      40.351  27.997  31.426  1.00  0.00    -0.203 F 
ATOM     69  C   UNL A   1      38.166  28.691  30.895  1.00  0.00     0.198 A 
ATOM     70  C   UNL A   1      37.650  29.437  28.673  1.00  0.00     0.198 A 
ATOM     71  F   UNL A   1      39.314  29.435  27.011  1.00  0.00    -0.203 F 
ATOM     72  F   UNL A   1      37.777  28.411  32.146  1.00  0.00    -0.200 F 
ATOM     73  C   UNL A   1      37.250  29.178  29.976  1.00  0.00     0.200 A 
ATOM     74  F   UNL A   1      36.767  29.919  27.787  1.00  0.00    -0.200 F 
ATOM     75  F   UNL A   1      35.979  29.388  30.343  1.00  0.00    -0.200 F 
ENDBRANCH  51  65
BRANCH  52  76
ATOM     76  C   UNL A   1      49.175  26.681  26.065  1.00  0.00     0.064 A 
ATOM     77  C   UNL A   1      49.552  26.985  24.750  1.00  0.00     0.173 A 
ATOM     78  C   UNL A   1      50.139  26.101  26.904  1.00  0.00     0.173 A 
ATOM     79  F   UNL A   1      48.659  27.522  23.906  1.00  0.00    -0.203 F 
ATOM     80  C   UNL A   1      50.834  26.703  24.284  1.00  0.00     0.198 A 
ATOM     81  C   UNL A   1      51.428  25.843  26.445  1.00  0.00     0.198 A 
ATOM     82  F   UNL A   1      49.830  25.796  28.172  1.00  0.00    -0.203 F 
ATOM     83  F   UNL A   1      51.155  26.967  23.010  1.00  0.00    -0.200 F 
ATOM     84  C   UNL A   1      51.773  26.137  25.134  1.00  0.00     0.200 A 
ATOM     85  F   UNL A   1      52.337  25.308  27.270  1.00  0.00    -0.200 F 
ATOM     86  F   UNL A   1      53.008  25.869  24.687  1.00  0.00    -0.200 F 
ENDBRANCH  52  76
BRANCH  64  87
ATOM     87  C   UNL A   1      46.102  32.361  28.672  1.00  0.00     0.064 A 
ATOM     88  C   UNL A   1      46.041  33.396  27.728  1.00  0.00     0.173 A 
ATOM     89  C   UNL A   1      46.615  32.658  29.944  1.00  0.00     0.173 A 
ATOM     90  F   UNL A   1      45.573  33.157  26.494  1.00  0.00    -0.203 F 
ATOM     91  C   UNL A   1      46.495  34.675  28.040  1.00  0.00     0.198 A 
ATOM     92  C   UNL A   1      47.042  33.944  30.261  1.00  0.00     0.198 A 
ATOM     93  F   UNL A   1      46.688  31.703  30.883  1.00  0.00    -0.203 F 
ATOM     94  F   UNL A   1      46.465  35.639  27.110  1.00  0.00    -0.200 F 
ATOM     95  C   UNL A   1      46.987  34.949  29.307  1.00  0.00     0.200 A 
ATOM     96  F   UNL A   1      47.507  34.209  31.489  1.00  0.00    -0.200 F 
ATOM     97  F   UNL A   1      47.416  36.183  29.608  1.00  0.00    -0.200 F 
ENDBRANCH  64  87
ENDBRANCH  38  39
ENDBRANCH  30  33
ENDBRANCH  28  29
ENDBRANCH  27  28
ENDBRANCH   1  27
TORSDOF 14
ENDMDL
MODEL 2
REMARK VINA RESULT:     -12.4      0.513      7.332
REMARK SMILES Cc1ccc(Cl)c(NC(=O)C[N@@H+]2CCC[C@H]2C(=O)NCCCCNC(=O)c2ccc(-c3c4nc(c(-c5c(F)c(F)c(F)c(F)c5F)c5ccc([nH]5)c(-c5c(F)c(F)c(F)c(F)c5F)c5nc(c(-c6c(F)c(F)c(F)c(F)c6F)c6ccc3[nH]6)C=C5)C=C4)cc2)c1Cl
REMARK SMILES IDX 21 1 20 2 19 3 17 4 18 5 16 7 12 8 13 9 14 11 15 12 11 13
REMARK SMILES IDX 9 14 8 15 10 17 7 18 1 19 2 20 3 21 90 22 4 23 91 24 5 25
REMARK SMILES IDX 6 26 22 27 23 28 24 29 25 30 26 32 27 33 28 34 89 35 29 36
REMARK SMILES IDX 88 37 30 38 31 39 32 40 82 41 33 42 87 43 81 44 83 45 34 46
REMARK SMILES IDX 86 47 80 48 79 49 35 51 67 52 47 53 66 54 48 55 51 56 65 57
REMARK SMILES IDX 84 58 49 59 50 60 64 62 85 63 52 64 36 65 37 66 45 67 38 68
REMARK SMILES IDX 39 69 43 70 46 71 40 72 41 73 44 74 42 75 68 76 69 77 77 78
REMARK SMILES IDX 70 79 71 80 75 81 78 82 72 83 73 84 76 85 74 86 53 87 54 88
REMARK SMILES IDX 62 89 55 90 56 91 60 92 63 93 57 94 58 95 61 96 59 97
REMARK H PARENT 19 6 12 10 8 16 24 31 83 50 51 61
REMARK Flexibility Score: inf
ROOT
ATOM      1  C   UNL A   1      37.192  21.218  24.435  1.00  0.00     0.023 C 
ENDROOT
BRANCH   1   2
ATOM      2  C   UNL A   1      36.735  22.325  25.375  1.00  0.00     0.116 C 
BRANCH   2   3
ATOM      3  N   UNL A   1      35.947  21.821  26.482  1.00  0.00    -0.351 N 
ATOM      4  C   UNL A   1      34.587  21.800  26.630  1.00  0.00     0.278 C 
ATOM      5  O   UNL A   1      34.144  21.228  27.630  1.00  0.00    -0.268 OA
ATOM      6  H   UNL A   1      36.462  21.443  27.230  1.00  0.00     0.163 HD
BRANCH   4   7
ATOM      7  C   UNL A   1      33.677  22.576  25.640  1.00  0.00     0.274 C 
ATOM      8  N   UNL A   1      33.366  21.770  24.428  1.00  0.00    -0.317 N 
ATOM      9  C   UNL A   1      32.190  20.977  24.848  1.00  0.00     0.263 C 
ATOM     10  H   UNL A   1      34.165  21.212  24.128  1.00  0.00     0.349 HD
ATOM     11  C   UNL A   1      31.319  21.946  25.625  1.00  0.00     0.068 C 
ATOM     12  C   UNL A   1      32.310  22.911  26.263  1.00  0.00     0.081 C 
BRANCH   8  13
ATOM     13  C   UNL A   1      33.009  22.618  23.255  1.00  0.00     0.364 C 
BRANCH  13  14
ATOM     14  C   UNL A   1      33.960  23.795  23.011  1.00  0.00     0.279 C 
ATOM     15  N   UNL A   1      33.696  25.116  23.226  1.00  0.00    -0.319 N 
ATOM     16  H   UNL A   1      34.375  25.706  22.823  1.00  0.00     0.170 HD
ATOM     17  O   UNL A   1      35.115  23.558  22.617  1.00  0.00    -0.268 OA
BRANCH  15  18
ATOM     18  C   UNL A   1      32.676  25.839  23.892  1.00  0.00     0.079 A 
ATOM     19  C   UNL A   1      28.916  26.609  23.816  1.00  0.00     0.046 C 
ATOM     20  C   UNL A   1      30.350  26.491  24.261  1.00  0.00    -0.030 A 
ATOM     21  C   UNL A   1      30.611  26.611  25.634  1.00  0.00     0.006 A 
ATOM     22  C   UNL A   1      31.414  26.177  23.384  1.00  0.00     0.069 A 
ATOM     23  C   UNL A   1      31.913  26.525  26.110  1.00  0.00     0.023 A 
ATOM     24  Cl  UNL A   1      31.227  26.518  21.692  1.00  0.00    -0.082 Cl
ATOM     25  C   UNL A   1      32.940  26.169  25.238  1.00  0.00     0.066 A 
ATOM     26  Cl  UNL A   1      34.542  26.073  25.896  1.00  0.00    -0.082 Cl
ENDBRANCH  15  18
ENDBRANCH  13  14
ENDBRANCH   8  13
ENDBRANCH   4   7
ENDBRANCH   2   3
ENDBRANCH   1   2
BRANCH   1  27
ATOM     27  C   UNL A   1      37.906  20.039  25.091  1.00  0.00     0.023 C 
BRANCH  27  28
ATOM     28  C   UNL A   1      39.237  20.372  25.749  1.00  0.00     0.116 C 
BRANCH  28  29
ATOM     29  N   UNL A   1      40.177  19.263  25.806  1.00  0.00    -0.352 N 
ATOM     30  C   UNL A   1      41.531  19.312  26.066  1.00  0.00     0.251 C 
ATOM     31  H   UNL A   1      39.802  18.368  25.639  1.00  0.00     0.163 HD
ATOM     32  O   UNL A   1      42.222  18.306  26.010  1.00  0.00    -0.269 OA
BRANCH  30  33
ATOM     33  C   UNL A   1      42.151  20.623  26.360  1.00  0.00     0.039 A 
ATOM     34  C   UNL A   1      42.554  21.434  25.297  1.00  0.00     0.014 A 
ATOM     35  C   UNL A   1      42.256  21.080  27.675  1.00  0.00     0.014 A 
ATOM     36  C   UNL A   1      42.977  22.741  25.551  1.00  0.00     0.010 A 
ATOM     37  C   UNL A   1      42.586  22.407  27.918  1.00  0.00     0.010 A 
ATOM     38  C   UNL A   1      42.946  23.254  26.858  1.00  0.00    -0.014 A 
BRANCH  38  39
ATOM     39  C   UNL A   1      43.282  24.670  27.148  1.00  0.00     0.031 A 
ATOM     40  C   UNL A   1      44.677  25.174  26.905  1.00  0.00     0.074 A 
ATOM     41  C   UNL A   1      42.361  25.477  27.710  1.00  0.00     0.049 A 
ATOM     42  N   UNL A   1      45.202  26.337  27.194  1.00  0.00    -0.248 NA
ATOM     43  C   UNL A   1      45.621  24.226  26.290  1.00  0.00     0.031 C 
ATOM     44  C   UNL A   1      40.991  25.091  28.053  1.00  0.00     0.029 A 
ATOM     45  N   UNL A   1      42.443  26.789  28.106  1.00  0.00    -0.354 N 
ATOM     46  C   UNL A   1      46.536  26.251  26.821  1.00  0.00     0.074 A 
ATOM     47  C   UNL A   1      46.757  24.905  26.339  1.00  0.00     0.031 C 
ATOM     48  C   UNL A   1      40.354  26.148  28.580  1.00  0.00     0.029 A 
ATOM     49  C   UNL A   1      41.278  27.276  28.647  1.00  0.00     0.049 A 
ATOM     50  H   UNL A   1      43.260  27.329  28.012  1.00  0.00     0.167 HD
ATOM     51  C   UNL A   1      47.485  27.217  26.848  1.00  0.00     0.037 A 
ATOM     52  C   UNL A   1      40.991  28.495  29.142  1.00  0.00     0.037 A 
ATOM     53  C   UNL A   1      47.252  28.567  27.287  1.00  0.00     0.049 A 
ATOM     54  C   UNL A   1      42.055  29.558  29.138  1.00  0.00     0.074 A 
ATOM     55  C   UNL A   1      48.130  29.635  27.296  1.00  0.00     0.029 A 
ATOM     56  N   UNL A   1      46.047  29.033  27.789  1.00  0.00    -0.354 N 
ATOM     57  N   UNL A   1      43.297  29.483  28.726  1.00  0.00    -0.248 NA
ATOM     58  C   UNL A   1      41.676  30.878  29.660  1.00  0.00     0.031 C 
ATOM     59  C   UNL A   1      47.463  30.743  27.832  1.00  0.00     0.029 A 
ATOM     60  C   UNL A   1      46.159  30.373  28.119  1.00  0.00     0.049 A 
ATOM     61  H   UNL A   1      45.231  28.492  27.895  1.00  0.00     0.167 HD
ATOM     62  C   UNL A   1      43.839  30.747  28.914  1.00  0.00     0.074 A 
ATOM     63  C   UNL A   1      42.786  31.575  29.464  1.00  0.00     0.031 C 
ATOM     64  C   UNL A   1      45.095  31.183  28.655  1.00  0.00     0.037 A 
BRANCH  51  65
ATOM     65  C   UNL A   1      48.860  26.846  26.374  1.00  0.00     0.064 A 
ATOM     66  C   UNL A   1      49.252  27.041  25.041  1.00  0.00     0.173 A 
ATOM     67  C   UNL A   1      49.802  26.310  27.264  1.00  0.00     0.173 A 
ATOM     68  F   UNL A   1      48.384  27.538  24.147  1.00  0.00    -0.203 F 
ATOM     69  C   UNL A   1      50.527  26.680  24.608  1.00  0.00     0.198 A 
ATOM     70  C   UNL A   1      51.085  25.979  26.835  1.00  0.00     0.198 A 
ATOM     71  F   UNL A   1      49.480  26.107  28.550  1.00  0.00    -0.203 F 
ATOM     72  F   UNL A   1      50.859  26.825  23.319  1.00  0.00    -0.200 F 
ATOM     73  C   UNL A   1      51.443  26.157  25.506  1.00  0.00     0.200 A 
ATOM     74  F   UNL A   1      51.974  25.484  27.706  1.00  0.00    -0.200 F 
ATOM     75  F   UNL A   1      52.669  25.814  25.090  1.00  0.00    -0.200 F 
ENDBRANCH  51  65
BRANCH  52  76
ATOM     76  C   UNL A   1      39.625  28.788  29.647  1.00  0.00     0.064 A 
ATOM     77  C   UNL A   1      38.657  29.352  28.804  1.00  0.00     0.173 A 
ATOM     78  C   UNL A   1      39.257  28.512  30.972  1.00  0.00     0.173 A 
ATOM     79  F   UNL A   1      38.969  29.651  27.534  1.00  0.00    -0.203 F 
ATOM     80  C   UNL A   1      37.379  29.649  29.271  1.00  0.00     0.198 A 
ATOM     81  C   UNL A   1      37.970  28.786  31.431  1.00  0.00     0.198 A 
ATOM     82  F   UNL A   1      40.144  27.968  31.816  1.00  0.00    -0.203 F 
ATOM     83  F   UNL A   1      36.486  30.226  28.456  1.00  0.00    -0.200 F 
ATOM     84  C   UNL A   1      37.034  29.360  30.583  1.00  0.00     0.200 A 
ATOM     85  F   UNL A   1      37.636  28.494  32.695  1.00  0.00    -0.200 F 
ATOM     86  F   UNL A   1      35.804  29.641  31.032  1.00  0.00    -0.200 F 
ENDBRANCH  52  76
BRANCH  64  87
ATOM     87  C   UNL A   1      45.392  32.627  28.930  1.00  0.00     0.064 A 
ATOM     88  C   UNL A   1      45.934  33.046  30.153  1.00  0.00     0.173 A 
ATOM     89  C   UNL A   1      45.173  33.596  27.939  1.00  0.00     0.173 A 
ATOM     90  F   UNL A   1      46.146  32.158  31.136  1.00  0.00    -0.203 F 
ATOM     91  C   UNL A   1      46.228  34.387  30.383  1.00  0.00     0.198 A 
ATOM     92  C   UNL A   1      45.493  34.932  28.162  1.00  0.00     0.198 A 
ATOM     93  F   UNL A   1      44.662  33.244  26.750  1.00  0.00    -0.203 F 
ATOM     94  F   UNL A   1      46.707  34.771  31.573  1.00  0.00    -0.200 F 
ATOM     95  C   UNL A   1      46.014  35.327  29.385  1.00  0.00     0.200 A 
ATOM     96  F   UNL A   1      45.297  35.837  27.193  1.00  0.00    -0.200 F 
ATOM     97  F   UNL A   1      46.305  36.617  29.605  1.00  0.00    -0.200 F 
ENDBRANCH  64  87
ENDBRANCH  38  39
ENDBRANCH  30  33
ENDBRANCH  28  29
ENDBRANCH  27  28
ENDBRANCH   1  27
TORSDOF 14
ENDMDL
MODEL 3
REMARK VINA RESULT:     -12.3      5.680     11.001
REMARK SMILES Cc1ccc(Cl)c(NC(=O)C[N@@H+]2CCC[C@H]2C(=O)NCCCCNC(=O)c2ccc(-c3c4nc(c(-c5c(F)c(F)c(F)c(F)c5F)c5ccc([nH]5)c(-c5c(F)c(F)c(F)c(F)c5F)c5nc(c(-c6c(F)c(F)c(F)c(F)c6F)c6ccc3[nH]6)C=C5)C=C4)cc2)c1Cl
REMARK SMILES IDX 21 1 20 2 19 3 17 4 18 5 16 7 12 8 13 9 14 11 15 12 11 13
REMARK SMILES IDX 9 14 8 15 10 17 7 18 1 19 2 20 3 21 90 22 4 23 91 24 5 25
REMARK SMILES IDX 6 26 22 27 23 28 24 29 25 30 26 32 27 33 28 34 89 35 29 36
REMARK SMILES IDX 88 37 30 38 31 39 32 40 82 41 33 42 87 43 81 44 83 45 34 46
REMARK SMILES IDX 86 47 80 48 79 49 35 51 67 52 47 53 66 54 48 55 51 56 65 57
REMARK SMILES IDX 84 58 49 59 50 60 64 62 85 63 52 64 36 65 37 66 45 67 38 68
REMARK SMILES IDX 39 69 43 70 46 71 40 72 41 73 44 74 42 75 68 76 69 77 77 78
REMARK SMILES IDX 70 79 71 80 75 81 78 82 72 83 73 84 76 85 74 86 53 87 54 88
REMARK SMILES IDX 62 89 55 90 56 91 60 92 63 93 57 94 58 95 61 96 59 97
REMARK H PARENT 19 6 12 10 8 16 24 31 83 50 51 61
REMARK Flexibility Score: inf
ROOT
ATOM      1  C   UNL A   1      31.990  30.041  26.929  1.00  0.00     0.023 C 
ENDROOT
BRANCH   1   2
ATOM      2  C   UNL A   1      33.164  29.268  26.343  1.00  0.00     0.116 C 
BRANCH   2   3
ATOM      3  N   UNL A   1      33.382  29.568  24.942  1.00  0.00    -0.351 N 
ATOM      4  C   UNL A   1      33.051  28.825  23.842  1.00  0.00     0.278 C 
ATOM      5  O   UNL A   1      33.256  29.339  22.739  1.00  0.00    -0.268 OA
ATOM      6  H   UNL A   1      33.829  30.424  24.757  1.00  0.00     0.163 HD
BRANCH   4   7
ATOM      7  C   UNL A   1      32.562  27.359  24.001  1.00  0.00     0.274 C 
ATOM      8  N   UNL A   1      31.081  27.281  24.121  1.00  0.00    -0.317 N 
ATOM      9  C   UNL A   1      30.633  27.250  22.712  1.00  0.00     0.263 C 
ATOM     10  H   UNL A   1      30.703  28.056  24.667  1.00  0.00     0.349 HD
ATOM     11  C   UNL A   1      31.605  26.320  22.011  1.00  0.00     0.068 C 
ATOM     12  C   UNL A   1      32.913  26.503  22.771  1.00  0.00     0.081 C 
BRANCH   8  13
ATOM     13  C   UNL A   1      30.630  26.044  24.821  1.00  0.00     0.364 C 
BRANCH  13  14
ATOM     14  C   UNL A   1      31.110  25.926  26.272  1.00  0.00     0.279 C 
ATOM     15  N   UNL A   1      31.878  24.929  26.800  1.00  0.00    -0.319 N 
ATOM     16  H   UNL A   1      31.904  24.955  27.784  1.00  0.00     0.170 HD
ATOM     17  O   UNL A   1      30.826  26.835  27.071  1.00  0.00    -0.268 OA
BRANCH  15  18
ATOM     18  C   UNL A   1      32.646  23.866  26.264  1.00  0.00     0.079 A 
ATOM     19  C   UNL A   1      36.245  22.609  25.817  1.00  0.00     0.046 C 
ATOM     20  C   UNL A   1      34.742  22.673  25.871  1.00  0.00    -0.030 A 
ATOM     21  C   UNL A   1      34.047  21.455  25.915  1.00  0.00     0.006 A 
ATOM     22  C   UNL A   1      34.017  23.882  25.970  1.00  0.00     0.069 A 
ATOM     23  C   UNL A   1      32.658  21.442  25.953  1.00  0.00     0.023 A 
ATOM     24  Cl  UNL A   1      34.764  25.349  25.420  1.00  0.00    -0.082 Cl
ATOM     25  C   UNL A   1      31.965  22.642  26.098  1.00  0.00     0.066 A 
ATOM     26  Cl  UNL A   1      30.233  22.557  26.145  1.00  0.00    -0.082 Cl
ENDBRANCH  15  18
ENDBRANCH  13  14
ENDBRANCH   8  13
ENDBRANCH   4   7
ENDBRANCH   2   3
ENDBRANCH   1   2
BRANCH   1  27
ATOM     27  C   UNL A   1      31.957  31.535  26.620  1.00  0.00     0.023 C 
BRANCH  27  28
ATOM     28  C   UNL A   1      32.922  32.387  27.431  1.00  0.00     0.116 C 
BRANCH  28  29
ATOM     29  N   UNL A   1      32.492  33.763  27.630  1.00  0.00    -0.352 N 
ATOM     30  C   UNL A   1      33.019  34.698  28.497  1.00  0.00     0.251 C 
ATOM     31  H   UNL A   1      31.735  34.064  27.078  1.00  0.00     0.163 HD
ATOM     32  O   UNL A   1      32.512  35.804  28.618  1.00  0.00    -0.269 OA
BRANCH  30  33
ATOM     33  C   UNL A   1      34.182  34.319  29.330  1.00  0.00     0.039 A 
ATOM     34  C   UNL A   1      33.962  33.643  30.532  1.00  0.00     0.014 A 
ATOM     35  C   UNL A   1      35.483  34.559  28.883  1.00  0.00     0.014 A 
ATOM     36  C   UNL A   1      35.050  33.126  31.239  1.00  0.00     0.010 A 
ATOM     37  C   UNL A   1      36.555  33.965  29.537  1.00  0.00     0.010 A 
ATOM     38  C   UNL A   1      36.350  33.238  30.720  1.00  0.00    -0.014 A 
BRANCH  38  39
ATOM     39  C   UNL A   1      37.514  32.605  31.389  1.00  0.00     0.031 A 
ATOM     40  C   UNL A   1      38.231  31.465  30.723  1.00  0.00     0.074 A 
ATOM     41  C   UNL A   1      37.869  32.995  32.629  1.00  0.00     0.049 A 
ATOM     42  N   UNL A   1      39.194  30.707  31.185  1.00  0.00    -0.248 NA
ATOM     43  C   UNL A   1      37.778  31.101  29.371  1.00  0.00     0.031 C 
ATOM     44  C   UNL A   1      37.213  34.047  33.407  1.00  0.00     0.029 A 
ATOM     45  N   UNL A   1      38.863  32.541  33.459  1.00  0.00    -0.354 N 
ATOM     46  C   UNL A   1      39.441  29.768  30.193  1.00  0.00     0.074 A 
ATOM     47  C   UNL A   1      38.491  30.011  29.130  1.00  0.00     0.031 C 
ATOM     48  C   UNL A   1      37.839  34.178  34.588  1.00  0.00     0.029 A 
ATOM     49  C   UNL A   1      38.915  33.195  34.666  1.00  0.00     0.049 A 
ATOM     50  H   UNL A   1      39.479  31.814  33.213  1.00  0.00     0.167 HD
ATOM     51  C   UNL A   1      40.395  28.807  30.158  1.00  0.00     0.037 A 
ATOM     52  C   UNL A   1      39.740  33.019  35.716  1.00  0.00     0.037 A 
ATOM     53  C   UNL A   1      41.367  28.595  31.197  1.00  0.00     0.049 A 
ATOM     54  C   UNL A   1      40.807  31.963  35.642  1.00  0.00     0.074 A 
ATOM     55  C   UNL A   1      42.412  27.690  31.230  1.00  0.00     0.029 A 
ATOM     56  N   UNL A   1      41.414  29.306  32.386  1.00  0.00    -0.354 N 
ATOM     57  N   UNL A   1      41.071  31.120  34.674  1.00  0.00    -0.248 NA
ATOM     58  C   UNL A   1      41.698  31.838  36.804  1.00  0.00     0.031 C 
ATOM     59  C   UNL A   1      43.075  27.833  32.454  1.00  0.00     0.029 A 
ATOM     60  C   UNL A   1      42.466  28.855  33.165  1.00  0.00     0.049 A 
ATOM     61  H   UNL A   1      40.792  30.026  32.640  1.00  0.00     0.167 HD
ATOM     62  C   UNL A   1      42.170  30.384  35.096  1.00  0.00     0.074 A 
ATOM     63  C   UNL A   1      42.533  30.890  36.404  1.00  0.00     0.031 C 
ATOM     64  C   UNL A   1      42.819  29.380  34.459  1.00  0.00     0.037 A 
BRANCH  51  65
ATOM     65  C   UNL A   1      40.439  27.924  28.946  1.00  0.00     0.064 A 
ATOM     66  C   UNL A   1      39.729  26.714  28.895  1.00  0.00     0.173 A 
ATOM     67  C   UNL A   1      41.182  28.297  27.816  1.00  0.00     0.173 A 
ATOM     68  F   UNL A   1      39.015  26.305  29.954  1.00  0.00    -0.203 F 
ATOM     69  C   UNL A   1      39.789  25.894  27.770  1.00  0.00     0.198 A 
ATOM     70  C   UNL A   1      41.214  27.490  26.682  1.00  0.00     0.198 A 
ATOM     71  F   UNL A   1      41.876  29.445  27.810  1.00  0.00    -0.203 F 
ATOM     72  F   UNL A   1      39.147  24.719  27.767  1.00  0.00    -0.200 F 
ATOM     73  C   UNL A   1      40.525  26.286  26.663  1.00  0.00     0.200 A 
ATOM     74  F   UNL A   1      41.917  27.874  25.607  1.00  0.00    -0.200 F 
ATOM     75  F   UNL A   1      40.578  25.498  25.581  1.00  0.00    -0.200 F 
ENDBRANCH  51  65
BRANCH  52  76
ATOM     76  C   UNL A   1      39.614  33.891  36.913  1.00  0.00     0.064 A 
ATOM     77  C   UNL A   1      40.253  35.138  36.960  1.00  0.00     0.173 A 
ATOM     78  C   UNL A   1      38.856  33.503  38.027  1.00  0.00     0.173 A 
ATOM     79  F   UNL A   1      41.005  35.543  35.926  1.00  0.00    -0.203 F 
ATOM     80  C   UNL A   1      40.157  35.955  38.084  1.00  0.00     0.198 A 
ATOM     81  C   UNL A   1      38.740  34.332  39.141  1.00  0.00     0.198 A 
ATOM     82  F   UNL A   1      38.220  32.323  38.030  1.00  0.00    -0.203 F 
ATOM     83  F   UNL A   1      40.813  37.123  38.118  1.00  0.00    -0.200 F 
ATOM     84  C   UNL A   1      39.396  35.554  39.171  1.00  0.00     0.200 A 
ATOM     85  F   UNL A   1      37.994  33.949  40.185  1.00  0.00    -0.200 F 
ATOM     86  F   UNL A   1      39.300  36.342  40.251  1.00  0.00    -0.200 F 
ENDBRANCH  52  76
BRANCH  64  87
ATOM     87  C   UNL A   1      44.009  28.784  35.150  1.00  0.00     0.064 A 
ATOM     88  C   UNL A   1      43.879  27.717  36.049  1.00  0.00     0.173 A 
ATOM     89  C   UNL A   1      45.300  29.259  34.872  1.00  0.00     0.173 A 
ATOM     90  F   UNL A   1      42.664  27.240  36.358  1.00  0.00    -0.203 F 
ATOM     91  C   UNL A   1      44.998  27.159  36.662  1.00  0.00     0.198 A 
ATOM     92  C   UNL A   1      46.419  28.681  35.466  1.00  0.00     0.198 A 
ATOM     93  F   UNL A   1      45.477  30.274  34.013  1.00  0.00    -0.203 F 
ATOM     94  F   UNL A   1      44.847  26.166  37.550  1.00  0.00    -0.200 F 
ATOM     95  C   UNL A   1      46.266  27.636  36.364  1.00  0.00     0.200 A 
ATOM     96  F   UNL A   1      47.644  29.135  35.167  1.00  0.00    -0.200 F 
ATOM     97  F   UNL A   1      47.342  27.092  36.949  1.00  0.00    -0.200 F 
ENDBRANCH  64  87
ENDBRANCH  38  39
ENDBRANCH  30  33
ENDBRANCH  28  29
ENDBRANCH  27  28
ENDBRANCH   1  27
TORSDOF 14
ENDMDL
