MODEL 1
REMARK VINA RESULT:     -12.7      0.000      0.000
REMARK SMILES O=C(NCCCCNC(=O)c1ccc(-c2c3nc(c(-c4c(F)c(F)c(F)c(F)c4F)c4ccc([nH]4)c(-c4c(F)c(F)c(F)c(F)c4F)c4nc(c(-c5c(F)c(F)c(F)c(F)c5F)c5ccc2[nH]5)C=C4)C=C3)cc1)c1ccc(CN2CCCCC2=O)cc1
REMARK SMILES IDX 5 1 4 2 3 3 1 4 2 5 74 7 75 8 87 9 76 10 86 11 77 12 78 13
REMARK SMILES IDX 79 14 80 15 84 16 81 17 83 18 85 19 82 20 6 21 7 22 8 23
REMARK SMILES IDX 9 24 10 26 11 27 12 28 73 29 13 30 72 31 14 32 15 33 16 34
REMARK SMILES IDX 66 35 17 36 71 37 65 38 67 39 18 40 70 41 64 42 63 43 19 45
REMARK SMILES IDX 51 46 31 47 50 48 32 49 35 50 49 51 68 52 33 53 34 54 48 56
REMARK SMILES IDX 69 57 36 58 20 59 21 60 29 61 22 62 23 63 27 64 30 65 24 66
REMARK SMILES IDX 25 67 28 68 26 69 52 70 53 71 61 72 54 73 55 74 59 75 62 76
REMARK SMILES IDX 56 77 57 78 60 79 58 80 37 81 38 82 46 83 39 84 40 85 44 86
REMARK SMILES IDX 47 87 41 88 42 89 45 90 43 91
REMARK H PARENT 3 6 8 25 67 44 35 55
REMARK Flexibility Score: inf
ROOT
ATOM      1  C   UNL A   1      31.743  30.446  26.643  1.00  0.00     0.023 C 
ENDROOT
BRANCH   1   2
ATOM      2  C   UNL A   1      31.806  29.836  25.245  1.00  0.00     0.116 C 
BRANCH   2   3
ATOM      3  N   UNL A   1      30.670  30.225  24.423  1.00  0.00    -0.352 N 
ATOM      4  O   UNL A   1      29.156  29.992  22.757  1.00  0.00    -0.269 OA
ATOM      5  C   UNL A   1      30.002  29.479  23.481  1.00  0.00     0.251 C 
ATOM      6  H   UNL A   1      30.337  31.142  24.559  1.00  0.00     0.163 HD
BRANCH   5   7
ATOM      7  C   UNL A   1      30.327  28.047  23.343  1.00  0.00     0.039 A 
ATOM      8  C   UNL A   1      29.723  27.114  24.185  1.00  0.00     0.014 A 
ATOM      9  C   UNL A   1      31.261  27.643  22.387  1.00  0.00     0.014 A 
ATOM     10  C   UNL A   1      30.116  25.780  24.121  1.00  0.00     0.006 A 
ATOM     11  C   UNL A   1      31.656  26.301  22.331  1.00  0.00     0.006 A 
ATOM     12  C   UNL A   1      31.102  25.361  23.213  1.00  0.00    -0.029 A 
BRANCH  12  13
ATOM     13  C   UNL A   1      31.560  23.916  23.221  1.00  0.00     0.155 C 
BRANCH  13  14
ATOM     14  N   UNL A   1      32.931  23.754  23.709  1.00  0.00    -0.338 N 
ATOM     15  C   UNL A   1      33.161  23.883  25.141  1.00  0.00     0.120 C 
ATOM     16  C   UNL A   1      33.926  23.395  22.813  1.00  0.00     0.222 C 
ATOM     17  C   UNL A   1      34.612  24.197  25.468  1.00  0.00     0.022 C 
ATOM     18  C   UNL A   1      35.313  23.088  23.353  1.00  0.00     0.100 C 
ATOM     19  O   UNL A   1      33.738  23.342  21.596  1.00  0.00    -0.275 OA
ATOM     20  C   UNL A   1      35.481  23.117  24.860  1.00  0.00     0.012 C 
ENDBRANCH  13  14
ENDBRANCH  12  13
ENDBRANCH   5   7
ENDBRANCH   2   3
ENDBRANCH   1   2
BRANCH   1  21
ATOM     21  C   UNL A   1      31.561  31.963  26.684  1.00  0.00     0.023 C 
BRANCH  21  22
ATOM     22  C   UNL A   1      32.751  32.756  27.214  1.00  0.00     0.116 C 
BRANCH  22  23
ATOM     23  N   UNL A   1      32.411  34.119  27.595  1.00  0.00    -0.352 N 
ATOM     24  C   UNL A   1      32.974  34.925  28.554  1.00  0.00     0.251 C 
ATOM     25  H   UNL A   1      31.668  34.523  27.091  1.00  0.00     0.163 HD
ATOM     26  O   UNL A   1      32.476  36.016  28.813  1.00  0.00    -0.269 OA
BRANCH  24  27
ATOM     27  C   UNL A   1      34.160  34.465  29.309  1.00  0.00     0.039 A 
ATOM     28  C   UNL A   1      33.970  33.842  30.545  1.00  0.00     0.014 A 
ATOM     29  C   UNL A   1      35.451  34.631  28.800  1.00  0.00     0.014 A 
ATOM     30  C   UNL A   1      35.065  33.312  31.232  1.00  0.00     0.010 A 
ATOM     31  C   UNL A   1      36.533  34.045  29.451  1.00  0.00     0.010 A 
ATOM     32  C   UNL A   1      36.350  33.371  30.669  1.00  0.00    -0.014 A 
BRANCH  32  33
ATOM     33  C   UNL A   1      37.511  32.720  31.326  1.00  0.00     0.031 A 
ATOM     34  C   UNL A   1      38.229  31.589  30.648  1.00  0.00     0.074 A 
ATOM     35  C   UNL A   1      37.872  33.100  32.567  1.00  0.00     0.049 A 
ATOM     36  N   UNL A   1      39.199  30.834  31.101  1.00  0.00    -0.248 NA
ATOM     37  C   UNL A   1      37.781  31.243  29.290  1.00  0.00     0.031 C 
ATOM     38  C   UNL A   1      37.230  34.157  33.349  1.00  0.00     0.029 A 
ATOM     39  N   UNL A   1      38.861  32.630  33.394  1.00  0.00    -0.354 N 
ATOM     40  C   UNL A   1      39.464  29.916  30.093  1.00  0.00     0.074 A 
ATOM     41  C   UNL A   1      38.524  30.178  29.024  1.00  0.00     0.031 C 
ATOM     42  C   UNL A   1      37.853  34.270  34.533  1.00  0.00     0.029 A 
ATOM     43  C   UNL A   1      38.914  33.270  34.609  1.00  0.00     0.049 A 
ATOM     44  H   UNL A   1      39.475  31.903  33.142  1.00  0.00     0.167 HD
ATOM     45  C   UNL A   1      40.417  28.954  30.056  1.00  0.00     0.037 A 
ATOM     46  C   UNL A   1      39.722  33.067  35.667  1.00  0.00     0.037 A 
ATOM     47  C   UNL A   1      41.368  28.710  31.107  1.00  0.00     0.049 A 
ATOM     48  C   UNL A   1      40.770  31.991  35.599  1.00  0.00     0.074 A 
ATOM     49  C   UNL A   1      42.404  27.792  31.139  1.00  0.00     0.029 A 
ATOM     50  N   UNL A   1      41.402  29.393  32.314  1.00  0.00    -0.354 N 
ATOM     51  N   UNL A   1      41.043  31.162  34.623  1.00  0.00    -0.248 NA
ATOM     52  C   UNL A   1      41.625  31.826  36.783  1.00  0.00     0.031 C 
ATOM     53  C   UNL A   1      43.044  27.897  32.379  1.00  0.00     0.029 A 
ATOM     54  C   UNL A   1      42.433  28.908  33.103  1.00  0.00     0.049 A 
ATOM     55  H   UNL A   1      40.785  30.116  32.572  1.00  0.00     0.167 HD
ATOM     56  C   UNL A   1      42.114  30.397  35.060  1.00  0.00     0.074 A 
ATOM     57  C   UNL A   1      42.450  30.866  36.389  1.00  0.00     0.031 C 
ATOM     58  C   UNL A   1      42.761  29.394  34.418  1.00  0.00     0.037 A 
BRANCH  45  59
ATOM     59  C   UNL A   1      40.481  28.095  28.828  1.00  0.00     0.064 A 
ATOM     60  C   UNL A   1      41.263  28.457  27.722  1.00  0.00     0.173 A 
ATOM     61  C   UNL A   1      39.782  26.880  28.770  1.00  0.00     0.173 A 
ATOM     62  F   UNL A   1      41.940  29.615  27.724  1.00  0.00    -0.203 F 
ATOM     63  C   UNL A   1      41.323  27.647  26.591  1.00  0.00     0.198 A 
ATOM     64  C   UNL A   1      39.865  26.059  27.648  1.00  0.00     0.198 A 
ATOM     65  F   UNL A   1      39.023  26.485  29.804  1.00  0.00    -0.203 F 
ATOM     66  F   UNL A   1      42.041  28.034  25.528  1.00  0.00    -0.200 F 
ATOM     67  C   UNL A   1      40.629  26.446  26.558  1.00  0.00     0.200 A 
ATOM     68  F   UNL A   1      39.203  24.895  27.621  1.00  0.00    -0.200 F 
ATOM     69  F   UNL A   1      40.692  25.665  25.470  1.00  0.00    -0.200 F 
ENDBRANCH  45  59
BRANCH  46  70
ATOM     70  C   UNL A   1      39.590  33.923  36.872  1.00  0.00     0.064 A 
ATOM     71  C   UNL A   1      38.820  33.503  37.967  1.00  0.00     0.173 A 
ATOM     72  C   UNL A   1      40.223  35.171  36.958  1.00  0.00     0.173 A 
ATOM     73  F   UNL A   1      38.179  32.327  37.921  1.00  0.00    -0.203 F 
ATOM     74  C   UNL A   1      38.678  34.307  39.095  1.00  0.00     0.198 A 
ATOM     75  C   UNL A   1      40.100  35.963  38.097  1.00  0.00     0.198 A 
ATOM     76  F   UNL A   1      40.973  35.615  35.938  1.00  0.00    -0.203 F 
ATOM     77  F   UNL A   1      37.906  33.899  40.112  1.00  0.00    -0.200 F 
ATOM     78  C   UNL A   1      39.322  35.533  39.163  1.00  0.00     0.200 A 
ATOM     79  F   UNL A   1      40.732  37.143  38.163  1.00  0.00    -0.200 F 
ATOM     80  F   UNL A   1      39.187  36.304  40.250  1.00  0.00    -0.200 F 
ENDBRANCH  46  70
BRANCH  58  81
ATOM     81  C   UNL A   1      43.920  28.759  35.127  1.00  0.00     0.064 A 
ATOM     82  C   UNL A   1      45.227  29.244  34.975  1.00  0.00     0.173 A 
ATOM     83  C   UNL A   1      43.713  27.680  35.999  1.00  0.00     0.173 A 
ATOM     84  F   UNL A   1      45.476  30.264  34.140  1.00  0.00    -0.203 F 
ATOM     85  C   UNL A   1      46.289  28.658  35.658  1.00  0.00     0.198 A 
ATOM     86  C   UNL A   1      44.774  27.112  36.698  1.00  0.00     0.198 A 
ATOM     87  F   UNL A   1      42.480  27.184  36.181  1.00  0.00    -0.203 F 
ATOM     88  F   UNL A   1      47.537  29.111  35.469  1.00  0.00    -0.200 F 
ATOM     89  C   UNL A   1      46.061  27.598  36.524  1.00  0.00     0.200 A 
ATOM     90  F   UNL A   1      44.551  26.095  37.542  1.00  0.00    -0.200 F 
ATOM     91  F   UNL A   1      47.085  27.040  37.184  1.00  0.00    -0.200 F 
ENDBRANCH  58  81
ENDBRANCH  32  33
ENDBRANCH  24  27
ENDBRANCH  22  23
ENDBRANCH  21  22
ENDBRANCH   1  21
TORSDOF 13
ENDMDL
MODEL 2
REMARK VINA RESULT:     -12.6      1.339      2.307
REMARK SMILES O=C(NCCCCNC(=O)c1ccc(-c2c3nc(c(-c4c(F)c(F)c(F)c(F)c4F)c4ccc([nH]4)c(-c4c(F)c(F)c(F)c(F)c4F)c4nc(c(-c5c(F)c(F)c(F)c(F)c5F)c5ccc2[nH]5)C=C4)C=C3)cc1)c1ccc(CN2CCCCC2=O)cc1
REMARK SMILES IDX 5 1 4 2 3 3 1 4 2 5 74 7 75 8 87 9 76 10 86 11 77 12 78 13
REMARK SMILES IDX 79 14 80 15 84 16 81 17 83 18 85 19 82 20 6 21 7 22 8 23
REMARK SMILES IDX 9 24 10 26 11 27 12 28 73 29 13 30 72 31 14 32 15 33 16 34
REMARK SMILES IDX 66 35 17 36 71 37 65 38 67 39 18 40 70 41 64 42 63 43 19 45
REMARK SMILES IDX 51 46 31 47 50 48 32 49 35 50 49 51 68 52 33 53 34 54 48 56
REMARK SMILES IDX 69 57 36 58 20 59 21 60 29 61 22 62 23 63 27 64 30 65 24 66
REMARK SMILES IDX 25 67 28 68 26 69 52 70 53 71 61 72 54 73 55 74 59 75 62 76
REMARK SMILES IDX 56 77 57 78 60 79 58 80 37 81 38 82 46 83 39 84 40 85 44 86
REMARK SMILES IDX 47 87 41 88 42 89 45 90 43 91
REMARK H PARENT 3 6 8 25 67 44 35 55
REMARK Flexibility Score: inf
ROOT
ATOM      1  C   UNL A   1      31.648  30.539  26.427  1.00  0.00     0.023 C 
ENDROOT
BRANCH   1   2
ATOM      2  C   UNL A   1      33.056  30.076  26.060  1.00  0.00     0.116 C 
BRANCH   2   3
ATOM      3  N   UNL A   1      33.184  29.774  24.642  1.00  0.00    -0.352 N 
ATOM      4  O   UNL A   1      33.415  28.433  22.833  1.00  0.00    -0.269 OA
ATOM      5  C   UNL A   1      33.140  28.547  24.023  1.00  0.00     0.251 C 
ATOM      6  H   UNL A   1      33.320  30.548  24.050  1.00  0.00     0.163 HD
BRANCH   5   7
ATOM      7  C   UNL A   1      32.768  27.361  24.816  1.00  0.00     0.039 A 
ATOM      8  C   UNL A   1      33.763  26.536  25.340  1.00  0.00     0.014 A 
ATOM      9  C   UNL A   1      31.419  27.059  25.012  1.00  0.00     0.014 A 
ATOM     10  C   UNL A   1      33.404  25.361  25.993  1.00  0.00     0.006 A 
ATOM     11  C   UNL A   1      31.064  25.873  25.665  1.00  0.00     0.006 A 
ATOM     12  C   UNL A   1      32.055  25.002  26.144  1.00  0.00    -0.029 A 
BRANCH  12  13
ATOM     13  C   UNL A   1      31.700  23.680  26.795  1.00  0.00     0.155 C 
BRANCH  13  14
ATOM     14  N   UNL A   1      32.351  22.535  26.153  1.00  0.00    -0.338 N 
ATOM     15  C   UNL A   1      31.889  22.147  24.828  1.00  0.00     0.120 C 
ATOM     16  C   UNL A   1      33.429  21.934  26.784  1.00  0.00     0.222 C 
ATOM     17  C   UNL A   1      32.250  20.711  24.487  1.00  0.00     0.022 C 
ATOM     18  C   UNL A   1      34.187  20.844  26.045  1.00  0.00     0.100 C 
ATOM     19  O   UNL A   1      33.780  22.229  27.928  1.00  0.00    -0.275 OA
ATOM     20  C   UNL A   1      33.750  20.553  24.621  1.00  0.00     0.012 C 
ENDBRANCH  13  14
ENDBRANCH  12  13
ENDBRANCH   5   7
ENDBRANCH   2   3
ENDBRANCH   1   2
BRANCH   1  21
ATOM     21  C   UNL A   1      31.488  32.047  26.619  1.00  0.00     0.023 C 
BRANCH  21  22
ATOM     22  C   UNL A   1      32.644  32.748  27.325  1.00  0.00     0.116 C 
BRANCH  22  23
ATOM     23  N   UNL A   1      32.364  34.140  27.643  1.00  0.00    -0.352 N 
ATOM     24  C   UNL A   1      32.981  34.971  28.548  1.00  0.00     0.251 C 
ATOM     25  H   UNL A   1      31.625  34.547  27.136  1.00  0.00     0.163 HD
ATOM     26  O   UNL A   1      32.530  36.093  28.761  1.00  0.00    -0.269 OA
BRANCH  24  27
ATOM     27  C   UNL A   1      34.167  34.504  29.298  1.00  0.00     0.039 A 
ATOM     28  C   UNL A   1      33.983  33.946  30.565  1.00  0.00     0.014 A 
ATOM     29  C   UNL A   1      35.451  34.602  28.755  1.00  0.00     0.014 A 
ATOM     30  C   UNL A   1      35.074  33.409  31.253  1.00  0.00     0.010 A 
ATOM     31  C   UNL A   1      36.526  34.008  29.410  1.00  0.00     0.010 A 
ATOM     32  C   UNL A   1      36.347  33.396  30.661  1.00  0.00    -0.014 A 
BRANCH  32  33
ATOM     33  C   UNL A   1      37.500  32.736  31.323  1.00  0.00     0.031 A 
ATOM     34  C   UNL A   1      38.208  31.596  30.651  1.00  0.00     0.074 A 
ATOM     35  C   UNL A   1      37.861  33.115  32.564  1.00  0.00     0.049 A 
ATOM     36  N   UNL A   1      39.169  30.832  31.108  1.00  0.00    -0.248 NA
ATOM     37  C   UNL A   1      37.761  31.251  29.292  1.00  0.00     0.031 C 
ATOM     38  C   UNL A   1      37.227  34.181  33.342  1.00  0.00     0.029 A 
ATOM     39  N   UNL A   1      38.843  32.637  33.396  1.00  0.00    -0.354 N 
ATOM     40  C   UNL A   1      39.428  29.909  30.103  1.00  0.00     0.074 A 
ATOM     41  C   UNL A   1      38.494  30.178  29.030  1.00  0.00     0.031 C 
ATOM     42  C   UNL A   1      37.848  34.290  34.528  1.00  0.00     0.029 A 
ATOM     43  C   UNL A   1      38.898  33.279  34.609  1.00  0.00     0.049 A 
ATOM     44  H   UNL A   1      39.450  31.904  33.147  1.00  0.00     0.167 HD
ATOM     45  C   UNL A   1      40.371  28.938  30.072  1.00  0.00     0.037 A 
ATOM     46  C   UNL A   1      39.701  33.071  35.671  1.00  0.00     0.037 A 
ATOM     47  C   UNL A   1      41.317  28.687  31.126  1.00  0.00     0.049 A 
ATOM     48  C   UNL A   1      40.739  31.985  35.608  1.00  0.00     0.074 A 
ATOM     49  C   UNL A   1      42.343  27.759  31.163  1.00  0.00     0.029 A 
ATOM     50  N   UNL A   1      41.354  29.372  32.332  1.00  0.00    -0.354 N 
ATOM     51  N   UNL A   1      41.006  31.151  34.635  1.00  0.00    -0.248 NA
ATOM     52  C   UNL A   1      41.588  31.814  36.795  1.00  0.00     0.031 C 
ATOM     53  C   UNL A   1      42.981  27.860  32.405  1.00  0.00     0.029 A 
ATOM     54  C   UNL A   1      42.378  28.879  33.125  1.00  0.00     0.049 A 
ATOM     55  H   UNL A   1      40.744  30.102  32.586  1.00  0.00     0.167 HD
ATOM     56  C   UNL A   1      42.068  30.376  35.077  1.00  0.00     0.074 A 
ATOM     57  C   UNL A   1      42.405  30.845  36.406  1.00  0.00     0.031 C 
ATOM     58  C   UNL A   1      42.706  29.365  34.440  1.00  0.00     0.037 A 
BRANCH  45  59
ATOM     59  C   UNL A   1      40.430  28.074  28.846  1.00  0.00     0.064 A 
ATOM     60  C   UNL A   1      41.195  28.442  27.729  1.00  0.00     0.173 A 
ATOM     61  C   UNL A   1      39.744  26.852  28.800  1.00  0.00     0.173 A 
ATOM     62  F   UNL A   1      41.859  29.607  27.719  1.00  0.00    -0.203 F 
ATOM     63  C   UNL A   1      41.250  27.628  26.601  1.00  0.00     0.198 A 
ATOM     64  C   UNL A   1      39.824  26.027  27.681  1.00  0.00     0.198 A 
ATOM     65  F   UNL A   1      39.003  26.452  29.845  1.00  0.00    -0.203 F 
ATOM     66  F   UNL A   1      41.951  28.020  25.528  1.00  0.00    -0.200 F 
ATOM     67  C   UNL A   1      40.570  26.420  26.580  1.00  0.00     0.200 A 
ATOM     68  F   UNL A   1      39.174  24.856  27.666  1.00  0.00    -0.200 F 
ATOM     69  F   UNL A   1      40.628  25.635  25.495  1.00  0.00    -0.200 F 
ENDBRANCH  45  59
BRANCH  46  70
ATOM     70  C   UNL A   1      39.574  33.932  36.873  1.00  0.00     0.064 A 
ATOM     71  C   UNL A   1      40.230  35.169  36.939  1.00  0.00     0.173 A 
ATOM     72  C   UNL A   1      38.801  33.541  37.976  1.00  0.00     0.173 A 
ATOM     73  F   UNL A   1      40.997  35.574  35.917  1.00  0.00    -0.203 F 
ATOM     74  C   UNL A   1      40.130  35.976  38.070  1.00  0.00     0.198 A 
ATOM     75  C   UNL A   1      38.682  34.360  39.096  1.00  0.00     0.198 A 
ATOM     76  F   UNL A   1      38.152  32.367  37.959  1.00  0.00    -0.203 F 
ATOM     77  F   UNL A   1      40.798  37.136  38.123  1.00  0.00    -0.200 F 
ATOM     78  C   UNL A   1      39.351  35.574  39.145  1.00  0.00     0.200 A 
ATOM     79  F   UNL A   1      37.921  33.973  40.129  1.00  0.00    -0.200 F 
ATOM     80  F   UNL A   1      39.253  36.353  40.231  1.00  0.00    -0.200 F 
ENDBRANCH  46  70
BRANCH  58  81
ATOM     81  C   UNL A   1      43.857  28.720  35.154  1.00  0.00     0.064 A 
ATOM     82  C   UNL A   1      43.673  27.605  35.983  1.00  0.00     0.173 A 
ATOM     83  C   UNL A   1      45.162  29.201  34.973  1.00  0.00     0.173 A 
ATOM     84  F   UNL A   1      42.441  27.120  36.199  1.00  0.00    -0.203 F 
ATOM     85  C   UNL A   1      44.754  27.005  36.622  1.00  0.00     0.198 A 
ATOM     86  C   UNL A   1      46.244  28.583  35.594  1.00  0.00     0.198 A 
ATOM     87  F   UNL A   1      45.390  30.262  34.186  1.00  0.00    -0.203 F 
ATOM     88  F   UNL A   1      44.553  25.963  37.442  1.00  0.00    -0.200 F 
ATOM     89  C   UNL A   1      46.039  27.489  36.421  1.00  0.00     0.200 A 
ATOM     90  F   UNL A   1      47.485  29.045  35.391  1.00  0.00    -0.200 F 
ATOM     91  F   UNL A   1      47.079  26.905  37.032  1.00  0.00    -0.200 F 
ENDBRANCH  58  81
ENDBRANCH  32  33
ENDBRANCH  24  27
ENDBRANCH  22  23
ENDBRANCH  21  22
ENDBRANCH   1  21
TORSDOF 13
ENDMDL
MODEL 3
REMARK VINA RESULT:     -12.5      1.406      1.692
REMARK SMILES O=C(NCCCCNC(=O)c1ccc(-c2c3nc(c(-c4c(F)c(F)c(F)c(F)c4F)c4ccc([nH]4)c(-c4c(F)c(F)c(F)c(F)c4F)c4nc(c(-c5c(F)c(F)c(F)c(F)c5F)c5ccc2[nH]5)C=C4)C=C3)cc1)c1ccc(CN2CCCCC2=O)cc1
REMARK SMILES IDX 5 1 4 2 3 3 1 4 2 5 74 7 75 8 87 9 76 10 86 11 77 12 78 13
REMARK SMILES IDX 79 14 80 15 84 16 81 17 83 18 85 19 82 20 6 21 7 22 8 23
REMARK SMILES IDX 9 24 10 26 11 27 12 28 73 29 13 30 72 31 14 32 15 33 16 34
REMARK SMILES IDX 66 35 17 36 71 37 65 38 67 39 18 40 70 41 64 42 63 43 19 45
REMARK SMILES IDX 51 46 31 47 50 48 32 49 35 50 49 51 68 52 33 53 34 54 48 56
REMARK SMILES IDX 69 57 36 58 20 59 21 60 29 61 22 62 23 63 27 64 30 65 24 66
REMARK SMILES IDX 25 67 28 68 26 69 52 70 53 71 61 72 54 73 55 74 59 75 62 76
REMARK SMILES IDX 56 77 57 78 60 79 58 80 37 81 38 82 46 83 39 84 40 85 44 86
REMARK SMILES IDX 47 87 41 88 42 89 45 90 43 91
REMARK H PARENT 3 6 8 25 67 44 35 55
REMARK Flexibility Score: inf
ROOT
ATOM      1  C   UNL A   1      31.668  30.512  26.282  1.00  0.00     0.023 C 
ENDROOT
BRANCH   1   2
ATOM      2  C   UNL A   1      33.141  30.140  26.131  1.00  0.00     0.116 C 
BRANCH   2   3
ATOM      3  N   UNL A   1      33.491  29.825  24.754  1.00  0.00    -0.352 N 
ATOM      4  O   UNL A   1      33.922  28.466  22.996  1.00  0.00    -0.269 OA
ATOM      5  C   UNL A   1      33.450  28.606  24.120  1.00  0.00     0.251 C 
ATOM      6  H   UNL A   1      33.798  30.583  24.206  1.00  0.00     0.163 HD
BRANCH   5   7
ATOM      7  C   UNL A   1      32.841  27.459  24.818  1.00  0.00     0.039 A 
ATOM      8  C   UNL A   1      33.644  26.591  25.558  1.00  0.00     0.014 A 
ATOM      9  C   UNL A   1      31.467  27.236  24.708  1.00  0.00     0.014 A 
ATOM     10  C   UNL A   1      33.079  25.451  26.123  1.00  0.00     0.006 A 
ATOM     11  C   UNL A   1      30.906  26.086  25.274  1.00  0.00     0.006 A 
ATOM     12  C   UNL A   1      31.712  25.171  25.970  1.00  0.00    -0.029 A 
BRANCH  12  13
ATOM     13  C   UNL A   1      31.143  23.885  26.534  1.00  0.00     0.155 C 
BRANCH  13  14
ATOM     14  N   UNL A   1      31.942  22.707  26.187  1.00  0.00    -0.338 N 
ATOM     15  C   UNL A   1      31.864  22.214  24.819  1.00  0.00     0.120 C 
ATOM     16  C   UNL A   1      32.800  22.173  27.135  1.00  0.00     0.222 C 
ATOM     17  C   UNL A   1      32.300  20.763  24.702  1.00  0.00     0.022 C 
ATOM     18  C   UNL A   1      33.729  21.044  26.720  1.00  0.00     0.100 C 
ATOM     19  O   UNL A   1      32.821  22.558  28.306  1.00  0.00    -0.275 OA
ATOM     20  C   UNL A   1      33.703  20.641  25.257  1.00  0.00     0.012 C 
ENDBRANCH  13  14
ENDBRANCH  12  13
ENDBRANCH   5   7
ENDBRANCH   2   3
ENDBRANCH   1   2
BRANCH   1  21
ATOM     21  C   UNL A   1      31.403  31.899  26.868  1.00  0.00     0.023 C 
BRANCH  21  22
ATOM     22  C   UNL A   1      32.643  32.700  27.251  1.00  0.00     0.116 C 
BRANCH  22  23
ATOM     23  N   UNL A   1      32.354  34.090  27.571  1.00  0.00    -0.352 N 
ATOM     24  C   UNL A   1      32.956  34.921  28.485  1.00  0.00     0.251 C 
ATOM     25  H   UNL A   1      31.619  34.495  27.056  1.00  0.00     0.163 HD
ATOM     26  O   UNL A   1      32.498  36.039  28.696  1.00  0.00    -0.269 OA
BRANCH  24  27
ATOM     27  C   UNL A   1      34.136  34.456  29.247  1.00  0.00     0.039 A 
ATOM     28  C   UNL A   1      33.935  33.842  30.486  1.00  0.00     0.014 A 
ATOM     29  C   UNL A   1      35.430  34.610  28.743  1.00  0.00     0.014 A 
ATOM     30  C   UNL A   1      35.023  33.307  31.181  1.00  0.00     0.010 A 
ATOM     31  C   UNL A   1      36.504  34.020  29.403  1.00  0.00     0.010 A 
ATOM     32  C   UNL A   1      36.311  33.354  30.623  1.00  0.00    -0.014 A 
BRANCH  32  33
ATOM     33  C   UNL A   1      37.465  32.698  31.289  1.00  0.00     0.031 A 
ATOM     34  C   UNL A   1      38.182  31.563  30.618  1.00  0.00     0.074 A 
ATOM     35  C   UNL A   1      37.818  33.078  32.532  1.00  0.00     0.049 A 
ATOM     36  N   UNL A   1      39.145  30.804  31.078  1.00  0.00    -0.248 NA
ATOM     37  C   UNL A   1      37.743  31.218  29.257  1.00  0.00     0.031 C 
ATOM     38  C   UNL A   1      37.175  34.139  33.309  1.00  0.00     0.029 A 
ATOM     39  N   UNL A   1      38.799  32.604  33.368  1.00  0.00    -0.354 N 
ATOM     40  C   UNL A   1      39.413  29.884  30.073  1.00  0.00     0.074 A 
ATOM     41  C   UNL A   1      38.483  30.150  28.997  1.00  0.00     0.031 C 
ATOM     42  C   UNL A   1      37.790  34.249  34.498  1.00  0.00     0.029 A 
ATOM     43  C   UNL A   1      38.846  33.244  34.582  1.00  0.00     0.049 A 
ATOM     44  H   UNL A   1      39.411  31.874  33.120  1.00  0.00     0.167 HD
ATOM     45  C   UNL A   1      40.362  28.918  30.044  1.00  0.00     0.037 A 
ATOM     46  C   UNL A   1      39.645  33.039  35.647  1.00  0.00     0.037 A 
ATOM     47  C   UNL A   1      41.305  28.671  31.102  1.00  0.00     0.049 A 
ATOM     48  C   UNL A   1      40.689  31.958  35.587  1.00  0.00     0.074 A 
ATOM     49  C   UNL A   1      42.336  27.748  31.142  1.00  0.00     0.029 A 
ATOM     50  N   UNL A   1      41.333  29.355  32.309  1.00  0.00    -0.354 N 
ATOM     51  N   UNL A   1      40.966  31.127  34.613  1.00  0.00    -0.248 NA
ATOM     52  C   UNL A   1      41.535  31.791  36.777  1.00  0.00     0.031 C 
ATOM     53  C   UNL A   1      42.968  27.851  32.386  1.00  0.00     0.029 A 
ATOM     54  C   UNL A   1      42.356  28.865  33.106  1.00  0.00     0.049 A 
ATOM     55  H   UNL A   1      40.718  30.080  32.562  1.00  0.00     0.167 HD
ATOM     56  C   UNL A   1      42.030  30.357  35.058  1.00  0.00     0.074 A 
ATOM     57  C   UNL A   1      42.358  30.826  36.389  1.00  0.00     0.031 C 
ATOM     58  C   UNL A   1      42.676  29.351  34.422  1.00  0.00     0.037 A 
BRANCH  45  59
ATOM     59  C   UNL A   1      40.431  28.057  28.817  1.00  0.00     0.064 A 
ATOM     60  C   UNL A   1      41.197  28.432  27.703  1.00  0.00     0.173 A 
ATOM     61  C   UNL A   1      39.755  26.829  28.768  1.00  0.00     0.173 A 
ATOM     62  F   UNL A   1      41.851  29.603  27.696  1.00  0.00    -0.203 F 
ATOM     63  C   UNL A   1      41.261  27.621  26.573  1.00  0.00     0.198 A 
ATOM     64  C   UNL A   1      39.844  26.007  27.647  1.00  0.00     0.198 A 
ATOM     65  F   UNL A   1      39.013  26.422  29.810  1.00  0.00    -0.203 F 
ATOM     66  F   UNL A   1      41.962  28.020  25.503  1.00  0.00    -0.200 F 
ATOM     67  C   UNL A   1      40.590  26.407  26.549  1.00  0.00     0.200 A 
ATOM     68  F   UNL A   1      39.203  24.831  27.628  1.00  0.00    -0.200 F 
ATOM     69  F   UNL A   1      40.657  25.625  25.462  1.00  0.00    -0.200 F 
ENDBRANCH  45  59
BRANCH  46  70
ATOM     70  C   UNL A   1      39.508  33.896  36.850  1.00  0.00     0.064 A 
ATOM     71  C   UNL A   1      38.753  33.469  37.951  1.00  0.00     0.173 A 
ATOM     72  C   UNL A   1      40.123  35.154  36.928  1.00  0.00     0.173 A 
ATOM     73  F   UNL A   1      38.129  32.283  37.913  1.00  0.00    -0.203 F 
ATOM     74  C   UNL A   1      38.606  34.274  39.078  1.00  0.00     0.198 A 
ATOM     75  C   UNL A   1      39.995  35.948  38.065  1.00  0.00     0.198 A 
ATOM     76  F   UNL A   1      40.859  35.606  35.901  1.00  0.00    -0.203 F 
ATOM     77  F   UNL A   1      37.847  33.857  40.101  1.00  0.00    -0.200 F 
ATOM     78  C   UNL A   1      39.232  35.509  39.137  1.00  0.00     0.200 A 
ATOM     79  F   UNL A   1      40.610  37.137  38.123  1.00  0.00    -0.200 F 
ATOM     80  F   UNL A   1      39.092  36.282  40.223  1.00  0.00    -0.200 F 
ENDBRANCH  46  70
BRANCH  58  81
ATOM     81  C   UNL A   1      43.828  28.712  35.141  1.00  0.00     0.064 A 
ATOM     82  C   UNL A   1      45.144  29.157  34.957  1.00  0.00     0.173 A 
ATOM     83  C   UNL A   1      43.604  27.669  36.052  1.00  0.00     0.173 A 
ATOM     84  F   UNL A   1      45.409  30.140  34.084  1.00  0.00    -0.203 F 
ATOM     85  C   UNL A   1      46.199  28.568  35.648  1.00  0.00     0.198 A 
ATOM     86  C   UNL A   1      44.658  27.099  36.759  1.00  0.00     0.198 A 
ATOM     87  F   UNL A   1      42.361  27.212  36.265  1.00  0.00    -0.203 F 
ATOM     88  F   UNL A   1      47.456  28.981  35.429  1.00  0.00    -0.200 F 
ATOM     89  C   UNL A   1      45.955  27.545  36.553  1.00  0.00     0.200 A 
ATOM     90  F   UNL A   1      44.420  26.118  37.640  1.00  0.00    -0.200 F 
ATOM     91  F   UNL A   1      46.972  26.984  37.221  1.00  0.00    -0.200 F 
ENDBRANCH  58  81
ENDBRANCH  32  33
ENDBRANCH  24  27
ENDBRANCH  22  23
ENDBRANCH  21  22
ENDBRANCH   1  21
TORSDOF 13
ENDMDL
