MODEL 1
REMARK VINA RESULT:     -13.1      0.000      0.000
REMARK SMILES O=C(NCCCCNC(=O)[C@H]1CC(=O)N(Cc2ccc3cc[nH]c3c2)C1)c1ccc(-c2c3nc(c(-c4c(F)c(F)c(F)c(F)c4F)c4ccc([nH]4)c(-c4c(F)c(F)c(F)c(F)c4F)c4nc(c(-c5c(F)c(F)c(F)c(F)c5F)c5ccc2[nH]5)C=C4)C=C3)cc1
REMARK SMILES IDX 5 1 4 2 3 3 1 4 2 5 27 7 28 8 89 9 29 10 88 11 30 12 31 13
REMARK SMILES IDX 32 14 82 15 33 16 87 17 81 18 83 19 34 20 86 21 80 22 79 23
REMARK SMILES IDX 35 25 67 26 47 27 66 28 48 29 51 30 65 31 84 32 49 33 50 34
REMARK SMILES IDX 64 36 85 37 52 38 36 39 37 40 45 41 38 42 39 43 43 44 46 45
REMARK SMILES IDX 40 46 41 47 44 48 42 49 68 50 69 51 77 52 70 53 71 54 75 55
REMARK SMILES IDX 78 56 72 57 73 58 76 59 74 60 53 61 54 62 62 63 55 64 56 65
REMARK SMILES IDX 60 66 63 67 57 68 58 69 61 70 59 71 6 72 7 73 8 74 9 75
REMARK SMILES IDX 10 77 11 78 12 79 26 80 13 81 15 82 14 83 16 84 17 85 18 86
REMARK SMILES IDX 25 87 19 88 24 89 20 90 23 91 21 92 22 93
REMARK H PARENT 3 6 83 24 51 35 8 76 23 94
REMARK Flexibility Score: inf
ROOT
ATOM      1  C   UNL A   1      31.392  32.164  26.662  1.00  0.00     0.023 C 
ENDROOT
BRANCH   1   2
ATOM      2  C   UNL A   1      32.549  32.849  27.373  1.00  0.00     0.116 C 
BRANCH   2   3
ATOM      3  N   UNL A   1      32.296  34.253  27.671  1.00  0.00    -0.352 N 
ATOM      4  O   UNL A   1      32.490  36.204  28.804  1.00  0.00    -0.269 OA
ATOM      5  C   UNL A   1      32.916  35.075  28.585  1.00  0.00     0.251 C 
ATOM      6  H   UNL A   1      31.579  34.673  27.142  1.00  0.00     0.163 HD
BRANCH   5   7
ATOM      7  C   UNL A   1      34.084  34.570  29.333  1.00  0.00     0.039 A 
ATOM      8  C   UNL A   1      35.365  34.679  28.792  1.00  0.00     0.014 A 
ATOM      9  C   UNL A   1      33.893  33.934  30.562  1.00  0.00     0.014 A 
ATOM     10  C   UNL A   1      36.411  33.973  29.364  1.00  0.00     0.010 A 
ATOM     11  C   UNL A   1      34.978  33.330  31.204  1.00  0.00     0.010 A 
ATOM     12  C   UNL A   1      36.237  33.300  30.585  1.00  0.00    -0.014 A 
BRANCH  12  13
ATOM     13  C   UNL A   1      37.405  32.616  31.201  1.00  0.00     0.031 A 
ATOM     14  C   UNL A   1      37.872  32.954  32.591  1.00  0.00     0.074 A 
ATOM     15  C   UNL A   1      38.019  31.641  30.501  1.00  0.00     0.049 A 
ATOM     16  N   UNL A   1      38.845  32.420  33.287  1.00  0.00    -0.248 NA
ATOM     17  C   UNL A   1      37.166  34.037  33.291  1.00  0.00     0.031 C 
ATOM     18  C   UNL A   1      37.659  31.230  29.141  1.00  0.00     0.029 A 
ATOM     19  N   UNL A   1      39.047  30.801  30.839  1.00  0.00    -0.354 N 
ATOM     20  C   UNL A   1      38.886  33.116  34.489  1.00  0.00     0.074 A 
ATOM     21  C   UNL A   1      37.857  34.130  34.419  1.00  0.00     0.031 C 
ATOM     22  C   UNL A   1      38.404  30.175  28.789  1.00  0.00     0.029 A 
ATOM     23  C   UNL A   1      39.348  29.886  29.860  1.00  0.00     0.049 A 
ATOM     24  H   UNL A   1      39.522  30.848  31.700  1.00  0.00     0.167 HD
ATOM     25  C   UNL A   1      39.705  32.920  35.551  1.00  0.00     0.037 A 
ATOM     26  C   UNL A   1      40.294  28.931  29.819  1.00  0.00     0.037 A 
ATOM     27  C   UNL A   1      40.716  31.893  35.618  1.00  0.00     0.049 A 
ATOM     28  C   UNL A   1      41.206  28.761  30.999  1.00  0.00     0.074 A 
ATOM     29  C   UNL A   1      41.563  31.583  36.668  1.00  0.00     0.029 A 
ATOM     30  N   UNL A   1      41.024  31.017  34.586  1.00  0.00    -0.354 N 
ATOM     31  N   UNL A   1      41.204  29.396  32.145  1.00  0.00    -0.248 NA
ATOM     32  C   UNL A   1      42.253  27.740  30.876  1.00  0.00     0.031 C 
ATOM     33  C   UNL A   1      42.428  30.566  36.248  1.00  0.00     0.029 A 
ATOM     34  C   UNL A   1      42.072  30.189  34.964  1.00  0.00     0.049 A 
ATOM     35  H   UNL A   1      40.567  30.986  33.715  1.00  0.00     0.167 HD
ATOM     36  C   UNL A   1      42.230  28.833  32.892  1.00  0.00     0.074 A 
ATOM     37  C   UNL A   1      42.816  27.792  32.073  1.00  0.00     0.031 C 
ATOM     38  C   UNL A   1      42.646  29.151  34.142  1.00  0.00     0.037 A 
BRANCH  25  39
ATOM     39  C   UNL A   1      39.569  33.854  36.723  1.00  0.00     0.064 A 
ATOM     40  C   UNL A   1      38.800  33.531  37.851  1.00  0.00     0.173 A 
ATOM     41  C   UNL A   1      40.255  35.079  36.732  1.00  0.00     0.173 A 
ATOM     42  F   UNL A   1      38.117  32.377  37.895  1.00  0.00    -0.203 F 
ATOM     43  C   UNL A   1      38.696  34.411  38.927  1.00  0.00     0.198 A 
ATOM     44  C   UNL A   1      40.177  35.942  37.824  1.00  0.00     0.198 A 
ATOM     45  F   UNL A   1      41.014  35.438  35.685  1.00  0.00    -0.203 F 
ATOM     46  F   UNL A   1      37.913  34.102  39.970  1.00  0.00    -0.200 F 
ATOM     47  C   UNL A   1      39.391  35.612  38.916  1.00  0.00     0.200 A 
ATOM     48  F   UNL A   1      40.863  37.093  37.817  1.00  0.00    -0.200 F 
ATOM     49  F   UNL A   1      39.295  36.453  39.954  1.00  0.00    -0.200 F 
ENDBRANCH  25  39
BRANCH  26  50
ATOM     50  C   UNL A   1      40.419  28.064  28.618  1.00  0.00     0.064 A 
ATOM     51  C   UNL A   1      39.774  26.822  28.556  1.00  0.00     0.173 A 
ATOM     52  C   UNL A   1      41.180  28.460  27.508  1.00  0.00     0.173 A 
ATOM     53  F   UNL A   1      39.047  26.392  29.598  1.00  0.00    -0.203 F 
ATOM     54  C   UNL A   1      39.904  25.999  27.439  1.00  0.00     0.198 A 
ATOM     55  C   UNL A   1      41.279  27.653  26.378  1.00  0.00     0.198 A 
ATOM     56  F   UNL A   1      41.811  29.644  27.512  1.00  0.00    -0.203 F 
ATOM     57  F   UNL A   1      39.317  24.794  27.427  1.00  0.00    -0.200 F 
ATOM     58  C   UNL A   1      40.651  26.419  26.349  1.00  0.00     0.200 A 
ATOM     59  F   UNL A   1      41.985  28.072  25.318  1.00  0.00    -0.200 F 
ATOM     60  F   UNL A   1      40.769  25.629  25.272  1.00  0.00    -0.200 F 
ENDBRANCH  26  50
BRANCH  38  61
ATOM     61  C   UNL A   1      43.761  28.327  34.721  1.00  0.00     0.064 A 
ATOM     62  C   UNL A   1      45.103  28.727  34.634  1.00  0.00     0.173 A 
ATOM     63  C   UNL A   1      43.478  27.120  35.380  1.00  0.00     0.173 A 
ATOM     64  F   UNL A   1      45.430  29.864  34.000  1.00  0.00    -0.203 F 
ATOM     65  C   UNL A   1      46.123  27.931  35.150  1.00  0.00     0.198 A 
ATOM     66  C   UNL A   1      44.497  26.346  35.928  1.00  0.00     0.198 A 
ATOM     67  F   UNL A   1      42.213  26.692  35.495  1.00  0.00    -0.203 F 
ATOM     68  F   UNL A   1      47.401  28.301  34.996  1.00  0.00    -0.200 F 
ATOM     69  C   UNL A   1      45.818  26.746  35.803  1.00  0.00     0.200 A 
ATOM     70  F   UNL A   1      44.199  25.209  36.571  1.00  0.00    -0.200 F 
ATOM     71  F   UNL A   1      46.800  25.982  36.300  1.00  0.00    -0.200 F 
ENDBRANCH  38  61
ENDBRANCH  12  13
ENDBRANCH   5   7
ENDBRANCH   2   3
ENDBRANCH   1   2
BRANCH   1  72
ATOM     72  C   UNL A   1      31.500  30.645  26.582  1.00  0.00     0.023 C 
BRANCH  72  73
ATOM     73  C   UNL A   1      32.522  30.136  25.572  1.00  0.00     0.116 C 
BRANCH  73  74
ATOM     74  N   UNL A   1      33.833  29.928  26.165  1.00  0.00    -0.356 N 
ATOM     75  C   UNL A   1      34.488  28.790  26.509  1.00  0.00     0.225 C 
ATOM     76  H   UNL A   1      34.331  30.756  26.350  1.00  0.00     0.163 HD
ATOM     77  O   UNL A   1      35.634  28.908  26.954  1.00  0.00    -0.275 OA
BRANCH  75  78
ATOM     78  C   UNL A   1      33.876  27.412  26.350  1.00  0.00     0.107 C 
ATOM     79  C   UNL A   1      32.626  27.186  27.193  1.00  0.00     0.115 C 
ATOM     80  C   UNL A   1      33.506  27.102  24.912  1.00  0.00     0.133 C 
ATOM     81  C   UNL A   1      31.585  26.698  26.221  1.00  0.00     0.223 C 
ATOM     82  N   UNL A   1      32.126  26.684  24.952  1.00  0.00    -0.338 N 
ATOM     83  O   UNL A   1      30.444  26.385  26.528  1.00  0.00    -0.275 OA
BRANCH  82  84
ATOM     84  C   UNL A   1      31.376  26.324  23.757  1.00  0.00     0.155 C 
BRANCH  84  85
ATOM     85  C   UNL A   1      30.389  27.392  23.333  1.00  0.00    -0.026 A 
ATOM     86  C   UNL A   1      29.017  27.230  23.571  1.00  0.00     0.006 A 
ATOM     87  C   UNL A   1      30.847  28.564  22.704  1.00  0.00     0.032 A 
ATOM     88  C   UNL A   1      28.082  28.186  23.155  1.00  0.00     0.010 A 
ATOM     89  C   UNL A   1      29.902  29.531  22.333  1.00  0.00     0.046 A 
ATOM     90  C   UNL A   1      28.532  29.361  22.529  1.00  0.00    -0.001 A 
ATOM     91  N   UNL A   1      30.072  30.769  21.751  1.00  0.00    -0.361 N 
ATOM     92  C   UNL A   1      27.882  30.512  22.008  1.00  0.00     0.028 A 
ATOM     93  C   UNL A   1      28.856  31.368  21.546  1.00  0.00     0.083 A 
ATOM     94  H   UNL A   1      30.941  31.166  21.516  1.00  0.00     0.166 HD
ENDBRANCH  84  85
ENDBRANCH  82  84
ENDBRANCH  75  78
ENDBRANCH  73  74
ENDBRANCH  72  73
ENDBRANCH   1  72
TORSDOF 13
ENDMDL
MODEL 2
REMARK VINA RESULT:     -13.0      6.107     11.170
REMARK SMILES O=C(NCCCCNC(=O)[C@H]1CC(=O)N(Cc2ccc3cc[nH]c3c2)C1)c1ccc(-c2c3nc(c(-c4c(F)c(F)c(F)c(F)c4F)c4ccc([nH]4)c(-c4c(F)c(F)c(F)c(F)c4F)c4nc(c(-c5c(F)c(F)c(F)c(F)c5F)c5ccc2[nH]5)C=C4)C=C3)cc1
REMARK SMILES IDX 5 1 4 2 3 3 1 4 2 5 27 7 28 8 89 9 29 10 88 11 30 12 31 13
REMARK SMILES IDX 32 14 82 15 33 16 87 17 81 18 83 19 34 20 86 21 80 22 79 23
REMARK SMILES IDX 35 25 67 26 47 27 66 28 48 29 51 30 65 31 84 32 49 33 50 34
REMARK SMILES IDX 64 36 85 37 52 38 36 39 37 40 45 41 38 42 39 43 43 44 46 45
REMARK SMILES IDX 40 46 41 47 44 48 42 49 68 50 69 51 77 52 70 53 71 54 75 55
REMARK SMILES IDX 78 56 72 57 73 58 76 59 74 60 53 61 54 62 62 63 55 64 56 65
REMARK SMILES IDX 60 66 63 67 57 68 58 69 61 70 59 71 6 72 7 73 8 74 9 75
REMARK SMILES IDX 10 77 11 78 12 79 26 80 13 81 15 82 14 83 16 84 17 85 18 86
REMARK SMILES IDX 25 87 19 88 24 89 20 90 23 91 21 92 22 93
REMARK H PARENT 3 6 83 24 51 35 8 76 23 94
REMARK Flexibility Score: inf
ROOT
ATOM      1  C   UNL A   1      39.469  21.264  25.694  1.00  0.00     0.023 C 
ENDROOT
BRANCH   1   2
ATOM      2  C   UNL A   1      39.760  20.081  26.605  1.00  0.00     0.116 C 
BRANCH   2   3
ATOM      3  N   UNL A   1      40.816  19.211  26.104  1.00  0.00    -0.352 N 
ATOM      4  O   UNL A   1      42.887  18.672  25.365  1.00  0.00    -0.269 OA
ATOM      5  C   UNL A   1      42.154  19.479  25.925  1.00  0.00     0.251 C 
ATOM      6  H   UNL A   1      40.531  18.300  25.860  1.00  0.00     0.163 HD
BRANCH   5   7
ATOM      7  C   UNL A   1      42.698  20.774  26.381  1.00  0.00     0.039 A 
ATOM      8  C   UNL A   1      42.680  21.104  27.736  1.00  0.00     0.014 A 
ATOM      9  C   UNL A   1      43.180  21.689  25.442  1.00  0.00     0.014 A 
ATOM     10  C   UNL A   1      42.937  22.410  28.125  1.00  0.00     0.010 A 
ATOM     11  C   UNL A   1      43.563  22.968  25.856  1.00  0.00     0.010 A 
ATOM     12  C   UNL A   1      43.395  23.357  27.193  1.00  0.00    -0.014 A 
BRANCH  12  13
ATOM     13  C   UNL A   1      43.730  24.726  27.668  1.00  0.00     0.031 A 
ATOM     14  C   UNL A   1      45.153  25.205  27.746  1.00  0.00     0.074 A 
ATOM     15  C   UNL A   1      42.718  25.558  27.986  1.00  0.00     0.049 A 
ATOM     16  N   UNL A   1      45.609  26.384  28.095  1.00  0.00    -0.248 NA
ATOM     17  C   UNL A   1      46.206  24.241  27.397  1.00  0.00     0.031 C 
ATOM     18  C   UNL A   1      41.297  25.202  27.956  1.00  0.00     0.029 A 
ATOM     19  N   UNL A   1      42.721  26.874  28.366  1.00  0.00    -0.354 N 
ATOM     20  C   UNL A   1      46.994  26.294  28.036  1.00  0.00     0.074 A 
ATOM     21  C   UNL A   1      47.308  24.937  27.642  1.00  0.00     0.031 C 
ATOM     22  C   UNL A   1      40.565  26.289  28.234  1.00  0.00     0.029 A 
ATOM     23  C   UNL A   1      41.463  27.394  28.543  1.00  0.00     0.049 A 
ATOM     24  H   UNL A   1      43.545  27.396  28.499  1.00  0.00     0.167 HD
ATOM     25  C   UNL A   1      47.915  27.257  28.283  1.00  0.00     0.037 A 
ATOM     26  C   UNL A   1      41.071  28.621  28.929  1.00  0.00     0.037 A 
ATOM     27  C   UNL A   1      47.590  28.612  28.658  1.00  0.00     0.049 A 
ATOM     28  C   UNL A   1      42.116  29.657  29.226  1.00  0.00     0.074 A 
ATOM     29  C   UNL A   1      48.449  29.674  28.883  1.00  0.00     0.029 A 
ATOM     30  N   UNL A   1      46.305  29.088  28.874  1.00  0.00    -0.354 N 
ATOM     31  N   UNL A   1      43.420  29.571  29.124  1.00  0.00    -0.248 NA
ATOM     32  C   UNL A   1      41.632  30.961  29.697  1.00  0.00     0.031 C 
ATOM     33  C   UNL A   1      47.689  30.773  29.300  1.00  0.00     0.029 A 
ATOM     34  C   UNL A   1      46.350  30.419  29.263  1.00  0.00     0.049 A 
ATOM     35  H   UNL A   1      45.481  28.560  28.767  1.00  0.00     0.167 HD
ATOM     36  C   UNL A   1      43.912  30.817  29.488  1.00  0.00     0.074 A 
ATOM     37  C   UNL A   1      42.762  31.643  29.794  1.00  0.00     0.031 C 
ATOM     38  C   UNL A   1      45.198  31.235  29.561  1.00  0.00     0.037 A 
BRANCH  25  39
ATOM     39  C   UNL A   1      49.368  26.879  28.190  1.00  0.00     0.064 A 
ATOM     40  C   UNL A   1      50.067  26.888  26.974  1.00  0.00     0.173 A 
ATOM     41  C   UNL A   1      50.085  26.540  29.350  1.00  0.00     0.173 A 
ATOM     42  F   UNL A   1      49.432  27.197  25.833  1.00  0.00    -0.203 F 
ATOM     43  C   UNL A   1      51.415  26.541  26.915  1.00  0.00     0.198 A 
ATOM     44  C   UNL A   1      51.442  26.227  29.293  1.00  0.00     0.198 A 
ATOM     45  F   UNL A   1      49.473  26.524  30.543  1.00  0.00    -0.203 F 
ATOM     46  F   UNL A   1      52.046  26.506  25.733  1.00  0.00    -0.200 F 
ATOM     47  C   UNL A   1      52.103  26.218  28.076  1.00  0.00     0.200 A 
ATOM     48  F   UNL A   1      52.108  25.932  30.418  1.00  0.00    -0.200 F 
ATOM     49  F   UNL A   1      53.401  25.891  28.018  1.00  0.00    -0.200 F 
ENDBRANCH  25  39
BRANCH  26  50
ATOM     50  C   UNL A   1      39.622  28.932  29.052  1.00  0.00     0.064 A 
ATOM     51  C   UNL A   1      38.967  28.834  30.286  1.00  0.00     0.173 A 
ATOM     52  C   UNL A   1      38.865  29.334  27.941  1.00  0.00     0.173 A 
ATOM     53  F   UNL A   1      39.644  28.439  31.374  1.00  0.00    -0.203 F 
ATOM     54  C   UNL A   1      37.606  29.107  30.401  1.00  0.00     0.198 A 
ATOM     55  C   UNL A   1      37.513  29.641  28.065  1.00  0.00     0.198 A 
ATOM     56  F   UNL A   1      39.446  29.451  26.738  1.00  0.00    -0.203 F 
ATOM     57  F   UNL A   1      36.993  28.958  31.584  1.00  0.00    -0.200 F 
ATOM     58  C   UNL A   1      36.882  29.516  29.292  1.00  0.00     0.200 A 
ATOM     59  F   UNL A   1      36.823  30.057  26.994  1.00  0.00    -0.200 F 
ATOM     60  F   UNL A   1      35.574  29.785  29.405  1.00  0.00    -0.200 F 
ENDBRANCH  26  50
BRANCH  38  61
ATOM     61  C   UNL A   1      45.429  32.671  29.941  1.00  0.00     0.064 A 
ATOM     62  C   UNL A   1      45.631  33.063  31.273  1.00  0.00     0.173 A 
ATOM     63  C   UNL A   1      45.455  33.668  28.953  1.00  0.00     0.173 A 
ATOM     64  F   UNL A   1      45.599  32.153  32.258  1.00  0.00    -0.203 F 
ATOM     65  C   UNL A   1      45.811  34.404  31.606  1.00  0.00     0.198 A 
ATOM     66  C   UNL A   1      45.673  35.002  29.285  1.00  0.00     0.198 A 
ATOM     67  F   UNL A   1      45.271  33.348  27.664  1.00  0.00    -0.203 F 
ATOM     68  F   UNL A   1      45.935  34.762  32.890  1.00  0.00    -0.200 F 
ATOM     69  C   UNL A   1      45.839  35.370  30.611  1.00  0.00     0.200 A 
ATOM     70  F   UNL A   1      45.715  35.931  28.321  1.00  0.00    -0.200 F 
ATOM     71  F   UNL A   1      46.014  36.659  30.932  1.00  0.00    -0.200 F 
ENDBRANCH  38  61
ENDBRANCH  12  13
ENDBRANCH   5   7
ENDBRANCH   2   3
ENDBRANCH   1   2
BRANCH   1  72
ATOM     72  C   UNL A   1      39.276  22.594  26.415  1.00  0.00     0.023 C 
BRANCH  72  73
ATOM     73  C   UNL A   1      38.077  23.405  25.938  1.00  0.00     0.116 C 
BRANCH  73  74
ATOM     74  N   UNL A   1      37.705  23.090  24.568  1.00  0.00    -0.356 N 
ATOM     75  C   UNL A   1      36.514  23.180  23.923  1.00  0.00     0.225 C 
ATOM     76  H   UNL A   1      38.444  22.754  24.014  1.00  0.00     0.163 HD
ATOM     77  O   UNL A   1      36.497  22.890  22.722  1.00  0.00    -0.275 OA
BRANCH  75  78
ATOM     78  C   UNL A   1      35.240  23.629  24.611  1.00  0.00     0.107 C 
ATOM     79  C   UNL A   1      34.296  24.423  23.715  1.00  0.00     0.115 C 
ATOM     80  C   UNL A   1      34.445  22.468  25.179  1.00  0.00     0.133 C 
ATOM     81  C   UNL A   1      32.967  23.727  23.838  1.00  0.00     0.223 C 
ATOM     82  N   UNL A   1      33.110  22.627  24.658  1.00  0.00    -0.338 N 
ATOM     83  O   UNL A   1      31.942  24.087  23.277  1.00  0.00    -0.275 OA
BRANCH  82  84
ATOM     84  C   UNL A   1      32.035  21.688  24.946  1.00  0.00     0.155 C 
BRANCH  84  85
ATOM     85  C   UNL A   1      32.389  20.257  24.594  1.00  0.00    -0.026 A 
ATOM     86  C   UNL A   1      32.309  19.808  23.268  1.00  0.00     0.006 A 
ATOM     87  C   UNL A   1      32.811  19.369  25.600  1.00  0.00     0.032 A 
ATOM     88  C   UNL A   1      32.595  18.481  22.924  1.00  0.00     0.010 A 
ATOM     89  C   UNL A   1      33.137  18.055  25.231  1.00  0.00     0.046 A 
ATOM     90  C   UNL A   1      33.022  17.589  23.922  1.00  0.00    -0.001 A 
ATOM     91  N   UNL A   1      33.611  17.007  25.989  1.00  0.00    -0.361 N 
ATOM     92  C   UNL A   1      33.399  16.218  23.925  1.00  0.00     0.028 A 
ATOM     93  C   UNL A   1      33.769  15.890  25.210  1.00  0.00     0.083 A 
ATOM     94  H   UNL A   1      33.809  17.052  26.952  1.00  0.00     0.166 HD
ENDBRANCH  84  85
ENDBRANCH  82  84
ENDBRANCH  75  78
ENDBRANCH  73  74
ENDBRANCH  72  73
ENDBRANCH   1  72
TORSDOF 13
ENDMDL
MODEL 3
REMARK VINA RESULT:     -13.0      6.055     11.146
REMARK SMILES O=C(NCCCCNC(=O)[C@H]1CC(=O)N(Cc2ccc3cc[nH]c3c2)C1)c1ccc(-c2c3nc(c(-c4c(F)c(F)c(F)c(F)c4F)c4ccc([nH]4)c(-c4c(F)c(F)c(F)c(F)c4F)c4nc(c(-c5c(F)c(F)c(F)c(F)c5F)c5ccc2[nH]5)C=C4)C=C3)cc1
REMARK SMILES IDX 5 1 4 2 3 3 1 4 2 5 27 7 28 8 89 9 29 10 88 11 30 12 31 13
REMARK SMILES IDX 32 14 82 15 33 16 87 17 81 18 83 19 34 20 86 21 80 22 79 23
REMARK SMILES IDX 35 25 67 26 47 27 66 28 48 29 51 30 65 31 84 32 49 33 50 34
REMARK SMILES IDX 64 36 85 37 52 38 36 39 37 40 45 41 38 42 39 43 43 44 46 45
REMARK SMILES IDX 40 46 41 47 44 48 42 49 68 50 69 51 77 52 70 53 71 54 75 55
REMARK SMILES IDX 78 56 72 57 73 58 76 59 74 60 53 61 54 62 62 63 55 64 56 65
REMARK SMILES IDX 60 66 63 67 57 68 58 69 61 70 59 71 6 72 7 73 8 74 9 75
REMARK SMILES IDX 10 77 11 78 12 79 26 80 13 81 15 82 14 83 16 84 17 85 18 86
REMARK SMILES IDX 25 87 19 88 24 89 20 90 23 91 21 92 22 93
REMARK H PARENT 3 6 83 24 51 35 8 76 23 94
REMARK Flexibility Score: inf
ROOT
ATOM      1  C   UNL A   1      39.460  21.306  25.720  1.00  0.00     0.023 C 
ENDROOT
BRANCH   1   2
ATOM      2  C   UNL A   1      39.713  20.090  26.599  1.00  0.00     0.116 C 
BRANCH   2   3
ATOM      3  N   UNL A   1      40.773  19.224  26.098  1.00  0.00    -0.352 N 
ATOM      4  O   UNL A   1      42.849  18.694  25.366  1.00  0.00    -0.269 OA
ATOM      5  C   UNL A   1      42.112  19.497  25.926  1.00  0.00     0.251 C 
ATOM      6  H   UNL A   1      40.492  18.315  25.848  1.00  0.00     0.163 HD
BRANCH   5   7
ATOM      7  C   UNL A   1      42.649  20.792  26.391  1.00  0.00     0.039 A 
ATOM      8  C   UNL A   1      42.637  21.109  27.749  1.00  0.00     0.014 A 
ATOM      9  C   UNL A   1      43.120  21.718  25.457  1.00  0.00     0.014 A 
ATOM     10  C   UNL A   1      42.889  22.413  28.148  1.00  0.00     0.010 A 
ATOM     11  C   UNL A   1      43.497  22.996  25.880  1.00  0.00     0.010 A 
ATOM     12  C   UNL A   1      43.336  23.371  27.223  1.00  0.00    -0.014 A 
BRANCH  12  13
ATOM     13  C   UNL A   1      43.664  24.737  27.707  1.00  0.00     0.031 A 
ATOM     14  C   UNL A   1      45.087  25.217  27.806  1.00  0.00     0.074 A 
ATOM     15  C   UNL A   1      42.649  25.569  28.017  1.00  0.00     0.049 A 
ATOM     16  N   UNL A   1      45.538  26.393  28.167  1.00  0.00    -0.248 NA
ATOM     17  C   UNL A   1      46.144  24.253  27.466  1.00  0.00     0.031 C 
ATOM     18  C   UNL A   1      41.228  25.214  27.967  1.00  0.00     0.029 A 
ATOM     19  N   UNL A   1      42.647  26.883  28.403  1.00  0.00    -0.354 N 
ATOM     20  C   UNL A   1      46.924  26.303  28.124  1.00  0.00     0.074 A 
ATOM     21  C   UNL A   1      47.242  24.948  27.728  1.00  0.00     0.031 C 
ATOM     22  C   UNL A   1      40.493  26.299  28.241  1.00  0.00     0.029 A 
ATOM     23  C   UNL A   1      41.387  27.403  28.566  1.00  0.00     0.049 A 
ATOM     24  H   UNL A   1      43.470  27.404  28.549  1.00  0.00     0.167 HD
ATOM     25  C   UNL A   1      47.842  27.266  28.387  1.00  0.00     0.037 A 
ATOM     26  C   UNL A   1      40.990  28.628  28.953  1.00  0.00     0.037 A 
ATOM     27  C   UNL A   1      47.513  28.619  28.764  1.00  0.00     0.049 A 
ATOM     28  C   UNL A   1      42.032  29.662  29.268  1.00  0.00     0.074 A 
ATOM     29  C   UNL A   1      48.369  29.680  29.005  1.00  0.00     0.029 A 
ATOM     30  N   UNL A   1      46.224  29.094  28.966  1.00  0.00    -0.354 N 
ATOM     31  N   UNL A   1      43.336  29.577  29.182  1.00  0.00    -0.248 NA
ATOM     32  C   UNL A   1      41.542  30.964  29.739  1.00  0.00     0.031 C 
ATOM     33  C   UNL A   1      47.604  30.776  29.417  1.00  0.00     0.029 A 
ATOM     34  C   UNL A   1      46.265  30.423  29.362  1.00  0.00     0.049 A 
ATOM     35  H   UNL A   1      45.402  28.567  28.846  1.00  0.00     0.167 HD
ATOM     36  C   UNL A   1      43.824  30.820  29.558  1.00  0.00     0.074 A 
ATOM     37  C   UNL A   1      42.671  31.646  29.853  1.00  0.00     0.031 C 
ATOM     38  C   UNL A   1      45.110  31.238  29.649  1.00  0.00     0.037 A 
BRANCH  25  39
ATOM     39  C   UNL A   1      49.296  26.888  28.311  1.00  0.00     0.064 A 
ATOM     40  C   UNL A   1      50.020  26.942  27.111  1.00  0.00     0.173 A 
ATOM     41  C   UNL A   1      49.987  26.502  29.471  1.00  0.00     0.173 A 
ATOM     42  F   UNL A   1      49.411  27.297  25.970  1.00  0.00    -0.203 F 
ATOM     43  C   UNL A   1      51.369  26.594  27.068  1.00  0.00     0.198 A 
ATOM     44  C   UNL A   1      51.344  26.187  29.432  1.00  0.00     0.198 A 
ATOM     45  F   UNL A   1      49.349  26.441  30.650  1.00  0.00    -0.203 F 
ATOM     46  F   UNL A   1      52.026  26.603  25.899  1.00  0.00    -0.200 F 
ATOM     47  C   UNL A   1      52.031  26.224  28.230  1.00  0.00     0.200 A 
ATOM     48  F   UNL A   1      51.985  25.847  30.559  1.00  0.00    -0.200 F 
ATOM     49  F   UNL A   1      53.330  25.896  28.187  1.00  0.00    -0.200 F 
ENDBRANCH  25  39
BRANCH  26  50
ATOM     50  C   UNL A   1      39.540  28.938  29.059  1.00  0.00     0.064 A 
ATOM     51  C   UNL A   1      38.807  29.346  27.938  1.00  0.00     0.173 A 
ATOM     52  C   UNL A   1      38.858  28.830  30.281  1.00  0.00     0.173 A 
ATOM     53  F   UNL A   1      39.417  29.479  26.751  1.00  0.00    -0.203 F 
ATOM     54  C   UNL A   1      37.452  29.654  28.037  1.00  0.00     0.198 A 
ATOM     55  C   UNL A   1      37.496  29.104  30.371  1.00  0.00     0.198 A 
ATOM     56  F   UNL A   1      39.512  28.437  31.384  1.00  0.00    -0.203 F 
ATOM     57  F   UNL A   1      36.786  30.090  26.959  1.00  0.00    -0.200 F 
ATOM     58  C   UNL A   1      36.797  29.527  29.253  1.00  0.00     0.200 A 
ATOM     59  F   UNL A   1      36.863  28.959  31.544  1.00  0.00    -0.200 F 
ATOM     60  F   UNL A   1      35.492  29.818  29.346  1.00  0.00    -0.200 F 
ENDBRANCH  26  50
BRANCH  38  61
ATOM     61  C   UNL A   1      45.336  32.672  30.038  1.00  0.00     0.064 A 
ATOM     62  C   UNL A   1      45.512  33.059  31.376  1.00  0.00     0.173 A 
ATOM     63  C   UNL A   1      45.383  33.672  29.055  1.00  0.00     0.173 A 
ATOM     64  F   UNL A   1      45.459  32.145  32.357  1.00  0.00    -0.203 F 
ATOM     65  C   UNL A   1      45.688  34.399  31.717  1.00  0.00     0.198 A 
ATOM     66  C   UNL A   1      45.598  35.005  29.396  1.00  0.00     0.198 A 
ATOM     67  F   UNL A   1      45.225  33.357  27.761  1.00  0.00    -0.203 F 
ATOM     68  F   UNL A   1      45.787  34.752  33.004  1.00  0.00    -0.200 F 
ATOM     69  C   UNL A   1      45.738  35.368  30.726  1.00  0.00     0.200 A 
ATOM     70  F   UNL A   1      45.661  35.937  28.436  1.00  0.00    -0.200 F 
ATOM     71  F   UNL A   1      45.909  36.656  31.055  1.00  0.00    -0.200 F 
ENDBRANCH  38  61
ENDBRANCH  12  13
ENDBRANCH   5   7
ENDBRANCH   2   3
ENDBRANCH   1   2
BRANCH   1  72
ATOM     72  C   UNL A   1      39.227  22.607  26.482  1.00  0.00     0.023 C 
BRANCH  72  73
ATOM     73  C   UNL A   1      38.051  23.434  25.976  1.00  0.00     0.116 C 
BRANCH  73  74
ATOM     74  N   UNL A   1      37.694  23.109  24.604  1.00  0.00    -0.356 N 
ATOM     75  C   UNL A   1      36.513  23.206  23.941  1.00  0.00     0.225 C 
ATOM     76  H   UNL A   1      38.437  22.759  24.063  1.00  0.00     0.163 HD
ATOM     77  O   UNL A   1      36.509  22.904  22.744  1.00  0.00    -0.275 OA
BRANCH  75  78
ATOM     78  C   UNL A   1      35.235  23.677  24.608  1.00  0.00     0.107 C 
ATOM     79  C   UNL A   1      34.274  24.397  23.669  1.00  0.00     0.115 C 
ATOM     80  C   UNL A   1      34.462  22.541  25.252  1.00  0.00     0.133 C 
ATOM     81  C   UNL A   1      32.957  23.688  23.843  1.00  0.00     0.223 C 
ATOM     82  N   UNL A   1      33.122  22.645  24.730  1.00  0.00    -0.338 N 
ATOM     83  O   UNL A   1      31.924  23.996  23.266  1.00  0.00    -0.275 OA
BRANCH  82  84
ATOM     84  C   UNL A   1      32.064  21.708  25.082  1.00  0.00     0.155 C 
BRANCH  84  85
ATOM     85  C   UNL A   1      32.383  20.280  24.691  1.00  0.00    -0.026 A 
ATOM     86  C   UNL A   1      32.314  19.876  23.349  1.00  0.00     0.006 A 
ATOM     87  C   UNL A   1      32.763  19.348  25.673  1.00  0.00     0.032 A 
ATOM     88  C   UNL A   1      32.569  18.553  22.967  1.00  0.00     0.010 A 
ATOM     89  C   UNL A   1      33.058  18.038  25.267  1.00  0.00     0.046 A 
ATOM     90  C   UNL A   1      32.952  17.617  23.942  1.00  0.00    -0.001 A 
ATOM     91  N   UNL A   1      33.489  16.953  25.999  1.00  0.00    -0.361 N 
ATOM     92  C   UNL A   1      33.290  16.237  23.907  1.00  0.00     0.028 A 
ATOM     93  C   UNL A   1      33.628  15.858  25.186  1.00  0.00     0.083 A 
ATOM     94  H   UNL A   1      33.671  16.962  26.966  1.00  0.00     0.166 HD
ENDBRANCH  84  85
ENDBRANCH  82  84
ENDBRANCH  75  78
ENDBRANCH  73  74
ENDBRANCH  72  73
ENDBRANCH   1  72
TORSDOF 13
ENDMDL
