MODEL 1
REMARK VINA RESULT:     -12.1      0.000      0.000
REMARK SMILES CC(C)C[C@H]([NH2+]C[C@@](C)(O)C#Cc1ccccc1)C(=O)NCCCCNC(=O)c1ccc(-c2c3nc(c(-c4c(F)c(F)c(F)c(F)c4F)c4ccc([nH]4)c(-c4c(F)c(F)c(F)c(F)c4F)c4nc(c(-c5c(F)c(F)c(F)c(F)c5F)c5ccc2[nH]5)C=C4)C=C3)cc1
REMARK SMILES IDX 22 1 21 2 19 3 20 4 5 6 4 7 2 8 1 9 3 10 6 11 7 14 8 15 9 16
REMARK SMILES IDX 10 17 11 19 12 20 13 21 14 22 18 23 15 24 17 25 16 26 23 27
REMARK SMILES IDX 24 28 25 29 26 30 27 31 28 33 29 34 30 35 91 36 31 37 90 38
REMARK SMILES IDX 32 39 33 40 34 41 84 42 35 43 89 44 83 45 85 46 36 47 88 48
REMARK SMILES IDX 82 49 81 50 37 52 69 53 49 54 68 55 50 56 53 57 67 58 86 59
REMARK SMILES IDX 51 60 52 61 66 63 87 64 54 65 38 66 39 67 47 68 40 69 41 70
REMARK SMILES IDX 45 71 48 72 42 73 43 74 46 75 44 76 70 77 71 78 79 79 72 80
REMARK SMILES IDX 73 81 77 82 80 83 74 84 75 85 78 86 76 87 55 88 56 89 64 90
REMARK SMILES IDX 57 91 58 92 62 93 65 94 59 95 60 96 63 97 61 98
REMARK H PARENT 21 5 6 12 6 13 10 18 26 32 85 51 53 62
REMARK Flexibility Score: inf
ROOT
ATOM      1  C   UNL A   1      32.247  26.527  26.273  1.00  0.00     0.116 C 
ENDROOT
BRANCH   1   2
ATOM      2  N   UNL A   1      31.401  25.536  26.902  1.00  0.00    -0.351 N 
ATOM      3  C   UNL A   1      30.773  24.447  26.386  1.00  0.00     0.278 C 
ATOM      4  O   UNL A   1      29.954  23.888  27.126  1.00  0.00    -0.268 OA
ATOM      5  H   UNL A   1      31.256  25.673  27.865  1.00  0.00     0.163 HD
BRANCH   3   6
ATOM      6  C   UNL A   1      31.017  23.911  24.949  1.00  0.00     0.272 C 
BRANCH   6   7
ATOM      7  C   UNL A   1      32.393  23.271  24.644  1.00  0.00     0.078 C 
BRANCH   7   8
ATOM      8  C   UNL A   1      33.199  22.704  25.834  1.00  0.00    -0.011 C 
ATOM      9  C   UNL A   1      33.417  21.197  25.759  1.00  0.00     0.007 C 
ATOM     10  C   UNL A   1      34.542  23.433  25.939  1.00  0.00     0.007 C 
ENDBRANCH   7   8
ENDBRANCH   6   7
BRANCH   6  11
ATOM     11  N   UNL A   1      30.499  24.851  23.897  1.00  0.00    -0.333 N 
ATOM     12  H   UNL A   1      30.479  25.791  24.292  1.00  0.00     0.347 HD
ATOM     13  H   UNL A   1      29.573  24.511  23.633  1.00  0.00     0.347 HD
BRANCH  11  14
ATOM     14  C   UNL A   1      31.300  24.884  22.669  1.00  0.00     0.310 C 
BRANCH  14  15
ATOM     15  C   UNL A   1      31.723  26.204  21.969  1.00  0.00     0.171 C 
ATOM     16  C   UNL A   1      33.188  26.556  22.216  1.00  0.00     0.063 C 
BRANCH  15  17
ATOM     17  O   UNL A   1      31.557  26.010  20.553  1.00  0.00    -0.372 OA
ATOM     18  H   UNL A   1      32.100  25.262  20.263  1.00  0.00     0.212 HD
ENDBRANCH  15  17
BRANCH  15  19
ATOM     19  C   UNL A   1      30.826  27.275  22.380  1.00  0.00    -0.057 C 
ATOM     20  C   UNL A   1      30.162  28.239  22.642  1.00  0.00    -0.064 C 
BRANCH  20  21
ATOM     21  C   UNL A   1      29.412  29.431  22.828  1.00  0.00     0.025 A 
ATOM     22  C   UNL A   1      29.812  30.326  23.820  1.00  0.00     0.017 A 
ATOM     23  C   UNL A   1      28.276  29.683  22.060  1.00  0.00     0.017 A 
ATOM     24  C   UNL A   1      29.084  31.492  24.034  1.00  0.00     0.001 A 
ATOM     25  C   UNL A   1      27.547  30.851  22.276  1.00  0.00     0.001 A 
ATOM     26  C   UNL A   1      27.953  31.756  23.260  1.00  0.00     0.000 A 
ENDBRANCH  20  21
ENDBRANCH  15  19
ENDBRANCH  14  15
ENDBRANCH  11  14
ENDBRANCH   6  11
ENDBRANCH   3   6
ENDBRANCH   1   2
BRANCH   1  27
ATOM     27  C   UNL A   1      31.443  27.802  25.996  1.00  0.00     0.023 C 
BRANCH  27  28
ATOM     28  C   UNL A   1      31.784  28.949  26.920  1.00  0.00     0.023 C 
BRANCH  28  29
ATOM     29  C   UNL A   1      32.742  29.941  26.303  1.00  0.00     0.116 C 
BRANCH  29  30
ATOM     30  N   UNL A   1      32.483  31.321  26.699  1.00  0.00    -0.352 N 
ATOM     31  C   UNL A   1      33.312  32.157  27.412  1.00  0.00     0.251 C 
ATOM     32  H   UNL A   1      31.615  31.698  26.424  1.00  0.00     0.163 HD
ATOM     33  O   UNL A   1      32.936  33.252  27.806  1.00  0.00    -0.269 OA
BRANCH  31  34
ATOM     34  C   UNL A   1      34.659  31.651  27.732  1.00  0.00     0.039 A 
ATOM     35  C   UNL A   1      34.815  30.294  28.016  1.00  0.00     0.014 A 
ATOM     36  C   UNL A   1      35.693  32.557  27.958  1.00  0.00     0.014 A 
ATOM     37  C   UNL A   1      35.906  29.892  28.767  1.00  0.00     0.010 A 
ATOM     38  C   UNL A   1      36.862  32.110  28.575  1.00  0.00     0.010 A 
ATOM     39  C   UNL A   1      36.949  30.790  29.049  1.00  0.00    -0.014 A 
BRANCH  39  40
ATOM     40  C   UNL A   1      38.119  30.316  29.832  1.00  0.00     0.031 A 
ATOM     41  C   UNL A   1      39.136  29.383  29.232  1.00  0.00     0.074 A 
ATOM     42  C   UNL A   1      38.280  30.777  31.088  1.00  0.00     0.049 A 
ATOM     43  N   UNL A   1      40.193  28.850  29.792  1.00  0.00    -0.248 NA
ATOM     44  C   UNL A   1      38.947  28.989  27.825  1.00  0.00     0.031 C 
ATOM     45  C   UNL A   1      37.372  31.704  31.768  1.00  0.00     0.029 A 
ATOM     46  N   UNL A   1      39.269  30.551  32.009  1.00  0.00    -0.354 N 
ATOM     47  C   UNL A   1      40.775  28.043  28.822  1.00  0.00     0.074 A 
ATOM     48  C   UNL A   1      39.940  28.128  27.645  1.00  0.00     0.031 C 
ATOM     49  C   UNL A   1      37.873  32.012  32.969  1.00  0.00     0.029 A 
ATOM     50  C   UNL A   1      39.081  31.229  33.189  1.00  0.00     0.049 A 
ATOM     51  H   UNL A   1      40.040  29.961  31.842  1.00  0.00     0.167 HD
ATOM     52  C   UNL A   1      41.911  27.310  28.908  1.00  0.00     0.037 A 
ATOM     53  C   UNL A   1      39.780  31.199  34.337  1.00  0.00     0.037 A 
ATOM     54  C   UNL A   1      42.750  27.252  30.079  1.00  0.00     0.049 A 
ATOM     55  C   UNL A   1      40.995  30.324  34.424  1.00  0.00     0.074 A 
ATOM     56  C   UNL A   1      43.935  26.559  30.253  1.00  0.00     0.029 A 
ATOM     57  N   UNL A   1      42.494  27.911  31.272  1.00  0.00    -0.354 N 
ATOM     58  N   UNL A   1      41.543  29.579  33.495  1.00  0.00    -0.248 NA
ATOM     59  C   UNL A   1      41.688  30.281  35.717  1.00  0.00     0.031 C 
ATOM     60  C   UNL A   1      44.358  26.741  31.571  1.00  0.00     0.029 A 
ATOM     61  C   UNL A   1      43.480  27.609  32.199  1.00  0.00     0.049 A 
ATOM     62  H   UNL A   1      41.726  28.504  31.438  1.00  0.00     0.167 HD
ATOM     63  C   UNL A   1      42.655  28.993  34.084  1.00  0.00     0.074 A 
ATOM     64  C   UNL A   1      42.717  29.491  35.442  1.00  0.00     0.031 C 
ATOM     65  C   UNL A   1      43.537  28.117  33.547  1.00  0.00     0.037 A 
BRANCH  52  66
ATOM     66  C   UNL A   1      42.328  26.494  27.716  1.00  0.00     0.064 A 
ATOM     67  C   UNL A   1      43.290  26.954  26.805  1.00  0.00     0.173 A 
ATOM     68  C   UNL A   1      41.832  25.191  27.539  1.00  0.00     0.173 A 
ATOM     69  F   UNL A   1      43.790  28.194  26.920  1.00  0.00    -0.203 F 
ATOM     70  C   UNL A   1      43.734  26.147  25.760  1.00  0.00     0.198 A 
ATOM     71  C   UNL A   1      42.303  24.375  26.514  1.00  0.00     0.198 A 
ATOM     72  F   UNL A   1      40.915  24.696  28.385  1.00  0.00    -0.203 F 
ATOM     73  F   UNL A   1      44.632  26.620  24.885  1.00  0.00    -0.200 F 
ATOM     74  C   UNL A   1      43.251  24.854  25.623  1.00  0.00     0.200 A 
ATOM     75  F   UNL A   1      41.848  23.119  26.397  1.00  0.00    -0.200 F 
ATOM     76  F   UNL A   1      43.699  24.070  24.634  1.00  0.00    -0.200 F 
ENDBRANCH  52  66
BRANCH  53  77
ATOM     77  C   UNL A   1      39.326  32.018  35.492  1.00  0.00     0.064 A 
ATOM     78  C   UNL A   1      38.476  31.480  36.466  1.00  0.00     0.173 A 
ATOM     79  C   UNL A   1      39.758  33.343  35.664  1.00  0.00     0.173 A 
ATOM     80  F   UNL A   1      38.025  30.223  36.340  1.00  0.00    -0.203 F 
ATOM     81  C   UNL A   1      38.066  32.237  37.560  1.00  0.00     0.198 A 
ATOM     82  C   UNL A   1      39.379  34.087  36.778  1.00  0.00     0.198 A 
ATOM     83  F   UNL A   1      40.580  33.904  34.764  1.00  0.00    -0.203 F 
ATOM     84  F   UNL A   1      37.221  31.711  38.456  1.00  0.00    -0.200 F 
ATOM     85  C   UNL A   1      38.527  33.536  37.721  1.00  0.00     0.200 A 
ATOM     86  F   UNL A   1      39.848  35.331  36.940  1.00  0.00    -0.200 F 
ATOM     87  F   UNL A   1      38.146  34.258  38.783  1.00  0.00    -0.200 F 
ENDBRANCH  53  77
BRANCH  65  88
ATOM     88  C   UNL A   1      44.668  27.648  34.417  1.00  0.00     0.064 A 
ATOM     89  C   UNL A   1      45.863  28.374  34.523  1.00  0.00     0.173 A 
ATOM     90  C   UNL A   1      44.524  26.500  35.212  1.00  0.00     0.173 A 
ATOM     91  F   UNL A   1      46.056  29.470  33.774  1.00  0.00    -0.203 F 
ATOM     92  C   UNL A   1      46.878  27.959  35.380  1.00  0.00     0.198 A 
ATOM     93  C   UNL A   1      45.525  26.110  36.096  1.00  0.00     0.198 A 
ATOM     94  F   UNL A   1      43.397  25.774  35.155  1.00  0.00    -0.203 F 
ATOM     95  F   UNL A   1      48.029  28.644  35.433  1.00  0.00    -0.200 F 
ATOM     96  C   UNL A   1      46.704  26.835  36.176  1.00  0.00     0.200 A 
ATOM     97  F   UNL A   1      45.345  25.037  36.879  1.00  0.00    -0.200 F 
ATOM     98  F   UNL A   1      47.673  26.452  37.017  1.00  0.00    -0.200 F 
ENDBRANCH  65  88
ENDBRANCH  39  40
ENDBRANCH  31  34
ENDBRANCH  29  30
ENDBRANCH  28  29
ENDBRANCH  27  28
ENDBRANCH   1  27
TORSDOF 19
ENDMDL
MODEL 2
REMARK VINA RESULT:     -12.0      4.381     10.075
REMARK SMILES CC(C)C[C@H]([NH2+]C[C@@](C)(O)C#Cc1ccccc1)C(=O)NCCCCNC(=O)c1ccc(-c2c3nc(c(-c4c(F)c(F)c(F)c(F)c4F)c4ccc([nH]4)c(-c4c(F)c(F)c(F)c(F)c4F)c4nc(c(-c5c(F)c(F)c(F)c(F)c5F)c5ccc2[nH]5)C=C4)C=C3)cc1
REMARK SMILES IDX 22 1 21 2 19 3 20 4 5 6 4 7 2 8 1 9 3 10 6 11 7 14 8 15 9 16
REMARK SMILES IDX 10 17 11 19 12 20 13 21 14 22 18 23 15 24 17 25 16 26 23 27
REMARK SMILES IDX 24 28 25 29 26 30 27 31 28 33 29 34 30 35 91 36 31 37 90 38
REMARK SMILES IDX 32 39 33 40 34 41 84 42 35 43 89 44 83 45 85 46 36 47 88 48
REMARK SMILES IDX 82 49 81 50 37 52 69 53 49 54 68 55 50 56 53 57 67 58 86 59
REMARK SMILES IDX 51 60 52 61 66 63 87 64 54 65 38 66 39 67 47 68 40 69 41 70
REMARK SMILES IDX 45 71 48 72 42 73 43 74 46 75 44 76 70 77 71 78 79 79 72 80
REMARK SMILES IDX 73 81 77 82 80 83 74 84 75 85 78 86 76 87 55 88 56 89 64 90
REMARK SMILES IDX 57 91 58 92 62 93 65 94 59 95 60 96 63 97 61 98
REMARK H PARENT 21 5 6 12 6 13 10 18 26 32 85 51 53 62
REMARK Flexibility Score: inf
ROOT
ATOM      1  C   UNL A   1      34.472  24.112  24.071  1.00  0.00     0.116 C 
ENDROOT
BRANCH   1   2
ATOM      2  N   UNL A   1      34.219  24.757  22.802  1.00  0.00    -0.351 N 
ATOM      3  C   UNL A   1      33.053  25.139  22.215  1.00  0.00     0.278 C 
ATOM      4  O   UNL A   1      33.128  25.493  21.033  1.00  0.00    -0.268 OA
ATOM      5  H   UNL A   1      35.025  24.952  22.273  1.00  0.00     0.163 HD
BRANCH   3   6
ATOM      6  C   UNL A   1      31.679  25.125  22.938  1.00  0.00     0.272 C 
BRANCH   6   7
ATOM      7  C   UNL A   1      31.430  26.196  24.029  1.00  0.00     0.078 C 
BRANCH   7   8
ATOM      8  C   UNL A   1      30.379  27.289  23.731  1.00  0.00    -0.011 C 
ATOM      9  C   UNL A   1      30.590  27.986  22.391  1.00  0.00     0.007 C 
ATOM     10  C   UNL A   1      28.973  26.683  23.801  1.00  0.00     0.007 C 
ENDBRANCH   7   8
ENDBRANCH   6   7
BRANCH   6  11
ATOM     11  N   UNL A   1      31.239  23.733  23.294  1.00  0.00    -0.333 N 
ATOM     12  H   UNL A   1      32.050  23.118  23.240  1.00  0.00     0.347 HD
ATOM     13  H   UNL A   1      30.505  23.481  22.630  1.00  0.00     0.347 HD
BRANCH  11  14
ATOM     14  C   UNL A   1      30.655  23.607  24.633  1.00  0.00     0.310 C 
BRANCH  14  15
ATOM     15  C   UNL A   1      31.129  22.550  25.669  1.00  0.00     0.171 C 
ATOM     16  C   UNL A   1      32.060  23.140  26.725  1.00  0.00     0.063 C 
BRANCH  15  17
ATOM     17  O   UNL A   1      29.958  22.061  26.347  1.00  0.00    -0.372 OA
ATOM     18  H   UNL A   1      29.496  21.426  25.779  1.00  0.00     0.212 HD
ENDBRANCH  15  17
BRANCH  15  19
ATOM     19  C   UNL A   1      31.738  21.429  24.966  1.00  0.00    -0.057 C 
ATOM     20  C   UNL A   1      32.299  20.474  24.505  1.00  0.00    -0.064 C 
BRANCH  20  21
ATOM     21  C   UNL A   1      32.958  19.289  24.086  1.00  0.00     0.025 A 
ATOM     22  C   UNL A   1      32.379  18.522  23.075  1.00  0.00     0.017 A 
ATOM     23  C   UNL A   1      34.141  18.879  24.698  1.00  0.00     0.017 A 
ATOM     24  C   UNL A   1      32.996  17.347  22.658  1.00  0.00     0.001 A 
ATOM     25  C   UNL A   1      34.758  17.700  24.280  1.00  0.00     0.001 A 
ATOM     26  C   UNL A   1      34.188  16.938  23.259  1.00  0.00     0.000 A 
ENDBRANCH  20  21
ENDBRANCH  15  19
ENDBRANCH  14  15
ENDBRANCH  11  14
ENDBRANCH   6  11
ENDBRANCH   3   6
ENDBRANCH   1   2
BRANCH   1  27
ATOM     27  C   UNL A   1      35.056  22.714  23.842  1.00  0.00     0.023 C 
BRANCH  27  28
ATOM     28  C   UNL A   1      35.721  22.124  25.065  1.00  0.00     0.023 C 
BRANCH  28  29
ATOM     29  C   UNL A   1      37.171  22.525  25.200  1.00  0.00     0.116 C 
BRANCH  29  30
ATOM     30  N   UNL A   1      38.066  21.395  25.431  1.00  0.00    -0.352 N 
ATOM     31  C   UNL A   1      39.263  21.400  26.110  1.00  0.00     0.251 C 
ATOM     32  H   UNL A   1      37.781  20.530  25.056  1.00  0.00     0.163 HD
ATOM     33  O   UNL A   1      39.998  20.423  26.125  1.00  0.00    -0.269 OA
BRANCH  31  34
ATOM     34  C   UNL A   1      39.651  22.658  26.775  1.00  0.00     0.039 A 
ATOM     35  C   UNL A   1      39.113  23.857  26.306  1.00  0.00     0.014 A 
ATOM     36  C   UNL A   1      40.695  22.649  27.697  1.00  0.00     0.014 A 
ATOM     37  C   UNL A   1      39.794  25.035  26.558  1.00  0.00     0.010 A 
ATOM     38  C   UNL A   1      41.277  23.861  28.072  1.00  0.00     0.010 A 
ATOM     39  C   UNL A   1      40.878  25.056  27.451  1.00  0.00    -0.014 A 
BRANCH  39  40
ATOM     40  C   UNL A   1      41.566  26.345  27.721  1.00  0.00     0.031 A 
ATOM     41  C   UNL A   1      40.906  27.430  28.530  1.00  0.00     0.074 A 
ATOM     42  C   UNL A   1      42.823  26.510  27.264  1.00  0.00     0.049 A 
ATOM     43  N   UNL A   1      41.357  28.624  28.826  1.00  0.00    -0.248 NA
ATOM     44  C   UNL A   1      39.567  27.149  29.074  1.00  0.00     0.031 C 
ATOM     45  C   UNL A   1      43.573  25.519  26.490  1.00  0.00     0.029 A 
ATOM     46  N   UNL A   1      43.700  27.555  27.399  1.00  0.00    -0.354 N 
ATOM     47  C   UNL A   1      40.353  29.241  29.562  1.00  0.00     0.074 A 
ATOM     48  C   UNL A   1      39.254  28.305  29.645  1.00  0.00     0.031 C 
ATOM     49  C   UNL A   1      44.812  25.976  26.269  1.00  0.00     0.029 A 
ATOM     50  C   UNL A   1      44.912  27.330  26.795  1.00  0.00     0.049 A 
ATOM     51  H   UNL A   1      43.482  28.384  27.883  1.00  0.00     0.167 HD
ATOM     52  C   UNL A   1      40.360  30.472  30.127  1.00  0.00     0.037 A 
ATOM     53  C   UNL A   1      45.978  28.136  26.644  1.00  0.00     0.037 A 
ATOM     54  C   UNL A   1      41.473  31.387  30.059  1.00  0.00     0.049 A 
ATOM     55  C   UNL A   1      45.928  29.520  27.222  1.00  0.00     0.074 A 
ATOM     56  C   UNL A   1      41.584  32.646  30.622  1.00  0.00     0.029 A 
ATOM     57  N   UNL A   1      42.662  31.143  29.389  1.00  0.00    -0.354 N 
ATOM     58  N   UNL A   1      44.980  30.085  27.929  1.00  0.00    -0.248 NA
ATOM     59  C   UNL A   1      47.092  30.380  26.978  1.00  0.00     0.031 C 
ATOM     60  C   UNL A   1      42.810  33.191  30.235  1.00  0.00     0.029 A 
ATOM     61  C   UNL A   1      43.497  32.244  29.494  1.00  0.00     0.049 A 
ATOM     62  H   UNL A   1      42.881  30.312  28.909  1.00  0.00     0.167 HD
ATOM     63  C   UNL A   1      45.439  31.358  28.232  1.00  0.00     0.074 A 
ATOM     64  C   UNL A   1      46.762  31.472  27.653  1.00  0.00     0.031 C 
ATOM     65  C   UNL A   1      44.816  32.344  28.921  1.00  0.00     0.037 A 
BRANCH  52  66
ATOM     66  C   UNL A   1      39.132  30.927  30.865  1.00  0.00     0.064 A 
ATOM     67  C   UNL A   1      38.045  31.514  30.201  1.00  0.00     0.173 A 
ATOM     68  C   UNL A   1      39.000  30.679  32.242  1.00  0.00     0.173 A 
ATOM     69  F   UNL A   1      38.120  31.783  28.889  1.00  0.00    -0.203 F 
ATOM     70  C   UNL A   1      36.877  31.842  30.886  1.00  0.00     0.198 A 
ATOM     71  C   UNL A   1      37.819  30.976  32.916  1.00  0.00     0.198 A 
ATOM     72  F   UNL A   1      40.005  30.112  32.926  1.00  0.00    -0.203 F 
ATOM     73  F   UNL A   1      35.864  32.430  30.236  1.00  0.00    -0.200 F 
ATOM     74  C   UNL A   1      36.760  31.561  32.239  1.00  0.00     0.200 A 
ATOM     75  F   UNL A   1      37.701  30.685  34.220  1.00  0.00    -0.200 F 
ATOM     76  F   UNL A   1      35.626  31.853  32.891  1.00  0.00    -0.200 F 
ENDBRANCH  52  66
BRANCH  53  77
ATOM     77  C   UNL A   1      47.167  27.645  25.900  1.00  0.00     0.064 A 
ATOM     78  C   UNL A   1      47.234  27.742  24.504  1.00  0.00     0.173 A 
ATOM     79  C   UNL A   1      48.275  27.101  26.569  1.00  0.00     0.173 A 
ATOM     80  F   UNL A   1      46.196  28.242  23.818  1.00  0.00    -0.203 F 
ATOM     81  C   UNL A   1      48.356  27.302  23.806  1.00  0.00     0.198 A 
ATOM     82  C   UNL A   1      49.412  26.697  25.874  1.00  0.00     0.198 A 
ATOM     83  F   UNL A   1      48.267  26.993  27.907  1.00  0.00    -0.203 F 
ATOM     84  F   UNL A   1      48.377  27.369  22.469  1.00  0.00    -0.200 F 
ATOM     85  C   UNL A   1      49.448  26.791  24.492  1.00  0.00     0.200 A 
ATOM     86  F   UNL A   1      50.473  26.229  26.544  1.00  0.00    -0.200 F 
ATOM     87  F   UNL A   1      50.534  26.385  23.820  1.00  0.00    -0.200 F 
ENDBRANCH  53  77
BRANCH  65  88
ATOM     88  C   UNL A   1      45.559  33.635  29.113  1.00  0.00     0.064 A 
ATOM     89  C   UNL A   1      45.419  34.704  28.217  1.00  0.00     0.173 A 
ATOM     90  C   UNL A   1      46.361  33.831  30.249  1.00  0.00     0.173 A 
ATOM     91  F   UNL A   1      44.676  34.563  27.109  1.00  0.00    -0.203 F 
ATOM     92  C   UNL A   1      46.067  35.916  28.441  1.00  0.00     0.198 A 
ATOM     93  C   UNL A   1      46.976  35.055  30.490  1.00  0.00     0.198 A 
ATOM     94  F   UNL A   1      46.522  32.842  31.142  1.00  0.00    -0.203 F 
ATOM     95  F   UNL A   1      45.954  36.909  27.549  1.00  0.00    -0.200 F 
ATOM     96  C   UNL A   1      46.835  36.095  29.584  1.00  0.00     0.200 A 
ATOM     97  F   UNL A   1      47.699  35.233  31.604  1.00  0.00    -0.200 F 
ATOM     98  F   UNL A   1      47.438  37.269  29.810  1.00  0.00    -0.200 F 
ENDBRANCH  65  88
ENDBRANCH  39  40
ENDBRANCH  31  34
ENDBRANCH  29  30
ENDBRANCH  28  29
ENDBRANCH  27  28
ENDBRANCH   1  27
TORSDOF 19
ENDMDL
MODEL 3
REMARK VINA RESULT:     -12.0      0.611      2.085
REMARK SMILES CC(C)C[C@H]([NH2+]C[C@@](C)(O)C#Cc1ccccc1)C(=O)NCCCCNC(=O)c1ccc(-c2c3nc(c(-c4c(F)c(F)c(F)c(F)c4F)c4ccc([nH]4)c(-c4c(F)c(F)c(F)c(F)c4F)c4nc(c(-c5c(F)c(F)c(F)c(F)c5F)c5ccc2[nH]5)C=C4)C=C3)cc1
REMARK SMILES IDX 22 1 21 2 19 3 20 4 5 6 4 7 2 8 1 9 3 10 6 11 7 14 8 15 9 16
REMARK SMILES IDX 10 17 11 19 12 20 13 21 14 22 18 23 15 24 17 25 16 26 23 27
REMARK SMILES IDX 24 28 25 29 26 30 27 31 28 33 29 34 30 35 91 36 31 37 90 38
REMARK SMILES IDX 32 39 33 40 34 41 84 42 35 43 89 44 83 45 85 46 36 47 88 48
REMARK SMILES IDX 82 49 81 50 37 52 69 53 49 54 68 55 50 56 53 57 67 58 86 59
REMARK SMILES IDX 51 60 52 61 66 63 87 64 54 65 38 66 39 67 47 68 40 69 41 70
REMARK SMILES IDX 45 71 48 72 42 73 43 74 46 75 44 76 70 77 71 78 79 79 72 80
REMARK SMILES IDX 73 81 77 82 80 83 74 84 75 85 78 86 76 87 55 88 56 89 64 90
REMARK SMILES IDX 57 91 58 92 62 93 65 94 59 95 60 96 63 97 61 98
REMARK H PARENT 21 5 6 12 6 13 10 18 26 32 85 51 53 62
REMARK Flexibility Score: inf
ROOT
ATOM      1  C   UNL A   1      32.283  26.163  26.196  1.00  0.00     0.116 C 
ENDROOT
BRANCH   1   2
ATOM      2  N   UNL A   1      31.523  25.165  26.916  1.00  0.00    -0.351 N 
ATOM      3  C   UNL A   1      30.922  24.024  26.487  1.00  0.00     0.278 C 
ATOM      4  O   UNL A   1      30.173  23.464  27.296  1.00  0.00    -0.268 OA
ATOM      5  H   UNL A   1      31.423  25.342  27.879  1.00  0.00     0.163 HD
BRANCH   3   6
ATOM      6  C   UNL A   1      31.114  23.431  25.065  1.00  0.00     0.272 C 
BRANCH   6   7
ATOM      7  C   UNL A   1      32.440  22.689  24.768  1.00  0.00     0.078 C 
BRANCH   7   8
ATOM      8  C   UNL A   1      32.375  21.157  24.576  1.00  0.00    -0.011 C 
ATOM      9  C   UNL A   1      32.233  20.732  23.118  1.00  0.00     0.007 C 
ATOM     10  C   UNL A   1      33.613  20.507  25.202  1.00  0.00     0.007 C 
ENDBRANCH   7   8
ENDBRANCH   6   7
BRANCH   6  11
ATOM     11  N   UNL A   1      30.652  24.374  23.990  1.00  0.00    -0.333 N 
ATOM     12  H   UNL A   1      30.674  25.321  24.366  1.00  0.00     0.347 HD
ATOM     13  H   UNL A   1      29.714  24.074  23.722  1.00  0.00     0.347 HD
BRANCH  11  14
ATOM     14  C   UNL A   1      31.466  24.345  22.770  1.00  0.00     0.310 C 
BRANCH  14  15
ATOM     15  C   UNL A   1      32.000  25.628  22.076  1.00  0.00     0.171 C 
ATOM     16  C   UNL A   1      33.457  25.921  22.428  1.00  0.00     0.063 C 
BRANCH  15  17
ATOM     17  O   UNL A   1      31.933  25.407  20.656  1.00  0.00    -0.372 OA
ATOM     18  H   UNL A   1      31.381  26.091  20.248  1.00  0.00     0.212 HD
ENDBRANCH  15  17
BRANCH  15  19
ATOM     19  C   UNL A   1      31.124  26.746  22.395  1.00  0.00    -0.057 C 
ATOM     20  C   UNL A   1      30.404  27.697  22.525  1.00  0.00    -0.064 C 
BRANCH  20  21
ATOM     21  C   UNL A   1      29.509  28.800  22.551  1.00  0.00     0.025 A 
ATOM     22  C   UNL A   1      28.216  28.602  23.033  1.00  0.00     0.017 A 
ATOM     23  C   UNL A   1      29.905  30.046  22.067  1.00  0.00     0.017 A 
ATOM     24  C   UNL A   1      27.315  29.663  23.052  1.00  0.00     0.001 A 
ATOM     25  C   UNL A   1      29.001  31.108  22.086  1.00  0.00     0.001 A 
ATOM     26  C   UNL A   1      27.709  30.916  22.582  1.00  0.00     0.000 A 
ENDBRANCH  20  21
ENDBRANCH  15  19
ENDBRANCH  14  15
ENDBRANCH  11  14
ENDBRANCH   6  11
ENDBRANCH   3   6
ENDBRANCH   1   2
BRANCH   1  27
ATOM     27  C   UNL A   1      31.449  27.438  26.030  1.00  0.00     0.023 C 
BRANCH  27  28
ATOM     28  C   UNL A   1      31.807  28.532  27.012  1.00  0.00     0.023 C 
BRANCH  28  29
ATOM     29  C   UNL A   1      32.913  29.433  26.516  1.00  0.00     0.116 C 
BRANCH  29  30
ATOM     30  N   UNL A   1      32.684  30.845  26.806  1.00  0.00    -0.352 N 
ATOM     31  C   UNL A   1      33.539  31.718  27.440  1.00  0.00     0.251 C 
ATOM     32  H   UNL A   1      31.819  31.215  26.516  1.00  0.00     0.163 HD
ATOM     33  O   UNL A   1      33.188  32.848  27.752  1.00  0.00    -0.269 OA
BRANCH  31  34
ATOM     34  C   UNL A   1      34.882  31.213  27.779  1.00  0.00     0.039 A 
ATOM     35  C   UNL A   1      35.018  29.881  28.168  1.00  0.00     0.014 A 
ATOM     36  C   UNL A   1      35.935  32.115  27.915  1.00  0.00     0.014 A 
ATOM     37  C   UNL A   1      36.114  29.520  28.932  1.00  0.00     0.010 A 
ATOM     38  C   UNL A   1      37.106  31.696  28.548  1.00  0.00     0.010 A 
ATOM     39  C   UNL A   1      37.177  30.417  29.125  1.00  0.00    -0.014 A 
BRANCH  39  40
ATOM     40  C   UNL A   1      38.351  29.984  29.926  1.00  0.00     0.031 A 
ATOM     41  C   UNL A   1      39.384  29.048  29.357  1.00  0.00     0.074 A 
ATOM     42  C   UNL A   1      38.502  30.486  31.167  1.00  0.00     0.049 A 
ATOM     43  N   UNL A   1      40.447  28.548  29.937  1.00  0.00    -0.248 NA
ATOM     44  C   UNL A   1      39.205  28.608  27.964  1.00  0.00     0.031 C 
ATOM     45  C   UNL A   1      37.579  31.420  31.815  1.00  0.00     0.029 A 
ATOM     46  N   UNL A   1      39.492  30.304  32.098  1.00  0.00    -0.354 N 
ATOM     47  C   UNL A   1      41.044  27.720  28.994  1.00  0.00     0.074 A 
ATOM     48  C   UNL A   1      40.211  27.756  27.813  1.00  0.00     0.031 C 
ATOM     49  C   UNL A   1      38.071  31.773  33.008  1.00  0.00     0.029 A 
ATOM     50  C   UNL A   1      39.290  31.015  33.255  1.00  0.00     0.049 A 
ATOM     51  H   UNL A   1      40.271  29.720  31.951  1.00  0.00     0.167 HD
ATOM     52  C   UNL A   1      42.190  27.006  29.106  1.00  0.00     0.037 A 
ATOM     53  C   UNL A   1      39.986  31.031  34.406  1.00  0.00     0.037 A 
ATOM     54  C   UNL A   1      43.026  26.998  30.280  1.00  0.00     0.049 A 
ATOM     55  C   UNL A   1      41.213  30.177  34.523  1.00  0.00     0.074 A 
ATOM     56  C   UNL A   1      44.220  26.328  30.479  1.00  0.00     0.029 A 
ATOM     57  N   UNL A   1      42.756  27.689  31.452  1.00  0.00    -0.354 N 
ATOM     58  N   UNL A   1      41.774  29.411  33.619  1.00  0.00    -0.248 NA
ATOM     59  C   UNL A   1      41.902  30.184  35.819  1.00  0.00     0.031 C 
ATOM     60  C   UNL A   1      44.637  26.556  31.793  1.00  0.00     0.029 A 
ATOM     61  C   UNL A   1      43.744  27.430  32.390  1.00  0.00     0.049 A 
ATOM     62  H   UNL A   1      41.979  28.276  31.597  1.00  0.00     0.167 HD
ATOM     63  C   UNL A   1      42.892  28.860  34.229  1.00  0.00     0.074 A 
ATOM     64  C   UNL A   1      42.943  29.401  35.571  1.00  0.00     0.031 C 
ATOM     65  C   UNL A   1      43.789  27.981  33.722  1.00  0.00     0.037 A 
BRANCH  52  66
ATOM     66  C   UNL A   1      42.622  26.160  27.941  1.00  0.00     0.064 A 
ATOM     67  C   UNL A   1      42.099  24.877  27.725  1.00  0.00     0.173 A 
ATOM     68  C   UNL A   1      43.495  26.681  26.970  1.00  0.00     0.173 A 
ATOM     69  F   UNL A   1      41.270  24.325  28.624  1.00  0.00    -0.203 F 
ATOM     70  C   UNL A   1      42.439  24.144  26.590  1.00  0.00     0.198 A 
ATOM     71  C   UNL A   1      43.805  25.961  25.820  1.00  0.00     0.198 A 
ATOM     72  F   UNL A   1      44.019  27.907  27.121  1.00  0.00    -0.203 F 
ATOM     73  F   UNL A   1      41.951  22.908  26.421  1.00  0.00    -0.200 F 
ATOM     74  C   UNL A   1      43.280  24.692  25.632  1.00  0.00     0.200 A 
ATOM     75  F   UNL A   1      44.602  26.501  24.887  1.00  0.00    -0.200 F 
ATOM     76  F   UNL A   1      43.583  23.996  24.528  1.00  0.00    -0.200 F 
ENDBRANCH  52  66
BRANCH  53  77
ATOM     77  C   UNL A   1      39.516  31.878  35.533  1.00  0.00     0.064 A 
ATOM     78  C   UNL A   1      39.985  33.189  35.692  1.00  0.00     0.173 A 
ATOM     79  C   UNL A   1      38.566  31.410  36.455  1.00  0.00     0.173 A 
ATOM     80  F   UNL A   1      40.903  33.678  34.847  1.00  0.00    -0.203 F 
ATOM     81  C   UNL A   1      39.531  33.992  36.735  1.00  0.00     0.198 A 
ATOM     82  C   UNL A   1      38.084  32.227  37.473  1.00  0.00     0.198 A 
ATOM     83  F   UNL A   1      38.078  30.165  36.342  1.00  0.00    -0.203 F 
ATOM     84  F   UNL A   1      40.026  35.228  36.888  1.00  0.00    -0.200 F 
ATOM     85  C   UNL A   1      38.573  33.515  37.618  1.00  0.00     0.200 A 
ATOM     86  F   UNL A   1      37.141  31.769  38.306  1.00  0.00    -0.200 F 
ATOM     87  F   UNL A   1      38.124  34.296  38.610  1.00  0.00    -0.200 F 
ENDBRANCH  53  77
BRANCH  65  88
ATOM     88  C   UNL A   1      44.924  27.556  34.609  1.00  0.00     0.064 A 
ATOM     89  C   UNL A   1      44.842  26.406  35.407  1.00  0.00     0.173 A 
ATOM     90  C   UNL A   1      46.136  28.265  34.603  1.00  0.00     0.173 A 
ATOM     91  F   UNL A   1      43.702  25.700  35.460  1.00  0.00    -0.203 F 
ATOM     92  C   UNL A   1      45.925  25.991  36.178  1.00  0.00     0.198 A 
ATOM     93  C   UNL A   1      47.227  27.827  35.344  1.00  0.00     0.198 A 
ATOM     94  F   UNL A   1      46.270  29.369  33.850  1.00  0.00    -0.203 F 
ATOM     95  F   UNL A   1      45.809  24.913  36.966  1.00  0.00    -0.200 F 
ATOM     96  C   UNL A   1      47.120  26.694  36.136  1.00  0.00     0.200 A 
ATOM     97  F   UNL A   1      48.388  28.494  35.285  1.00  0.00    -0.200 F 
ATOM     98  F   UNL A   1      48.168  26.279  36.860  1.00  0.00    -0.200 F 
ENDBRANCH  65  88
ENDBRANCH  39  40
ENDBRANCH  31  34
ENDBRANCH  29  30
ENDBRANCH  28  29
ENDBRANCH  27  28
ENDBRANCH   1  27
TORSDOF 19
ENDMDL
