MODEL 1
REMARK VINA RESULT:     -13.6      0.000      0.000
REMARK SMILES Cc1cc(=O)oc2cc(NC(=O)CC3(CC(=O)NCCCCNC(=O)c4ccc(-c5c6nc(c(-c7c(F)c(F)c(F)c(F)c7F)c7ccc([nH]7)c(-c7c(F)c(F)c(F)c(F)c7F)c7nc(c(-c8c(F)c(F)c(F)c(F)c8F)c8ccc5[nH]8)C=C7)C=C6)cc4)CCCC3)ccc12
REMARK SMILES IDX 19 1 18 2 16 3 17 4 15 6 14 7 89 8 92 9 90 10 91 11 13 12
REMARK SMILES IDX 11 13 10 14 12 16 9 17 1 18 2 19 3 20 95 21 4 22 7 23 94 24
REMARK SMILES IDX 5 25 6 26 8 27 93 28 20 29 21 30 22 31 23 32 24 33 25 35
REMARK SMILES IDX 26 36 27 37 88 38 28 39 87 40 29 41 30 42 31 43 81 44 32 45
REMARK SMILES IDX 86 46 80 47 82 48 33 49 85 50 79 51 78 52 34 54 66 55 46 56
REMARK SMILES IDX 65 57 47 58 50 59 64 60 83 61 48 62 49 63 63 65 84 66 51 67
REMARK SMILES IDX 35 68 36 69 44 70 37 71 38 72 42 73 45 74 39 75 40 76 43 77
REMARK SMILES IDX 41 78 67 79 68 80 76 81 69 82 70 83 74 84 77 85 71 86 72 87
REMARK SMILES IDX 75 88 73 89 52 90 53 91 61 92 54 93 55 94 59 95 62 96 56 97
REMARK SMILES IDX 57 98 60 99 58 100
REMARK H PARENT 18 5 10 15 23 34 82 53 50 64
REMARK Flexibility Score: inf
ROOT
ATOM      1  C   UNL A   1      32.820  29.711  25.606  1.00  0.00     0.116 C 
ENDROOT
BRANCH   1   2
ATOM      2  N   UNL A   1      31.820  29.765  24.566  1.00  0.00    -0.356 N 
ATOM      3  C   UNL A   1      30.942  28.816  24.150  1.00  0.00     0.220 C 
ATOM      4  O   UNL A   1      30.209  29.099  23.201  1.00  0.00    -0.275 OA
ATOM      5  H   UNL A   1      31.765  30.622  24.085  1.00  0.00     0.163 HD
BRANCH   3   6
ATOM      6  C   UNL A   1      30.832  27.471  24.858  1.00  0.00     0.107 C 
BRANCH   6   7
ATOM      7  C   UNL A   1      31.657  26.252  24.324  1.00  0.00    -0.012 C 
ATOM      8  C   UNL A   1      30.691  25.041  24.274  1.00  0.00     0.008 C 
ATOM      9  C   UNL A   1      32.662  25.698  25.356  1.00  0.00     0.008 C 
ATOM     10  C   UNL A   1      30.565  24.543  25.716  1.00  0.00     0.001 C 
ATOM     11  C   UNL A   1      31.869  24.926  26.400  1.00  0.00     0.001 C 
BRANCH   7  12
ATOM     12  C   UNL A   1      32.406  26.593  22.999  1.00  0.00     0.108 C 
BRANCH  12  13
ATOM     13  C   UNL A   1      32.027  25.847  21.728  1.00  0.00     0.224 C 
ATOM     14  N   UNL A   1      32.429  24.570  21.454  1.00  0.00    -0.326 N 
ATOM     15  H   UNL A   1      32.169  24.248  20.560  1.00  0.00     0.169 HD
ATOM     16  O   UNL A   1      31.276  26.385  20.907  1.00  0.00    -0.275 OA
BRANCH  14  17
ATOM     17  C   UNL A   1      33.146  23.634  22.215  1.00  0.00     0.044 A 
ATOM     18  C   UNL A   1      35.478  21.675  26.422  1.00  0.00     0.045 C 
ATOM     19  C   UNL A   1      34.433  21.183  25.465  1.00  0.00    -0.033 A 
ATOM     20  C   UNL A   1      33.704  20.086  25.719  1.00  0.00     0.098 A 
ATOM     21  C   UNL A   1      34.120  21.955  24.257  1.00  0.00     0.021 A 
ATOM     22  C   UNL A   1      32.600  19.630  24.859  1.00  0.00     0.336 A 
ATOM     23  C   UNL A   1      32.985  21.619  23.521  1.00  0.00     0.140 A 
ATOM     24  C   UNL A   1      34.863  23.055  23.827  1.00  0.00     0.014 A 
ATOM     25  O   UNL A   1      32.015  18.580  25.095  1.00  0.00    -0.246 OA
ATOM     26  O   UNL A   1      32.236  20.464  23.816  1.00  0.00    -0.423 OA
ATOM     27  C   UNL A   1      32.499  22.431  22.495  1.00  0.00     0.074 A 
ATOM     28  C   UNL A   1      34.387  23.875  22.795  1.00  0.00     0.027 A 
ENDBRANCH  14  17
ENDBRANCH  12  13
ENDBRANCH   7  12
ENDBRANCH   6   7
ENDBRANCH   3   6
ENDBRANCH   1   2
BRANCH   1  29
ATOM     29  C   UNL A   1      32.261  30.273  26.915  1.00  0.00     0.023 C 
BRANCH  29  30
ATOM     30  C   UNL A   1      31.885  31.745  26.875  1.00  0.00     0.023 C 
BRANCH  30  31
ATOM     31  C   UNL A   1      32.983  32.687  27.330  1.00  0.00     0.116 C 
BRANCH  31  32
ATOM     32  N   UNL A   1      32.519  34.031  27.654  1.00  0.00    -0.352 N 
ATOM     33  C   UNL A   1      33.023  34.880  28.613  1.00  0.00     0.251 C 
ATOM     34  H   UNL A   1      31.759  34.369  27.127  1.00  0.00     0.163 HD
ATOM     35  O   UNL A   1      32.502  35.964  28.843  1.00  0.00    -0.269 OA
BRANCH  33  36
ATOM     36  C   UNL A   1      34.184  34.418  29.395  1.00  0.00     0.039 A 
ATOM     37  C   UNL A   1      33.964  33.714  30.579  1.00  0.00     0.014 A 
ATOM     38  C   UNL A   1      35.468  34.549  28.862  1.00  0.00     0.014 A 
ATOM     39  C   UNL A   1      35.035  33.061  31.189  1.00  0.00     0.010 A 
ATOM     40  C   UNL A   1      36.507  33.815  29.412  1.00  0.00     0.010 A 
ATOM     41  C   UNL A   1      36.302  33.068  30.582  1.00  0.00    -0.014 A 
BRANCH  41  42
ATOM     42  C   UNL A   1      37.442  32.316  31.159  1.00  0.00     0.031 A 
ATOM     43  C   UNL A   1      37.933  32.664  32.536  1.00  0.00     0.074 A 
ATOM     44  C   UNL A   1      38.087  31.394  30.419  1.00  0.00     0.049 A 
ATOM     45  N   UNL A   1      38.971  32.207  33.187  1.00  0.00    -0.248 NA
ATOM     46  C   UNL A   1      37.180  33.701  33.261  1.00  0.00     0.031 C 
ATOM     47  C   UNL A   1      37.749  31.021  29.044  1.00  0.00     0.029 A 
ATOM     48  N   UNL A   1      39.171  30.609  30.718  1.00  0.00    -0.354 N 
ATOM     49  C   UNL A   1      39.011  32.922  34.375  1.00  0.00     0.074 A 
ATOM     50  C   UNL A   1      37.935  33.887  34.330  1.00  0.00     0.031 C 
ATOM     51  C   UNL A   1      38.587  30.055  28.632  1.00  0.00     0.029 A 
ATOM     52  C   UNL A   1      39.540  29.765  29.699  1.00  0.00     0.049 A 
ATOM     53  H   UNL A   1      39.641  30.646  31.584  1.00  0.00     0.167 HD
ATOM     54  C   UNL A   1      39.850  32.768  35.425  1.00  0.00     0.037 A 
ATOM     55  C   UNL A   1      40.535  28.859  29.638  1.00  0.00     0.037 A 
ATOM     56  C   UNL A   1      40.882  31.769  35.488  1.00  0.00     0.049 A 
ATOM     57  C   UNL A   1      41.427  28.675  30.835  1.00  0.00     0.074 A 
ATOM     58  C   UNL A   1      41.729  31.467  36.538  1.00  0.00     0.029 A 
ATOM     59  N   UNL A   1      41.197  30.901  34.453  1.00  0.00    -0.354 N 
ATOM     60  N   UNL A   1      41.410  29.304  31.985  1.00  0.00    -0.248 NA
ATOM     61  C   UNL A   1      42.475  27.650  30.727  1.00  0.00     0.031 C 
ATOM     62  C   UNL A   1      42.582  30.436  36.126  1.00  0.00     0.029 A 
ATOM     63  C   UNL A   1      42.237  30.071  34.834  1.00  0.00     0.049 A 
ATOM     64  H   UNL A   1      40.748  30.878  33.576  1.00  0.00     0.167 HD
ATOM     65  C   UNL A   1      42.421  28.735  32.747  1.00  0.00     0.074 A 
ATOM     66  C   UNL A   1      43.026  27.702  31.931  1.00  0.00     0.031 C 
ATOM     67  C   UNL A   1      42.815  29.042  34.007  1.00  0.00     0.037 A 
BRANCH  54  68
ATOM     68  C   UNL A   1      39.670  33.694  36.592  1.00  0.00     0.064 A 
ATOM     69  C   UNL A   1      38.859  33.351  37.686  1.00  0.00     0.173 A 
ATOM     70  C   UNL A   1      40.312  34.940  36.617  1.00  0.00     0.173 A 
ATOM     71  F   UNL A   1      38.209  32.178  37.701  1.00  0.00    -0.203 F 
ATOM     72  C   UNL A   1      38.667  34.238  38.741  1.00  0.00     0.198 A 
ATOM     73  C   UNL A   1      40.143  35.812  37.691  1.00  0.00     0.198 A 
ATOM     74  F   UNL A   1      41.099  35.317  35.598  1.00  0.00    -0.203 F 
ATOM     75  F   UNL A   1      37.838  33.913  39.743  1.00  0.00    -0.200 F 
ATOM     76  C   UNL A   1      39.314  35.464  38.746  1.00  0.00     0.200 A 
ATOM     77  F   UNL A   1      40.775  36.994  37.698  1.00  0.00    -0.200 F 
ATOM     78  F   UNL A   1      39.126  36.317  39.762  1.00  0.00    -0.200 F 
ENDBRANCH  54  68
BRANCH  55  79
ATOM     79  C   UNL A   1      40.704  28.025  28.422  1.00  0.00     0.064 A 
ATOM     80  C   UNL A   1      40.084  26.771  28.326  1.00  0.00     0.173 A 
ATOM     81  C   UNL A   1      41.473  28.459  27.334  1.00  0.00     0.173 A 
ATOM     82  F   UNL A   1      39.353  26.306  29.349  1.00  0.00    -0.203 F 
ATOM     83  C   UNL A   1      40.240  25.975  27.193  1.00  0.00     0.198 A 
ATOM     84  C   UNL A   1      41.610  27.671  26.191  1.00  0.00     0.198 A 
ATOM     85  F   UNL A   1      42.080  29.653  27.374  1.00  0.00    -0.203 F 
ATOM     86  F   UNL A   1      39.665  24.765  27.142  1.00  0.00    -0.200 F 
ATOM     87  C   UNL A   1      40.998  26.429  26.124  1.00  0.00     0.200 A 
ATOM     88  F   UNL A   1      42.331  28.118  25.155  1.00  0.00    -0.200 F 
ATOM     89  F   UNL A   1      41.143  25.666  25.032  1.00  0.00    -0.200 F 
ENDBRANCH  55  79
BRANCH  67  90
ATOM     90  C   UNL A   1      43.931  28.230  34.593  1.00  0.00     0.064 A 
ATOM     91  C   UNL A   1      43.689  27.014  35.247  1.00  0.00     0.173 A 
ATOM     92  C   UNL A   1      45.262  28.652  34.454  1.00  0.00     0.173 A 
ATOM     93  F   UNL A   1      42.431  26.578  35.418  1.00  0.00    -0.203 F 
ATOM     94  C   UNL A   1      44.739  26.258  35.758  1.00  0.00     0.198 A 
ATOM     95  C   UNL A   1      46.311  27.880  34.942  1.00  0.00     0.198 A 
ATOM     96  F   UNL A   1      45.545  29.806  33.830  1.00  0.00    -0.203 F 
ATOM     97  F   UNL A   1      44.484  25.118  36.414  1.00  0.00    -0.200 F 
ATOM     98  C   UNL A   1      46.049  26.687  35.599  1.00  0.00     0.200 A 
ATOM     99  F   UNL A   1      47.576  28.290  34.777  1.00  0.00    -0.200 F 
ATOM    100  F   UNL A   1      47.059  25.952  36.084  1.00  0.00    -0.200 F 
ENDBRANCH  67  90
ENDBRANCH  41  42
ENDBRANCH  33  36
ENDBRANCH  31  32
ENDBRANCH  30  31
ENDBRANCH  29  30
ENDBRANCH   1  29
TORSDOF 15
ENDMDL
MODEL 2
REMARK VINA RESULT:     -13.4      5.077     10.835
REMARK SMILES Cc1cc(=O)oc2cc(NC(=O)CC3(CC(=O)NCCCCNC(=O)c4ccc(-c5c6nc(c(-c7c(F)c(F)c(F)c(F)c7F)c7ccc([nH]7)c(-c7c(F)c(F)c(F)c(F)c7F)c7nc(c(-c8c(F)c(F)c(F)c(F)c8F)c8ccc5[nH]8)C=C7)C=C6)cc4)CCCC3)ccc12
REMARK SMILES IDX 19 1 18 2 16 3 17 4 15 6 14 7 89 8 92 9 90 10 91 11 13 12
REMARK SMILES IDX 11 13 10 14 12 16 9 17 1 18 2 19 3 20 95 21 4 22 7 23 94 24
REMARK SMILES IDX 5 25 6 26 8 27 93 28 20 29 21 30 22 31 23 32 24 33 25 35
REMARK SMILES IDX 26 36 27 37 88 38 28 39 87 40 29 41 30 42 31 43 81 44 32 45
REMARK SMILES IDX 86 46 80 47 82 48 33 49 85 50 79 51 78 52 34 54 66 55 46 56
REMARK SMILES IDX 65 57 47 58 50 59 64 60 83 61 48 62 49 63 63 65 84 66 51 67
REMARK SMILES IDX 35 68 36 69 44 70 37 71 38 72 42 73 45 74 39 75 40 76 43 77
REMARK SMILES IDX 41 78 67 79 68 80 76 81 69 82 70 83 74 84 77 85 71 86 72 87
REMARK SMILES IDX 75 88 73 89 52 90 53 91 61 92 54 93 55 94 59 95 62 96 56 97
REMARK SMILES IDX 57 98 60 99 58 100
REMARK H PARENT 18 5 10 15 23 34 82 53 50 64
REMARK Flexibility Score: inf
ROOT
ATOM      1  C   UNL A   1      36.257  21.935  25.582  1.00  0.00     0.116 C 
ENDROOT
BRANCH   1   2
ATOM      2  N   UNL A   1      35.271  20.892  25.736  1.00  0.00    -0.356 N 
ATOM      3  C   UNL A   1      34.050  20.753  25.156  1.00  0.00     0.220 C 
ATOM      4  O   UNL A   1      33.372  19.780  25.489  1.00  0.00    -0.275 OA
ATOM      5  H   UNL A   1      35.522  20.170  26.355  1.00  0.00     0.163 HD
BRANCH   3   6
ATOM      6  C   UNL A   1      33.557  21.734  24.099  1.00  0.00     0.107 C 
BRANCH   6   7
ATOM      7  C   UNL A   1      32.821  23.042  24.547  1.00  0.00    -0.012 C 
ATOM      8  C   UNL A   1      31.832  23.413  23.414  1.00  0.00     0.008 C 
ATOM      9  C   UNL A   1      33.718  24.295  24.488  1.00  0.00     0.008 C 
ATOM     10  C   UNL A   1      32.677  24.062  22.315  1.00  0.00     0.001 C 
ATOM     11  C   UNL A   1      33.874  24.680  23.024  1.00  0.00     0.001 C 
BRANCH   7  12
ATOM     12  C   UNL A   1      32.213  22.904  25.977  1.00  0.00     0.108 C 
BRANCH  12  13
ATOM     13  C   UNL A   1      30.700  22.960  26.141  1.00  0.00     0.224 C 
ATOM     14  N   UNL A   1      29.979  24.119  26.092  1.00  0.00    -0.326 N 
ATOM     15  H   UNL A   1      29.020  24.006  26.290  1.00  0.00     0.169 HD
ATOM     16  O   UNL A   1      30.063  21.910  26.276  1.00  0.00    -0.275 OA
BRANCH  14  17
ATOM     17  C   UNL A   1      30.354  25.441  25.811  1.00  0.00     0.044 A 
ATOM     18  C   UNL A   1      33.461  29.296  24.240  1.00  0.00     0.045 C 
ATOM     19  C   UNL A   1      32.070  28.849  23.896  1.00  0.00    -0.033 A 
ATOM     20  C   UNL A   1      31.415  29.338  22.833  1.00  0.00     0.098 A 
ATOM     21  C   UNL A   1      31.425  27.787  24.677  1.00  0.00     0.021 A 
ATOM     22  C   UNL A   1      30.095  28.851  22.401  1.00  0.00     0.336 A 
ATOM     23  C   UNL A   1      30.249  27.218  24.191  1.00  0.00     0.140 A 
ATOM     24  C   UNL A   1      31.953  27.264  25.858  1.00  0.00     0.014 A 
ATOM     25  O   UNL A   1      29.507  29.382  21.468  1.00  0.00    -0.246 OA
ATOM     26  O   UNL A   1      29.588  27.748  23.067  1.00  0.00    -0.423 OA
ATOM     27  C   UNL A   1      29.697  26.065  24.752  1.00  0.00     0.074 A 
ATOM     28  C   UNL A   1      31.403  26.111  26.433  1.00  0.00     0.027 A 
ENDBRANCH  14  17
ENDBRANCH  12  13
ENDBRANCH   7  12
ENDBRANCH   6   7
ENDBRANCH   3   6
ENDBRANCH   1   2
BRANCH   1  29
ATOM     29  C   UNL A   1      37.363  21.488  24.624  1.00  0.00     0.023 C 
BRANCH  29  30
ATOM     30  C   UNL A   1      38.080  20.209  25.021  1.00  0.00     0.023 C 
BRANCH  30  31
ATOM     31  C   UNL A   1      39.318  20.420  25.872  1.00  0.00     0.116 C 
BRANCH  31  32
ATOM     32  N   UNL A   1      40.215  19.271  25.915  1.00  0.00    -0.352 N 
ATOM     33  C   UNL A   1      41.576  19.281  26.119  1.00  0.00     0.251 C 
ATOM     34  H   UNL A   1      39.800  18.388  25.783  1.00  0.00     0.163 HD
ATOM     35  O   UNL A   1      42.238  18.252  26.063  1.00  0.00    -0.269 OA
BRANCH  33  36
ATOM     36  C   UNL A   1      42.224  20.584  26.355  1.00  0.00     0.039 A 
ATOM     37  C   UNL A   1      42.439  21.438  25.274  1.00  0.00     0.014 A 
ATOM     38  C   UNL A   1      42.462  21.005  27.665  1.00  0.00     0.014 A 
ATOM     39  C   UNL A   1      42.815  22.759  25.517  1.00  0.00     0.010 A 
ATOM     40  C   UNL A   1      42.733  22.343  27.907  1.00  0.00     0.010 A 
ATOM     41  C   UNL A   1      42.916  23.231  26.836  1.00  0.00    -0.014 A 
BRANCH  41  42
ATOM     42  C   UNL A   1      43.232  24.649  27.129  1.00  0.00     0.031 A 
ATOM     43  C   UNL A   1      44.618  25.166  26.861  1.00  0.00     0.074 A 
ATOM     44  C   UNL A   1      42.312  25.438  27.716  1.00  0.00     0.049 A 
ATOM     45  N   UNL A   1      45.134  26.336  27.137  1.00  0.00    -0.248 NA
ATOM     46  C   UNL A   1      45.563  24.224  26.240  1.00  0.00     0.031 C 
ATOM     47  C   UNL A   1      40.958  25.030  28.091  1.00  0.00     0.029 A 
ATOM     48  N   UNL A   1      42.383  26.751  28.110  1.00  0.00    -0.354 N 
ATOM     49  C   UNL A   1      46.466  26.255  26.754  1.00  0.00     0.074 A 
ATOM     50  C   UNL A   1      46.695  24.906  26.288  1.00  0.00     0.031 C 
ATOM     51  C   UNL A   1      40.314  26.080  28.629  1.00  0.00     0.029 A 
ATOM     52  C   UNL A   1      41.220  27.224  28.667  1.00  0.00     0.049 A 
ATOM     53  H   UNL A   1      43.192  27.303  28.002  1.00  0.00     0.167 HD
ATOM     54  C   UNL A   1      47.407  27.227  26.760  1.00  0.00     0.037 A 
ATOM     55  C   UNL A   1      40.923  28.445  29.150  1.00  0.00     0.037 A 
ATOM     56  C   UNL A   1      47.157  28.582  27.171  1.00  0.00     0.049 A 
ATOM     57  C   UNL A   1      41.971  29.522  29.106  1.00  0.00     0.074 A 
ATOM     58  C   UNL A   1      48.013  29.667  27.134  1.00  0.00     0.029 A 
ATOM     59  N   UNL A   1      45.953  29.035  27.688  1.00  0.00    -0.354 N 
ATOM     60  N   UNL A   1      43.207  29.458  28.670  1.00  0.00    -0.248 NA
ATOM     61  C   UNL A   1      41.583  30.846  29.614  1.00  0.00     0.031 C 
ATOM     62  C   UNL A   1      47.336  30.773  27.661  1.00  0.00     0.029 A 
ATOM     63  C   UNL A   1      46.046  30.384  27.988  1.00  0.00     0.049 A 
ATOM     64  H   UNL A   1      45.150  28.481  27.823  1.00  0.00     0.167 HD
ATOM     65  C   UNL A   1      43.734  30.732  28.827  1.00  0.00     0.074 A 
ATOM     66  C   UNL A   1      42.679  31.554  29.386  1.00  0.00     0.031 C 
ATOM     67  C   UNL A   1      44.979  31.182  28.534  1.00  0.00     0.037 A 
BRANCH  54  68
ATOM     68  C   UNL A   1      48.783  26.855  26.293  1.00  0.00     0.064 A 
ATOM     69  C   UNL A   1      49.174  27.014  24.954  1.00  0.00     0.173 A 
ATOM     70  C   UNL A   1      49.722  26.333  27.193  1.00  0.00     0.173 A 
ATOM     71  F   UNL A   1      48.306  27.494  24.051  1.00  0.00    -0.203 F 
ATOM     72  C   UNL A   1      50.440  26.626  24.526  1.00  0.00     0.198 A 
ATOM     73  C   UNL A   1      51.000  25.975  26.767  1.00  0.00     0.198 A 
ATOM     74  F   UNL A   1      49.401  26.161  28.484  1.00  0.00    -0.203 F 
ATOM     75  F   UNL A   1      50.768  26.727  23.230  1.00  0.00    -0.200 F 
ATOM     76  C   UNL A   1      51.354  26.112  25.434  1.00  0.00     0.200 A 
ATOM     77  F   UNL A   1      51.885  25.486  27.647  1.00  0.00    -0.200 F 
ATOM     78  F   UNL A   1      52.572  25.737  25.020  1.00  0.00    -0.200 F 
ENDBRANCH  54  68
BRANCH  55  79
ATOM     79  C   UNL A   1      39.559  28.726  29.666  1.00  0.00     0.064 A 
ATOM     80  C   UNL A   1      38.561  29.220  28.815  1.00  0.00     0.173 A 
ATOM     81  C   UNL A   1      39.221  28.501  31.008  1.00  0.00     0.173 A 
ATOM     82  F   UNL A   1      38.843  29.468  27.527  1.00  0.00    -0.203 F 
ATOM     83  C   UNL A   1      37.280  29.494  29.288  1.00  0.00     0.198 A 
ATOM     84  C   UNL A   1      37.932  28.753  31.476  1.00  0.00     0.198 A 
ATOM     85  F   UNL A   1      40.137  28.022  31.860  1.00  0.00    -0.203 F 
ATOM     86  F   UNL A   1      36.355  29.999  28.460  1.00  0.00    -0.200 F 
ATOM     87  C   UNL A   1      36.965  29.254  30.617  1.00  0.00     0.200 A 
ATOM     88  F   UNL A   1      37.627  28.508  32.757  1.00  0.00    -0.200 F 
ATOM     89  F   UNL A   1      35.730  29.511  31.072  1.00  0.00    -0.200 F 
ENDBRANCH  55  79
BRANCH  67  90
ATOM     90  C   UNL A   1      45.259  32.633  28.785  1.00  0.00     0.064 A 
ATOM     91  C   UNL A   1      45.839  33.072  29.983  1.00  0.00     0.173 A 
ATOM     92  C   UNL A   1      44.989  33.588  27.792  1.00  0.00     0.173 A 
ATOM     93  F   UNL A   1      46.100  32.198  30.967  1.00  0.00    -0.203 F 
ATOM     94  C   UNL A   1      46.121  34.420  30.187  1.00  0.00     0.198 A 
ATOM     95  C   UNL A   1      45.298  34.930  27.990  1.00  0.00     0.198 A 
ATOM     96  F   UNL A   1      44.441  33.215  26.626  1.00  0.00    -0.203 F 
ATOM     97  F   UNL A   1      46.639  34.824  31.355  1.00  0.00    -0.200 F 
ATOM     98  C   UNL A   1      45.858  35.346  29.188  1.00  0.00     0.200 A 
ATOM     99  F   UNL A   1      45.054  35.822  27.020  1.00  0.00    -0.200 F 
ATOM    100  F   UNL A   1      46.139  36.642  29.384  1.00  0.00    -0.200 F 
ENDBRANCH  67  90
ENDBRANCH  41  42
ENDBRANCH  33  36
ENDBRANCH  31  32
ENDBRANCH  30  31
ENDBRANCH  29  30
ENDBRANCH   1  29
TORSDOF 15
ENDMDL
MODEL 3
REMARK VINA RESULT:     -13.4      5.202      9.780
REMARK SMILES Cc1cc(=O)oc2cc(NC(=O)CC3(CC(=O)NCCCCNC(=O)c4ccc(-c5c6nc(c(-c7c(F)c(F)c(F)c(F)c7F)c7ccc([nH]7)c(-c7c(F)c(F)c(F)c(F)c7F)c7nc(c(-c8c(F)c(F)c(F)c(F)c8F)c8ccc5[nH]8)C=C7)C=C6)cc4)CCCC3)ccc12
REMARK SMILES IDX 19 1 18 2 16 3 17 4 15 6 14 7 89 8 92 9 90 10 91 11 13 12
REMARK SMILES IDX 11 13 10 14 12 16 9 17 1 18 2 19 3 20 95 21 4 22 7 23 94 24
REMARK SMILES IDX 5 25 6 26 8 27 93 28 20 29 21 30 22 31 23 32 24 33 25 35
REMARK SMILES IDX 26 36 27 37 88 38 28 39 87 40 29 41 30 42 31 43 81 44 32 45
REMARK SMILES IDX 86 46 80 47 82 48 33 49 85 50 79 51 78 52 34 54 66 55 46 56
REMARK SMILES IDX 65 57 47 58 50 59 64 60 83 61 48 62 49 63 63 65 84 66 51 67
REMARK SMILES IDX 35 68 36 69 44 70 37 71 38 72 42 73 45 74 39 75 40 76 43 77
REMARK SMILES IDX 41 78 67 79 68 80 76 81 69 82 70 83 74 84 77 85 71 86 72 87
REMARK SMILES IDX 75 88 73 89 52 90 53 91 61 92 54 93 55 94 59 95 62 96 56 97
REMARK SMILES IDX 57 98 60 99 58 100
REMARK H PARENT 18 5 10 15 23 34 82 53 50 64
REMARK Flexibility Score: inf
ROOT
ATOM      1  C   UNL A   1      35.669  20.987  25.174  1.00  0.00     0.116 C 
ENDROOT
BRANCH   1   2
ATOM      2  N   UNL A   1      34.535  20.135  25.442  1.00  0.00    -0.356 N 
ATOM      3  C   UNL A   1      33.250  20.233  25.013  1.00  0.00     0.220 C 
ATOM      4  O   UNL A   1      32.450  19.390  25.422  1.00  0.00    -0.275 OA
ATOM      5  H   UNL A   1      34.721  19.364  26.024  1.00  0.00     0.163 HD
BRANCH   3   6
ATOM      6  C   UNL A   1      32.822  21.314  24.027  1.00  0.00     0.107 C 
BRANCH   6   7
ATOM      7  C   UNL A   1      32.406  22.724  24.564  1.00  0.00    -0.012 C 
ATOM      8  C   UNL A   1      31.392  23.312  23.549  1.00  0.00     0.008 C 
ATOM      9  C   UNL A   1      33.516  23.784  24.417  1.00  0.00     0.008 C 
ATOM     10  C   UNL A   1      32.225  23.819  22.370  1.00  0.00     0.001 C 
ATOM     11  C   UNL A   1      33.587  24.174  22.947  1.00  0.00     0.001 C 
BRANCH   7  12
ATOM     12  C   UNL A   1      31.937  22.663  26.051  1.00  0.00     0.108 C 
BRANCH  12  13
ATOM     13  C   UNL A   1      30.483  22.970  26.377  1.00  0.00     0.224 C 
ATOM     14  N   UNL A   1      29.951  24.229  26.344  1.00  0.00    -0.326 N 
ATOM     15  H   UNL A   1      29.017  24.280  26.652  1.00  0.00     0.169 HD
ATOM     16  O   UNL A   1      29.709  22.043  26.639  1.00  0.00    -0.275 OA
BRANCH  14  17
ATOM     17  C   UNL A   1      30.494  25.461  25.951  1.00  0.00     0.044 A 
ATOM     18  C   UNL A   1      33.952  28.698  23.820  1.00  0.00     0.045 C 
ATOM     19  C   UNL A   1      32.476  28.476  23.669  1.00  0.00    -0.033 A 
ATOM     20  C   UNL A   1      31.778  29.031  22.667  1.00  0.00     0.098 A 
ATOM     21  C   UNL A   1      31.773  27.561  24.576  1.00  0.00     0.021 A 
ATOM     22  C   UNL A   1      30.353  28.755  22.423  1.00  0.00     0.336 A 
ATOM     23  C   UNL A   1      30.470  27.178  24.265  1.00  0.00     0.140 A 
ATOM     24  C   UNL A   1      32.356  26.996  25.711  1.00  0.00     0.014 A 
ATOM     25  O   UNL A   1      29.744  29.345  21.540  1.00  0.00    -0.246 OA
ATOM     26  O   UNL A   1      29.765  27.773  23.202  1.00  0.00    -0.423 OA
ATOM     27  C   UNL A   1      29.816  26.151  24.947  1.00  0.00     0.074 A 
ATOM     28  C   UNL A   1      31.707  25.968  26.407  1.00  0.00     0.027 A 
ENDBRANCH  14  17
ENDBRANCH  12  13
ENDBRANCH   7  12
ENDBRANCH   6   7
ENDBRANCH   3   6
ENDBRANCH   1   2
BRANCH   1  29
ATOM     29  C   UNL A   1      36.951  20.157  25.080  1.00  0.00     0.023 C 
BRANCH  29  30
ATOM     30  C   UNL A   1      38.235  20.963  24.981  1.00  0.00     0.023 C 
BRANCH  30  31
ATOM     31  C   UNL A   1      39.213  20.729  26.117  1.00  0.00     0.116 C 
BRANCH  31  32
ATOM     32  N   UNL A   1      39.990  19.502  25.993  1.00  0.00    -0.352 N 
ATOM     33  C   UNL A   1      41.356  19.365  26.080  1.00  0.00     0.251 C 
ATOM     34  H   UNL A   1      39.478  18.677  25.828  1.00  0.00     0.163 HD
ATOM     35  O   UNL A   1      41.904  18.287  25.887  1.00  0.00    -0.269 OA
BRANCH  33  36
ATOM     36  C   UNL A   1      42.149  20.575  26.362  1.00  0.00     0.039 A 
ATOM     37  C   UNL A   1      42.572  21.370  25.296  1.00  0.00     0.014 A 
ATOM     38  C   UNL A   1      42.324  20.990  27.684  1.00  0.00     0.014 A 
ATOM     39  C   UNL A   1      43.098  22.634  25.560  1.00  0.00     0.010 A 
ATOM     40  C   UNL A   1      42.749  22.285  27.936  1.00  0.00     0.010 A 
ATOM     41  C   UNL A   1      43.144  23.118  26.878  1.00  0.00    -0.014 A 
BRANCH  41  42
ATOM     42  C   UNL A   1      43.620  24.488  27.185  1.00  0.00     0.031 A 
ATOM     43  C   UNL A   1      42.655  25.493  27.748  1.00  0.00     0.074 A 
ATOM     44  C   UNL A   1      44.879  24.850  26.876  1.00  0.00     0.049 A 
ATOM     45  N   UNL A   1      42.833  26.766  27.992  1.00  0.00    -0.248 NA
ATOM     46  C   UNL A   1      41.293  25.012  28.032  1.00  0.00     0.031 C 
ATOM     47  C   UNL A   1      45.886  23.984  26.259  1.00  0.00     0.029 A 
ATOM     48  N   UNL A   1      45.525  26.051  27.029  1.00  0.00    -0.354 N 
ATOM     49  C   UNL A   1      41.601  27.238  28.423  1.00  0.00     0.074 A 
ATOM     50  C   UNL A   1      40.670  26.134  28.347  1.00  0.00     0.031 C 
ATOM     51  C   UNL A   1      47.032  24.672  26.119  1.00  0.00     0.029 A 
ATOM     52  C   UNL A   1      46.831  26.034  26.604  1.00  0.00     0.049 A 
ATOM     53  H   UNL A   1      45.093  26.850  27.410  1.00  0.00     0.167 HD
ATOM     54  C   UNL A   1      41.281  28.473  28.874  1.00  0.00     0.037 A 
ATOM     55  C   UNL A   1      47.759  27.010  26.610  1.00  0.00     0.037 A 
ATOM     56  C   UNL A   1      42.225  29.550  29.001  1.00  0.00     0.049 A 
ATOM     57  C   UNL A   1      47.392  28.362  27.156  1.00  0.00     0.074 A 
ATOM     58  C   UNL A   1      42.028  30.813  29.527  1.00  0.00     0.029 A 
ATOM     59  N   UNL A   1      43.551  29.481  28.601  1.00  0.00    -0.354 N 
ATOM     60  N   UNL A   1      46.244  28.778  27.634  1.00  0.00    -0.248 NA
ATOM     61  C   UNL A   1      48.452  29.380  27.170  1.00  0.00     0.031 C 
ATOM     62  C   UNL A   1      43.229  31.522  29.417  1.00  0.00     0.029 A 
ATOM     63  C   UNL A   1      44.183  30.686  28.857  1.00  0.00     0.049 A 
ATOM     64  H   UNL A   1      43.980  28.693  28.196  1.00  0.00     0.167 HD
ATOM     65  C   UNL A   1      46.449  30.093  28.028  1.00  0.00     0.074 A 
ATOM     66  C   UNL A   1      47.836  30.402  27.745  1.00  0.00     0.031 C 
ATOM     67  C   UNL A   1      45.568  30.966  28.576  1.00  0.00     0.037 A 
BRANCH  54  68
ATOM     68  C   UNL A   1      39.855  28.711  29.274  1.00  0.00     0.064 A 
ATOM     69  C   UNL A   1      38.908  29.208  28.364  1.00  0.00     0.173 A 
ATOM     70  C   UNL A   1      39.428  28.442  30.582  1.00  0.00     0.173 A 
ATOM     71  F   UNL A   1      39.270  29.497  27.105  1.00  0.00    -0.203 F 
ATOM     72  C   UNL A   1      37.598  29.464  28.760  1.00  0.00     0.198 A 
ATOM     73  C   UNL A   1      38.109  28.670  30.966  1.00  0.00     0.198 A 
ATOM     74  F   UNL A   1      40.292  27.966  31.491  1.00  0.00    -0.203 F 
ATOM     75  F   UNL A   1      36.730  29.998  27.890  1.00  0.00    -0.200 F 
ATOM     76  C   UNL A   1      37.199  29.189  30.058  1.00  0.00     0.200 A 
ATOM     77  F   UNL A   1      37.721  28.396  32.220  1.00  0.00    -0.200 F 
ATOM     78  F   UNL A   1      35.938  29.438  30.439  1.00  0.00    -0.200 F 
ENDBRANCH  54  68
BRANCH  55  79
ATOM     79  C   UNL A   1      49.135  26.726  26.130  1.00  0.00     0.064 A 
ATOM     80  C   UNL A   1      49.498  26.994  24.803  1.00  0.00     0.173 A 
ATOM     81  C   UNL A   1      50.115  26.194  26.980  1.00  0.00     0.173 A 
ATOM     82  F   UNL A   1      48.590  27.487  23.948  1.00  0.00    -0.203 F 
ATOM     83  C   UNL A   1      50.784  26.726  24.338  1.00  0.00     0.198 A 
ATOM     84  C   UNL A   1      51.408  25.947  26.521  1.00  0.00     0.198 A 
ATOM     85  F   UNL A   1      49.820  25.926  28.260  1.00  0.00    -0.203 F 
ATOM     86  F   UNL A   1      51.094  26.959  23.055  1.00  0.00    -0.200 F 
ATOM     87  C   UNL A   1      51.739  26.209  25.200  1.00  0.00     0.200 A 
ATOM     88  F   UNL A   1      52.332  25.460  27.359  1.00  0.00    -0.200 F 
ATOM     89  F   UNL A   1      52.978  25.956  24.755  1.00  0.00    -0.200 F 
ENDBRANCH  55  79
BRANCH  67  90
ATOM     90  C   UNL A   1      46.084  32.327  28.932  1.00  0.00     0.064 A 
ATOM     91  C   UNL A   1      46.662  32.588  30.183  1.00  0.00     0.173 A 
ATOM     92  C   UNL A   1      46.044  33.368  27.992  1.00  0.00     0.173 A 
ATOM     93  F   UNL A   1      46.708  31.629  31.119  1.00  0.00    -0.203 F 
ATOM     94  C   UNL A   1      47.165  33.850  30.486  1.00  0.00     0.198 A 
ATOM     95  C   UNL A   1      46.573  34.621  28.290  1.00  0.00     0.198 A 
ATOM     96  F   UNL A   1      45.507  33.165  26.780  1.00  0.00    -0.203 F 
ATOM     97  F   UNL A   1      47.677  34.090  31.701  1.00  0.00    -0.200 F 
ATOM     98  C   UNL A   1      47.127  34.863  29.538  1.00  0.00     0.200 A 
ATOM     99  F   UNL A   1      46.545  35.594  27.370  1.00  0.00    -0.200 F 
ATOM    100  F   UNL A   1      47.619  36.074  29.830  1.00  0.00    -0.200 F 
ENDBRANCH  67  90
ENDBRANCH  41  42
ENDBRANCH  33  36
ENDBRANCH  31  32
ENDBRANCH  30  31
ENDBRANCH  29  30
ENDBRANCH   1  29
TORSDOF 15
ENDMDL
