MODEL 1
REMARK VINA RESULT:     -12.7      0.000      0.000
REMARK SMILES Cc1ccc(F)c(O[C@H]2CC[C@]([NH2+]C(C)C)(C(=O)NCCCCNC(=O)c3ccc(-c4c5nc(c(-c6c(F)c(F)c(F)c(F)c6F)c6ccc([nH]6)c(-c6c(F)c(F)c(F)c(F)c6F)c6nc(c(-c7c(F)c(F)c(F)c(F)c7F)c7ccc4[nH]7)C=C6)C=C5)cc3)C2)c1
REMARK SMILES IDX 21 1 20 2 19 3 17 4 18 5 12 7 9 8 10 9 90 10 11 11 8 12 7 13
REMARK SMILES IDX 1 14 2 15 3 16 91 17 4 18 5 19 6 20 13 21 14 24 15 25 16 26
REMARK SMILES IDX 22 27 23 28 24 29 25 30 26 32 27 33 28 34 89 35 29 36 88 37
REMARK SMILES IDX 30 38 31 39 32 40 82 41 33 42 87 43 81 44 83 45 34 46 86 47
REMARK SMILES IDX 80 48 79 49 35 51 67 52 47 53 66 54 48 55 51 56 65 57 84 58
REMARK SMILES IDX 49 59 50 60 64 62 85 63 52 64 36 65 37 66 45 67 38 68 39 69
REMARK SMILES IDX 43 70 46 71 40 72 41 73 44 74 42 75 68 76 69 77 77 78 70 79
REMARK SMILES IDX 71 80 75 81 78 82 72 83 73 84 76 85 74 86 53 87 54 88 62 89
REMARK SMILES IDX 55 90 56 91 60 92 63 93 57 94 58 95 61 96 59 97
REMARK H PARENT 19 6 13 22 13 23 24 31 83 50 51 61
REMARK Flexibility Score: inf
ROOT
ATOM      1  C   UNL A   1      35.399  22.740  26.349  1.00  0.00     0.023 C 
ENDROOT
BRANCH   1   2
ATOM      2  C   UNL A   1      34.111  22.933  27.152  1.00  0.00     0.116 C 
BRANCH   2   3
ATOM      3  N   UNL A   1      32.969  22.314  26.514  1.00  0.00    -0.351 N 
ATOM      4  C   UNL A   1      31.938  22.826  25.776  1.00  0.00     0.281 C 
ATOM      5  O   UNL A   1      31.048  22.007  25.525  1.00  0.00    -0.268 OA
ATOM      6  H   UNL A   1      32.926  21.338  26.634  1.00  0.00     0.163 HD
BRANCH   4   7
ATOM      7  C   UNL A   1      31.913  24.320  25.296  1.00  0.00     0.179 C 
ATOM      8  C   UNL A   1      30.904  26.462  25.929  1.00  0.00     0.180 C 
ATOM      9  C   UNL A   1      29.879  25.736  25.063  1.00  0.00     0.052 C 
ATOM     10  C   UNL A   1      31.789  25.333  26.458  1.00  0.00     0.124 C 
ATOM     11  C   UNL A   1      30.642  24.575  24.433  1.00  0.00     0.083 C 
BRANCH   8  12
ATOM     12  O   UNL A   1      31.740  27.319  25.148  1.00  0.00    -0.487 OA
BRANCH  12  13
ATOM     13  C   UNL A   1      32.388  28.341  25.782  1.00  0.00     0.155 A 
ATOM     14  C   UNL A   1      31.331  31.911  26.589  1.00  0.00     0.044 C 
ATOM     15  C   UNL A   1      32.140  30.651  26.511  1.00  0.00    -0.047 A 
ATOM     16  C   UNL A   1      33.405  30.592  27.106  1.00  0.00     0.007 A 
ATOM     17  C   UNL A   1      31.639  29.519  25.857  1.00  0.00     0.053 A 
ATOM     18  C   UNL A   1      34.165  29.428  27.022  1.00  0.00     0.043 A 
ATOM     19  C   UNL A   1      33.661  28.316  26.355  1.00  0.00     0.165 A 
ATOM     20  F   UNL A   1      34.437  27.223  26.306  1.00  0.00    -0.203 F 
ENDBRANCH  12  13
ENDBRANCH   8  12
BRANCH   7  21
ATOM     21  N   UNL A   1      33.023  24.664  24.365  1.00  0.00    -0.332 N 
ATOM     22  H   UNL A   1      33.801  24.049  24.606  1.00  0.00     0.347 HD
ATOM     23  H   UNL A   1      33.127  25.669  24.513  1.00  0.00     0.347 HD
BRANCH  21  24
ATOM     24  C   UNL A   1      32.863  24.577  22.913  1.00  0.00     0.176 C 
ATOM     25  C   UNL A   1      33.577  25.808  22.339  1.00  0.00     0.075 C 
ATOM     26  C   UNL A   1      33.452  23.320  22.278  1.00  0.00     0.075 C 
ENDBRANCH  21  24
ENDBRANCH   7  21
ENDBRANCH   4   7
ENDBRANCH   2   3
ENDBRANCH   1   2
BRANCH   1  27
ATOM     27  C   UNL A   1      36.188  24.022  26.079  1.00  0.00     0.023 C 
BRANCH  27  28
ATOM     28  C   UNL A   1      37.383  23.786  25.183  1.00  0.00     0.116 C 
BRANCH  28  29
ATOM     29  N   UNL A   1      38.279  22.768  25.738  1.00  0.00    -0.352 N 
ATOM     30  C   UNL A   1      39.527  22.974  26.292  1.00  0.00     0.251 C 
ATOM     31  H   UNL A   1      37.957  21.838  25.714  1.00  0.00     0.163 HD
ATOM     32  O   UNL A   1      40.358  22.090  26.368  1.00  0.00    -0.269 OA
BRANCH  30  33
ATOM     33  C   UNL A   1      39.781  24.308  26.842  1.00  0.00     0.039 A 
ATOM     34  C   UNL A   1      40.365  25.339  26.097  1.00  0.00     0.014 A 
ATOM     35  C   UNL A   1      39.393  24.489  28.164  1.00  0.00     0.014 A 
ATOM     36  C   UNL A   1      40.539  26.578  26.703  1.00  0.00     0.010 A 
ATOM     37  C   UNL A   1      39.343  25.744  28.666  1.00  0.00     0.010 A 
ATOM     38  C   UNL A   1      40.028  26.751  27.989  1.00  0.00    -0.014 A 
BRANCH  38  39
ATOM     39  C   UNL A   1      40.196  27.923  28.815  1.00  0.00     0.031 A 
ATOM     40  C   UNL A   1      39.221  29.002  28.732  1.00  0.00     0.074 A 
ATOM     41  C   UNL A   1      41.132  27.787  29.782  1.00  0.00     0.049 A 
ATOM     42  N   UNL A   1      39.470  30.212  29.069  1.00  0.00    -0.248 NA
ATOM     43  C   UNL A   1      37.867  28.809  28.220  1.00  0.00     0.031 C 
ATOM     44  C   UNL A   1      41.349  28.515  31.017  1.00  0.00     0.029 A 
ATOM     45  N   UNL A   1      42.198  26.868  29.750  1.00  0.00    -0.354 N 
ATOM     46  C   UNL A   1      38.251  30.838  29.202  1.00  0.00     0.074 A 
ATOM     47  C   UNL A   1      37.320  30.002  28.482  1.00  0.00     0.031 C 
ATOM     48  C   UNL A   1      42.606  28.266  31.439  1.00  0.00     0.029 A 
ATOM     49  C   UNL A   1      43.272  27.495  30.397  1.00  0.00     0.049 A 
ATOM     50  H   UNL A   1      42.190  25.968  29.354  1.00  0.00     0.167 HD
ATOM     51  C   UNL A   1      38.157  31.866  30.095  1.00  0.00     0.037 A 
ATOM     52  C   UNL A   1      44.311  27.910  29.607  1.00  0.00     0.037 A 
ATOM     53  C   UNL A   1      39.452  32.056  30.766  1.00  0.00     0.049 A 
ATOM     54  C   UNL A   1      44.378  29.419  29.499  1.00  0.00     0.074 A 
ATOM     55  C   UNL A   1      39.960  31.667  31.995  1.00  0.00     0.029 A 
ATOM     56  N   UNL A   1      40.553  32.384  29.997  1.00  0.00    -0.354 N 
ATOM     57  N   UNL A   1      43.450  30.229  29.931  1.00  0.00    -0.248 NA
ATOM     58  C   UNL A   1      45.467  30.129  28.844  1.00  0.00     0.031 C 
ATOM     59  C   UNL A   1      41.384  31.785  31.947  1.00  0.00     0.029 A 
ATOM     60  C   UNL A   1      41.737  32.254  30.695  1.00  0.00     0.049 A 
ATOM     61  H   UNL A   1      40.498  32.676  29.059  1.00  0.00     0.167 HD
ATOM     62  C   UNL A   1      43.777  31.522  29.641  1.00  0.00     0.074 A 
ATOM     63  C   UNL A   1      45.036  31.402  28.921  1.00  0.00     0.031 C 
ATOM     64  C   UNL A   1      42.979  32.576  30.004  1.00  0.00     0.037 A 
BRANCH  51  65
ATOM     65  C   UNL A   1      36.876  32.511  30.580  1.00  0.00     0.064 A 
ATOM     66  C   UNL A   1      36.186  33.425  29.751  1.00  0.00     0.173 A 
ATOM     67  C   UNL A   1      36.264  32.281  31.828  1.00  0.00     0.173 A 
ATOM     68  F   UNL A   1      36.588  33.678  28.499  1.00  0.00    -0.203 F 
ATOM     69  C   UNL A   1      35.042  34.110  30.168  1.00  0.00     0.198 A 
ATOM     70  C   UNL A   1      35.139  32.995  32.260  1.00  0.00     0.198 A 
ATOM     71  F   UNL A   1      36.685  31.318  32.652  1.00  0.00    -0.203 F 
ATOM     72  F   UNL A   1      34.440  34.965  29.329  1.00  0.00    -0.200 F 
ATOM     73  C   UNL A   1      34.531  33.914  31.432  1.00  0.00     0.200 A 
ATOM     74  F   UNL A   1      34.640  32.771  33.485  1.00  0.00    -0.200 F 
ATOM     75  F   UNL A   1      33.442  34.581  31.838  1.00  0.00    -0.200 F 
ENDBRANCH  51  65
BRANCH  52  76
ATOM     76  C   UNL A   1      44.552  26.935  28.483  1.00  0.00     0.064 A 
ATOM     77  C   UNL A   1      44.210  27.358  27.178  1.00  0.00     0.173 A 
ATOM     78  C   UNL A   1      45.518  25.923  28.591  1.00  0.00     0.173 A 
ATOM     79  F   UNL A   1      43.280  28.312  27.007  1.00  0.00    -0.203 F 
ATOM     80  C   UNL A   1      44.940  26.944  26.065  1.00  0.00     0.198 A 
ATOM     81  C   UNL A   1      46.217  25.477  27.464  1.00  0.00     0.198 A 
ATOM     82  F   UNL A   1      45.879  25.455  29.794  1.00  0.00    -0.203 F 
ATOM     83  F   UNL A   1      44.716  27.510  24.869  1.00  0.00    -0.200 F 
ATOM     84  C   UNL A   1      45.966  26.029  26.215  1.00  0.00     0.200 A 
ATOM     85  F   UNL A   1      47.200  24.576  27.604  1.00  0.00    -0.200 F 
ATOM     86  F   UNL A   1      46.738  25.712  25.166  1.00  0.00    -0.200 F 
ENDBRANCH  52  76
BRANCH  64  87
ATOM     87  C   UNL A   1      43.276  34.022  29.681  1.00  0.00     0.064 A 
ATOM     88  C   UNL A   1      43.394  34.501  28.371  1.00  0.00     0.173 A 
ATOM     89  C   UNL A   1      43.520  34.983  30.695  1.00  0.00     0.173 A 
ATOM     90  F   UNL A   1      43.387  33.664  27.324  1.00  0.00    -0.203 F 
ATOM     91  C   UNL A   1      43.568  35.860  28.097  1.00  0.00     0.198 A 
ATOM     92  C   UNL A   1      43.752  36.326  30.421  1.00  0.00     0.198 A 
ATOM     93  F   UNL A   1      43.536  34.675  31.997  1.00  0.00    -0.203 F 
ATOM     94  F   UNL A   1      43.576  36.281  26.825  1.00  0.00    -0.200 F 
ATOM     95  C   UNL A   1      43.735  36.773  29.120  1.00  0.00     0.200 A 
ATOM     96  F   UNL A   1      43.975  37.177  31.431  1.00  0.00    -0.200 F 
ATOM     97  F   UNL A   1      43.896  38.075  28.857  1.00  0.00    -0.200 F 
ENDBRANCH  64  87
ENDBRANCH  38  39
ENDBRANCH  30  33
ENDBRANCH  28  29
ENDBRANCH  27  28
ENDBRANCH   1  27
TORSDOF 15
ENDMDL
MODEL 2
REMARK VINA RESULT:     -12.4      3.117      9.282
REMARK SMILES Cc1ccc(F)c(O[C@H]2CC[C@]([NH2+]C(C)C)(C(=O)NCCCCNC(=O)c3ccc(-c4c5nc(c(-c6c(F)c(F)c(F)c(F)c6F)c6ccc([nH]6)c(-c6c(F)c(F)c(F)c(F)c6F)c6nc(c(-c7c(F)c(F)c(F)c(F)c7F)c7ccc4[nH]7)C=C6)C=C5)cc3)C2)c1
REMARK SMILES IDX 21 1 20 2 19 3 17 4 18 5 12 7 9 8 10 9 90 10 11 11 8 12 7 13
REMARK SMILES IDX 1 14 2 15 3 16 91 17 4 18 5 19 6 20 13 21 14 24 15 25 16 26
REMARK SMILES IDX 22 27 23 28 24 29 25 30 26 32 27 33 28 34 89 35 29 36 88 37
REMARK SMILES IDX 30 38 31 39 32 40 82 41 33 42 87 43 81 44 83 45 34 46 86 47
REMARK SMILES IDX 80 48 79 49 35 51 67 52 47 53 66 54 48 55 51 56 65 57 84 58
REMARK SMILES IDX 49 59 50 60 64 62 85 63 52 64 36 65 37 66 45 67 38 68 39 69
REMARK SMILES IDX 43 70 46 71 40 72 41 73 44 74 42 75 68 76 69 77 77 78 70 79
REMARK SMILES IDX 71 80 75 81 78 82 72 83 73 84 76 85 74 86 53 87 54 88 62 89
REMARK SMILES IDX 55 90 56 91 60 92 63 93 57 94 58 95 61 96 59 97
REMARK H PARENT 19 6 13 22 13 23 24 31 83 50 51 61
REMARK Flexibility Score: inf
ROOT
ATOM      1  C   UNL A   1      31.924  28.178  26.142  1.00  0.00     0.023 C 
ENDROOT
BRANCH   1   2
ATOM      2  C   UNL A   1      31.279  26.792  26.070  1.00  0.00     0.116 C 
BRANCH   2   3
ATOM      3  N   UNL A   1      31.049  26.364  24.707  1.00  0.00    -0.351 N 
ATOM      4  C   UNL A   1      31.661  25.427  23.921  1.00  0.00     0.281 C 
ATOM      5  O   UNL A   1      31.296  25.448  22.742  1.00  0.00    -0.268 OA
ATOM      6  H   UNL A   1      30.312  26.840  24.259  1.00  0.00     0.163 HD
BRANCH   4   7
ATOM      7  C   UNL A   1      32.723  24.422  24.492  1.00  0.00     0.179 C 
ATOM      8  C   UNL A   1      35.137  24.294  24.896  1.00  0.00     0.180 C 
ATOM      9  C   UNL A   1      34.916  23.879  23.445  1.00  0.00     0.052 C 
ATOM     10  C   UNL A   1      33.892  25.118  25.226  1.00  0.00     0.124 C 
ATOM     11  C   UNL A   1      33.411  23.661  23.319  1.00  0.00     0.083 C 
BRANCH   8  12
ATOM     12  O   UNL A   1      35.136  23.165  25.773  1.00  0.00    -0.487 OA
BRANCH  12  13
ATOM     13  C   UNL A   1      36.001  22.142  25.508  1.00  0.00     0.155 A 
ATOM     14  C   UNL A   1      35.420  18.480  24.632  1.00  0.00     0.044 C 
ATOM     15  C   UNL A   1      36.107  19.783  24.914  1.00  0.00    -0.047 A 
ATOM     16  C   UNL A   1      37.501  19.872  24.838  1.00  0.00     0.007 A 
ATOM     17  C   UNL A   1      35.366  20.924  25.245  1.00  0.00     0.053 A 
ATOM     18  C   UNL A   1      38.143  21.077  25.115  1.00  0.00     0.043 A 
ATOM     19  C   UNL A   1      37.395  22.199  25.457  1.00  0.00     0.165 A 
ATOM     20  F   UNL A   1      38.067  23.331  25.713  1.00  0.00    -0.203 F 
ENDBRANCH  12  13
ENDBRANCH   8  12
BRANCH   7  21
ATOM     21  N   UNL A   1      32.127  23.321  25.298  1.00  0.00    -0.332 N 
ATOM     22  H   UNL A   1      32.775  22.535  25.232  1.00  0.00     0.347 HD
ATOM     23  H   UNL A   1      31.198  23.228  24.886  1.00  0.00     0.347 HD
BRANCH  21  24
ATOM     24  C   UNL A   1      31.824  23.487  26.720  1.00  0.00     0.176 C 
ATOM     25  C   UNL A   1      30.326  23.184  26.866  1.00  0.00     0.075 C 
ATOM     26  C   UNL A   1      32.609  22.571  27.654  1.00  0.00     0.075 C 
ENDBRANCH  21  24
ENDBRANCH   7  21
ENDBRANCH   4   7
ENDBRANCH   2   3
ENDBRANCH   1   2
BRANCH   1  27
ATOM     27  C   UNL A   1      32.926  28.363  27.283  1.00  0.00     0.023 C 
BRANCH  27  28
ATOM     28  C   UNL A   1      34.226  28.977  26.814  1.00  0.00     0.116 C 
BRANCH  28  29
ATOM     29  N   UNL A   1      34.279  30.412  27.102  1.00  0.00    -0.352 N 
ATOM     30  C   UNL A   1      35.078  31.043  28.035  1.00  0.00     0.251 C 
ATOM     31  H   UNL A   1      33.681  30.990  26.574  1.00  0.00     0.163 HD
ATOM     32  O   UNL A   1      34.806  32.136  28.491  1.00  0.00    -0.269 OA
BRANCH  30  33
ATOM     33  C   UNL A   1      36.313  30.347  28.408  1.00  0.00     0.039 A 
ATOM     34  C   UNL A   1      36.453  29.633  29.602  1.00  0.00     0.014 A 
ATOM     35  C   UNL A   1      37.347  30.438  27.483  1.00  0.00     0.014 A 
ATOM     36  C   UNL A   1      37.657  28.985  29.850  1.00  0.00     0.010 A 
ATOM     37  C   UNL A   1      38.415  29.619  27.614  1.00  0.00     0.010 A 
ATOM     38  C   UNL A   1      38.624  29.001  28.845  1.00  0.00    -0.014 A 
BRANCH  38  39
ATOM     39  C   UNL A   1      39.964  28.474  28.952  1.00  0.00     0.031 A 
ATOM     40  C   UNL A   1      40.211  27.077  28.624  1.00  0.00     0.074 A 
ATOM     41  C   UNL A   1      40.917  29.420  29.116  1.00  0.00     0.049 A 
ATOM     42  N   UNL A   1      41.211  26.410  29.065  1.00  0.00    -0.248 NA
ATOM     43  C   UNL A   1      39.315  26.290  27.781  1.00  0.00     0.031 C 
ATOM     44  C   UNL A   1      42.348  29.390  28.888  1.00  0.00     0.029 A 
ATOM     45  N   UNL A   1      40.693  30.711  29.632  1.00  0.00    -0.354 N 
ATOM     46  C   UNL A   1      41.310  25.287  28.275  1.00  0.00     0.074 A 
ATOM     47  C   UNL A   1      40.019  25.161  27.641  1.00  0.00     0.031 C 
ATOM     48  C   UNL A   1      42.903  30.428  29.549  1.00  0.00     0.029 A 
ATOM     49  C   UNL A   1      41.853  31.054  30.341  1.00  0.00     0.049 A 
ATOM     50  H   UNL A   1      39.885  31.261  29.517  1.00  0.00     0.167 HD
ATOM     51  C   UNL A   1      42.548  24.743  28.093  1.00  0.00     0.037 A 
ATOM     52  C   UNL A   1      41.758  31.073  31.707  1.00  0.00     0.037 A 
ATOM     53  C   UNL A   1      43.551  25.550  28.805  1.00  0.00     0.049 A 
ATOM     54  C   UNL A   1      42.520  29.933  32.348  1.00  0.00     0.074 A 
ATOM     55  C   UNL A   1      44.448  26.529  28.411  1.00  0.00     0.029 A 
ATOM     56  N   UNL A   1      43.443  25.678  30.178  1.00  0.00    -0.354 N 
ATOM     57  N   UNL A   1      43.038  28.932  31.689  1.00  0.00    -0.248 NA
ATOM     58  C   UNL A   1      42.707  29.801  33.787  1.00  0.00     0.031 C 
ATOM     59  C   UNL A   1      44.883  27.232  29.578  1.00  0.00     0.029 A 
ATOM     60  C   UNL A   1      44.258  26.672  30.678  1.00  0.00     0.049 A 
ATOM     61  H   UNL A   1      42.850  25.122  30.734  1.00  0.00     0.167 HD
ATOM     62  C   UNL A   1      43.613  28.045  32.551  1.00  0.00     0.074 A 
ATOM     63  C   UNL A   1      43.342  28.617  33.862  1.00  0.00     0.031 C 
ATOM     64  C   UNL A   1      44.247  26.910  32.115  1.00  0.00     0.037 A 
BRANCH  51  65
ATOM     65  C   UNL A   1      42.916  23.685  27.075  1.00  0.00     0.064 A 
ATOM     66  C   UNL A   1      42.595  22.329  27.316  1.00  0.00     0.173 A 
ATOM     67  C   UNL A   1      43.570  23.917  25.850  1.00  0.00     0.173 A 
ATOM     68  F   UNL A   1      41.889  21.955  28.391  1.00  0.00    -0.203 F 
ATOM     69  C   UNL A   1      42.972  21.297  26.454  1.00  0.00     0.198 A 
ATOM     70  C   UNL A   1      43.982  22.880  25.003  1.00  0.00     0.198 A 
ATOM     71  F   UNL A   1      43.783  25.153  25.388  1.00  0.00    -0.203 F 
ATOM     72  F   UNL A   1      42.635  20.033  26.747  1.00  0.00    -0.200 F 
ATOM     73  C   UNL A   1      43.687  21.568  25.309  1.00  0.00     0.200 A 
ATOM     74  F   UNL A   1      44.655  23.167  23.880  1.00  0.00    -0.200 F 
ATOM     75  F   UNL A   1      44.062  20.577  24.489  1.00  0.00    -0.200 F 
ENDBRANCH  51  65
BRANCH  52  76
ATOM     76  C   UNL A   1      40.409  31.587  32.143  1.00  0.00     0.064 A 
ATOM     77  C   UNL A   1      39.519  30.651  32.720  1.00  0.00     0.173 A 
ATOM     78  C   UNL A   1      40.214  32.936  32.472  1.00  0.00     0.173 A 
ATOM     79  F   UNL A   1      39.642  29.345  32.431  1.00  0.00    -0.203 F 
ATOM     80  C   UNL A   1      38.628  31.022  33.725  1.00  0.00     0.198 A 
ATOM     81  C   UNL A   1      39.285  33.308  33.450  1.00  0.00     0.198 A 
ATOM     82  F   UNL A   1      41.005  33.884  31.947  1.00  0.00    -0.203 F 
ATOM     83  F   UNL A   1      37.936  30.080  34.386  1.00  0.00    -0.200 F 
ATOM     84  C   UNL A   1      38.536  32.346  34.113  1.00  0.00     0.200 A 
ATOM     85  F   UNL A   1      39.182  34.595  33.815  1.00  0.00    -0.200 F 
ATOM     86  F   UNL A   1      37.761  32.687  35.152  1.00  0.00    -0.200 F 
ENDBRANCH  52  76
BRANCH  64  87
ATOM     87  C   UNL A   1      44.873  25.878  33.025  1.00  0.00     0.064 A 
ATOM     88  C   UNL A   1      44.136  25.138  33.957  1.00  0.00     0.173 A 
ATOM     89  C   UNL A   1      46.271  25.637  33.039  1.00  0.00     0.173 A 
ATOM     90  F   UNL A   1      42.843  25.409  34.190  1.00  0.00    -0.203 F 
ATOM     91  C   UNL A   1      44.718  24.119  34.715  1.00  0.00     0.198 A 
ATOM     92  C   UNL A   1      46.859  24.663  33.837  1.00  0.00     0.198 A 
ATOM     93  F   UNL A   1      47.132  26.320  32.277  1.00  0.00    -0.203 F 
ATOM     94  F   UNL A   1      43.949  23.374  35.521  1.00  0.00    -0.200 F 
ATOM     95  C   UNL A   1      46.076  23.874  34.647  1.00  0.00     0.200 A 
ATOM     96  F   UNL A   1      48.188  24.491  33.798  1.00  0.00    -0.200 F 
ATOM     97  F   UNL A   1      46.633  22.894  35.369  1.00  0.00    -0.200 F 
ENDBRANCH  64  87
ENDBRANCH  38  39
ENDBRANCH  30  33
ENDBRANCH  28  29
ENDBRANCH  27  28
ENDBRANCH   1  27
TORSDOF 15
ENDMDL
MODEL 3
REMARK VINA RESULT:     -12.4      3.355      9.433
REMARK SMILES Cc1ccc(F)c(O[C@H]2CC[C@]([NH2+]C(C)C)(C(=O)NCCCCNC(=O)c3ccc(-c4c5nc(c(-c6c(F)c(F)c(F)c(F)c6F)c6ccc([nH]6)c(-c6c(F)c(F)c(F)c(F)c6F)c6nc(c(-c7c(F)c(F)c(F)c(F)c7F)c7ccc4[nH]7)C=C6)C=C5)cc3)C2)c1
REMARK SMILES IDX 21 1 20 2 19 3 17 4 18 5 12 7 9 8 10 9 90 10 11 11 8 12 7 13
REMARK SMILES IDX 1 14 2 15 3 16 91 17 4 18 5 19 6 20 13 21 14 24 15 25 16 26
REMARK SMILES IDX 22 27 23 28 24 29 25 30 26 32 27 33 28 34 89 35 29 36 88 37
REMARK SMILES IDX 30 38 31 39 32 40 82 41 33 42 87 43 81 44 83 45 34 46 86 47
REMARK SMILES IDX 80 48 79 49 35 51 67 52 47 53 66 54 48 55 51 56 65 57 84 58
REMARK SMILES IDX 49 59 50 60 64 62 85 63 52 64 36 65 37 66 45 67 38 68 39 69
REMARK SMILES IDX 43 70 46 71 40 72 41 73 44 74 42 75 68 76 69 77 77 78 70 79
REMARK SMILES IDX 71 80 75 81 78 82 72 83 73 84 76 85 74 86 53 87 54 88 62 89
REMARK SMILES IDX 55 90 56 91 60 92 63 93 57 94 58 95 61 96 59 97
REMARK H PARENT 19 6 13 22 13 23 24 31 83 50 51 61
REMARK Flexibility Score: inf
ROOT
ATOM      1  C   UNL A   1      32.239  27.892  26.654  1.00  0.00     0.023 C 
ENDROOT
BRANCH   1   2
ATOM      2  C   UNL A   1      32.623  26.420  26.486  1.00  0.00     0.116 C 
BRANCH   2   3
ATOM      3  N   UNL A   1      31.558  25.526  26.888  1.00  0.00    -0.351 N 
ATOM      4  C   UNL A   1      31.316  24.206  26.624  1.00  0.00     0.281 C 
ATOM      5  O   UNL A   1      30.211  23.814  27.010  1.00  0.00    -0.268 OA
ATOM      6  H   UNL A   1      30.878  25.949  27.460  1.00  0.00     0.163 HD
BRANCH   4   7
ATOM      7  C   UNL A   1      32.368  23.291  25.902  1.00  0.00     0.179 C 
ATOM      8  C   UNL A   1      33.595  21.205  26.284  1.00  0.00     0.180 C 
ATOM      9  C   UNL A   1      34.404  22.314  26.949  1.00  0.00     0.052 C 
ATOM     10  C   UNL A   1      32.183  21.787  26.210  1.00  0.00     0.124 C 
ATOM     11  C   UNL A   1      33.797  23.614  26.429  1.00  0.00     0.083 C 
BRANCH   8  12
ATOM     12  O   UNL A   1      34.024  20.972  24.941  1.00  0.00    -0.487 OA
BRANCH  12  13
ATOM     13  C   UNL A   1      33.651  19.805  24.337  1.00  0.00     0.155 A 
ATOM     14  C   UNL A   1      34.849  16.216  24.779  1.00  0.00     0.044 C 
ATOM     15  C   UNL A   1      34.080  17.408  24.296  1.00  0.00    -0.047 A 
ATOM     16  C   UNL A   1      33.055  17.248  23.356  1.00  0.00     0.007 A 
ATOM     17  C   UNL A   1      34.366  18.689  24.783  1.00  0.00     0.053 A 
ATOM     18  C   UNL A   1      32.349  18.357  22.894  1.00  0.00     0.043 A 
ATOM     19  C   UNL A   1      32.655  19.626  23.376  1.00  0.00     0.165 A 
ATOM     20  F   UNL A   1      31.942  20.655  22.895  1.00  0.00    -0.203 F 
ENDBRANCH  12  13
ENDBRANCH   8  12
BRANCH   7  21
ATOM     21  N   UNL A   1      32.483  23.557  24.442  1.00  0.00    -0.332 N 
ATOM     22  H   UNL A   1      31.689  24.148  24.194  1.00  0.00     0.347 HD
ATOM     23  H   UNL A   1      32.536  22.615  24.052  1.00  0.00     0.347 HD
BRANCH  21  24
ATOM     24  C   UNL A   1      33.668  24.198  23.869  1.00  0.00     0.176 C 
ATOM     25  C   UNL A   1      34.154  23.260  22.755  1.00  0.00     0.075 C 
ATOM     26  C   UNL A   1      33.424  25.585  23.278  1.00  0.00     0.075 C 
ENDBRANCH  21  24
ENDBRANCH   7  21
ENDBRANCH   4   7
ENDBRANCH   2   3
ENDBRANCH   1   2
BRANCH   1  27
ATOM     27  C   UNL A   1      33.101  28.877  25.863  1.00  0.00     0.023 C 
BRANCH  27  28
ATOM     28  C   UNL A   1      34.381  29.231  26.584  1.00  0.00     0.116 C 
BRANCH  28  29
ATOM     29  N   UNL A   1      34.342  30.596  27.112  1.00  0.00    -0.352 N 
ATOM     30  C   UNL A   1      35.042  31.087  28.197  1.00  0.00     0.251 C 
ATOM     31  H   UNL A   1      33.755  31.233  26.644  1.00  0.00     0.163 HD
ATOM     32  O   UNL A   1      34.685  32.076  28.807  1.00  0.00    -0.269 OA
BRANCH  30  33
ATOM     33  C   UNL A   1      36.281  30.385  28.542  1.00  0.00     0.039 A 
ATOM     34  C   UNL A   1      36.422  29.617  29.702  1.00  0.00     0.014 A 
ATOM     35  C   UNL A   1      37.318  30.526  27.627  1.00  0.00     0.014 A 
ATOM     36  C   UNL A   1      37.630  28.968  29.925  1.00  0.00     0.010 A 
ATOM     37  C   UNL A   1      38.392  29.711  27.724  1.00  0.00     0.010 A 
ATOM     38  C   UNL A   1      38.601  29.038  28.926  1.00  0.00    -0.014 A 
BRANCH  38  39
ATOM     39  C   UNL A   1      39.945  28.517  29.014  1.00  0.00     0.031 A 
ATOM     40  C   UNL A   1      40.194  27.121  28.679  1.00  0.00     0.074 A 
ATOM     41  C   UNL A   1      40.895  29.467  29.169  1.00  0.00     0.049 A 
ATOM     42  N   UNL A   1      41.203  26.458  29.105  1.00  0.00    -0.248 NA
ATOM     43  C   UNL A   1      39.291  26.333  27.846  1.00  0.00     0.031 C 
ATOM     44  C   UNL A   1      42.323  29.444  28.922  1.00  0.00     0.029 A 
ATOM     45  N   UNL A   1      40.672  30.755  29.690  1.00  0.00    -0.354 N 
ATOM     46  C   UNL A   1      41.296  25.338  28.311  1.00  0.00     0.074 A 
ATOM     47  C   UNL A   1      39.998  25.207  27.693  1.00  0.00     0.031 C 
ATOM     48  C   UNL A   1      42.883  30.482  29.578  1.00  0.00     0.029 A 
ATOM     49  C   UNL A   1      41.839  31.102  30.385  1.00  0.00     0.049 A 
ATOM     50  H   UNL A   1      39.861  31.302  29.588  1.00  0.00     0.167 HD
ATOM     51  C   UNL A   1      42.535  24.800  28.111  1.00  0.00     0.037 A 
ATOM     52  C   UNL A   1      41.762  31.117  31.753  1.00  0.00     0.037 A 
ATOM     53  C   UNL A   1      43.543  25.609  28.813  1.00  0.00     0.049 A 
ATOM     54  C   UNL A   1      42.538  29.979  32.381  1.00  0.00     0.074 A 
ATOM     55  C   UNL A   1      44.430  26.594  28.409  1.00  0.00     0.029 A 
ATOM     56  N   UNL A   1      43.452  25.733  30.187  1.00  0.00    -0.354 N 
ATOM     57  N   UNL A   1      43.052  28.982  31.712  1.00  0.00    -0.248 NA
ATOM     58  C   UNL A   1      42.745  29.843  33.816  1.00  0.00     0.031 C 
ATOM     59  C   UNL A   1      44.877  27.296  29.572  1.00  0.00     0.029 A 
ATOM     60  C   UNL A   1      44.269  26.730  30.679  1.00  0.00     0.049 A 
ATOM     61  H   UNL A   1      42.869  25.174  30.749  1.00  0.00     0.167 HD
ATOM     62  C   UNL A   1      43.643  28.095  32.564  1.00  0.00     0.074 A 
ATOM     63  C   UNL A   1      43.386  28.662  33.880  1.00  0.00     0.031 C 
ATOM     64  C   UNL A   1      44.276  26.964  32.117  1.00  0.00     0.037 A 
BRANCH  51  65
ATOM     65  C   UNL A   1      42.894  23.746  27.086  1.00  0.00     0.064 A 
ATOM     66  C   UNL A   1      42.602  22.386  27.337  1.00  0.00     0.173 A 
ATOM     67  C   UNL A   1      43.513  23.987  25.844  1.00  0.00     0.173 A 
ATOM     68  F   UNL A   1      41.930  22.002  28.430  1.00  0.00    -0.203 F 
ATOM     69  C   UNL A   1      42.975  21.358  26.466  1.00  0.00     0.198 A 
ATOM     70  C   UNL A   1      43.920  22.955  24.989  1.00  0.00     0.198 A 
ATOM     71  F   UNL A   1      43.693  25.226  25.375  1.00  0.00    -0.203 F 
ATOM     72  F   UNL A   1      42.666  20.089  26.770  1.00  0.00    -0.200 F 
ATOM     73  C   UNL A   1      43.655  21.640  25.303  1.00  0.00     0.200 A 
ATOM     74  F   UNL A   1      44.559  23.251  23.848  1.00  0.00    -0.200 F 
ATOM     75  F   UNL A   1      44.026  20.654  24.475  1.00  0.00    -0.200 F 
ENDBRANCH  51  65
BRANCH  52  76
ATOM     76  C   UNL A   1      40.417  31.623  32.208  1.00  0.00     0.064 A 
ATOM     77  C   UNL A   1      39.534  30.679  32.780  1.00  0.00     0.173 A 
ATOM     78  C   UNL A   1      40.224  32.968  32.556  1.00  0.00     0.173 A 
ATOM     79  F   UNL A   1      39.655  29.377  32.473  1.00  0.00    -0.203 F 
ATOM     80  C   UNL A   1      38.651  31.035  33.798  1.00  0.00     0.198 A 
ATOM     81  C   UNL A   1      39.303  33.326  33.547  1.00  0.00     0.198 A 
ATOM     82  F   UNL A   1      41.009  33.923  32.037  1.00  0.00    -0.203 F 
ATOM     83  F   UNL A   1      37.966  30.084  34.453  1.00  0.00    -0.200 F 
ATOM     84  C   UNL A   1      38.562  32.354  34.204  1.00  0.00     0.200 A 
ATOM     85  F   UNL A   1      39.202  34.607  33.930  1.00  0.00    -0.200 F 
ATOM     86  F   UNL A   1      37.795  32.680  35.254  1.00  0.00    -0.200 F 
ENDBRANCH  52  76
BRANCH  64  87
ATOM     87  C   UNL A   1      44.919  25.932  33.016  1.00  0.00     0.064 A 
ATOM     88  C   UNL A   1      44.196  25.182  33.951  1.00  0.00     0.173 A 
ATOM     89  C   UNL A   1      46.318  25.703  33.016  1.00  0.00     0.173 A 
ATOM     90  F   UNL A   1      42.903  25.441  34.197  1.00  0.00    -0.203 F 
ATOM     91  C   UNL A   1      44.793  24.164  34.698  1.00  0.00     0.198 A 
ATOM     92  C   UNL A   1      46.922  24.729  33.804  1.00  0.00     0.198 A 
ATOM     93  F   UNL A   1      47.167  26.397  32.249  1.00  0.00    -0.203 F 
ATOM     94  F   UNL A   1      44.038  23.408  35.507  1.00  0.00    -0.200 F 
ATOM     95  C   UNL A   1      46.152  23.930  34.616  1.00  0.00     0.200 A 
ATOM     96  F   UNL A   1      48.251  24.568  33.751  1.00  0.00    -0.200 F 
ATOM     97  F   UNL A   1      46.723  22.951  35.328  1.00  0.00    -0.200 F 
ENDBRANCH  64  87
ENDBRANCH  38  39
ENDBRANCH  30  33
ENDBRANCH  28  29
ENDBRANCH  27  28
ENDBRANCH   1  27
TORSDOF 15
ENDMDL
