MODEL 1
REMARK VINA RESULT:     -12.8      0.000      0.000
REMARK SMILES C/C(=N\[NH+]=C1\NC(=O)[C@H](CC(=O)NCCCCNC(=O)c2ccc(-c3c4nc(c(-c5c(F)c(F)c(F)c(F)c5F)c5ccc([nH]5)c(-c5c(F)c(F)c(F)c(F)c5F)c5nc(c(-c6c(F)c(F)c(F)c(F)c6F)c6ccc3[nH]6)C=C5)C=C4)cc2)S1)c1ccc([N+](=O)[O-])cc1
REMARK SMILES IDX 14 1 13 2 11 3 12 4 10 6 9 7 4 8 5 9 6 11 84 12 7 13 8 15
REMARK SMILES IDX 3 16 1 17 2 18 85 19 86 20 93 21 87 22 92 23 88 24 89 25
REMARK SMILES IDX 90 26 91 27 15 28 16 29 17 30 18 31 19 32 20 34 21 35 22 36
REMARK SMILES IDX 83 37 23 38 82 39 24 40 25 41 26 42 76 43 27 44 81 45 75 46
REMARK SMILES IDX 77 47 28 48 80 49 74 50 73 51 29 53 61 54 41 55 60 56 42 57
REMARK SMILES IDX 45 58 59 59 78 60 43 61 44 62 58 64 79 65 46 66 30 67 31 68
REMARK SMILES IDX 39 69 32 70 33 71 37 72 40 73 34 74 35 75 38 76 36 77 62 78
REMARK SMILES IDX 63 79 71 80 64 81 65 82 69 83 72 84 66 85 67 86 70 87 68 88
REMARK SMILES IDX 47 89 48 90 56 91 49 92 50 93 54 94 57 95 51 96 52 97 55 98
REMARK SMILES IDX 53 99
REMARK H PARENT 13 5 4 10 6 14 18 33 77 52 45 63
REMARK Flexibility Score: inf
ROOT
ATOM      1  C   UNL A   1      35.924  21.090  25.602  1.00  0.00     0.116 C 
ENDROOT
BRANCH   1   2
ATOM      2  N   UNL A   1      34.939  20.317  24.863  1.00  0.00    -0.356 N 
ATOM      3  C   UNL A   1      33.577  20.411  24.850  1.00  0.00     0.221 C 
ATOM      4  O   UNL A   1      32.928  19.628  24.161  1.00  0.00    -0.275 OA
ATOM      5  H   UNL A   1      35.313  19.617  24.280  1.00  0.00     0.163 HD
BRANCH   3   6
ATOM      6  C   UNL A   1      32.887  21.454  25.699  1.00  0.00     0.127 C 
BRANCH   6   7
ATOM      7  C   UNL A   1      32.810  22.785  24.967  1.00  0.00     0.183 C 
ATOM      8  N   UNL A   1      30.547  25.654  26.196  1.00  0.00    -0.142 N 
ATOM      9  C   UNL A   1      31.210  24.601  25.862  1.00  0.00     0.337 C 
ATOM     10  H   UNL A   1      29.574  25.719  26.067  1.00  0.00     0.343 HD
ATOM     11  N   UNL A   1      30.630  23.741  25.001  1.00  0.00    -0.202 N 
ATOM     12  S   UNL A   1      32.870  24.175  26.161  1.00  0.00    -0.020 SA
ATOM     13  C   UNL A   1      31.487  22.985  24.264  1.00  0.00     0.322 C 
ATOM     14  H   UNL A   1      29.653  23.665  24.911  1.00  0.00     0.316 HD
ATOM     15  O   UNL A   1      31.221  22.576  23.142  1.00  0.00    -0.246 OA
BRANCH   8  16
ATOM     16  N   UNL A   1      31.287  26.691  26.751  1.00  0.00    -0.090 NA
ATOM     17  C   UNL A   1      30.924  27.756  24.516  1.00  0.00     0.071 C 
ATOM     18  C   UNL A   1      31.406  27.732  25.966  1.00  0.00     0.088 C 
BRANCH  18  19
ATOM     19  C   UNL A   1      32.104  28.953  26.483  1.00  0.00    -0.000 A 
ATOM     20  C   UNL A   1      33.326  28.814  27.160  1.00  0.00     0.017 A 
ATOM     21  C   UNL A   1      31.547  30.231  26.333  1.00  0.00     0.017 A 
ATOM     22  C   UNL A   1      33.976  29.933  27.691  1.00  0.00     0.086 A 
ATOM     23  C   UNL A   1      32.185  31.353  26.869  1.00  0.00     0.086 A 
ATOM     24  C   UNL A   1      33.396  31.199  27.551  1.00  0.00     0.269 A 
BRANCH  24  25
ATOM     25  N   UNL A   1      34.050  32.377  28.132  1.00  0.00     0.062 N 
ATOM     26  O   UNL A   1      33.564  33.488  27.882  1.00  0.00    -0.258 OA
ATOM     27  O   UNL A   1      35.051  32.189  28.837  1.00  0.00    -0.258 OA
ENDBRANCH  24  25
ENDBRANCH  18  19
ENDBRANCH   8  16
ENDBRANCH   6   7
ENDBRANCH   3   6
ENDBRANCH   1   2
BRANCH   1  28
ATOM     28  C   UNL A   1      37.252  21.210  24.853  1.00  0.00     0.023 C 
BRANCH  28  29
ATOM     29  C   UNL A   1      38.186  20.017  25.012  1.00  0.00     0.023 C 
BRANCH  29  30
ATOM     30  C   UNL A   1      39.425  20.307  25.843  1.00  0.00     0.116 C 
BRANCH  30  31
ATOM     31  N   UNL A   1      40.314  19.156  25.945  1.00  0.00    -0.352 N 
ATOM     32  C   UNL A   1      41.676  19.125  26.128  1.00  0.00     0.251 C 
ATOM     33  H   UNL A   1      39.878  18.276  25.870  1.00  0.00     0.163 HD
ATOM     34  O   UNL A   1      42.300  18.080  26.023  1.00  0.00    -0.269 OA
BRANCH  32  35
ATOM     35  C   UNL A   1      42.378  20.388  26.427  1.00  0.00     0.039 A 
ATOM     36  C   UNL A   1      42.973  21.101  25.384  1.00  0.00     0.014 A 
ATOM     37  C   UNL A   1      42.386  20.892  27.729  1.00  0.00     0.014 A 
ATOM     38  C   UNL A   1      43.500  22.368  25.634  1.00  0.00     0.010 A 
ATOM     39  C   UNL A   1      42.827  22.187  27.959  1.00  0.00     0.010 A 
ATOM     40  C   UNL A   1      43.385  22.939  26.913  1.00  0.00    -0.014 A 
BRANCH  40  41
ATOM     41  C   UNL A   1      43.837  24.324  27.190  1.00  0.00     0.031 A 
ATOM     42  C   UNL A   1      42.853  25.343  27.685  1.00  0.00     0.074 A 
ATOM     43  C   UNL A   1      45.104  24.683  26.902  1.00  0.00     0.049 A 
ATOM     44  N   UNL A   1      43.011  26.629  27.867  1.00  0.00    -0.248 NA
ATOM     45  C   UNL A   1      41.494  24.857  27.981  1.00  0.00     0.031 C 
ATOM     46  C   UNL A   1      46.135  23.795  26.362  1.00  0.00     0.029 A 
ATOM     47  N   UNL A   1      45.733  25.897  27.006  1.00  0.00    -0.354 N 
ATOM     48  C   UNL A   1      41.772  27.105  28.272  1.00  0.00     0.074 A 
ATOM     49  C   UNL A   1      40.858  25.985  28.258  1.00  0.00     0.031 C 
ATOM     50  C   UNL A   1      47.273  24.488  26.203  1.00  0.00     0.029 A 
ATOM     51  C   UNL A   1      47.041  25.877  26.589  1.00  0.00     0.049 A 
ATOM     52  H   UNL A   1      45.289  26.707  27.347  1.00  0.00     0.167 HD
ATOM     53  C   UNL A   1      41.434  28.362  28.648  1.00  0.00     0.037 A 
ATOM     54  C   UNL A   1      47.947  26.871  26.517  1.00  0.00     0.037 A 
ATOM     55  C   UNL A   1      42.358  29.463  28.698  1.00  0.00     0.049 A 
ATOM     56  C   UNL A   1      47.547  28.257  26.944  1.00  0.00     0.074 A 
ATOM     57  C   UNL A   1      42.137  30.755  29.141  1.00  0.00     0.029 A 
ATOM     58  N   UNL A   1      43.682  29.399  28.290  1.00  0.00    -0.354 N 
ATOM     59  N   UNL A   1      46.392  28.682  27.394  1.00  0.00    -0.248 NA
ATOM     60  C   UNL A   1      48.578  29.301  26.853  1.00  0.00     0.031 C 
ATOM     61  C   UNL A   1      43.318  31.484  28.964  1.00  0.00     0.029 A 
ATOM     62  C   UNL A   1      44.285  30.635  28.450  1.00  0.00     0.049 A 
ATOM     63  H   UNL A   1      44.127  28.593  27.941  1.00  0.00     0.167 HD
ATOM     64  C   UNL A   1      46.560  30.035  27.658  1.00  0.00     0.074 A 
ATOM     65  C   UNL A   1      47.935  30.355  27.335  1.00  0.00     0.031 C 
ATOM     66  C   UNL A   1      45.657  30.931  28.122  1.00  0.00     0.037 A 
BRANCH  53  67
ATOM     67  C   UNL A   1      40.008  28.605  29.044  1.00  0.00     0.064 A 
ATOM     68  C   UNL A   1      39.557  28.365  30.351  1.00  0.00     0.173 A 
ATOM     69  C   UNL A   1      39.087  29.108  28.113  1.00  0.00     0.173 A 
ATOM     70  F   UNL A   1      40.395  27.871  31.274  1.00  0.00    -0.203 F 
ATOM     71  C   UNL A   1      38.229  28.589  30.702  1.00  0.00     0.198 A 
ATOM     72  C   UNL A   1      37.766  29.358  28.476  1.00  0.00     0.198 A 
ATOM     73  F   UNL A   1      39.467  29.357  26.851  1.00  0.00    -0.203 F 
ATOM     74  F   UNL A   1      37.808  28.302  31.942  1.00  0.00    -0.200 F 
ATOM     75  C   UNL A   1      37.336  29.091  29.767  1.00  0.00     0.200 A 
ATOM     76  F   UNL A   1      36.906  29.854  27.575  1.00  0.00    -0.200 F 
ATOM     77  F   UNL A   1      36.059  29.310  30.109  1.00  0.00    -0.200 F 
ENDBRANCH  53  67
BRANCH  54  78
ATOM     78  C   UNL A   1      49.326  26.588  26.039  1.00  0.00     0.064 A 
ATOM     79  C   UNL A   1      49.689  26.843  24.710  1.00  0.00     0.173 A 
ATOM     80  C   UNL A   1      50.303  26.060  26.895  1.00  0.00     0.173 A 
ATOM     81  F   UNL A   1      48.781  27.328  23.850  1.00  0.00    -0.203 F 
ATOM     82  C   UNL A   1      50.973  26.563  24.248  1.00  0.00     0.198 A 
ATOM     83  C   UNL A   1      51.595  25.806  26.439  1.00  0.00     0.198 A 
ATOM     84  F   UNL A   1      50.008  25.803  28.177  1.00  0.00    -0.203 F 
ATOM     85  F   UNL A   1      51.282  26.777  22.962  1.00  0.00    -0.200 F 
ATOM     86  C   UNL A   1      51.928  26.050  25.115  1.00  0.00     0.200 A 
ATOM     87  F   UNL A   1      52.518  25.322  27.282  1.00  0.00    -0.200 F 
ATOM     88  F   UNL A   1      53.163  25.785  24.671  1.00  0.00    -0.200 F 
ENDBRANCH  54  78
BRANCH  66  89
ATOM     89  C   UNL A   1      46.131  32.340  28.325  1.00  0.00     0.064 A 
ATOM     90  C   UNL A   1      46.008  33.305  27.316  1.00  0.00     0.173 A 
ATOM     91  C   UNL A   1      46.669  32.738  29.557  1.00  0.00     0.173 A 
ATOM     92  F   UNL A   1      45.514  32.967  26.115  1.00  0.00    -0.203 F 
ATOM     93  C   UNL A   1      46.426  34.615  27.527  1.00  0.00     0.198 A 
ATOM     94  C   UNL A   1      47.061  34.056  29.774  1.00  0.00     0.198 A 
ATOM     95  F   UNL A   1      46.802  31.852  30.556  1.00  0.00    -0.203 F 
ATOM     96  F   UNL A   1      46.337  35.513  26.536  1.00  0.00    -0.200 F 
ATOM     97  C   UNL A   1      46.944  34.992  28.759  1.00  0.00     0.200 A 
ATOM     98  F   UNL A   1      47.549  34.420  30.968  1.00  0.00    -0.200 F 
ATOM     99  F   UNL A   1      47.337  36.257  28.962  1.00  0.00    -0.200 F 
ENDBRANCH  66  89
ENDBRANCH  40  41
ENDBRANCH  32  35
ENDBRANCH  30  31
ENDBRANCH  29  30
ENDBRANCH  28  29
ENDBRANCH   1  28
TORSDOF 15
ENDMDL
MODEL 2
REMARK VINA RESULT:     -12.8      2.215      3.325
REMARK SMILES C/C(=N\[NH+]=C1\NC(=O)[C@H](CC(=O)NCCCCNC(=O)c2ccc(-c3c4nc(c(-c5c(F)c(F)c(F)c(F)c5F)c5ccc([nH]5)c(-c5c(F)c(F)c(F)c(F)c5F)c5nc(c(-c6c(F)c(F)c(F)c(F)c6F)c6ccc3[nH]6)C=C5)C=C4)cc2)S1)c1ccc([N+](=O)[O-])cc1
REMARK SMILES IDX 14 1 13 2 11 3 12 4 10 6 9 7 4 8 5 9 6 11 84 12 7 13 8 15
REMARK SMILES IDX 3 16 1 17 2 18 85 19 86 20 93 21 87 22 92 23 88 24 89 25
REMARK SMILES IDX 90 26 91 27 15 28 16 29 17 30 18 31 19 32 20 34 21 35 22 36
REMARK SMILES IDX 83 37 23 38 82 39 24 40 25 41 26 42 76 43 27 44 81 45 75 46
REMARK SMILES IDX 77 47 28 48 80 49 74 50 73 51 29 53 61 54 41 55 60 56 42 57
REMARK SMILES IDX 45 58 59 59 78 60 43 61 44 62 58 64 79 65 46 66 30 67 31 68
REMARK SMILES IDX 39 69 32 70 33 71 37 72 40 73 34 74 35 75 38 76 36 77 62 78
REMARK SMILES IDX 63 79 71 80 64 81 65 82 69 83 72 84 66 85 67 86 70 87 68 88
REMARK SMILES IDX 47 89 48 90 56 91 49 92 50 93 54 94 57 95 51 96 52 97 55 98
REMARK SMILES IDX 53 99
REMARK H PARENT 13 5 4 10 6 14 18 33 77 52 45 63
REMARK Flexibility Score: inf
ROOT
ATOM      1  C   UNL A   1      36.142  20.969  25.022  1.00  0.00     0.116 C 
ENDROOT
BRANCH   1   2
ATOM      2  N   UNL A   1      36.717  21.827  23.998  1.00  0.00    -0.356 N 
ATOM      3  C   UNL A   1      36.351  23.077  23.592  1.00  0.00     0.221 C 
ATOM      4  O   UNL A   1      36.970  23.615  22.676  1.00  0.00    -0.275 OA
ATOM      5  H   UNL A   1      37.491  21.445  23.524  1.00  0.00     0.163 HD
BRANCH   3   6
ATOM      6  C   UNL A   1      35.181  23.770  24.251  1.00  0.00     0.127 C 
BRANCH   6   7
ATOM      7  C   UNL A   1      33.985  23.827  23.313  1.00  0.00     0.183 C 
ATOM      8  N   UNL A   1      30.689  25.553  24.321  1.00  0.00    -0.142 N 
ATOM      9  C   UNL A   1      31.818  24.961  24.134  1.00  0.00     0.337 C 
ATOM     10  H   UNL A   1      29.994  25.176  24.907  1.00  0.00     0.343 HD
ATOM     11  N   UNL A   1      31.901  23.653  24.448  1.00  0.00    -0.202 N 
ATOM     12  S   UNL A   1      33.252  25.508  23.315  1.00  0.00    -0.020 SA
ATOM     13  C   UNL A   1      32.845  22.947  23.771  1.00  0.00     0.322 C 
ATOM     14  H   UNL A   1      31.317  23.236  25.122  1.00  0.00     0.316 HD
ATOM     15  O   UNL A   1      32.735  21.755  23.520  1.00  0.00    -0.246 OA
BRANCH   8  16
ATOM     16  N   UNL A   1      30.510  26.754  23.645  1.00  0.00    -0.090 NA
ATOM     17  C   UNL A   1      28.092  26.329  24.126  1.00  0.00     0.071 C 
ATOM     18  C   UNL A   1      29.267  27.162  23.616  1.00  0.00     0.088 C 
BRANCH  18  19
ATOM     19  C   UNL A   1      28.955  28.491  22.995  1.00  0.00    -0.000 A 
ATOM     20  C   UNL A   1      29.953  29.168  22.279  1.00  0.00     0.017 A 
ATOM     21  C   UNL A   1      27.694  29.086  23.143  1.00  0.00     0.017 A 
ATOM     22  C   UNL A   1      29.702  30.430  21.729  1.00  0.00     0.086 A 
ATOM     23  C   UNL A   1      27.437  30.350  22.604  1.00  0.00     0.086 A 
ATOM     24  C   UNL A   1      28.444  31.020  21.902  1.00  0.00     0.269 A 
BRANCH  24  25
ATOM     25  N   UNL A   1      28.177  32.357  21.359  1.00  0.00     0.062 N 
ATOM     26  O   UNL A   1      27.909  32.445  20.153  1.00  0.00    -0.258 OA
ATOM     27  O   UNL A   1      28.236  33.317  22.139  1.00  0.00    -0.258 OA
ENDBRANCH  24  25
ENDBRANCH  18  19
ENDBRANCH   8  16
ENDBRANCH   6   7
ENDBRANCH   3   6
ENDBRANCH   1   2
BRANCH   1  28
ATOM     28  C   UNL A   1      36.751  19.566  25.016  1.00  0.00     0.023 C 
BRANCH  28  29
ATOM     29  C   UNL A   1      38.245  19.518  24.719  1.00  0.00     0.023 C 
BRANCH  29  30
ATOM     30  C   UNL A   1      39.126  19.727  25.940  1.00  0.00     0.116 C 
BRANCH  30  31
ATOM     31  N   UNL A   1      40.352  18.941  25.887  1.00  0.00    -0.352 N 
ATOM     32  C   UNL A   1      41.656  19.357  26.024  1.00  0.00     0.251 C 
ATOM     33  H   UNL A   1      40.230  17.976  25.731  1.00  0.00     0.163 HD
ATOM     34  O   UNL A   1      42.584  18.599  25.786  1.00  0.00    -0.269 OA
BRANCH  32  35
ATOM     35  C   UNL A   1      41.915  20.749  26.438  1.00  0.00     0.039 A 
ATOM     36  C   UNL A   1      42.214  21.018  27.775  1.00  0.00     0.014 A 
ATOM     37  C   UNL A   1      41.925  21.770  25.486  1.00  0.00     0.014 A 
ATOM     38  C   UNL A   1      42.613  22.304  28.141  1.00  0.00     0.010 A 
ATOM     39  C   UNL A   1      42.408  23.024  25.833  1.00  0.00     0.010 A 
ATOM     40  C   UNL A   1      42.760  23.302  27.163  1.00  0.00    -0.014 A 
BRANCH  40  41
ATOM     41  C   UNL A   1      43.282  24.648  27.498  1.00  0.00     0.031 A 
ATOM     42  C   UNL A   1      42.358  25.687  28.064  1.00  0.00     0.074 A 
ATOM     43  C   UNL A   1      44.559  24.962  27.199  1.00  0.00     0.049 A 
ATOM     44  N   UNL A   1      42.580  26.953  28.304  1.00  0.00    -0.248 NA
ATOM     45  C   UNL A   1      40.984  25.251  28.366  1.00  0.00     0.031 C 
ATOM     46  C   UNL A   1      45.535  24.055  26.593  1.00  0.00     0.029 A 
ATOM     47  N   UNL A   1      45.247  26.139  27.348  1.00  0.00    -0.354 N 
ATOM     48  C   UNL A   1      41.375  27.466  28.760  1.00  0.00     0.074 A 
ATOM     49  C   UNL A   1      40.408  26.392  28.712  1.00  0.00     0.031 C 
ATOM     50  C   UNL A   1      46.702  24.702  26.443  1.00  0.00     0.029 A 
ATOM     51  C   UNL A   1      46.544  26.079  26.901  1.00  0.00     0.049 A 
ATOM     52  H   UNL A   1      44.849  26.951  27.738  1.00  0.00     0.167 HD
ATOM     53  C   UNL A   1      41.104  28.717  29.204  1.00  0.00     0.037 A 
ATOM     54  C   UNL A   1      47.494  27.032  26.858  1.00  0.00     0.037 A 
ATOM     55  C   UNL A   1      42.080  29.769  29.288  1.00  0.00     0.049 A 
ATOM     56  C   UNL A   1      47.169  28.412  27.360  1.00  0.00     0.074 A 
ATOM     57  C   UNL A   1      41.930  31.047  29.798  1.00  0.00     0.029 A 
ATOM     58  N   UNL A   1      43.391  29.664  28.848  1.00  0.00    -0.354 N 
ATOM     59  N   UNL A   1      46.045  28.868  27.857  1.00  0.00    -0.248 NA
ATOM     60  C   UNL A   1      48.247  29.410  27.298  1.00  0.00     0.031 C 
ATOM     61  C   UNL A   1      43.140  31.728  29.630  1.00  0.00     0.029 A 
ATOM     62  C   UNL A   1      44.056  30.862  29.054  1.00  0.00     0.049 A 
ATOM     63  H   UNL A   1      43.790  28.857  28.449  1.00  0.00     0.167 HD
ATOM     64  C   UNL A   1      46.283  30.196  28.182  1.00  0.00     0.074 A 
ATOM     65  C   UNL A   1      47.665  30.467  27.845  1.00  0.00     0.031 C 
ATOM     66  C   UNL A   1      45.433  31.110  28.710  1.00  0.00     0.037 A 
BRANCH  53  67
ATOM     67  C   UNL A   1      39.700  29.006  29.644  1.00  0.00     0.064 A 
ATOM     68  C   UNL A   1      38.728  29.469  28.743  1.00  0.00     0.173 A 
ATOM     69  C   UNL A   1      39.313  28.794  30.975  1.00  0.00     0.173 A 
ATOM     70  F   UNL A   1      39.052  29.701  27.461  1.00  0.00    -0.203 F 
ATOM     71  C   UNL A   1      37.430  29.740  29.166  1.00  0.00     0.198 A 
ATOM     72  C   UNL A   1      38.005  29.038  31.389  1.00  0.00     0.198 A 
ATOM     73  F   UNL A   1      40.201  28.350  31.876  1.00  0.00    -0.203 F 
ATOM     74  F   UNL A   1      36.534  30.233  28.299  1.00  0.00    -0.200 F 
ATOM     75  C   UNL A   1      37.068  29.518  30.486  1.00  0.00     0.200 A 
ATOM     76  F   UNL A   1      37.653  28.814  32.662  1.00  0.00    -0.200 F 
ATOM     77  F   UNL A   1      35.816  29.776  30.890  1.00  0.00    -0.200 F 
ENDBRANCH  53  67
BRANCH  54  78
ATOM     78  C   UNL A   1      48.848  26.709  26.336  1.00  0.00     0.064 A 
ATOM     79  C   UNL A   1      49.833  26.181  27.181  1.00  0.00     0.173 A 
ATOM     80  C   UNL A   1      49.185  26.920  24.991  1.00  0.00     0.173 A 
ATOM     81  F   UNL A   1      49.564  25.981  28.480  1.00  0.00    -0.203 F 
ATOM     82  C   UNL A   1      51.111  25.893  26.706  1.00  0.00     0.198 A 
ATOM     83  C   UNL A   1      50.455  26.608  24.511  1.00  0.00     0.198 A 
ATOM     84  F   UNL A   1      48.276  27.420  24.141  1.00  0.00    -0.203 F 
ATOM     85  F   UNL A   1      52.047  25.429  27.544  1.00  0.00    -0.200 F 
ATOM     86  C   UNL A   1      51.419  26.102  25.369  1.00  0.00     0.200 A 
ATOM     87  F   UNL A   1      50.745  26.798  23.216  1.00  0.00    -0.200 F 
ATOM     88  F   UNL A   1      52.646  25.821  24.912  1.00  0.00    -0.200 F 
ENDBRANCH  54  78
BRANCH  66  89
ATOM     89  C   UNL A   1      45.978  32.483  28.971  1.00  0.00     0.064 A 
ATOM     90  C   UNL A   1      46.631  32.793  30.173  1.00  0.00     0.173 A 
ATOM     91  C   UNL A   1      45.888  33.481  27.991  1.00  0.00     0.173 A 
ATOM     92  F   UNL A   1      46.726  31.875  31.147  1.00  0.00    -0.203 F 
ATOM     93  C   UNL A   1      47.157  34.063  30.391  1.00  0.00     0.198 A 
ATOM     94  C   UNL A   1      46.440  34.742  28.202  1.00  0.00     0.198 A 
ATOM     95  F   UNL A   1      45.279  33.231  26.823  1.00  0.00    -0.203 F 
ATOM     96  F   UNL A   1      47.741  34.351  31.563  1.00  0.00    -0.200 F 
ATOM     97  C   UNL A   1      47.069  35.033  29.403  1.00  0.00     0.200 A 
ATOM     98  F   UNL A   1      46.365  35.674  27.242  1.00  0.00    -0.200 F 
ATOM     99  F   UNL A   1      47.585  36.252  29.612  1.00  0.00    -0.200 F 
ENDBRANCH  66  89
ENDBRANCH  40  41
ENDBRANCH  32  35
ENDBRANCH  30  31
ENDBRANCH  29  30
ENDBRANCH  28  29
ENDBRANCH   1  28
TORSDOF 15
ENDMDL
MODEL 3
REMARK VINA RESULT:     -12.5      0.952      7.406
REMARK SMILES C/C(=N\[NH+]=C1\NC(=O)[C@H](CC(=O)NCCCCNC(=O)c2ccc(-c3c4nc(c(-c5c(F)c(F)c(F)c(F)c5F)c5ccc([nH]5)c(-c5c(F)c(F)c(F)c(F)c5F)c5nc(c(-c6c(F)c(F)c(F)c(F)c6F)c6ccc3[nH]6)C=C5)C=C4)cc2)S1)c1ccc([N+](=O)[O-])cc1
REMARK SMILES IDX 14 1 13 2 11 3 12 4 10 6 9 7 4 8 5 9 6 11 84 12 7 13 8 15
REMARK SMILES IDX 3 16 1 17 2 18 85 19 86 20 93 21 87 22 92 23 88 24 89 25
REMARK SMILES IDX 90 26 91 27 15 28 16 29 17 30 18 31 19 32 20 34 21 35 22 36
REMARK SMILES IDX 83 37 23 38 82 39 24 40 25 41 26 42 76 43 27 44 81 45 75 46
REMARK SMILES IDX 77 47 28 48 80 49 74 50 73 51 29 53 61 54 41 55 60 56 42 57
REMARK SMILES IDX 45 58 59 59 78 60 43 61 44 62 58 64 79 65 46 66 30 67 31 68
REMARK SMILES IDX 39 69 32 70 33 71 37 72 40 73 34 74 35 75 38 76 36 77 62 78
REMARK SMILES IDX 63 79 71 80 64 81 65 82 69 83 72 84 66 85 67 86 70 87 68 88
REMARK SMILES IDX 47 89 48 90 56 91 49 92 50 93 54 94 57 95 51 96 52 97 55 98
REMARK SMILES IDX 53 99
REMARK H PARENT 13 5 4 10 6 14 18 33 77 52 45 63
REMARK Flexibility Score: inf
ROOT
ATOM      1  C   UNL A   1      35.961  20.673  25.355  1.00  0.00     0.116 C 
ENDROOT
BRANCH   1   2
ATOM      2  N   UNL A   1      35.116  19.598  24.860  1.00  0.00    -0.356 N 
ATOM      3  C   UNL A   1      33.770  19.568  24.641  1.00  0.00     0.221 C 
ATOM      4  O   UNL A   1      33.250  18.529  24.238  1.00  0.00    -0.275 OA
ATOM      5  H   UNL A   1      35.590  18.761  24.650  1.00  0.00     0.163 HD
BRANCH   3   6
ATOM      6  C   UNL A   1      32.934  20.797  24.920  1.00  0.00     0.127 C 
BRANCH   6   7
ATOM      7  C   UNL A   1      33.108  21.832  23.819  1.00  0.00     0.183 C 
ATOM      8  N   UNL A   1      30.628  24.748  23.360  1.00  0.00    -0.142 N 
ATOM      9  C   UNL A   1      31.343  23.699  23.585  1.00  0.00     0.337 C 
ATOM     10  H   UNL A   1      29.743  24.693  22.935  1.00  0.00     0.343 HD
ATOM     11  N   UNL A   1      31.040  22.575  22.906  1.00  0.00    -0.202 N 
ATOM     12  S   UNL A   1      32.824  23.519  24.479  1.00  0.00    -0.020 SA
ATOM     13  C   UNL A   1      32.067  21.702  22.731  1.00  0.00     0.322 C 
ATOM     14  H   UNL A   1      30.136  22.398  22.559  1.00  0.00     0.316 HD
ATOM     15  O   UNL A   1      32.149  20.953  21.768  1.00  0.00    -0.246 OA
BRANCH   8  16
ATOM     16  N   UNL A   1      31.182  25.960  23.755  1.00  0.00    -0.090 NA
ATOM     17  C   UNL A   1      29.499  25.796  25.598  1.00  0.00     0.071 C 
ATOM     18  C   UNL A   1      30.686  26.427  24.872  1.00  0.00     0.088 C 
BRANCH  18  19
ATOM     19  C   UNL A   1      31.264  27.682  25.452  1.00  0.00    -0.000 A 
ATOM     20  C   UNL A   1      31.927  27.629  26.688  1.00  0.00     0.017 A 
ATOM     21  C   UNL A   1      31.129  28.917  24.800  1.00  0.00     0.017 A 
ATOM     22  C   UNL A   1      32.436  28.794  27.272  1.00  0.00     0.086 A 
ATOM     23  C   UNL A   1      31.627  30.086  25.381  1.00  0.00     0.086 A 
ATOM     24  C   UNL A   1      32.275  30.022  26.618  1.00  0.00     0.269 A 
BRANCH  24  25
ATOM     25  N   UNL A   1      32.775  31.256  27.235  1.00  0.00     0.062 N 
ATOM     26  O   UNL A   1      32.109  32.288  27.080  1.00  0.00    -0.258 OA
ATOM     27  O   UNL A   1      33.836  31.191  27.872  1.00  0.00    -0.258 OA
ENDBRANCH  24  25
ENDBRANCH  18  19
ENDBRANCH   8  16
ENDBRANCH   6   7
ENDBRANCH   3   6
ENDBRANCH   1   2
BRANCH   1  28
ATOM     28  C   UNL A   1      37.339  20.684  24.691  1.00  0.00     0.023 C 
BRANCH  28  29
ATOM     29  C   UNL A   1      38.268  19.557  25.129  1.00  0.00     0.023 C 
BRANCH  29  30
ATOM     30  C   UNL A   1      39.545  20.035  25.803  1.00  0.00     0.116 C 
BRANCH  30  31
ATOM     31  N   UNL A   1      40.546  18.982  25.914  1.00  0.00    -0.352 N 
ATOM     32  C   UNL A   1      41.907  19.093  26.082  1.00  0.00     0.251 C 
ATOM     33  H   UNL A   1      40.201  18.061  25.860  1.00  0.00     0.163 HD
ATOM     34  O   UNL A   1      42.632  18.115  25.989  1.00  0.00    -0.269 OA
BRANCH  32  35
ATOM     35  C   UNL A   1      42.480  20.426  26.351  1.00  0.00     0.039 A 
ATOM     36  C   UNL A   1      42.981  21.179  25.288  1.00  0.00     0.014 A 
ATOM     37  C   UNL A   1      42.456  20.949  27.646  1.00  0.00     0.014 A 
ATOM     38  C   UNL A   1      43.379  22.498  25.511  1.00  0.00     0.010 A 
ATOM     39  C   UNL A   1      42.765  22.286  27.849  1.00  0.00     0.010 A 
ATOM     40  C   UNL A   1      43.227  23.074  26.783  1.00  0.00    -0.014 A 
BRANCH  40  41
ATOM     41  C   UNL A   1      43.538  24.502  27.032  1.00  0.00     0.031 A 
ATOM     42  C   UNL A   1      44.933  25.010  26.809  1.00  0.00     0.074 A 
ATOM     43  C   UNL A   1      42.593  25.310  27.552  1.00  0.00     0.049 A 
ATOM     44  N   UNL A   1      45.443  26.182  27.085  1.00  0.00    -0.248 NA
ATOM     45  C   UNL A   1      45.896  24.057  26.230  1.00  0.00     0.031 C 
ATOM     46  C   UNL A   1      41.219  24.916  27.866  1.00  0.00     0.029 A 
ATOM     47  N   UNL A   1      42.653  26.629  27.925  1.00  0.00    -0.354 N 
ATOM     48  C   UNL A   1      46.784  26.099  26.738  1.00  0.00     0.074 A 
ATOM     49  C   UNL A   1      47.025  24.748  26.283  1.00  0.00     0.031 C 
ATOM     50  C   UNL A   1      40.560  25.974  28.363  1.00  0.00     0.029 A 
ATOM     51  C   UNL A   1      41.476  27.109  28.443  1.00  0.00     0.049 A 
ATOM     52  H   UNL A   1      43.464  27.179  27.831  1.00  0.00     0.167 HD
ATOM     53  C   UNL A   1      47.725  27.073  26.772  1.00  0.00     0.037 A 
ATOM     54  C   UNL A   1      41.173  28.325  28.935  1.00  0.00     0.037 A 
ATOM     55  C   UNL A   1      47.470  28.425  27.187  1.00  0.00     0.049 A 
ATOM     56  C   UNL A   1      42.236  29.389  28.958  1.00  0.00     0.074 A 
ATOM     57  C   UNL A   1      48.333  29.507  27.182  1.00  0.00     0.029 A 
ATOM     58  N   UNL A   1      46.257  28.881  27.683  1.00  0.00    -0.354 N 
ATOM     59  N   UNL A   1      43.483  29.321  28.560  1.00  0.00    -0.248 NA
ATOM     60  C   UNL A   1      41.848  30.700  29.497  1.00  0.00     0.031 C 
ATOM     61  C   UNL A   1      47.653  30.609  27.713  1.00  0.00     0.029 A 
ATOM     62  C   UNL A   1      46.355  30.224  28.009  1.00  0.00     0.049 A 
ATOM     63  H   UNL A   1      45.447  28.331  27.787  1.00  0.00     0.167 HD
ATOM     64  C   UNL A   1      44.023  30.581  28.783  1.00  0.00     0.074 A 
ATOM     65  C   UNL A   1      42.962  31.398  29.333  1.00  0.00     0.031 C 
ATOM     66  C   UNL A   1      45.285  31.019  28.555  1.00  0.00     0.037 A 
BRANCH  53  67
ATOM     67  C   UNL A   1      49.113  26.707  26.336  1.00  0.00     0.064 A 
ATOM     68  C   UNL A   1      49.541  26.892  25.013  1.00  0.00     0.173 A 
ATOM     69  C   UNL A   1      50.035  26.190  27.258  1.00  0.00     0.173 A 
ATOM     70  F   UNL A   1      48.693  27.370  24.089  1.00  0.00    -0.203 F 
ATOM     71  C   UNL A   1      50.830  26.542  24.621  1.00  0.00     0.198 A 
ATOM     72  C   UNL A   1      51.334  25.868  26.870  1.00  0.00     0.198 A 
ATOM     73  F   UNL A   1      49.678  25.997  28.536  1.00  0.00    -0.203 F 
ATOM     74  F   UNL A   1      51.199  26.678  23.339  1.00  0.00    -0.200 F 
ATOM     75  C   UNL A   1      51.727  26.038  25.550  1.00  0.00     0.200 A 
ATOM     76  F   UNL A   1      52.203  25.391  27.770  1.00  0.00    -0.200 F 
ATOM     77  F   UNL A   1      52.969  25.705  25.172  1.00  0.00    -0.200 F 
ENDBRANCH  53  67
BRANCH  54  78
ATOM     78  C   UNL A   1      39.800  28.607  29.429  1.00  0.00     0.064 A 
ATOM     79  C   UNL A   1      39.465  28.395  30.773  1.00  0.00     0.173 A 
ATOM     80  C   UNL A   1      38.800  29.092  28.574  1.00  0.00     0.173 A 
ATOM     81  F   UNL A   1      40.384  27.913  31.623  1.00  0.00    -0.203 F 
ATOM     82  C   UNL A   1      38.176  28.639  31.241  1.00  0.00     0.198 A 
ATOM     83  C   UNL A   1      37.517  29.360  29.049  1.00  0.00     0.198 A 
ATOM     84  F   UNL A   1      39.070  29.316  27.280  1.00  0.00    -0.203 F 
ATOM     85  F   UNL A   1      37.871  28.387  32.521  1.00  0.00    -0.200 F 
ATOM     86  C   UNL A   1      37.204  29.127  30.380  1.00  0.00     0.200 A 
ATOM     87  F   UNL A   1      36.584  29.844  28.217  1.00  0.00    -0.200 F 
ATOM     88  F   UNL A   1      35.966  29.365  30.831  1.00  0.00    -0.200 F 
ENDBRANCH  54  78
BRANCH  66  89
ATOM     89  C   UNL A   1      45.583  32.452  28.885  1.00  0.00     0.064 A 
ATOM     90  C   UNL A   1      46.150  32.816  30.114  1.00  0.00     0.173 A 
ATOM     91  C   UNL A   1      45.343  33.462  27.942  1.00  0.00     0.173 A 
ATOM     92  F   UNL A   1      46.382  31.886  31.053  1.00  0.00    -0.203 F 
ATOM     93  C   UNL A   1      46.447  34.146  30.396  1.00  0.00     0.198 A 
ATOM     94  C   UNL A   1      45.667  34.788  28.217  1.00  0.00     0.198 A 
ATOM     95  F   UNL A   1      44.807  33.162  26.750  1.00  0.00    -0.203 F 
ATOM     96  F   UNL A   1      46.951  34.479  31.593  1.00  0.00    -0.200 F 
ATOM     97  C   UNL A   1      46.214  35.129  29.444  1.00  0.00     0.200 A 
ATOM     98  F   UNL A   1      45.453  35.734  27.292  1.00  0.00    -0.200 F 
ATOM     99  F   UNL A   1      46.511  36.408  29.715  1.00  0.00    -0.200 F 
ENDBRANCH  66  89
ENDBRANCH  40  41
ENDBRANCH  32  35
ENDBRANCH  30  31
ENDBRANCH  29  30
ENDBRANCH  28  29
ENDBRANCH   1  28
TORSDOF 15
ENDMDL
