MODEL 1
REMARK VINA RESULT:     -10.6      0.000      0.000
REMARK SMILES O=C(NCCCCNC(=O)c1ccc(COc2cccc(Cl)c2Cl)o1)c1ccc(-c2c3nc(c(-c4c(F)c(F)c(F)c(F)c4F)c4ccc([nH]4)c(-c4c(F)c(F)c(F)c(F)c4F)c4nc(c(-c5c(F)c(F)c(F)c(F)c5F)c5ccc2[nH]5)C=C4)C=C3)cc1
REMARK SMILES IDX 6 1 5 2 4 3 3 4 1 5 2 6 26 8 27 9 88 10 28 11 87 12 29 13
REMARK SMILES IDX 30 14 31 15 81 16 32 17 86 18 80 19 82 20 33 21 85 22 79 23
REMARK SMILES IDX 78 24 34 26 66 27 46 28 65 29 47 30 50 31 64 32 83 33 48 34
REMARK SMILES IDX 49 35 63 37 84 38 51 39 35 40 36 41 44 42 37 43 38 44 42 45
REMARK SMILES IDX 45 46 39 47 40 48 43 49 41 50 67 51 68 52 76 53 69 54 70 55
REMARK SMILES IDX 74 56 77 57 71 58 72 59 75 60 73 61 52 62 53 63 61 64 54 65
REMARK SMILES IDX 55 66 59 67 62 68 56 69 57 70 60 71 58 72 7 73 8 74 9 75
REMARK SMILES IDX 10 77 11 78 12 79 25 80 13 81 14 82 15 83 16 84 17 85 18 86
REMARK SMILES IDX 23 87 19 88 21 89 24 90 20 91 22 92
REMARK H PARENT 3 7 82 25 50 36 8 76
REMARK Flexibility Score: inf
ROOT
ATOM      1  C   UNL A   1      34.232  35.009  29.127  1.00  0.00     0.023 C 
ENDROOT
BRANCH   1   2
ATOM      2  C   UNL A   1      34.598  33.563  29.447  1.00  0.00     0.023 C 
BRANCH   2   3
ATOM      3  C   UNL A   1      35.090  32.750  28.257  1.00  0.00     0.116 C 
BRANCH   3   4
ATOM      4  N   UNL A   1      34.247  31.601  27.964  1.00  0.00    -0.352 N 
ATOM      5  O   UNL A   1      33.784  29.451  27.445  1.00  0.00    -0.269 OA
ATOM      6  C   UNL A   1      34.603  30.282  27.823  1.00  0.00     0.251 C 
ATOM      7  H   UNL A   1      33.288  31.795  27.852  1.00  0.00     0.163 HD
BRANCH   6   8
ATOM      8  C   UNL A   1      35.995  29.879  28.101  1.00  0.00     0.039 A 
ATOM      9  C   UNL A   1      36.339  29.350  29.347  1.00  0.00     0.014 A 
ATOM     10  C   UNL A   1      36.968  30.062  27.115  1.00  0.00     0.014 A 
ATOM     11  C   UNL A   1      37.676  29.149  29.661  1.00  0.00     0.010 A 
ATOM     12  C   UNL A   1      38.303  29.770  27.403  1.00  0.00     0.010 A 
ATOM     13  C   UNL A   1      38.671  29.342  28.689  1.00  0.00    -0.014 A 
BRANCH  13  14
ATOM     14  C   UNL A   1      40.080  29.024  29.026  1.00  0.00     0.031 A 
ATOM     15  C   UNL A   1      40.909  29.948  29.869  1.00  0.00     0.074 A 
ATOM     16  C   UNL A   1      40.594  27.861  28.581  1.00  0.00     0.049 A 
ATOM     17  N   UNL A   1      42.150  29.808  30.267  1.00  0.00    -0.248 NA
ATOM     18  C   UNL A   1      40.273  31.194  30.319  1.00  0.00     0.031 C 
ATOM     19  C   UNL A   1      39.880  26.894  27.745  1.00  0.00     0.029 A 
ATOM     20  N   UNL A   1      41.822  27.287  28.780  1.00  0.00    -0.354 N 
ATOM     21  C   UNL A   1      42.448  30.952  30.996  1.00  0.00     0.074 A 
ATOM     22  C   UNL A   1      41.267  31.790  30.965  1.00  0.00     0.031 C 
ATOM     23  C   UNL A   1      40.664  25.826  27.543  1.00  0.00     0.029 A 
ATOM     24  C   UNL A   1      41.955  26.062  28.177  1.00  0.00     0.049 A 
ATOM     25  H   UNL A   1      42.540  27.713  29.303  1.00  0.00     0.167 HD
ATOM     26  C   UNL A   1      43.601  31.266  31.636  1.00  0.00     0.037 A 
ATOM     27  C   UNL A   1      43.007  25.225  28.125  1.00  0.00     0.037 A 
ATOM     28  C   UNL A   1      44.765  30.417  31.673  1.00  0.00     0.049 A 
ATOM     29  C   UNL A   1      44.278  25.611  28.821  1.00  0.00     0.074 A 
ATOM     30  C   UNL A   1      45.966  30.625  32.329  1.00  0.00     0.029 A 
ATOM     31  N   UNL A   1      44.875  29.197  31.021  1.00  0.00    -0.354 N 
ATOM     32  N   UNL A   1      44.535  26.679  29.535  1.00  0.00    -0.248 NA
ATOM     33  C   UNL A   1      45.404  24.678  28.702  1.00  0.00     0.031 C 
ATOM     34  C   UNL A   1      46.820  29.556  32.034  1.00  0.00     0.029 A 
ATOM     35  C   UNL A   1      46.134  28.655  31.236  1.00  0.00     0.049 A 
ATOM     36  H   UNL A   1      44.164  28.777  30.485  1.00  0.00     0.167 HD
ATOM     37  C   UNL A   1      45.848  26.545  29.960  1.00  0.00     0.074 A 
ATOM     38  C   UNL A   1      46.326  25.278  29.443  1.00  0.00     0.031 C 
ATOM     39  C   UNL A   1      46.593  27.396  30.707  1.00  0.00     0.037 A 
BRANCH  26  40
ATOM     40  C   UNL A   1      43.671  32.594  32.334  1.00  0.00     0.064 A 
ATOM     41  C   UNL A   1      43.932  33.783  31.637  1.00  0.00     0.173 A 
ATOM     42  C   UNL A   1      43.426  32.684  33.714  1.00  0.00     0.173 A 
ATOM     43  F   UNL A   1      44.183  33.751  30.320  1.00  0.00    -0.203 F 
ATOM     44  C   UNL A   1      43.970  35.009  32.299  1.00  0.00     0.198 A 
ATOM     45  C   UNL A   1      43.438  33.914  34.367  1.00  0.00     0.198 A 
ATOM     46  F   UNL A   1      43.164  31.579  34.427  1.00  0.00    -0.203 F 
ATOM     47  F   UNL A   1      44.264  36.125  31.620  1.00  0.00    -0.200 F 
ATOM     48  C   UNL A   1      43.716  35.074  33.661  1.00  0.00     0.200 A 
ATOM     49  F   UNL A   1      43.180  33.976  35.680  1.00  0.00    -0.200 F 
ATOM     50  F   UNL A   1      43.747  36.255  34.294  1.00  0.00    -0.200 F 
ENDBRANCH  26  40
BRANCH  27  51
ATOM     51  C   UNL A   1      42.889  23.947  27.379  1.00  0.00     0.064 A 
ATOM     52  C   UNL A   1      43.234  23.868  26.024  1.00  0.00     0.173 A 
ATOM     53  C   UNL A   1      42.460  22.772  28.015  1.00  0.00     0.173 A 
ATOM     54  F   UNL A   1      43.634  24.969  25.370  1.00  0.00    -0.203 F 
ATOM     55  C   UNL A   1      43.144  22.664  25.330  1.00  0.00     0.198 A 
ATOM     56  C   UNL A   1      42.400  21.563  27.328  1.00  0.00     0.198 A 
ATOM     57  F   UNL A   1      42.128  22.794  29.315  1.00  0.00    -0.203 F 
ATOM     58  F   UNL A   1      43.447  22.623  24.025  1.00  0.00    -0.200 F 
ATOM     59  C   UNL A   1      42.736  21.511  25.983  1.00  0.00     0.200 A 
ATOM     60  F   UNL A   1      42.024  20.448  27.970  1.00  0.00    -0.200 F 
ATOM     61  F   UNL A   1      42.663  20.351  25.318  1.00  0.00    -0.200 F 
ENDBRANCH  27  51
BRANCH  39  62
ATOM     62  C   UNL A   1      47.997  26.971  31.023  1.00  0.00     0.064 A 
ATOM     63  C   UNL A   1      48.281  26.115  32.097  1.00  0.00     0.173 A 
ATOM     64  C   UNL A   1      49.068  27.411  30.230  1.00  0.00     0.173 A 
ATOM     65  F   UNL A   1      47.293  25.683  32.895  1.00  0.00    -0.203 F 
ATOM     66  C   UNL A   1      49.589  25.735  32.382  1.00  0.00     0.198 A 
ATOM     67  C   UNL A   1      50.372  27.006  30.500  1.00  0.00     0.198 A 
ATOM     68  F   UNL A   1      48.848  28.228  29.190  1.00  0.00    -0.203 F 
ATOM     69  F   UNL A   1      49.843  24.957  33.443  1.00  0.00    -0.200 F 
ATOM     70  C   UNL A   1      50.632  26.175  31.580  1.00  0.00     0.200 A 
ATOM     71  F   UNL A   1      51.377  27.423  29.719  1.00  0.00    -0.200 F 
ATOM     72  F   UNL A   1      51.891  25.806  31.855  1.00  0.00    -0.200 F 
ENDBRANCH  39  62
ENDBRANCH  13  14
ENDBRANCH   6   8
ENDBRANCH   3   4
ENDBRANCH   2   3
ENDBRANCH   1   2
BRANCH   1  73
ATOM     73  C   UNL A   1      32.900  35.471  29.706  1.00  0.00     0.116 C 
BRANCH  73  74
ATOM     74  N   UNL A   1      33.026  36.729  30.416  1.00  0.00    -0.349 N 
ATOM     75  C   UNL A   1      33.352  36.932  31.735  1.00  0.00     0.286 C 
ATOM     76  H   UNL A   1      32.857  37.541  29.885  1.00  0.00     0.163 HD
ATOM     77  O   UNL A   1      33.182  38.063  32.195  1.00  0.00    -0.266 OA
BRANCH  75  78
ATOM     78  C   UNL A   1      33.884  35.826  32.496  1.00  0.00     0.191 A 
ATOM     79  C   UNL A   1      33.346  34.610  32.882  1.00  0.00     0.057 A 
ATOM     80  O   UNL A   1      35.181  35.897  32.916  1.00  0.00    -0.452 OA
ATOM     81  C   UNL A   1      34.349  33.927  33.606  1.00  0.00     0.050 A 
ATOM     82  C   UNL A   1      35.466  34.732  33.564  1.00  0.00     0.142 A 
BRANCH  82  83
ATOM     83  C   UNL A   1      36.883  34.530  33.969  1.00  0.00     0.304 C 
BRANCH  83  84
ATOM     84  O   UNL A   1      37.600  33.920  32.878  1.00  0.00    -0.484 OA
BRANCH  84  85
ATOM     85  C   UNL A   1      38.209  32.742  33.239  1.00  0.00     0.140 A 
ATOM     86  C   UNL A   1      39.362  32.803  34.030  1.00  0.00     0.048 A 
ATOM     87  C   UNL A   1      37.640  31.506  32.914  1.00  0.00     0.101 A 
ATOM     88  C   UNL A   1      40.005  31.635  34.429  1.00  0.00     0.005 A 
ATOM     89  C   UNL A   1      38.273  30.332  33.346  1.00  0.00     0.063 A 
ATOM     90  Cl  UNL A   1      36.173  31.458  31.992  1.00  0.00    -0.079 Cl
ATOM     91  C   UNL A   1      39.460  30.400  34.087  1.00  0.00     0.022 A 
ATOM     92  Cl  UNL A   1      37.641  28.759  33.010  1.00  0.00    -0.083 Cl
ENDBRANCH  84  85
ENDBRANCH  83  84
ENDBRANCH  82  83
ENDBRANCH  75  78
ENDBRANCH  73  74
ENDBRANCH   1  73
TORSDOF 14
ENDMDL
MODEL 2
REMARK VINA RESULT:     -10.6      4.564     10.537
REMARK SMILES O=C(NCCCCNC(=O)c1ccc(COc2cccc(Cl)c2Cl)o1)c1ccc(-c2c3nc(c(-c4c(F)c(F)c(F)c(F)c4F)c4ccc([nH]4)c(-c4c(F)c(F)c(F)c(F)c4F)c4nc(c(-c5c(F)c(F)c(F)c(F)c5F)c5ccc2[nH]5)C=C4)C=C3)cc1
REMARK SMILES IDX 6 1 5 2 4 3 3 4 1 5 2 6 26 8 27 9 88 10 28 11 87 12 29 13
REMARK SMILES IDX 30 14 31 15 81 16 32 17 86 18 80 19 82 20 33 21 85 22 79 23
REMARK SMILES IDX 78 24 34 26 66 27 46 28 65 29 47 30 50 31 64 32 83 33 48 34
REMARK SMILES IDX 49 35 63 37 84 38 51 39 35 40 36 41 44 42 37 43 38 44 42 45
REMARK SMILES IDX 45 46 39 47 40 48 43 49 41 50 67 51 68 52 76 53 69 54 70 55
REMARK SMILES IDX 74 56 77 57 71 58 72 59 75 60 73 61 52 62 53 63 61 64 54 65
REMARK SMILES IDX 55 66 59 67 62 68 56 69 57 70 60 71 58 72 7 73 8 74 9 75
REMARK SMILES IDX 10 77 11 78 12 79 25 80 13 81 14 82 15 83 16 84 17 85 18 86
REMARK SMILES IDX 23 87 19 88 21 89 24 90 20 91 22 92
REMARK H PARENT 3 7 82 25 50 36 8 76
REMARK Flexibility Score: inf
ROOT
ATOM      1  C   UNL A   1      31.453  30.673  26.568  1.00  0.00     0.023 C 
ENDROOT
BRANCH   1   2
ATOM      2  C   UNL A   1      31.428  32.198  26.574  1.00  0.00     0.023 C 
BRANCH   2   3
ATOM      3  C   UNL A   1      32.651  32.855  27.197  1.00  0.00     0.116 C 
BRANCH   3   4
ATOM      4  N   UNL A   1      32.410  34.228  27.614  1.00  0.00    -0.352 N 
ATOM      5  O   UNL A   1      32.606  36.060  28.924  1.00  0.00    -0.269 OA
ATOM      6  C   UNL A   1      33.018  34.946  28.615  1.00  0.00     0.251 C 
ATOM      7  H   UNL A   1      31.717  34.710  27.108  1.00  0.00     0.163 HD
BRANCH   6   8
ATOM      8  C   UNL A   1      34.157  34.350  29.340  1.00  0.00     0.039 A 
ATOM      9  C   UNL A   1      35.463  34.557  28.892  1.00  0.00     0.014 A 
ATOM     10  C   UNL A   1      33.909  33.551  30.459  1.00  0.00     0.014 A 
ATOM     11  C   UNL A   1      36.505  33.843  29.466  1.00  0.00     0.010 A 
ATOM     12  C   UNL A   1      34.974  32.908  31.095  1.00  0.00     0.010 A 
ATOM     13  C   UNL A   1      36.275  33.023  30.583  1.00  0.00    -0.014 A 
BRANCH  13  14
ATOM     14  C   UNL A   1      37.426  32.353  31.234  1.00  0.00     0.031 A 
ATOM     15  C   UNL A   1      38.201  31.275  30.534  1.00  0.00     0.074 A 
ATOM     16  C   UNL A   1      37.784  32.757  32.468  1.00  0.00     0.049 A 
ATOM     17  N   UNL A   1      39.243  30.602  30.958  1.00  0.00    -0.248 NA
ATOM     18  C   UNL A   1      37.750  30.894  29.188  1.00  0.00     0.031 C 
ATOM     19  C   UNL A   1      37.094  33.789  33.246  1.00  0.00     0.029 A 
ATOM     20  N   UNL A   1      38.820  32.368  33.276  1.00  0.00    -0.354 N 
ATOM     21  C   UNL A   1      39.558  29.708  29.944  1.00  0.00     0.074 A 
ATOM     22  C   UNL A   1      38.583  29.905  28.891  1.00  0.00     0.031 C 
ATOM     23  C   UNL A   1      37.753  33.986  34.396  1.00  0.00     0.029 A 
ATOM     24  C   UNL A   1      38.868  33.050  34.466  1.00  0.00     0.049 A 
ATOM     25  H   UNL A   1      39.465  31.667  33.028  1.00  0.00     0.167 HD
ATOM     26  C   UNL A   1      40.574  28.811  29.897  1.00  0.00     0.037 A 
ATOM     27  C   UNL A   1      39.708  32.924  35.509  1.00  0.00     0.037 A 
ATOM     28  C   UNL A   1      41.548  28.634  30.944  1.00  0.00     0.049 A 
ATOM     29  C   UNL A   1      40.807  31.906  35.440  1.00  0.00     0.074 A 
ATOM     30  C   UNL A   1      42.639  27.783  30.974  1.00  0.00     0.029 A 
ATOM     31  N   UNL A   1      41.545  29.319  32.151  1.00  0.00    -0.354 N 
ATOM     32  N   UNL A   1      41.115  31.091  34.461  1.00  0.00    -0.248 NA
ATOM     33  C   UNL A   1      41.672  31.788  36.619  1.00  0.00     0.031 C 
ATOM     34  C   UNL A   1      43.267  27.916  32.218  1.00  0.00     0.029 A 
ATOM     35  C   UNL A   1      42.598  28.888  32.945  1.00  0.00     0.049 A 
ATOM     36  H   UNL A   1      40.891  30.008  32.407  1.00  0.00     0.167 HD
ATOM     37  C   UNL A   1      42.215  30.370  34.899  1.00  0.00     0.074 A 
ATOM     38  C   UNL A   1      42.534  30.862  36.225  1.00  0.00     0.031 C 
ATOM     39  C   UNL A   1      42.896  29.385  34.264  1.00  0.00     0.037 A 
BRANCH  26  40
ATOM     40  C   UNL A   1      40.675  27.935  28.681  1.00  0.00     0.064 A 
ATOM     41  C   UNL A   1      39.975  26.724  28.582  1.00  0.00     0.173 A 
ATOM     42  C   UNL A   1      41.446  28.338  27.579  1.00  0.00     0.173 A 
ATOM     43  F   UNL A   1      39.233  26.288  29.611  1.00  0.00    -0.203 F 
ATOM     44  C   UNL A   1      40.063  25.935  27.436  1.00  0.00     0.198 A 
ATOM     45  C   UNL A   1      41.510  27.561  26.425  1.00  0.00     0.198 A 
ATOM     46  F   UNL A   1      42.130  29.491  27.617  1.00  0.00    -0.203 F 
ATOM     47  F   UNL A   1      39.420  24.762  27.382  1.00  0.00    -0.200 F 
ATOM     48  C   UNL A   1      40.824  26.358  26.356  1.00  0.00     0.200 A 
ATOM     49  F   UNL A   1      42.236  27.977  25.378  1.00  0.00    -0.200 F 
ATOM     50  F   UNL A   1      40.903  25.601  25.253  1.00  0.00    -0.200 F 
ENDBRANCH  26  40
BRANCH  27  51
ATOM     51  C   UNL A   1      39.528  33.789  36.703  1.00  0.00     0.064 A 
ATOM     52  C   UNL A   1      38.772  33.356  37.800  1.00  0.00     0.173 A 
ATOM     53  C   UNL A   1      40.133  35.052  36.783  1.00  0.00     0.173 A 
ATOM     54  F   UNL A   1      38.161  32.162  37.762  1.00  0.00    -0.203 F 
ATOM     55  C   UNL A   1      38.620  34.158  38.927  1.00  0.00     0.198 A 
ATOM     56  C   UNL A   1      40.006  35.840  37.923  1.00  0.00     0.198 A 
ATOM     57  F   UNL A   1      40.874  35.508  35.761  1.00  0.00    -0.203 F 
ATOM     58  F   UNL A   1      37.863  33.735  39.950  1.00  0.00    -0.200 F 
ATOM     59  C   UNL A   1      39.243  35.396  38.993  1.00  0.00     0.200 A 
ATOM     60  F   UNL A   1      40.627  37.026  37.989  1.00  0.00    -0.200 F 
ATOM     61  F   UNL A   1      39.108  36.160  40.084  1.00  0.00    -0.200 F 
ENDBRANCH  27  51
BRANCH  39  62
ATOM     62  C   UNL A   1      44.065  28.790  34.992  1.00  0.00     0.064 A 
ATOM     63  C   UNL A   1      45.354  29.334  34.880  1.00  0.00     0.173 A 
ATOM     64  C   UNL A   1      43.891  27.675  35.825  1.00  0.00     0.173 A 
ATOM     65  F   UNL A   1      45.573  30.388  34.080  1.00  0.00    -0.203 F 
ATOM     66  C   UNL A   1      46.430  28.767  35.555  1.00  0.00     0.198 A 
ATOM     67  C   UNL A   1      44.965  27.128  36.522  1.00  0.00     0.198 A 
ATOM     68  F   UNL A   1      42.679  27.120  35.968  1.00  0.00    -0.203 F 
ATOM     69  F   UNL A   1      47.661  29.271  35.394  1.00  0.00    -0.200 F 
ATOM     70  C   UNL A   1      46.234  27.669  36.380  1.00  0.00     0.200 A 
ATOM     71  F   UNL A   1      44.773  26.075  37.327  1.00  0.00    -0.200 F 
ATOM     72  F   UNL A   1      47.272  27.127  37.032  1.00  0.00    -0.200 F 
ENDBRANCH  39  62
ENDBRANCH  13  14
ENDBRANCH   6   8
ENDBRANCH   3   4
ENDBRANCH   2   3
ENDBRANCH   1   2
BRANCH   1  73
ATOM     73  C   UNL A   1      31.607  30.044  25.188  1.00  0.00     0.116 C 
BRANCH  73  74
ATOM     74  N   UNL A   1      30.518  30.409  24.303  1.00  0.00    -0.349 N 
ATOM     75  C   UNL A   1      29.961  29.666  23.290  1.00  0.00     0.286 C 
ATOM     76  H   UNL A   1      30.128  31.301  24.447  1.00  0.00     0.163 HD
ATOM     77  O   UNL A   1      29.200  30.246  22.512  1.00  0.00    -0.266 OA
BRANCH  75  78
ATOM     78  C   UNL A   1      30.281  28.261  23.203  1.00  0.00     0.191 A 
ATOM     79  C   UNL A   1      29.725  27.135  23.787  1.00  0.00     0.057 A 
ATOM     80  O   UNL A   1      31.291  27.881  22.367  1.00  0.00    -0.452 OA
ATOM     81  C   UNL A   1      30.458  26.022  23.316  1.00  0.00     0.050 A 
ATOM     82  C   UNL A   1      31.375  26.521  22.418  1.00  0.00     0.142 A 
BRANCH  82  83
ATOM     83  C   UNL A   1      32.311  25.880  21.457  1.00  0.00     0.304 C 
BRANCH  83  84
ATOM     84  O   UNL A   1      33.567  25.633  22.118  1.00  0.00    -0.484 OA
BRANCH  84  85
ATOM     85  C   UNL A   1      33.534  24.513  22.915  1.00  0.00     0.140 A 
ATOM     86  C   UNL A   1      33.331  23.268  22.308  1.00  0.00     0.048 A 
ATOM     87  C   UNL A   1      33.799  24.596  24.286  1.00  0.00     0.101 A 
ATOM     88  C   UNL A   1      33.302  22.107  23.073  1.00  0.00     0.005 A 
ATOM     89  C   UNL A   1      33.801  23.419  25.048  1.00  0.00     0.063 A 
ATOM     90  Cl  UNL A   1      34.116  26.141  25.003  1.00  0.00    -0.079 Cl
ATOM     91  C   UNL A   1      33.537  22.183  24.444  1.00  0.00     0.022 A 
ATOM     92  Cl  UNL A   1      34.132  23.414  26.746  1.00  0.00    -0.083 Cl
ENDBRANCH  84  85
ENDBRANCH  83  84
ENDBRANCH  82  83
ENDBRANCH  75  78
ENDBRANCH  73  74
ENDBRANCH   1  73
TORSDOF 14
ENDMDL
MODEL 3
REMARK VINA RESULT:     -10.6      4.452     11.511
REMARK SMILES O=C(NCCCCNC(=O)c1ccc(COc2cccc(Cl)c2Cl)o1)c1ccc(-c2c3nc(c(-c4c(F)c(F)c(F)c(F)c4F)c4ccc([nH]4)c(-c4c(F)c(F)c(F)c(F)c4F)c4nc(c(-c5c(F)c(F)c(F)c(F)c5F)c5ccc2[nH]5)C=C4)C=C3)cc1
REMARK SMILES IDX 6 1 5 2 4 3 3 4 1 5 2 6 26 8 27 9 88 10 28 11 87 12 29 13
REMARK SMILES IDX 30 14 31 15 81 16 32 17 86 18 80 19 82 20 33 21 85 22 79 23
REMARK SMILES IDX 78 24 34 26 66 27 46 28 65 29 47 30 50 31 64 32 83 33 48 34
REMARK SMILES IDX 49 35 63 37 84 38 51 39 35 40 36 41 44 42 37 43 38 44 42 45
REMARK SMILES IDX 45 46 39 47 40 48 43 49 41 50 67 51 68 52 76 53 69 54 70 55
REMARK SMILES IDX 74 56 77 57 71 58 72 59 75 60 73 61 52 62 53 63 61 64 54 65
REMARK SMILES IDX 55 66 59 67 62 68 56 69 57 70 60 71 58 72 7 73 8 74 9 75
REMARK SMILES IDX 10 77 11 78 12 79 25 80 13 81 14 82 15 83 16 84 17 85 18 86
REMARK SMILES IDX 23 87 19 88 21 89 24 90 20 91 22 92
REMARK H PARENT 3 7 82 25 50 36 8 76
REMARK Flexibility Score: inf
ROOT
ATOM      1  C   UNL A   1      41.980  19.785  27.246  1.00  0.00     0.023 C 
ENDROOT
BRANCH   1   2
ATOM      2  C   UNL A   1      41.067  20.965  27.564  1.00  0.00     0.023 C 
BRANCH   2   3
ATOM      3  C   UNL A   1      41.061  22.069  26.515  1.00  0.00     0.116 C 
BRANCH   3   4
ATOM      4  N   UNL A   1      39.777  22.214  25.847  1.00  0.00    -0.352 N 
ATOM      5  O   UNL A   1      37.762  23.141  25.411  1.00  0.00    -0.269 OA
ATOM      6  C   UNL A   1      38.863  23.235  25.945  1.00  0.00     0.251 C 
ATOM      7  H   UNL A   1      39.528  21.479  25.241  1.00  0.00     0.163 HD
BRANCH   6   8
ATOM      8  C   UNL A   1      39.208  24.437  26.728  1.00  0.00     0.039 A 
ATOM      9  C   UNL A   1      39.779  25.546  26.100  1.00  0.00     0.014 A 
ATOM     10  C   UNL A   1      38.984  24.440  28.107  1.00  0.00     0.014 A 
ATOM     11  C   UNL A   1      40.269  26.592  26.870  1.00  0.00     0.010 A 
ATOM     12  C   UNL A   1      39.393  25.537  28.869  1.00  0.00     0.010 A 
ATOM     13  C   UNL A   1      40.068  26.607  28.260  1.00  0.00    -0.014 A 
BRANCH  13  14
ATOM     14  C   UNL A   1      40.514  27.786  29.040  1.00  0.00     0.031 A 
ATOM     15  C   UNL A   1      41.927  27.906  29.534  1.00  0.00     0.074 A 
ATOM     16  C   UNL A   1      39.625  28.770  29.272  1.00  0.00     0.049 A 
ATOM     17  N   UNL A   1      42.480  28.880  30.214  1.00  0.00    -0.248 NA
ATOM     18  C   UNL A   1      42.837  26.792  29.236  1.00  0.00     0.031 C 
ATOM     19  C   UNL A   1      38.223  28.752  28.848  1.00  0.00     0.029 A 
ATOM     20  N   UNL A   1      39.766  29.979  29.902  1.00  0.00    -0.354 N 
ATOM     21  C   UNL A   1      43.793  28.488  30.442  1.00  0.00     0.074 A 
ATOM     22  C   UNL A   1      43.949  27.176  29.848  1.00  0.00     0.031 C 
ATOM     23  C   UNL A   1      37.647  29.913  29.185  1.00  0.00     0.029 A 
ATOM     24  C   UNL A   1      38.617  30.729  29.907  1.00  0.00     0.049 A 
ATOM     25  H   UNL A   1      40.609  30.280  30.312  1.00  0.00     0.167 HD
ATOM     26  C   UNL A   1      44.776  29.168  31.081  1.00  0.00     0.037 A 
ATOM     27  C   UNL A   1      38.364  31.934  30.448  1.00  0.00     0.037 A 
ATOM     28  C   UNL A   1      44.614  30.480  31.655  1.00  0.00     0.049 A 
ATOM     29  C   UNL A   1      39.464  32.651  31.172  1.00  0.00     0.074 A 
ATOM     30  C   UNL A   1      45.559  31.270  32.285  1.00  0.00     0.029 A 
ATOM     31  N   UNL A   1      43.425  31.195  31.671  1.00  0.00    -0.354 N 
ATOM     32  N   UNL A   1      40.710  32.285  31.349  1.00  0.00    -0.248 NA
ATOM     33  C   UNL A   1      39.124  33.946  31.773  1.00  0.00     0.031 C 
ATOM     34  C   UNL A   1      44.931  32.440  32.727  1.00  0.00     0.029 A 
ATOM     35  C   UNL A   1      43.605  32.403  32.327  1.00  0.00     0.049 A 
ATOM     36  H   UNL A   1      42.577  30.888  31.276  1.00  0.00     0.167 HD
ATOM     37  C   UNL A   1      41.307  33.306  32.073  1.00  0.00     0.074 A 
ATOM     38  C   UNL A   1      40.291  34.318  32.280  1.00  0.00     0.031 C 
ATOM     39  C   UNL A   1      42.580  33.396  32.529  1.00  0.00     0.037 A 
BRANCH  26  40
ATOM     40  C   UNL A   1      46.114  28.498  31.214  1.00  0.00     0.064 A 
ATOM     41  C   UNL A   1      46.361  27.529  32.198  1.00  0.00     0.173 A 
ATOM     42  C   UNL A   1      47.149  28.794  30.314  1.00  0.00     0.173 A 
ATOM     43  F   UNL A   1      45.409  27.216  33.091  1.00  0.00    -0.203 F 
ATOM     44  C   UNL A   1      47.602  26.901  32.292  1.00  0.00     0.198 A 
ATOM     45  C   UNL A   1      48.379  28.146  30.393  1.00  0.00     0.198 A 
ATOM     46  F   UNL A   1      46.964  29.708  29.349  1.00  0.00    -0.203 F 
ATOM     47  F   UNL A   1      47.828  26.011  33.266  1.00  0.00    -0.200 F 
ATOM     48  C   UNL A   1      48.607  27.204  31.385  1.00  0.00     0.200 A 
ATOM     49  F   UNL A   1      49.344  28.431  29.508  1.00  0.00    -0.200 F 
ATOM     50  F   UNL A   1      49.797  26.595  31.473  1.00  0.00    -0.200 F 
ENDBRANCH  26  40
BRANCH  27  51
ATOM     51  C   UNL A   1      37.007  32.523  30.322  1.00  0.00     0.064 A 
ATOM     52  C   UNL A   1      36.051  32.354  31.331  1.00  0.00     0.173 A 
ATOM     53  C   UNL A   1      36.651  33.292  29.204  1.00  0.00     0.173 A 
ATOM     54  F   UNL A   1      36.340  31.613  32.411  1.00  0.00    -0.203 F 
ATOM     55  C   UNL A   1      34.785  32.925  31.222  1.00  0.00     0.198 A 
ATOM     56  C   UNL A   1      35.396  33.888  29.110  1.00  0.00     0.198 A 
ATOM     57  F   UNL A   1      37.536  33.491  28.215  1.00  0.00    -0.203 F 
ATOM     58  F   UNL A   1      33.876  32.720  32.186  1.00  0.00    -0.200 F 
ATOM     59  C   UNL A   1      34.461  33.698  30.117  1.00  0.00     0.200 A 
ATOM     60  F   UNL A   1      35.095  34.650  28.050  1.00  0.00    -0.200 F 
ATOM     61  F   UNL A   1      33.248  34.257  30.020  1.00  0.00    -0.200 F 
ENDBRANCH  27  51
BRANCH  39  62
ATOM     62  C   UNL A   1      42.946  34.641  33.281  1.00  0.00     0.064 A 
ATOM     63  C   UNL A   1      43.422  35.784  32.621  1.00  0.00     0.173 A 
ATOM     64  C   UNL A   1      42.800  34.698  34.675  1.00  0.00     0.173 A 
ATOM     65  F   UNL A   1      43.596  35.771  31.291  1.00  0.00    -0.203 F 
ATOM     66  C   UNL A   1      43.764  36.930  33.332  1.00  0.00     0.198 A 
ATOM     67  C   UNL A   1      43.116  35.856  35.380  1.00  0.00     0.198 A 
ATOM     68  F   UNL A   1      42.346  33.634  35.352  1.00  0.00    -0.203 F 
ATOM     69  F   UNL A   1      44.265  37.992  32.687  1.00  0.00    -0.200 F 
ATOM     70  C   UNL A   1      43.605  36.968  34.710  1.00  0.00     0.200 A 
ATOM     71  F   UNL A   1      42.951  35.895  36.709  1.00  0.00    -0.200 F 
ATOM     72  F   UNL A   1      43.932  38.073  35.392  1.00  0.00    -0.200 F 
ENDBRANCH  39  62
ENDBRANCH  13  14
ENDBRANCH   6   8
ENDBRANCH   3   4
ENDBRANCH   2   3
ENDBRANCH   1   2
BRANCH   1  73
ATOM     73  C   UNL A   1      42.597  19.816  25.852  1.00  0.00     0.116 C 
BRANCH  73  74
ATOM     74  N   UNL A   1      43.776  18.977  25.764  1.00  0.00    -0.349 N 
ATOM     75  C   UNL A   1      44.986  19.272  25.183  1.00  0.00     0.286 C 
ATOM     76  H   UNL A   1      43.701  18.085  26.173  1.00  0.00     0.163 HD
ATOM     77  O   UNL A   1      45.777  18.340  25.015  1.00  0.00    -0.266 OA
BRANCH  75  78
ATOM     78  C   UNL A   1      45.267  20.640  24.819  1.00  0.00     0.191 A 
ATOM     79  C   UNL A   1      44.908  21.411  23.726  1.00  0.00     0.057 A 
ATOM     80  O   UNL A   1      45.983  21.406  25.693  1.00  0.00    -0.452 OA
ATOM     81  C   UNL A   1      45.469  22.694  23.926  1.00  0.00     0.050 A 
ATOM     82  C   UNL A   1      46.079  22.657  25.160  1.00  0.00     0.142 A 
BRANCH  82  83
ATOM     83  C   UNL A   1      46.688  23.700  26.026  1.00  0.00     0.304 C 
BRANCH  83  84
ATOM     84  O   UNL A   1      45.682  24.211  26.923  1.00  0.00    -0.484 OA
BRANCH  84  85
ATOM     85  C   UNL A   1      45.410  25.542  26.710  1.00  0.00     0.140 A 
ATOM     86  C   UNL A   1      46.379  26.486  27.068  1.00  0.00     0.048 A 
ATOM     87  C   UNL A   1      44.239  25.943  26.058  1.00  0.00     0.101 A 
ATOM     88  C   UNL A   1      46.152  27.842  26.859  1.00  0.00     0.005 A 
ATOM     89  C   UNL A   1      44.030  27.309  25.820  1.00  0.00     0.063 A 
ATOM     90  Cl  UNL A   1      43.086  24.748  25.561  1.00  0.00    -0.079 Cl
ATOM     91  C   UNL A   1      44.977  28.253  26.236  1.00  0.00     0.022 A 
ATOM     92  Cl  UNL A   1      42.624  27.904  25.008  1.00  0.00    -0.083 Cl
ENDBRANCH  84  85
ENDBRANCH  83  84
ENDBRANCH  82  83
ENDBRANCH  75  78
ENDBRANCH  73  74
ENDBRANCH   1  73
TORSDOF 14
ENDMDL
