MODEL 1
REMARK VINA RESULT:     -13.8      0.000      0.000
REMARK SMILES COc1ccccc1[C@@H]1C[N@@H+](Cc2cc3c(cc2C)OCO3)C[C@H]1C(=O)NCCCCNC(=O)c1ccc(-c2c3nc(c(-c4c(F)c(F)c(F)c(F)c4F)c4ccc([nH]4)c(-c4c(F)c(F)c(F)c(F)c4F)c4nc(c(-c5c(F)c(F)c(F)c(F)c5F)c5ccc2[nH]5)C=C4)C=C3)cc1
REMARK SMILES IDX 29 1 28 2 27 3 25 4 26 5 24 7 9 8 10 9 11 10 23 11 8 13 3 14
REMARK SMILES IDX 4 15 5 16 7 17 6 18 2 19 1 20 12 21 13 22 14 23 18 24 15 25
REMARK SMILES IDX 17 26 19 27 16 28 22 29 20 30 21 31 30 32 31 33 32 34 33 35
REMARK SMILES IDX 34 37 35 38 36 39 97 40 37 41 96 42 38 43 39 44 40 45 90 46
REMARK SMILES IDX 41 47 95 48 89 49 91 50 42 51 94 52 88 53 87 54 43 56 75 57
REMARK SMILES IDX 55 58 74 59 56 60 59 61 73 62 92 63 57 64 58 65 72 67 93 68
REMARK SMILES IDX 60 69 44 70 45 71 53 72 46 73 47 74 51 75 54 76 48 77 49 78
REMARK SMILES IDX 52 79 50 80 76 81 77 82 85 83 78 84 79 85 83 86 86 87 80 88
REMARK SMILES IDX 81 89 84 90 82 91 61 92 62 93 70 94 63 95 64 96 68 97 71 98
REMARK SMILES IDX 65 99 66 100 69 101 67 102
REMARK H PARENT 27 6 11 12 32 36 91 55 59 66
REMARK Flexibility Score: inf
ROOT
ATOM      1  C   UNL A   1      32.248  28.083  26.807  1.00  0.00     0.023 C 
ENDROOT
BRANCH   1   2
ATOM      2  C   UNL A   1      33.644  27.771  26.195  1.00  0.00     0.116 C 
BRANCH   2   3
ATOM      3  N   UNL A   1      34.075  26.305  26.111  1.00  0.00    -0.356 N 
ATOM      4  C   UNL A   1      33.864  24.995  25.829  1.00  0.00     0.229 C 
ATOM      5  O   UNL A   1      34.982  24.422  25.897  1.00  0.00    -0.275 OA
ATOM      6  H   UNL A   1      35.003  26.321  26.438  1.00  0.00     0.163 HD
BRANCH   4   7
ATOM      7  C   UNL A   1      32.680  23.975  25.485  1.00  0.00     0.146 C 
ATOM      8  C   UNL A   1      31.992  24.062  24.090  1.00  0.00     0.096 C 
ATOM      9  C   UNL A   1      31.175  22.760  23.947  1.00  0.00     0.272 C 
ATOM     10  N   UNL A   1      31.893  21.735  24.715  1.00  0.00    -0.330 N 
ATOM     11  C   UNL A   1      32.519  22.473  25.844  1.00  0.00     0.276 C 
ATOM     12  H   UNL A   1      31.306  21.019  25.141  1.00  0.00     0.348 HD
BRANCH   8  13
ATOM     13  C   UNL A   1      31.234  25.288  23.605  1.00  0.00     0.004 A 
ATOM     14  C   UNL A   1      31.784  26.437  23.012  1.00  0.00     0.122 A 
ATOM     15  C   UNL A   1      30.987  27.569  22.773  1.00  0.00     0.047 A 
ATOM     16  C   UNL A   1      29.642  27.594  23.143  1.00  0.00     0.004 A 
ATOM     17  C   UNL A   1      29.864  25.343  23.961  1.00  0.00     0.008 A 
ATOM     18  C   UNL A   1      29.083  26.481  23.753  1.00  0.00     0.001 A 
BRANCH  14  19
ATOM     19  O   UNL A   1      33.129  26.648  22.853  1.00  0.00    -0.496 OA
ATOM     20  C   UNL A   1      33.467  27.961  22.432  1.00  0.00     0.278 C 
ENDBRANCH  14  19
ENDBRANCH   8  13
BRANCH  10  21
ATOM     21  C   UNL A   1      32.665  20.771  23.876  1.00  0.00     0.299 C 
BRANCH  21  22
ATOM     22  C   UNL A   1      33.096  19.487  24.564  1.00  0.00     0.013 A 
ATOM     23  C   UNL A   1      32.237  18.424  24.934  1.00  0.00     0.060 A 
ATOM     24  C   UNL A   1      34.457  19.261  24.618  1.00  0.00    -0.038 A 
ATOM     25  C   UNL A   1      32.789  17.157  25.070  1.00  0.00     0.166 A 
ATOM     26  C   UNL A   1      34.837  17.980  24.266  1.00  0.00     0.054 A 
ATOM     27  C   UNL A   1      35.409  20.348  25.010  1.00  0.00     0.045 C 
ATOM     28  C   UNL A   1      34.047  16.936  24.614  1.00  0.00     0.166 A 
ATOM     29  O   UNL A   1      32.233  15.994  25.500  1.00  0.00    -0.454 OA
ATOM     30  O   UNL A   1      34.428  15.638  24.596  1.00  0.00    -0.454 OA
ATOM     31  C   UNL A   1      33.383  15.106  25.423  1.00  0.00     0.468 C 
ENDBRANCH  21  22
ENDBRANCH  10  21
ENDBRANCH   4   7
ENDBRANCH   2   3
ENDBRANCH   1   2
BRANCH   1  32
ATOM     32  C   UNL A   1      31.767  29.499  27.087  1.00  0.00     0.023 C 
BRANCH  32  33
ATOM     33  C   UNL A   1      32.605  30.556  26.374  1.00  0.00     0.116 C 
BRANCH  33  34
ATOM     34  N   UNL A   1      32.573  31.902  26.976  1.00  0.00    -0.352 N 
ATOM     35  C   UNL A   1      33.529  32.635  27.661  1.00  0.00     0.251 C 
ATOM     36  H   UNL A   1      31.712  32.368  26.872  1.00  0.00     0.163 HD
ATOM     37  O   UNL A   1      33.274  33.759  28.087  1.00  0.00    -0.269 OA
BRANCH  35  38
ATOM     38  C   UNL A   1      34.844  32.030  27.943  1.00  0.00     0.039 A 
ATOM     39  C   UNL A   1      35.973  32.830  28.134  1.00  0.00     0.014 A 
ATOM     40  C   UNL A   1      34.921  30.665  28.154  1.00  0.00     0.014 A 
ATOM     41  C   UNL A   1      37.121  32.266  28.703  1.00  0.00     0.010 A 
ATOM     42  C   UNL A   1      35.954  30.169  28.921  1.00  0.00     0.010 A 
ATOM     43  C   UNL A   1      37.089  30.948  29.185  1.00  0.00    -0.014 A 
BRANCH  43  44
ATOM     44  C   UNL A   1      38.219  30.311  29.916  1.00  0.00     0.031 A 
ATOM     45  C   UNL A   1      38.443  30.666  31.369  1.00  0.00     0.074 A 
ATOM     46  C   UNL A   1      39.111  29.535  29.268  1.00  0.00     0.049 A 
ATOM     47  N   UNL A   1      39.480  30.438  32.132  1.00  0.00    -0.248 NA
ATOM     48  C   UNL A   1      37.396  31.474  32.021  1.00  0.00     0.031 C 
ATOM     49  C   UNL A   1      39.075  29.188  27.844  1.00  0.00     0.029 A 
ATOM     50  N   UNL A   1      40.240  28.902  29.728  1.00  0.00    -0.354 N 
ATOM     51  C   UNL A   1      39.235  31.139  33.307  1.00  0.00     0.074 A 
ATOM     52  C   UNL A   1      38.016  31.886  33.113  1.00  0.00     0.031 C 
ATOM     53  C   UNL A   1      40.094  28.359  27.564  1.00  0.00     0.029 A 
ATOM     54  C   UNL A   1      40.884  28.153  28.771  1.00  0.00     0.049 A 
ATOM     55  H   UNL A   1      40.557  28.977  30.657  1.00  0.00     0.167 HD
ATOM     56  C   UNL A   1      39.924  31.112  34.472  1.00  0.00     0.037 A 
ATOM     57  C   UNL A   1      41.985  27.382  28.869  1.00  0.00     0.037 A 
ATOM     58  C   UNL A   1      41.057  30.261  34.697  1.00  0.00     0.049 A 
ATOM     59  C   UNL A   1      42.681  27.285  30.202  1.00  0.00     0.074 A 
ATOM     60  C   UNL A   1      41.765  30.053  35.865  1.00  0.00     0.029 A 
ATOM     61  N   UNL A   1      41.623  29.444  33.728  1.00  0.00    -0.354 N 
ATOM     62  N   UNL A   1      42.401  27.894  31.329  1.00  0.00    -0.248 NA
ATOM     63  C   UNL A   1      43.841  26.386  30.279  1.00  0.00     0.031 C 
ATOM     64  C   UNL A   1      42.778  29.127  35.598  1.00  0.00     0.029 A 
ATOM     65  C   UNL A   1      42.675  28.730  34.272  1.00  0.00     0.049 A 
ATOM     66  H   UNL A   1      41.322  29.383  32.793  1.00  0.00     0.167 HD
ATOM     67  C   UNL A   1      43.327  27.433  32.254  1.00  0.00     0.074 A 
ATOM     68  C   UNL A   1      44.169  26.480  31.560  1.00  0.00     0.031 C 
ATOM     69  C   UNL A   1      43.477  27.770  33.559  1.00  0.00     0.037 A 
BRANCH  56  70
ATOM     70  C   UNL A   1      39.432  31.984  35.594  1.00  0.00     0.064 A 
ATOM     71  C   UNL A   1      39.888  33.303  35.760  1.00  0.00     0.173 A 
ATOM     72  C   UNL A   1      38.496  31.497  36.518  1.00  0.00     0.173 A 
ATOM     73  F   UNL A   1      40.793  33.817  34.913  1.00  0.00    -0.203 F 
ATOM     74  C   UNL A   1      39.472  34.077  36.839  1.00  0.00     0.198 A 
ATOM     75  C   UNL A   1      38.049  32.290  37.573  1.00  0.00     0.198 A 
ATOM     76  F   UNL A   1      38.019  30.248  36.405  1.00  0.00    -0.203 F 
ATOM     77  F   UNL A   1      39.987  35.301  37.020  1.00  0.00    -0.200 F 
ATOM     78  C   UNL A   1      38.547  33.574  37.741  1.00  0.00     0.200 A 
ATOM     79  F   UNL A   1      37.146  31.807  38.436  1.00  0.00    -0.200 F 
ATOM     80  F   UNL A   1      38.148  34.320  38.779  1.00  0.00    -0.200 F 
ENDBRANCH  56  70
BRANCH  57  81
ATOM     81  C   UNL A   1      42.455  26.592  27.700  1.00  0.00     0.064 A 
ATOM     82  C   UNL A   1      41.930  25.317  27.443  1.00  0.00     0.173 A 
ATOM     83  C   UNL A   1      43.430  27.083  26.819  1.00  0.00     0.173 A 
ATOM     84  F   UNL A   1      41.008  24.795  28.265  1.00  0.00    -0.203 F 
ATOM     85  C   UNL A   1      42.378  24.554  26.366  1.00  0.00     0.198 A 
ATOM     86  C   UNL A   1      43.857  26.329  25.725  1.00  0.00     0.198 A 
ATOM     87  F   UNL A   1      43.959  28.299  27.011  1.00  0.00    -0.203 F 
ATOM     88  F   UNL A   1      41.891  23.320  26.173  1.00  0.00    -0.200 F 
ATOM     89  C   UNL A   1      43.337  25.062  25.505  1.00  0.00     0.200 A 
ATOM     90  F   UNL A   1      44.774  26.830  24.886  1.00  0.00    -0.200 F 
ATOM     91  F   UNL A   1      43.766  24.330  24.467  1.00  0.00    -0.200 F 
ENDBRANCH  57  81
BRANCH  69  92
ATOM     92  C   UNL A   1      44.559  27.077  34.330  1.00  0.00     0.064 A 
ATOM     93  C   UNL A   1      45.837  27.635  34.460  1.00  0.00     0.173 A 
ATOM     94  C   UNL A   1      44.288  25.875  35.003  1.00  0.00     0.173 A 
ATOM     95  F   UNL A   1      46.144  28.776  33.825  1.00  0.00    -0.203 F 
ATOM     96  C   UNL A   1      46.815  27.003  35.224  1.00  0.00     0.198 A 
ATOM     97  C   UNL A   1      45.258  25.264  35.789  1.00  0.00     0.198 A 
ATOM     98  F   UNL A   1      43.075  25.310  34.916  1.00  0.00    -0.203 F 
ATOM     99  F   UNL A   1      48.043  27.533  35.304  1.00  0.00    -0.200 F 
ATOM    100  C   UNL A   1      46.522  25.826  35.895  1.00  0.00     0.200 A 
ATOM    101  F   UNL A   1      44.969  24.135  36.451  1.00  0.00    -0.200 F 
ATOM    102  F   UNL A   1      47.461  25.228  36.642  1.00  0.00    -0.200 F 
ENDBRANCH  69  92
ENDBRANCH  43  44
ENDBRANCH  35  38
ENDBRANCH  33  34
ENDBRANCH  32  33
ENDBRANCH   1  32
TORSDOF 15
ENDMDL
MODEL 2
REMARK VINA RESULT:     -13.6      1.827      4.884
REMARK SMILES COc1ccccc1[C@@H]1C[N@@H+](Cc2cc3c(cc2C)OCO3)C[C@H]1C(=O)NCCCCNC(=O)c1ccc(-c2c3nc(c(-c4c(F)c(F)c(F)c(F)c4F)c4ccc([nH]4)c(-c4c(F)c(F)c(F)c(F)c4F)c4nc(c(-c5c(F)c(F)c(F)c(F)c5F)c5ccc2[nH]5)C=C4)C=C3)cc1
REMARK SMILES IDX 29 1 28 2 27 3 25 4 26 5 24 7 9 8 10 9 11 10 23 11 8 13 3 14
REMARK SMILES IDX 4 15 5 16 7 17 6 18 2 19 1 20 12 21 13 22 14 23 18 24 15 25
REMARK SMILES IDX 17 26 19 27 16 28 22 29 20 30 21 31 30 32 31 33 32 34 33 35
REMARK SMILES IDX 34 37 35 38 36 39 97 40 37 41 96 42 38 43 39 44 40 45 90 46
REMARK SMILES IDX 41 47 95 48 89 49 91 50 42 51 94 52 88 53 87 54 43 56 75 57
REMARK SMILES IDX 55 58 74 59 56 60 59 61 73 62 92 63 57 64 58 65 72 67 93 68
REMARK SMILES IDX 60 69 44 70 45 71 53 72 46 73 47 74 51 75 54 76 48 77 49 78
REMARK SMILES IDX 52 79 50 80 76 81 77 82 85 83 78 84 79 85 83 86 86 87 80 88
REMARK SMILES IDX 81 89 84 90 82 91 61 92 62 93 70 94 63 95 64 96 68 97 71 98
REMARK SMILES IDX 65 99 66 100 69 101 67 102
REMARK H PARENT 27 6 11 12 32 36 91 55 59 66
REMARK Flexibility Score: inf
ROOT
ATOM      1  C   UNL A   1      31.500  29.379  26.033  1.00  0.00     0.023 C 
ENDROOT
BRANCH   1   2
ATOM      2  C   UNL A   1      32.023  28.351  27.078  1.00  0.00     0.116 C 
BRANCH   2   3
ATOM      3  N   UNL A   1      33.008  27.283  26.598  1.00  0.00    -0.356 N 
ATOM      4  C   UNL A   1      33.676  26.597  25.636  1.00  0.00     0.229 C 
ATOM      5  O   UNL A   1      34.551  25.908  26.222  1.00  0.00    -0.275 OA
ATOM      6  H   UNL A   1      33.327  26.874  27.434  1.00  0.00     0.163 HD
BRANCH   4   7
ATOM      7  C   UNL A   1      33.682  26.365  24.053  1.00  0.00     0.146 C 
ATOM      8  C   UNL A   1      33.241  24.979  23.493  1.00  0.00     0.096 C 
ATOM      9  C   UNL A   1      33.022  25.193  21.980  1.00  0.00     0.272 C 
ATOM     10  N   UNL A   1      32.595  26.589  21.818  1.00  0.00    -0.330 N 
ATOM     11  C   UNL A   1      33.295  27.330  22.901  1.00  0.00     0.276 C 
ATOM     12  H   UNL A   1      32.881  27.033  20.946  1.00  0.00     0.348 HD
BRANCH   8  13
ATOM     13  C   UNL A   1      33.969  23.680  23.804  1.00  0.00     0.004 A 
ATOM     14  C   UNL A   1      33.493  22.617  24.589  1.00  0.00     0.122 A 
ATOM     15  C   UNL A   1      34.341  21.552  24.939  1.00  0.00     0.047 A 
ATOM     16  C   UNL A   1      35.679  21.538  24.545  1.00  0.00     0.004 A 
ATOM     17  C   UNL A   1      35.330  23.631  23.413  1.00  0.00     0.008 A 
ATOM     18  C   UNL A   1      36.178  22.589  23.793  1.00  0.00     0.001 A 
BRANCH  14  19
ATOM     19  O   UNL A   1      32.300  22.636  25.263  1.00  0.00    -0.496 OA
ATOM     20  C   UNL A   1      32.417  22.932  26.647  1.00  0.00     0.278 C 
ENDBRANCH  14  19
ENDBRANCH   8  13
BRANCH  10  21
ATOM     21  C   UNL A   1      31.134  26.757  21.562  1.00  0.00     0.299 C 
BRANCH  21  22
ATOM     22  C   UNL A   1      30.441  27.855  22.350  1.00  0.00     0.013 A 
ATOM     23  C   UNL A   1      30.429  29.229  22.009  1.00  0.00     0.060 A 
ATOM     24  C   UNL A   1      29.577  27.431  23.339  1.00  0.00    -0.038 A 
ATOM     25  C   UNL A   1      29.386  30.010  22.488  1.00  0.00     0.166 A 
ATOM     26  C   UNL A   1      28.357  28.081  23.349  1.00  0.00     0.054 A 
ATOM     27  C   UNL A   1      29.960  26.339  24.290  1.00  0.00     0.045 C 
ATOM     28  C   UNL A   1      28.308  29.400  23.041  1.00  0.00     0.166 A 
ATOM     29  O   UNL A   1      29.176  31.350  22.402  1.00  0.00    -0.454 OA
ATOM     30  O   UNL A   1      27.257  30.214  23.290  1.00  0.00    -0.454 OA
ATOM     31  C   UNL A   1      27.932  31.471  23.148  1.00  0.00     0.468 C 
ENDBRANCH  21  22
ENDBRANCH  10  21
ENDBRANCH   4   7
ENDBRANCH   2   3
ENDBRANCH   1   2
BRANCH   1  32
ATOM     32  C   UNL A   1      31.656  30.882  26.204  1.00  0.00     0.023 C 
BRANCH  32  33
ATOM     33  C   UNL A   1      32.681  31.249  27.274  1.00  0.00     0.116 C 
BRANCH  33  34
ATOM     34  N   UNL A   1      32.900  32.694  27.473  1.00  0.00    -0.352 N 
ATOM     35  C   UNL A   1      34.027  33.422  27.816  1.00  0.00     0.251 C 
ATOM     36  H   UNL A   1      32.096  33.245  27.337  1.00  0.00     0.163 HD
ATOM     37  O   UNL A   1      33.975  34.645  27.934  1.00  0.00    -0.269 OA
BRANCH  35  38
ATOM     38  C   UNL A   1      35.287  32.716  28.112  1.00  0.00     0.039 A 
ATOM     39  C   UNL A   1      36.460  33.427  28.381  1.00  0.00     0.014 A 
ATOM     40  C   UNL A   1      35.265  31.341  28.256  1.00  0.00     0.014 A 
ATOM     41  C   UNL A   1      37.546  32.759  28.960  1.00  0.00     0.010 A 
ATOM     42  C   UNL A   1      36.234  30.739  29.032  1.00  0.00     0.010 A 
ATOM     43  C   UNL A   1      37.408  31.425  29.373  1.00  0.00    -0.014 A 
BRANCH  43  44
ATOM     44  C   UNL A   1      38.464  30.677  30.109  1.00  0.00     0.031 A 
ATOM     45  C   UNL A   1      38.662  30.951  31.583  1.00  0.00     0.074 A 
ATOM     46  C   UNL A   1      39.323  29.869  29.454  1.00  0.00     0.049 A 
ATOM     47  N   UNL A   1      39.654  30.617  32.367  1.00  0.00    -0.248 NA
ATOM     48  C   UNL A   1      37.652  31.802  32.239  1.00  0.00     0.031 C 
ATOM     49  C   UNL A   1      39.311  29.589  28.016  1.00  0.00     0.029 A 
ATOM     50  N   UNL A   1      40.388  29.137  29.920  1.00  0.00    -0.354 N 
ATOM     51  C   UNL A   1      39.418  31.280  33.565  1.00  0.00     0.074 A 
ATOM     52  C   UNL A   1      38.261  32.120  33.368  1.00  0.00     0.031 C 
ATOM     53  C   UNL A   1      40.279  28.702  27.730  1.00  0.00     0.029 A 
ATOM     54  C   UNL A   1      41.011  28.387  28.950  1.00  0.00     0.049 A 
ATOM     55  H   UNL A   1      40.677  29.148  30.860  1.00  0.00     0.167 HD
ATOM     56  C   UNL A   1      40.062  31.153  34.749  1.00  0.00     0.037 A 
ATOM     57  C   UNL A   1      42.051  27.537  29.047  1.00  0.00     0.037 A 
ATOM     58  C   UNL A   1      41.124  30.214  34.970  1.00  0.00     0.049 A 
ATOM     59  C   UNL A   1      42.692  27.331  30.395  1.00  0.00     0.074 A 
ATOM     60  C   UNL A   1      41.775  29.905  36.149  1.00  0.00     0.029 A 
ATOM     61  N   UNL A   1      41.666  29.403  33.982  1.00  0.00    -0.354 N 
ATOM     62  N   UNL A   1      42.417  27.909  31.540  1.00  0.00    -0.248 NA
ATOM     63  C   UNL A   1      43.784  26.350  30.467  1.00  0.00     0.031 C 
ATOM     64  C   UNL A   1      42.730  28.922  35.871  1.00  0.00     0.029 A 
ATOM     65  C   UNL A   1      42.645  28.592  34.526  1.00  0.00     0.049 A 
ATOM     66  H   UNL A   1      41.394  29.405  33.036  1.00  0.00     0.167 HD
ATOM     67  C   UNL A   1      43.276  27.343  32.471  1.00  0.00     0.074 A 
ATOM     68  C   UNL A   1      44.073  26.363  31.760  1.00  0.00     0.031 C 
ATOM     69  C   UNL A   1      43.403  27.610  33.794  1.00  0.00     0.037 A 
BRANCH  56  70
ATOM     70  C   UNL A   1      39.593  32.007  35.894  1.00  0.00     0.064 A 
ATOM     71  C   UNL A   1      40.186  33.249  36.181  1.00  0.00     0.173 A 
ATOM     72  C   UNL A   1      38.541  31.581  36.718  1.00  0.00     0.173 A 
ATOM     73  F   UNL A   1      41.204  33.701  35.434  1.00  0.00    -0.203 F 
ATOM     74  C   UNL A   1      39.784  34.000  37.282  1.00  0.00     0.198 A 
ATOM     75  C   UNL A   1      38.113  32.356  37.794  1.00  0.00     0.198 A 
ATOM     76  F   UNL A   1      37.932  30.408  36.487  1.00  0.00    -0.203 F 
ATOM     77  F   UNL A   1      40.423  35.140  37.582  1.00  0.00    -0.200 F 
ATOM     78  C   UNL A   1      38.743  33.557  38.083  1.00  0.00     0.200 A 
ATOM     79  F   UNL A   1      37.098  31.934  38.560  1.00  0.00    -0.200 F 
ATOM     80  F   UNL A   1      38.357  34.282  39.142  1.00  0.00    -0.200 F 
ENDBRANCH  56  70
BRANCH  57  81
ATOM     81  C   UNL A   1      42.506  26.767  27.858  1.00  0.00     0.064 A 
ATOM     82  C   UNL A   1      43.480  27.294  26.997  1.00  0.00     0.173 A 
ATOM     83  C   UNL A   1      41.987  25.500  27.553  1.00  0.00     0.173 A 
ATOM     84  F   UNL A   1      43.996  28.509  27.235  1.00  0.00    -0.203 F 
ATOM     85  C   UNL A   1      43.899  26.596  25.866  1.00  0.00     0.198 A 
ATOM     86  C   UNL A   1      42.428  24.791  26.436  1.00  0.00     0.198 A 
ATOM     87  F   UNL A   1      41.061  24.944  28.347  1.00  0.00    -0.203 F 
ATOM     88  F   UNL A   1      44.797  27.146  25.036  1.00  0.00    -0.200 F 
ATOM     89  C   UNL A   1      43.377  25.343  25.588  1.00  0.00     0.200 A 
ATOM     90  F   UNL A   1      41.931  23.573  26.179  1.00  0.00    -0.200 F 
ATOM     91  F   UNL A   1      43.782  24.671  24.502  1.00  0.00    -0.200 F 
ENDBRANCH  57  81
BRANCH  69  92
ATOM     92  C   UNL A   1      44.407  26.808  34.566  1.00  0.00     0.064 A 
ATOM     93  C   UNL A   1      45.707  27.280  34.786  1.00  0.00     0.173 A 
ATOM     94  C   UNL A   1      44.037  25.587  35.150  1.00  0.00     0.173 A 
ATOM     95  F   UNL A   1      46.108  28.437  34.237  1.00  0.00    -0.203 F 
ATOM     96  C   UNL A   1      46.611  26.547  35.549  1.00  0.00     0.198 A 
ATOM     97  C   UNL A   1      44.933  24.872  35.937  1.00  0.00     0.198 A 
ATOM     98  F   UNL A   1      42.798  25.102  34.976  1.00  0.00    -0.203 F 
ATOM     99  F   UNL A   1      47.862  26.997  35.715  1.00  0.00    -0.200 F 
ATOM    100  C   UNL A   1      46.220  25.350  36.132  1.00  0.00     0.200 A 
ATOM    101  F   UNL A   1      44.549  23.725  36.514  1.00  0.00    -0.200 F 
ATOM    102  F   UNL A   1      47.088  24.654  36.880  1.00  0.00    -0.200 F 
ENDBRANCH  69  92
ENDBRANCH  43  44
ENDBRANCH  35  38
ENDBRANCH  33  34
ENDBRANCH  32  33
ENDBRANCH   1  32
TORSDOF 15
ENDMDL
MODEL 3
REMARK VINA RESULT:     -13.6      1.354      2.179
REMARK SMILES COc1ccccc1[C@@H]1C[N@@H+](Cc2cc3c(cc2C)OCO3)C[C@H]1C(=O)NCCCCNC(=O)c1ccc(-c2c3nc(c(-c4c(F)c(F)c(F)c(F)c4F)c4ccc([nH]4)c(-c4c(F)c(F)c(F)c(F)c4F)c4nc(c(-c5c(F)c(F)c(F)c(F)c5F)c5ccc2[nH]5)C=C4)C=C3)cc1
REMARK SMILES IDX 29 1 28 2 27 3 25 4 26 5 24 7 9 8 10 9 11 10 23 11 8 13 3 14
REMARK SMILES IDX 4 15 5 16 7 17 6 18 2 19 1 20 12 21 13 22 14 23 18 24 15 25
REMARK SMILES IDX 17 26 19 27 16 28 22 29 20 30 21 31 30 32 31 33 32 34 33 35
REMARK SMILES IDX 34 37 35 38 36 39 97 40 37 41 96 42 38 43 39 44 40 45 90 46
REMARK SMILES IDX 41 47 95 48 89 49 91 50 42 51 94 52 88 53 87 54 43 56 75 57
REMARK SMILES IDX 55 58 74 59 56 60 59 61 73 62 92 63 57 64 58 65 72 67 93 68
REMARK SMILES IDX 60 69 44 70 45 71 53 72 46 73 47 74 51 75 54 76 48 77 49 78
REMARK SMILES IDX 52 79 50 80 76 81 77 82 85 83 78 84 79 85 83 86 86 87 80 88
REMARK SMILES IDX 81 89 84 90 82 91 61 92 62 93 70 94 63 95 64 96 68 97 71 98
REMARK SMILES IDX 65 99 66 100 69 101 67 102
REMARK H PARENT 27 6 11 12 32 36 91 55 59 66
REMARK Flexibility Score: inf
ROOT
ATOM      1  C   UNL A   1      31.774  28.933  26.812  1.00  0.00     0.023 C 
ENDROOT
BRANCH   1   2
ATOM      2  C   UNL A   1      33.218  28.390  27.012  1.00  0.00     0.116 C 
BRANCH   2   3
ATOM      3  N   UNL A   1      33.531  26.985  26.495  1.00  0.00    -0.356 N 
ATOM      4  C   UNL A   1      33.220  25.840  25.836  1.00  0.00     0.229 C 
ATOM      5  O   UNL A   1      34.286  25.181  25.728  1.00  0.00    -0.275 OA
ATOM      6  H   UNL A   1      34.450  26.824  26.810  1.00  0.00     0.163 HD
BRANCH   4   7
ATOM      7  C   UNL A   1      31.966  25.072  25.206  1.00  0.00     0.146 C 
ATOM      8  C   UNL A   1      31.468  25.479  23.786  1.00  0.00     0.096 C 
ATOM      9  C   UNL A   1      30.515  24.350  23.341  1.00  0.00     0.272 C 
ATOM     10  N   UNL A   1      30.998  23.123  23.985  1.00  0.00    -0.330 N 
ATOM     11  C   UNL A   1      31.572  23.572  25.281  1.00  0.00     0.276 C 
ATOM     12  H   UNL A   1      30.276  22.442  24.221  1.00  0.00     0.348 HD
BRANCH   8  13
ATOM     13  C   UNL A   1      30.938  26.864  23.450  1.00  0.00     0.004 A 
ATOM     14  C   UNL A   1      31.693  28.037  23.284  1.00  0.00     0.122 A 
ATOM     15  C   UNL A   1      31.058  29.283  23.150  1.00  0.00     0.047 A 
ATOM     16  C   UNL A   1      29.669  29.393  23.207  1.00  0.00     0.004 A 
ATOM     17  C   UNL A   1      29.529  27.010  23.496  1.00  0.00     0.008 A 
ATOM     18  C   UNL A   1      28.903  28.254  23.396  1.00  0.00     0.001 A 
BRANCH  14  19
ATOM     19  O   UNL A   1      33.047  28.110  23.481  1.00  0.00    -0.496 OA
ATOM     20  C   UNL A   1      33.727  28.953  22.562  1.00  0.00     0.278 C 
ENDBRANCH  14  19
ENDBRANCH   8  13
BRANCH  10  21
ATOM     21  C   UNL A   1      31.735  22.201  23.071  1.00  0.00     0.299 C 
BRANCH  21  22
ATOM     22  C   UNL A   1      33.153  21.846  23.485  1.00  0.00     0.013 A 
ATOM     23  C   UNL A   1      34.289  22.676  23.322  1.00  0.00     0.060 A 
ATOM     24  C   UNL A   1      33.285  20.726  24.280  1.00  0.00    -0.038 A 
ATOM     25  C   UNL A   1      35.372  22.470  24.166  1.00  0.00     0.166 A 
ATOM     26  C   UNL A   1      34.114  20.896  25.373  1.00  0.00     0.054 A 
ATOM     27  C   UNL A   1      32.556  19.457  23.962  1.00  0.00     0.045 C 
ATOM     28  C   UNL A   1      35.218  21.672  25.252  1.00  0.00     0.166 A 
ATOM     29  O   UNL A   1      36.606  23.041  24.173  1.00  0.00    -0.454 OA
ATOM     30  O   UNL A   1      36.250  21.691  26.126  1.00  0.00    -0.454 OA
ATOM     31  C   UNL A   1      37.220  22.330  25.285  1.00  0.00     0.468 C 
ENDBRANCH  21  22
ENDBRANCH  10  21
ENDBRANCH   4   7
ENDBRANCH   2   3
ENDBRANCH   1   2
BRANCH   1  32
ATOM     32  C   UNL A   1      31.448  30.418  26.767  1.00  0.00     0.023 C 
BRANCH  32  33
ATOM     33  C   UNL A   1      32.680  31.283  26.516  1.00  0.00     0.116 C 
BRANCH  33  34
ATOM     34  N   UNL A   1      32.706  32.574  27.229  1.00  0.00    -0.352 N 
ATOM     35  C   UNL A   1      33.681  33.192  27.994  1.00  0.00     0.251 C 
ATOM     36  H   UNL A   1      31.874  33.094  27.147  1.00  0.00     0.163 HD
ATOM     37  O   UNL A   1      33.476  34.289  28.509  1.00  0.00    -0.269 OA
BRANCH  35  38
ATOM     38  C   UNL A   1      34.954  32.494  28.252  1.00  0.00     0.039 A 
ATOM     39  C   UNL A   1      36.148  33.208  28.387  1.00  0.00     0.014 A 
ATOM     40  C   UNL A   1      34.933  31.133  28.496  1.00  0.00     0.014 A 
ATOM     41  C   UNL A   1      37.267  32.570  28.935  1.00  0.00     0.010 A 
ATOM     42  C   UNL A   1      35.949  30.576  29.243  1.00  0.00     0.010 A 
ATOM     43  C   UNL A   1      37.149  31.271  29.452  1.00  0.00    -0.014 A 
BRANCH  43  44
ATOM     44  C   UNL A   1      38.249  30.565  30.164  1.00  0.00     0.031 A 
ATOM     45  C   UNL A   1      38.481  30.862  31.628  1.00  0.00     0.074 A 
ATOM     46  C   UNL A   1      39.114  29.777  29.493  1.00  0.00     0.049 A 
ATOM     47  N   UNL A   1      39.505  30.568  32.387  1.00  0.00    -0.248 NA
ATOM     48  C   UNL A   1      37.465  31.689  32.305  1.00  0.00     0.031 C 
ATOM     49  C   UNL A   1      39.070  29.480  28.058  1.00  0.00     0.029 A 
ATOM     50  N   UNL A   1      40.215  29.084  29.935  1.00  0.00    -0.354 N 
ATOM     51  C   UNL A   1      39.283  31.238  33.584  1.00  0.00     0.074 A 
ATOM     52  C   UNL A   1      38.095  32.039  33.412  1.00  0.00     0.031 C 
ATOM     53  C   UNL A   1      40.056  28.621  27.753  1.00  0.00     0.029 A 
ATOM     54  C   UNL A   1      40.833  28.343  28.955  1.00  0.00     0.049 A 
ATOM     55  H   UNL A   1      40.531  29.115  30.866  1.00  0.00     0.167 HD
ATOM     56  C   UNL A   1      39.965  31.144  34.750  1.00  0.00     0.037 A 
ATOM     57  C   UNL A   1      41.902  27.527  29.030  1.00  0.00     0.037 A 
ATOM     58  C   UNL A   1      41.063  30.242  34.949  1.00  0.00     0.049 A 
ATOM     59  C   UNL A   1      42.588  27.357  30.361  1.00  0.00     0.074 A 
ATOM     60  C   UNL A   1      41.757  29.967  36.112  1.00  0.00     0.029 A 
ATOM     61  N   UNL A   1      41.601  29.437  33.955  1.00  0.00    -0.354 N 
ATOM     62  N   UNL A   1      42.328  27.939  31.507  1.00  0.00    -0.248 NA
ATOM     63  C   UNL A   1      43.711  26.411  30.411  1.00  0.00     0.031 C 
ATOM     64  C   UNL A   1      42.734  29.012  35.816  1.00  0.00     0.029 A 
ATOM     65  C   UNL A   1      42.621  28.664  34.478  1.00  0.00     0.049 A 
ATOM     66  H   UNL A   1      41.302  29.420  33.017  1.00  0.00     0.167 HD
ATOM     67  C   UNL A   1      43.231  27.411  32.419  1.00  0.00     0.074 A 
ATOM     68  C   UNL A   1      44.038  26.449  31.695  1.00  0.00     0.031 C 
ATOM     69  C   UNL A   1      43.388  27.697  33.735  1.00  0.00     0.037 A 
BRANCH  56  70
ATOM     70  C   UNL A   1      39.503  31.997  35.899  1.00  0.00     0.064 A 
ATOM     71  C   UNL A   1      38.470  31.582  36.758  1.00  0.00     0.173 A 
ATOM     72  C   UNL A   1      40.092  33.246  36.144  1.00  0.00     0.173 A 
ATOM     73  F   UNL A   1      37.861  30.403  36.563  1.00  0.00    -0.203 F 
ATOM     74  C   UNL A   1      38.009  32.409  37.778  1.00  0.00     0.198 A 
ATOM     75  C   UNL A   1      39.656  34.052  37.193  1.00  0.00     0.198 A 
ATOM     76  F   UNL A   1      41.087  33.690  35.361  1.00  0.00    -0.203 F 
ATOM     77  F   UNL A   1      36.967  32.024  38.530  1.00  0.00    -0.200 F 
ATOM     78  C   UNL A   1      38.607  33.639  38.000  1.00  0.00     0.200 A 
ATOM     79  F   UNL A   1      40.243  35.236  37.415  1.00  0.00    -0.200 F 
ATOM     80  F   UNL A   1      38.162  34.434  38.983  1.00  0.00    -0.200 F 
ENDBRANCH  56  70
BRANCH  57  81
ATOM     81  C   UNL A   1      42.346  26.758  27.836  1.00  0.00     0.064 A 
ATOM     82  C   UNL A   1      41.799  25.498  27.555  1.00  0.00     0.173 A 
ATOM     83  C   UNL A   1      43.317  27.256  26.955  1.00  0.00     0.173 A 
ATOM     84  F   UNL A   1      40.879  24.970  28.377  1.00  0.00    -0.203 F 
ATOM     85  C   UNL A   1      42.221  24.755  26.455  1.00  0.00     0.198 A 
ATOM     86  C   UNL A   1      43.719  26.523  25.838  1.00  0.00     0.198 A 
ATOM     87  F   UNL A   1      43.867  28.459  27.170  1.00  0.00    -0.203 F 
ATOM     88  F   UNL A   1      41.713  23.533  26.238  1.00  0.00    -0.200 F 
ATOM     89  C   UNL A   1      43.178  25.270  25.594  1.00  0.00     0.200 A 
ATOM     90  F   UNL A   1      44.633  27.030  25.000  1.00  0.00    -0.200 F 
ATOM     91  F   UNL A   1      43.582  24.556  24.534  1.00  0.00    -0.200 F 
ENDBRANCH  57  81
BRANCH  69  92
ATOM     92  C   UNL A   1      44.438  26.936  34.485  1.00  0.00     0.064 A 
ATOM     93  C   UNL A   1      45.730  27.451  34.661  1.00  0.00     0.173 A 
ATOM     94  C   UNL A   1      44.124  25.712  35.093  1.00  0.00     0.173 A 
ATOM     95  F   UNL A   1      46.078  28.613  34.088  1.00  0.00    -0.203 F 
ATOM     96  C   UNL A   1      46.678  26.755  35.405  1.00  0.00     0.198 A 
ATOM     97  C   UNL A   1      45.065  25.034  35.862  1.00  0.00     0.198 A 
ATOM     98  F   UNL A   1      42.897  25.185  34.962  1.00  0.00    -0.203 F 
ATOM     99  F   UNL A   1      47.918  27.246  35.529  1.00  0.00    -0.200 F 
ATOM    100  C   UNL A   1      46.342  25.554  36.012  1.00  0.00     0.200 A 
ATOM    101  F   UNL A   1      44.735  23.883  36.462  1.00  0.00    -0.200 F 
ATOM    102  F   UNL A   1      47.252  24.894  36.742  1.00  0.00    -0.200 F 
ENDBRANCH  69  92
ENDBRANCH  43  44
ENDBRANCH  35  38
ENDBRANCH  33  34
ENDBRANCH  32  33
ENDBRANCH   1  32
TORSDOF 15
ENDMDL
