MODEL 1
REMARK VINA RESULT:     -12.4      0.000      0.000
REMARK SMILES O=C(CC1(NC(=O)c2csc(-c3ccsc3)n2)CCC1)NCCCCNC(=O)c1ccc(-c2c3nc(c(-c4c(F)c(F)c(F)c(F)c4F)c4ccc([nH]4)c(-c4c(F)c(F)c(F)c(F)c4F)c4nc(c(-c5c(F)c(F)c(F)c(F)c5F)c5ccc2[nH]5)C=C4)C=C3)cc1
REMARK SMILES IDX 22 1 21 2 1 3 2 4 3 6 4 7 18 8 20 9 19 10 5 11 6 12 7 14
REMARK SMILES IDX 8 15 9 16 17 17 10 18 11 19 12 20 13 21 16 22 14 23 15 24
REMARK SMILES IDX 23 25 24 26 25 27 26 28 27 29 28 31 29 32 30 33 91 34 31 35
REMARK SMILES IDX 90 36 32 37 33 38 34 39 84 40 35 41 89 42 83 43 85 44 36 45
REMARK SMILES IDX 88 46 82 47 81 48 37 50 69 51 49 52 68 53 50 54 53 55 67 56
REMARK SMILES IDX 86 57 51 58 52 59 66 61 87 62 54 63 38 64 39 65 47 66 40 67
REMARK SMILES IDX 41 68 45 69 48 70 42 71 43 72 46 73 44 74 70 75 71 76 79 77
REMARK SMILES IDX 72 78 73 79 77 80 80 81 74 82 75 83 78 84 76 85 55 86 56 87
REMARK SMILES IDX 64 88 57 89 58 90 62 91 65 92 59 93 60 94 63 95 61 96
REMARK H PARENT 21 5 5 13 26 30 85 49 53 60
REMARK Flexibility Score: inf
ROOT
ATOM      1  C   UNL A   1      32.696  30.057  26.669  1.00  0.00     0.116 C 
ENDROOT
BRANCH   1   2
ATOM      2  N   UNL A   1      32.502  28.629  26.577  1.00  0.00    -0.356 N 
ATOM      3  O   UNL A   1      33.936  28.287  24.823  1.00  0.00    -0.275 OA
ATOM      4  C   UNL A   1      33.137  27.846  25.637  1.00  0.00     0.222 C 
ATOM      5  H   UNL A   1      31.888  28.195  27.213  1.00  0.00     0.163 HD
BRANCH   4   6
ATOM      6  C   UNL A   1      32.764  26.379  25.778  1.00  0.00     0.128 C 
BRANCH   6   7
ATOM      7  C   UNL A   1      33.533  25.412  24.879  1.00  0.00     0.049 C 
ATOM      8  C   UNL A   1      34.876  24.853  25.452  1.00  0.00     0.029 C 
ATOM      9  C   UNL A   1      32.942  23.965  25.049  1.00  0.00     0.029 C 
ATOM     10  C   UNL A   1      34.316  23.431  25.449  1.00  0.00     0.005 C 
BRANCH   7  11
ATOM     11  N   UNL A   1      33.662  25.723  23.419  1.00  0.00    -0.345 N 
ATOM     12  C   UNL A   1      32.830  26.138  22.399  1.00  0.00     0.271 C 
ATOM     13  H   UNL A   1      34.585  25.597  23.103  1.00  0.00     0.164 HD
ATOM     14  O   UNL A   1      33.256  26.033  21.247  1.00  0.00    -0.267 OA
BRANCH  12  15
ATOM     15  C   UNL A   1      31.478  26.604  22.662  1.00  0.00     0.139 A 
ATOM     16  C   UNL A   1      30.535  25.846  23.335  1.00  0.00     0.101 A 
ATOM     17  N   UNL A   1      31.008  27.837  22.230  1.00  0.00    -0.231 NA
ATOM     18  S   UNL A   1      29.137  26.787  23.642  1.00  0.00    -0.122 S 
ATOM     19  C   UNL A   1      29.825  28.087  22.753  1.00  0.00     0.125 A 
BRANCH  19  20
ATOM     20  C   UNL A   1      29.204  29.449  22.629  1.00  0.00     0.021 A 
ATOM     21  C   UNL A   1      28.177  29.943  23.490  1.00  0.00     0.023 A 
ATOM     22  C   UNL A   1      29.505  30.347  21.627  1.00  0.00     0.076 A 
ATOM     23  C   UNL A   1      27.743  31.196  23.120  1.00  0.00     0.065 A 
ATOM     24  S   UNL A   1      28.540  31.761  21.717  1.00  0.00    -0.152 S 
ENDBRANCH  19  20
ENDBRANCH  12  15
ENDBRANCH   7  11
ENDBRANCH   6   7
ENDBRANCH   4   6
ENDBRANCH   1   2
BRANCH   1  25
ATOM     25  C   UNL A   1      31.538  30.814  26.020  1.00  0.00     0.023 C 
BRANCH  25  26
ATOM     26  C   UNL A   1      31.357  32.258  26.503  1.00  0.00     0.023 C 
BRANCH  26  27
ATOM     27  C   UNL A   1      32.535  32.834  27.281  1.00  0.00     0.116 C 
BRANCH  27  28
ATOM     28  N   UNL A   1      32.333  34.231  27.619  1.00  0.00    -0.352 N 
ATOM     29  C   UNL A   1      32.944  34.978  28.596  1.00  0.00     0.251 C 
ATOM     30  H   UNL A   1      31.667  34.710  27.074  1.00  0.00     0.163 HD
ATOM     31  O   UNL A   1      32.526  36.094  28.881  1.00  0.00    -0.269 OA
BRANCH  29  32
ATOM     32  C   UNL A   1      34.102  34.417  29.324  1.00  0.00     0.039 A 
ATOM     33  C   UNL A   1      33.882  33.748  30.530  1.00  0.00     0.014 A 
ATOM     34  C   UNL A   1      35.398  34.551  28.816  1.00  0.00     0.014 A 
ATOM     35  C   UNL A   1      34.957  33.165  31.203  1.00  0.00     0.010 A 
ATOM     36  C   UNL A   1      36.459  33.917  29.456  1.00  0.00     0.010 A 
ATOM     37  C   UNL A   1      36.250  33.222  30.657  1.00  0.00    -0.014 A 
BRANCH  37  38
ATOM     38  C   UNL A   1      37.397  32.564  31.333  1.00  0.00     0.031 A 
ATOM     39  C   UNL A   1      38.109  31.421  30.666  1.00  0.00     0.074 A 
ATOM     40  C   UNL A   1      37.754  32.955  32.571  1.00  0.00     0.049 A 
ATOM     41  N   UNL A   1      39.087  30.677  31.120  1.00  0.00    -0.248 NA
ATOM     42  C   UNL A   1      37.646  31.048  29.321  1.00  0.00     0.031 C 
ATOM     43  C   UNL A   1      37.112  34.022  33.339  1.00  0.00     0.029 A 
ATOM     44  N   UNL A   1      38.742  32.493  33.404  1.00  0.00    -0.354 N 
ATOM     45  C   UNL A   1      39.340  29.741  30.127  1.00  0.00     0.074 A 
ATOM     46  C   UNL A   1      38.385  29.978  29.067  1.00  0.00     0.031 C 
ATOM     47  C   UNL A   1      37.734  34.147  34.522  1.00  0.00     0.029 A 
ATOM     48  C   UNL A   1      38.796  33.149  34.610  1.00  0.00     0.049 A 
ATOM     49  H   UNL A   1      39.354  31.762  33.161  1.00  0.00     0.167 HD
ATOM     50  C   UNL A   1      40.297  28.783  30.094  1.00  0.00     0.037 A 
ATOM     51  C   UNL A   1      39.609  32.962  35.668  1.00  0.00     0.037 A 
ATOM     52  C   UNL A   1      41.268  28.571  31.135  1.00  0.00     0.049 A 
ATOM     53  C   UNL A   1      40.667  31.894  35.602  1.00  0.00     0.074 A 
ATOM     54  C   UNL A   1      42.321  27.674  31.164  1.00  0.00     0.029 A 
ATOM     55  N   UNL A   1      41.303  29.268  32.333  1.00  0.00    -0.354 N 
ATOM     56  N   UNL A   1      40.942  31.060  34.629  1.00  0.00    -0.248 NA
ATOM     57  C   UNL A   1      41.532  31.746  36.781  1.00  0.00     0.031 C 
ATOM     58  C   UNL A   1      42.968  27.798  32.397  1.00  0.00     0.029 A 
ATOM     59  C   UNL A   1      42.348  28.806  33.118  1.00  0.00     0.049 A 
ATOM     60  H   UNL A   1      40.679  29.986  32.589  1.00  0.00     0.167 HD
ATOM     61  C   UNL A   1      42.026  30.311  35.064  1.00  0.00     0.074 A 
ATOM     62  C   UNL A   1      42.368  30.796  36.384  1.00  0.00     0.031 C 
ATOM     63  C   UNL A   1      42.680  29.308  34.427  1.00  0.00     0.037 A 
BRANCH  50  64
ATOM     64  C   UNL A   1      40.345  27.889  28.888  1.00  0.00     0.064 A 
ATOM     65  C   UNL A   1      41.104  28.222  27.756  1.00  0.00     0.173 A 
ATOM     66  C   UNL A   1      39.653  26.669  28.879  1.00  0.00     0.173 A 
ATOM     67  F   UNL A   1      41.774  29.384  27.710  1.00  0.00    -0.203 F 
ATOM     68  C   UNL A   1      41.147  27.380  26.649  1.00  0.00     0.198 A 
ATOM     69  C   UNL A   1      39.722  25.815  27.781  1.00  0.00     0.198 A 
ATOM     70  F   UNL A   1      38.917  26.300  29.938  1.00  0.00    -0.203 F 
ATOM     71  F   UNL A   1      41.841  27.741  25.561  1.00  0.00    -0.200 F 
ATOM     72  C   UNL A   1      40.462  26.173  26.665  1.00  0.00     0.200 A 
ATOM     73  F   UNL A   1      39.070  24.644  27.803  1.00  0.00    -0.200 F 
ATOM     74  F   UNL A   1      40.509  25.361  25.601  1.00  0.00    -0.200 F 
ENDBRANCH  50  64
BRANCH  51  75
ATOM     75  C   UNL A   1      39.474  33.826  36.870  1.00  0.00     0.064 A 
ATOM     76  C   UNL A   1      40.123  35.067  36.937  1.00  0.00     0.173 A 
ATOM     77  C   UNL A   1      38.705  33.429  37.972  1.00  0.00     0.173 A 
ATOM     78  F   UNL A   1      40.886  35.479  35.915  1.00  0.00    -0.203 F 
ATOM     79  C   UNL A   1      40.023  35.870  38.071  1.00  0.00     0.198 A 
ATOM     80  C   UNL A   1      38.584  34.245  39.095  1.00  0.00     0.198 A 
ATOM     81  F   UNL A   1      38.061  32.253  37.955  1.00  0.00    -0.203 F 
ATOM     82  F   UNL A   1      40.688  37.031  38.126  1.00  0.00    -0.200 F 
ATOM     83  C   UNL A   1      39.250  35.461  39.147  1.00  0.00     0.200 A 
ATOM     84  F   UNL A   1      37.825  33.853  40.127  1.00  0.00    -0.200 F 
ATOM     85  F   UNL A   1      39.150  36.236  40.236  1.00  0.00    -0.200 F 
ENDBRANCH  51  75
BRANCH  63  86
ATOM     86  C   UNL A   1      43.853  28.696  35.132  1.00  0.00     0.064 A 
ATOM     87  C   UNL A   1      43.708  27.577  35.965  1.00  0.00     0.173 A 
ATOM     88  C   UNL A   1      45.144  29.210  34.939  1.00  0.00     0.173 A 
ATOM     89  F   UNL A   1      42.491  27.059  36.194  1.00  0.00    -0.203 F 
ATOM     90  C   UNL A   1      44.810  27.010  36.599  1.00  0.00     0.198 A 
ATOM     91  C   UNL A   1      46.248  28.622  35.551  1.00  0.00     0.198 A 
ATOM     92  F   UNL A   1      45.337  30.275  34.146  1.00  0.00    -0.203 F 
ATOM     93  F   UNL A   1      44.643  25.969  37.426  1.00  0.00    -0.200 F 
ATOM     94  C   UNL A   1      46.079  27.527  36.385  1.00  0.00     0.200 A 
ATOM     95  F   UNL A   1      47.474  29.116  35.334  1.00  0.00    -0.200 F 
ATOM     96  F   UNL A   1      47.140  26.975  36.990  1.00  0.00    -0.200 F 
ENDBRANCH  63  86
ENDBRANCH  37  38
ENDBRANCH  29  32
ENDBRANCH  27  28
ENDBRANCH  26  27
ENDBRANCH  25  26
ENDBRANCH   1  25
TORSDOF 15
ENDMDL
MODEL 2
REMARK VINA RESULT:     -12.4      2.079      3.837
REMARK SMILES O=C(CC1(NC(=O)c2csc(-c3ccsc3)n2)CCC1)NCCCCNC(=O)c1ccc(-c2c3nc(c(-c4c(F)c(F)c(F)c(F)c4F)c4ccc([nH]4)c(-c4c(F)c(F)c(F)c(F)c4F)c4nc(c(-c5c(F)c(F)c(F)c(F)c5F)c5ccc2[nH]5)C=C4)C=C3)cc1
REMARK SMILES IDX 22 1 21 2 1 3 2 4 3 6 4 7 18 8 20 9 19 10 5 11 6 12 7 14
REMARK SMILES IDX 8 15 9 16 17 17 10 18 11 19 12 20 13 21 16 22 14 23 15 24
REMARK SMILES IDX 23 25 24 26 25 27 26 28 27 29 28 31 29 32 30 33 91 34 31 35
REMARK SMILES IDX 90 36 32 37 33 38 34 39 84 40 35 41 89 42 83 43 85 44 36 45
REMARK SMILES IDX 88 46 82 47 81 48 37 50 69 51 49 52 68 53 50 54 53 55 67 56
REMARK SMILES IDX 86 57 51 58 52 59 66 61 87 62 54 63 38 64 39 65 47 66 40 67
REMARK SMILES IDX 41 68 45 69 48 70 42 71 43 72 46 73 44 74 70 75 71 76 79 77
REMARK SMILES IDX 72 78 73 79 77 80 80 81 74 82 75 83 78 84 76 85 55 86 56 87
REMARK SMILES IDX 64 88 57 89 58 90 62 91 65 92 59 93 60 94 63 95 61 96
REMARK H PARENT 21 5 5 13 26 30 85 49 53 60
REMARK Flexibility Score: inf
ROOT
ATOM      1  C   UNL A   1      32.596  30.017  27.144  1.00  0.00     0.116 C 
ENDROOT
BRANCH   1   2
ATOM      2  N   UNL A   1      32.519  28.584  26.995  1.00  0.00    -0.356 N 
ATOM      3  O   UNL A   1      33.729  28.461  25.053  1.00  0.00    -0.275 OA
ATOM      4  C   UNL A   1      33.089  27.908  25.936  1.00  0.00     0.222 C 
ATOM      5  H   UNL A   1      32.037  28.064  27.679  1.00  0.00     0.163 HD
BRANCH   4   6
ATOM      6  C   UNL A   1      32.871  26.408  26.040  1.00  0.00     0.128 C 
BRANCH   6   7
ATOM      7  C   UNL A   1      31.525  25.898  25.526  1.00  0.00     0.049 C 
ATOM      8  C   UNL A   1      30.653  26.925  24.733  1.00  0.00     0.029 C 
ATOM      9  C   UNL A   1      31.743  25.141  24.165  1.00  0.00     0.029 C 
ATOM     10  C   UNL A   1      30.755  26.074  23.468  1.00  0.00     0.005 C 
BRANCH   7  11
ATOM     11  N   UNL A   1      30.675  25.055  26.427  1.00  0.00    -0.345 N 
ATOM     12  C   UNL A   1      30.633  23.736  26.832  1.00  0.00     0.271 C 
ATOM     13  H   UNL A   1      29.954  25.582  26.839  1.00  0.00     0.164 HD
ATOM     14  O   UNL A   1      29.606  23.352  27.394  1.00  0.00    -0.267 OA
BRANCH  12  15
ATOM     15  C   UNL A   1      31.720  22.816  26.537  1.00  0.00     0.139 A 
ATOM     16  C   UNL A   1      32.960  22.892  27.146  1.00  0.00     0.101 A 
ATOM     17  N   UNL A   1      31.613  21.802  25.594  1.00  0.00    -0.231 NA
ATOM     18  S   UNL A   1      33.909  21.533  26.714  1.00  0.00    -0.122 S 
ATOM     19  C   UNL A   1      32.663  21.008  25.653  1.00  0.00     0.125 A 
BRANCH  19  20
ATOM     20  C   UNL A   1      32.685  19.709  24.900  1.00  0.00     0.021 A 
ATOM     21  C   UNL A   1      32.471  19.596  23.492  1.00  0.00     0.023 A 
ATOM     22  C   UNL A   1      32.843  18.474  25.492  1.00  0.00     0.076 A 
ATOM     23  C   UNL A   1      32.483  18.286  23.065  1.00  0.00     0.065 A 
ATOM     24  S   UNL A   1      32.713  17.193  24.360  1.00  0.00    -0.152 S 
ENDBRANCH  19  20
ENDBRANCH  12  15
ENDBRANCH   7  11
ENDBRANCH   6   7
ENDBRANCH   4   6
ENDBRANCH   1   2
BRANCH   1  25
ATOM     25  C   UNL A   1      31.435  30.709  26.431  1.00  0.00     0.023 C 
BRANCH  25  26
ATOM     26  C   UNL A   1      31.428  32.239  26.536  1.00  0.00     0.023 C 
BRANCH  26  27
ATOM     27  C   UNL A   1      32.621  32.843  27.268  1.00  0.00     0.116 C 
BRANCH  27  28
ATOM     28  N   UNL A   1      32.394  34.232  27.627  1.00  0.00    -0.352 N 
ATOM     29  C   UNL A   1      32.991  34.975  28.615  1.00  0.00     0.251 C 
ATOM     30  H   UNL A   1      31.720  34.705  27.088  1.00  0.00     0.163 HD
ATOM     31  O   UNL A   1      32.553  36.078  28.916  1.00  0.00    -0.269 OA
BRANCH  29  32
ATOM     32  C   UNL A   1      34.158  34.424  29.336  1.00  0.00     0.039 A 
ATOM     33  C   UNL A   1      33.950  33.743  30.537  1.00  0.00     0.014 A 
ATOM     34  C   UNL A   1      35.451  34.580  28.827  1.00  0.00     0.014 A 
ATOM     35  C   UNL A   1      35.034  33.170  31.203  1.00  0.00     0.010 A 
ATOM     36  C   UNL A   1      36.522  33.955  29.458  1.00  0.00     0.010 A 
ATOM     37  C   UNL A   1      36.325  33.248  30.655  1.00  0.00    -0.014 A 
BRANCH  37  38
ATOM     38  C   UNL A   1      37.482  32.601  31.324  1.00  0.00     0.031 A 
ATOM     39  C   UNL A   1      38.202  31.465  30.651  1.00  0.00     0.074 A 
ATOM     40  C   UNL A   1      37.844  32.994  32.559  1.00  0.00     0.049 A 
ATOM     41  N   UNL A   1      39.189  30.730  31.099  1.00  0.00    -0.248 NA
ATOM     42  C   UNL A   1      37.734  31.089  29.309  1.00  0.00     0.031 C 
ATOM     43  C   UNL A   1      37.196  34.054  33.333  1.00  0.00     0.029 A 
ATOM     44  N   UNL A   1      38.842  32.541  33.386  1.00  0.00    -0.354 N 
ATOM     45  C   UNL A   1      39.445  29.797  30.103  1.00  0.00     0.074 A 
ATOM     46  C   UNL A   1      38.481  30.026  29.049  1.00  0.00     0.031 C 
ATOM     47  C   UNL A   1      37.825  34.184  34.512  1.00  0.00     0.029 A 
ATOM     48  C   UNL A   1      38.897  33.197  34.592  1.00  0.00     0.049 A 
ATOM     49  H   UNL A   1      39.459  31.816  33.139  1.00  0.00     0.167 HD
ATOM     50  C   UNL A   1      40.411  28.848  30.063  1.00  0.00     0.037 A 
ATOM     51  C   UNL A   1      39.718  33.017  35.645  1.00  0.00     0.037 A 
ATOM     52  C   UNL A   1      41.391  28.645  31.098  1.00  0.00     0.049 A 
ATOM     53  C   UNL A   1      40.786  31.959  35.571  1.00  0.00     0.074 A 
ATOM     54  C   UNL A   1      42.452  27.758  31.120  1.00  0.00     0.029 A 
ATOM     55  N   UNL A   1      41.427  29.342  32.296  1.00  0.00    -0.354 N 
ATOM     56  N   UNL A   1      41.062  31.129  34.596  1.00  0.00    -0.248 NA
ATOM     57  C   UNL A   1      41.660  31.819  36.745  1.00  0.00     0.031 C 
ATOM     58  C   UNL A   1      43.106  27.888  32.349  1.00  0.00     0.029 A 
ATOM     59  C   UNL A   1      42.480  28.889  33.074  1.00  0.00     0.049 A 
ATOM     60  H   UNL A   1      40.797  30.053  32.556  1.00  0.00     0.167 HD
ATOM     61  C   UNL A   1      42.156  30.389  35.023  1.00  0.00     0.074 A 
ATOM     62  C   UNL A   1      42.501  30.877  36.342  1.00  0.00     0.031 C 
ATOM     63  C   UNL A   1      42.816  29.393  34.381  1.00  0.00     0.037 A 
BRANCH  50  64
ATOM     64  C   UNL A   1      40.460  27.957  28.856  1.00  0.00     0.064 A 
ATOM     65  C   UNL A   1      41.225  28.289  27.727  1.00  0.00     0.173 A 
ATOM     66  C   UNL A   1      39.765  26.738  28.843  1.00  0.00     0.173 A 
ATOM     67  F   UNL A   1      41.898  29.448  27.685  1.00  0.00    -0.203 F 
ATOM     68  C   UNL A   1      41.268  27.447  26.619  1.00  0.00     0.198 A 
ATOM     69  C   UNL A   1      39.834  25.886  27.745  1.00  0.00     0.198 A 
ATOM     70  F   UNL A   1      39.024  26.371  29.900  1.00  0.00    -0.203 F 
ATOM     71  F   UNL A   1      41.967  27.807  25.533  1.00  0.00    -0.200 F 
ATOM     72  C   UNL A   1      40.579  26.243  26.631  1.00  0.00     0.200 A 
ATOM     73  F   UNL A   1      39.178  24.717  27.763  1.00  0.00    -0.200 F 
ATOM     74  F   UNL A   1      40.627  25.432  25.566  1.00  0.00    -0.200 F 
ENDBRANCH  50  64
BRANCH  51  75
ATOM     75  C   UNL A   1      39.582  33.878  36.848  1.00  0.00     0.064 A 
ATOM     76  C   UNL A   1      38.824  33.456  37.950  1.00  0.00     0.173 A 
ATOM     77  C   UNL A   1      40.196  35.136  36.919  1.00  0.00     0.173 A 
ATOM     78  F   UNL A   1      38.202  32.269  37.919  1.00  0.00    -0.203 F 
ATOM     79  C   UNL A   1      38.670  34.269  39.070  1.00  0.00     0.198 A 
ATOM     80  C   UNL A   1      40.063  35.937  38.052  1.00  0.00     0.198 A 
ATOM     81  F   UNL A   1      40.935  35.584  35.894  1.00  0.00    -0.203 F 
ATOM     82  F   UNL A   1      37.905  33.860  40.091  1.00  0.00    -0.200 F 
ATOM     83  C   UNL A   1      39.293  35.507  39.123  1.00  0.00     0.200 A 
ATOM     84  F   UNL A   1      40.678  37.126  38.105  1.00  0.00    -0.200 F 
ATOM     85  F   UNL A   1      39.148  36.287  40.203  1.00  0.00    -0.200 F 
ENDBRANCH  51  75
BRANCH  63  86
ATOM     86  C   UNL A   1      43.999  28.792  35.079  1.00  0.00     0.064 A 
ATOM     87  C   UNL A   1      43.861  27.708  35.957  1.00  0.00     0.173 A 
ATOM     88  C   UNL A   1      45.291  29.280  34.833  1.00  0.00     0.173 A 
ATOM     89  F   UNL A   1      42.644  27.215  36.237  1.00  0.00    -0.203 F 
ATOM     90  C   UNL A   1      44.973  27.149  36.584  1.00  0.00     0.198 A 
ATOM     91  C   UNL A   1      46.403  28.701  35.438  1.00  0.00     0.198 A 
ATOM     92  F   UNL A   1      45.477  30.313  33.996  1.00  0.00    -0.203 F 
ATOM     93  F   UNL A   1      44.814  26.143  37.453  1.00  0.00    -0.200 F 
ATOM     94  C   UNL A   1      46.242  27.640  36.318  1.00  0.00     0.200 A 
ATOM     95  F   UNL A   1      47.630  29.169  35.172  1.00  0.00    -0.200 F 
ATOM     96  F   UNL A   1      47.312  27.097  36.915  1.00  0.00    -0.200 F 
ENDBRANCH  63  86
ENDBRANCH  37  38
ENDBRANCH  29  32
ENDBRANCH  27  28
ENDBRANCH  26  27
ENDBRANCH  25  26
ENDBRANCH   1  25
TORSDOF 15
ENDMDL
MODEL 3
REMARK VINA RESULT:     -12.3      1.991      3.825
REMARK SMILES O=C(CC1(NC(=O)c2csc(-c3ccsc3)n2)CCC1)NCCCCNC(=O)c1ccc(-c2c3nc(c(-c4c(F)c(F)c(F)c(F)c4F)c4ccc([nH]4)c(-c4c(F)c(F)c(F)c(F)c4F)c4nc(c(-c5c(F)c(F)c(F)c(F)c5F)c5ccc2[nH]5)C=C4)C=C3)cc1
REMARK SMILES IDX 22 1 21 2 1 3 2 4 3 6 4 7 18 8 20 9 19 10 5 11 6 12 7 14
REMARK SMILES IDX 8 15 9 16 17 17 10 18 11 19 12 20 13 21 16 22 14 23 15 24
REMARK SMILES IDX 23 25 24 26 25 27 26 28 27 29 28 31 29 32 30 33 91 34 31 35
REMARK SMILES IDX 90 36 32 37 33 38 34 39 84 40 35 41 89 42 83 43 85 44 36 45
REMARK SMILES IDX 88 46 82 47 81 48 37 50 69 51 49 52 68 53 50 54 53 55 67 56
REMARK SMILES IDX 86 57 51 58 52 59 66 61 87 62 54 63 38 64 39 65 47 66 40 67
REMARK SMILES IDX 41 68 45 69 48 70 42 71 43 72 46 73 44 74 70 75 71 76 79 77
REMARK SMILES IDX 72 78 73 79 77 80 80 81 74 82 75 83 78 84 76 85 55 86 56 87
REMARK SMILES IDX 64 88 57 89 58 90 62 91 65 92 59 93 60 94 63 95 61 96
REMARK H PARENT 21 5 5 13 26 30 85 49 53 60
REMARK Flexibility Score: inf
ROOT
ATOM      1  C   UNL A   1      32.788  30.054  26.828  1.00  0.00     0.116 C 
ENDROOT
BRANCH   1   2
ATOM      2  N   UNL A   1      32.688  28.615  26.766  1.00  0.00    -0.356 N 
ATOM      3  O   UNL A   1      33.524  28.390  24.645  1.00  0.00    -0.275 OA
ATOM      4  C   UNL A   1      33.057  27.886  25.656  1.00  0.00     0.222 C 
ATOM      5  H   UNL A   1      32.341  28.133  27.551  1.00  0.00     0.163 HD
BRANCH   4   6
ATOM      6  C   UNL A   1      32.866  26.393  25.870  1.00  0.00     0.128 C 
BRANCH   6   7
ATOM      7  C   UNL A   1      31.475  25.852  25.542  1.00  0.00     0.049 C 
ATOM      8  C   UNL A   1      30.449  26.881  24.964  1.00  0.00     0.029 C 
ATOM      9  C   UNL A   1      31.501  25.187  24.117  1.00  0.00     0.029 C 
ATOM     10  C   UNL A   1      30.380  26.111  23.646  1.00  0.00     0.005 C 
BRANCH   7  11
ATOM     11  N   UNL A   1      30.812  24.918  26.508  1.00  0.00    -0.345 N 
ATOM     12  C   UNL A   1      30.847  23.568  26.792  1.00  0.00     0.271 C 
ATOM     13  H   UNL A   1      30.183  25.393  27.097  1.00  0.00     0.164 HD
ATOM     14  O   UNL A   1      29.946  23.117  27.503  1.00  0.00    -0.267 OA
BRANCH  12  15
ATOM     15  C   UNL A   1      31.856  22.695  26.214  1.00  0.00     0.139 A 
ATOM     16  C   UNL A   1      31.550  21.644  25.367  1.00  0.00     0.101 A 
ATOM     17  N   UNL A   1      33.211  22.823  26.490  1.00  0.00    -0.231 NA
ATOM     18  S   UNL A   1      32.989  20.974  24.720  1.00  0.00    -0.122 S 
ATOM     19  C   UNL A   1      33.917  22.036  25.703  1.00  0.00     0.125 A 
BRANCH  19  20
ATOM     20  C   UNL A   1      35.412  22.154  25.642  1.00  0.00     0.021 A 
ATOM     21  C   UNL A   1      36.121  23.392  25.717  1.00  0.00     0.023 A 
ATOM     22  C   UNL A   1      36.265  21.091  25.437  1.00  0.00     0.076 A 
ATOM     23  C   UNL A   1      37.481  23.225  25.575  1.00  0.00     0.065 A 
ATOM     24  S   UNL A   1      37.901  21.588  25.314  1.00  0.00    -0.152 S 
ENDBRANCH  19  20
ENDBRANCH  12  15
ENDBRANCH   7  11
ENDBRANCH   6   7
ENDBRANCH   4   6
ENDBRANCH   1   2
BRANCH   1  25
ATOM     25  C   UNL A   1      31.513  30.717  26.311  1.00  0.00     0.023 C 
BRANCH  25  26
ATOM     26  C   UNL A   1      31.428  32.231  26.547  1.00  0.00     0.023 C 
BRANCH  26  27
ATOM     27  C   UNL A   1      32.620  32.841  27.275  1.00  0.00     0.116 C 
BRANCH  27  28
ATOM     28  N   UNL A   1      32.390  34.230  27.628  1.00  0.00    -0.352 N 
ATOM     29  C   UNL A   1      32.969  34.972  28.627  1.00  0.00     0.251 C 
ATOM     30  H   UNL A   1      31.727  34.705  27.075  1.00  0.00     0.163 HD
ATOM     31  O   UNL A   1      32.529  36.077  28.918  1.00  0.00    -0.269 OA
BRANCH  29  32
ATOM     32  C   UNL A   1      34.121  34.419  29.371  1.00  0.00     0.039 A 
ATOM     33  C   UNL A   1      33.892  33.780  30.592  1.00  0.00     0.014 A 
ATOM     34  C   UNL A   1      35.419  34.530  28.864  1.00  0.00     0.014 A 
ATOM     35  C   UNL A   1      34.960  33.205  31.281  1.00  0.00     0.010 A 
ATOM     36  C   UNL A   1      36.473  33.902  29.521  1.00  0.00     0.010 A 
ATOM     37  C   UNL A   1      36.255  33.238  30.737  1.00  0.00    -0.014 A 
BRANCH  37  38
ATOM     38  C   UNL A   1      37.394  32.586  31.432  1.00  0.00     0.031 A 
ATOM     39  C   UNL A   1      38.108  31.431  30.788  1.00  0.00     0.074 A 
ATOM     40  C   UNL A   1      37.745  32.995  32.666  1.00  0.00     0.049 A 
ATOM     41  N   UNL A   1      39.080  30.690  31.261  1.00  0.00    -0.248 NA
ATOM     42  C   UNL A   1      37.653  31.039  29.446  1.00  0.00     0.031 C 
ATOM     43  C   UNL A   1      37.100  34.076  33.414  1.00  0.00     0.029 A 
ATOM     44  N   UNL A   1      38.725  32.543  33.514  1.00  0.00    -0.354 N 
ATOM     45  C   UNL A   1      39.336  29.738  30.283  1.00  0.00     0.074 A 
ATOM     46  C   UNL A   1      38.390  29.963  29.213  1.00  0.00     0.031 C 
ATOM     47  C   UNL A   1      37.715  34.217  34.599  1.00  0.00     0.029 A 
ATOM     48  C   UNL A   1      38.772  33.217  34.710  1.00  0.00     0.049 A 
ATOM     49  H   UNL A   1      39.336  31.805  33.287  1.00  0.00     0.167 HD
ATOM     50  C   UNL A   1      40.291  28.776  30.272  1.00  0.00     0.037 A 
ATOM     51  C   UNL A   1      39.577  33.043  35.777  1.00  0.00     0.037 A 
ATOM     52  C   UNL A   1      41.253  28.578  31.324  1.00  0.00     0.049 A 
ATOM     53  C   UNL A   1      40.632  31.971  35.735  1.00  0.00     0.074 A 
ATOM     54  C   UNL A   1      42.303  27.677  31.374  1.00  0.00     0.029 A 
ATOM     55  N   UNL A   1      41.282  29.293  32.511  1.00  0.00    -0.354 N 
ATOM     56  N   UNL A   1      40.910  31.121  34.777  1.00  0.00    -0.248 NA
ATOM     57  C   UNL A   1      41.487  31.838  36.922  1.00  0.00     0.031 C 
ATOM     58  C   UNL A   1      42.941  27.818  32.610  1.00  0.00     0.029 A 
ATOM     59  C   UNL A   1      42.319  28.839  33.311  1.00  0.00     0.049 A 
ATOM     60  H   UNL A   1      40.658  30.017  32.751  1.00  0.00     0.167 HD
ATOM     61  C   UNL A   1      41.989  30.375  35.231  1.00  0.00     0.074 A 
ATOM     62  C   UNL A   1      42.322  30.879  36.546  1.00  0.00     0.031 C 
ATOM     63  C   UNL A   1      42.644  29.360  34.614  1.00  0.00     0.037 A 
BRANCH  50  64
ATOM     64  C   UNL A   1      40.344  27.865  29.081  1.00  0.00     0.064 A 
ATOM     65  C   UNL A   1      39.623  26.661  29.043  1.00  0.00     0.173 A 
ATOM     66  C   UNL A   1      41.094  28.217  27.948  1.00  0.00     0.173 A 
ATOM     67  F   UNL A   1      38.901  26.273  30.105  1.00  0.00    -0.203 F 
ATOM     68  C   UNL A   1      39.675  25.830  27.927  1.00  0.00     0.198 A 
ATOM     69  C   UNL A   1      41.119  27.397  26.823  1.00  0.00     0.198 A 
ATOM     70  F   UNL A   1      41.796  29.360  27.931  1.00  0.00    -0.203 F 
ATOM     71  F   UNL A   1      39.016  24.663  27.933  1.00  0.00    -0.200 F 
ATOM     72  C   UNL A   1      40.416  26.202  26.815  1.00  0.00     0.200 A 
ATOM     73  F   UNL A   1      41.826  27.764  25.745  1.00  0.00    -0.200 F 
ATOM     74  F   UNL A   1      40.459  25.404  25.740  1.00  0.00    -0.200 F 
ENDBRANCH  50  64
BRANCH  51  75
ATOM     75  C   UNL A   1      39.436  33.926  36.964  1.00  0.00     0.064 A 
ATOM     76  C   UNL A   1      40.069  35.176  37.007  1.00  0.00     0.173 A 
ATOM     77  C   UNL A   1      38.677  33.538  38.077  1.00  0.00     0.173 A 
ATOM     78  F   UNL A   1      40.823  35.580  35.974  1.00  0.00    -0.203 F 
ATOM     79  C   UNL A   1      39.964  35.997  38.127  1.00  0.00     0.198 A 
ATOM     80  C   UNL A   1      38.550  34.372  39.185  1.00  0.00     0.198 A 
ATOM     81  F   UNL A   1      38.048  32.354  38.083  1.00  0.00    -0.203 F 
ATOM     82  F   UNL A   1      40.614  37.168  38.160  1.00  0.00    -0.200 F 
ATOM     83  C   UNL A   1      39.201  35.597  39.214  1.00  0.00     0.200 A 
ATOM     84  F   UNL A   1      37.801  33.988  40.228  1.00  0.00    -0.200 F 
ATOM     85  F   UNL A   1      39.096  36.389  40.290  1.00  0.00    -0.200 F 
ENDBRANCH  51  75
BRANCH  63  86
ATOM     86  C   UNL A   1      43.810  28.755  35.337  1.00  0.00     0.064 A 
ATOM     87  C   UNL A   1      45.114  29.238  35.162  1.00  0.00     0.173 A 
ATOM     88  C   UNL A   1      43.612  27.707  36.248  1.00  0.00     0.173 A 
ATOM     89  F   UNL A   1      45.356  30.229  34.290  1.00  0.00    -0.203 F 
ATOM     90  C   UNL A   1      46.184  28.677  35.856  1.00  0.00     0.198 A 
ATOM     91  C   UNL A   1      44.679  27.168  36.962  1.00  0.00     0.198 A 
ATOM     92  F   UNL A   1      42.382  27.213  36.456  1.00  0.00    -0.203 F 
ATOM     93  F   UNL A   1      47.428  29.124  35.640  1.00  0.00    -0.200 F 
ATOM     94  C   UNL A   1      45.964  27.648  36.760  1.00  0.00     0.200 A 
ATOM     95  F   UNL A   1      44.464  26.182  37.843  1.00  0.00    -0.200 F 
ATOM     96  F   UNL A   1      46.993  27.114  37.432  1.00  0.00    -0.200 F 
ENDBRANCH  63  86
ENDBRANCH  37  38
ENDBRANCH  29  32
ENDBRANCH  27  28
ENDBRANCH  26  27
ENDBRANCH  25  26
ENDBRANCH   1  25
TORSDOF 15
ENDMDL
