MODEL 1
REMARK VINA RESULT:     -13.0      0.000      0.000
REMARK SMILES C[C@@H]1CC[C@@](C(=O)NCCCCNC(=O)c2ccc(-c3c4nc(c(-c5c(F)c(F)c(F)c(F)c5F)c5ccc([nH]5)c(-c5c(F)c(F)c(F)c(F)c5F)c5nc(c(-c6c(F)c(F)c(F)c(F)c6F)c6ccc3[nH]6)C=C5)C=C4)cc2)([C@@H]2CCC[C@H](S(C)(=O)=O)C2)C1
REMARK SMILES IDX 10 1 9 2 8 3 6 4 7 5 5 7 1 8 2 9 3 10 89 11 4 12 79 13 80 14
REMARK SMILES IDX 88 15 81 16 83 17 82 18 84 19 85 20 86 21 87 22 11 23 12 24
REMARK SMILES IDX 13 25 14 26 15 28 16 29 17 30 78 31 18 32 77 33 19 34 20 35
REMARK SMILES IDX 21 36 71 37 22 38 76 39 70 40 72 41 23 42 75 43 69 44 68 45
REMARK SMILES IDX 24 47 56 48 36 49 55 50 37 51 40 52 54 53 73 54 38 55 39 56
REMARK SMILES IDX 53 58 74 59 41 60 25 61 26 62 34 63 27 64 28 65 32 66 35 67
REMARK SMILES IDX 29 68 30 69 33 70 31 71 57 72 58 73 66 74 59 75 60 76 64 77
REMARK SMILES IDX 67 78 61 79 62 80 65 81 63 82 42 83 43 84 51 85 44 86 45 87
REMARK SMILES IDX 49 88 52 89 46 90 47 91 50 92 48 93
REMARK H PARENT 8 6 13 27 72 46 40 57
REMARK Flexibility Score: inf
ROOT
ATOM      1  C   UNL A   1      32.171  30.460  26.703  1.00  0.00     0.023 C 
ENDROOT
BRANCH   1   2
ATOM      2  C   UNL A   1      31.834  29.887  25.332  1.00  0.00     0.116 C 
BRANCH   2   3
ATOM      3  N   UNL A   1      33.004  29.494  24.578  1.00  0.00    -0.356 N 
ATOM      4  C   UNL A   1      33.281  28.417  23.797  1.00  0.00     0.226 C 
ATOM      5  O   UNL A   1      34.300  28.532  23.105  1.00  0.00    -0.274 OA
ATOM      6  H   UNL A   1      33.749  30.134  24.644  1.00  0.00     0.163 HD
BRANCH   4   7
ATOM      7  C   UNL A   1      32.363  27.164  23.652  1.00  0.00     0.052 C 
ATOM      8  C   UNL A   1      29.244  28.810  22.940  1.00  0.00     0.007 C 
ATOM      9  C   UNL A   1      29.948  27.456  23.058  1.00  0.00    -0.013 C 
ATOM     10  C   UNL A   1      30.038  26.909  24.481  1.00  0.00     0.004 C 
ATOM     11  C   UNL A   1      31.372  27.477  22.499  1.00  0.00     0.020 C 
ATOM     12  C   UNL A   1      31.507  26.848  24.893  1.00  0.00     0.017 C 
BRANCH   7  13
ATOM     13  C   UNL A   1      33.284  25.918  23.287  1.00  0.00     0.006 C 
ATOM     14  C   UNL A   1      32.568  24.821  22.459  1.00  0.00     0.005 C 
ATOM     15  C   UNL A   1      33.919  25.267  24.546  1.00  0.00     0.024 C 
ATOM     16  C   UNL A   1      33.498  23.658  22.122  1.00  0.00     0.002 C 
ATOM     17  C   UNL A   1      34.848  24.093  24.203  1.00  0.00     0.108 C 
ATOM     18  C   UNL A   1      34.113  23.043  23.373  1.00  0.00     0.020 C 
BRANCH  17  19
ATOM     19  S   UNL A   1      35.526  23.394  25.726  1.00  0.00     0.150 S 
ATOM     20  C   UNL A   1      35.846  21.689  25.339  1.00  0.00     0.158 C 
ATOM     21  O   UNL A   1      36.815  24.016  25.966  1.00  0.00    -0.229 OA
ATOM     22  O   UNL A   1      34.495  23.422  26.746  1.00  0.00    -0.229 OA
ENDBRANCH  17  19
ENDBRANCH   7  13
ENDBRANCH   4   7
ENDBRANCH   2   3
ENDBRANCH   1   2
BRANCH   1  23
ATOM     23  C   UNL A   1      31.803  31.930  26.888  1.00  0.00     0.023 C 
BRANCH  23  24
ATOM     24  C   UNL A   1      32.914  32.826  27.429  1.00  0.00     0.116 C 
BRANCH  24  25
ATOM     25  N   UNL A   1      32.486  34.188  27.726  1.00  0.00    -0.352 N 
ATOM     26  C   UNL A   1      33.012  35.070  28.642  1.00  0.00     0.251 C 
ATOM     27  H   UNL A   1      31.722  34.521  27.202  1.00  0.00     0.163 HD
ATOM     28  O   UNL A   1      32.514  36.176  28.816  1.00  0.00    -0.269 OA
BRANCH  26  29
ATOM     29  C   UNL A   1      34.160  34.633  29.458  1.00  0.00     0.039 A 
ATOM     30  C   UNL A   1      33.919  34.112  30.731  1.00  0.00     0.014 A 
ATOM     31  C   UNL A   1      35.445  34.627  28.912  1.00  0.00     0.014 A 
ATOM     32  C   UNL A   1      34.956  33.481  31.418  1.00  0.00     0.010 A 
ATOM     33  C   UNL A   1      36.458  33.938  29.568  1.00  0.00     0.010 A 
ATOM     34  C   UNL A   1      36.216  33.337  30.815  1.00  0.00    -0.014 A 
BRANCH  34  35
ATOM     35  C   UNL A   1      37.286  32.521  31.437  1.00  0.00     0.031 A 
ATOM     36  C   UNL A   1      37.786  32.861  32.809  1.00  0.00     0.074 A 
ATOM     37  C   UNL A   1      37.884  31.551  30.718  1.00  0.00     0.049 A 
ATOM     38  N   UNL A   1      38.807  32.369  33.464  1.00  0.00    -0.248 NA
ATOM     39  C   UNL A   1      37.064  33.923  33.526  1.00  0.00     0.031 C 
ATOM     40  C   UNL A   1      37.531  31.168  29.349  1.00  0.00     0.029 A 
ATOM     41  N   UNL A   1      38.935  30.725  31.031  1.00  0.00    -0.354 N 
ATOM     42  C   UNL A   1      38.871  33.085  34.652  1.00  0.00     0.074 A 
ATOM     43  C   UNL A   1      37.807  34.066  34.614  1.00  0.00     0.031 C 
ATOM     44  C   UNL A   1      38.341  30.176  28.946  1.00  0.00     0.029 A 
ATOM     45  C   UNL A   1      39.293  29.877  30.011  1.00  0.00     0.049 A 
ATOM     46  H   UNL A   1      39.389  30.738  31.905  1.00  0.00     0.167 HD
ATOM     47  C   UNL A   1      39.731  32.925  35.685  1.00  0.00     0.037 A 
ATOM     48  C   UNL A   1      40.285  28.970  29.939  1.00  0.00     0.037 A 
ATOM     49  C   UNL A   1      40.756  31.918  35.739  1.00  0.00     0.049 A 
ATOM     50  C   UNL A   1      41.194  28.780  31.121  1.00  0.00     0.074 A 
ATOM     51  C   UNL A   1      41.623  31.623  36.776  1.00  0.00     0.029 A 
ATOM     52  N   UNL A   1      41.046  31.034  34.710  1.00  0.00    -0.354 N 
ATOM     53  N   UNL A   1      41.204  29.417  32.266  1.00  0.00    -0.248 NA
ATOM     54  C   UNL A   1      42.226  27.739  31.003  1.00  0.00     0.031 C 
ATOM     55  C   UNL A   1      42.457  30.579  36.365  1.00  0.00     0.029 A 
ATOM     56  C   UNL A   1      42.087  30.200  35.085  1.00  0.00     0.049 A 
ATOM     57  H   UNL A   1      40.581  31.004  33.843  1.00  0.00     0.167 HD
ATOM     58  C   UNL A   1      42.223  28.843  33.012  1.00  0.00     0.074 A 
ATOM     59  C   UNL A   1      42.804  27.798  32.195  1.00  0.00     0.031 C 
ATOM     60  C   UNL A   1      42.640  29.156  34.263  1.00  0.00     0.037 A 
BRANCH  47  61
ATOM     61  C   UNL A   1      39.592  33.863  36.846  1.00  0.00     0.064 A 
ATOM     62  C   UNL A   1      40.211  35.122  36.849  1.00  0.00     0.173 A 
ATOM     63  C   UNL A   1      38.815  33.509  37.957  1.00  0.00     0.173 A 
ATOM     64  F   UNL A   1      40.977  35.500  35.815  1.00  0.00    -0.203 F 
ATOM     65  C   UNL A   1      40.079  35.982  37.937  1.00  0.00     0.198 A 
ATOM     66  C   UNL A   1      38.663  34.381  39.032  1.00  0.00     0.198 A 
ATOM     67  F   UNL A   1      38.200  32.317  38.001  1.00  0.00    -0.203 F 
ATOM     68  F   UNL A   1      40.718  37.159  37.940  1.00  0.00    -0.200 F 
ATOM     69  C   UNL A   1      39.301  35.612  39.024  1.00  0.00     0.200 A 
ATOM     70  F   UNL A   1      37.904  34.028  40.078  1.00  0.00    -0.200 F 
ATOM     71  F   UNL A   1      39.173  36.441  40.069  1.00  0.00    -0.200 F 
ENDBRANCH  47  61
BRANCH  48  72
ATOM     72  C   UNL A   1      40.451  28.152  28.711  1.00  0.00     0.064 A 
ATOM     73  C   UNL A   1      39.827  26.902  28.595  1.00  0.00     0.173 A 
ATOM     74  C   UNL A   1      41.226  28.600  27.633  1.00  0.00     0.173 A 
ATOM     75  F   UNL A   1      39.092  26.425  29.610  1.00  0.00    -0.203 F 
ATOM     76  C   UNL A   1      39.985  26.124  27.450  1.00  0.00     0.198 A 
ATOM     77  C   UNL A   1      41.365  27.831  26.481  1.00  0.00     0.198 A 
ATOM     78  F   UNL A   1      41.838  29.792  27.696  1.00  0.00    -0.203 F 
ATOM     79  F   UNL A   1      39.406  24.918  27.380  1.00  0.00    -0.200 F 
ATOM     80  C   UNL A   1      40.749  26.591  26.392  1.00  0.00     0.200 A 
ATOM     81  F   UNL A   1      42.096  28.289  25.455  1.00  0.00    -0.200 F 
ATOM     82  F   UNL A   1      40.898  25.843  25.290  1.00  0.00    -0.200 F 
ENDBRANCH  48  72
BRANCH  60  83
ATOM     83  C   UNL A   1      43.754  28.336  34.840  1.00  0.00     0.064 A 
ATOM     84  C   UNL A   1      45.091  28.747  34.747  1.00  0.00     0.173 A 
ATOM     85  C   UNL A   1      43.473  27.150  35.536  1.00  0.00     0.173 A 
ATOM     86  F   UNL A   1      45.408  29.864  34.077  1.00  0.00    -0.203 F 
ATOM     87  C   UNL A   1      46.110  27.991  35.320  1.00  0.00     0.198 A 
ATOM     88  C   UNL A   1      44.492  26.409  36.125  1.00  0.00     0.198 A 
ATOM     89  F   UNL A   1      42.208  26.719  35.653  1.00  0.00    -0.203 F 
ATOM     90  F   UNL A   1      47.386  28.384  35.192  1.00  0.00    -0.200 F 
ATOM     91  C   UNL A   1      45.811  26.828  36.014  1.00  0.00     0.200 A 
ATOM     92  F   UNL A   1      44.200  25.291  36.803  1.00  0.00    -0.200 F 
ATOM     93  F   UNL A   1      46.792  26.107  36.571  1.00  0.00    -0.200 F 
ENDBRANCH  60  83
ENDBRANCH  34  35
ENDBRANCH  26  29
ENDBRANCH  24  25
ENDBRANCH  23  24
ENDBRANCH   1  23
TORSDOF 13
ENDMDL
MODEL 2
REMARK VINA RESULT:     -13.0      5.718      9.699
REMARK SMILES C[C@@H]1CC[C@@](C(=O)NCCCCNC(=O)c2ccc(-c3c4nc(c(-c5c(F)c(F)c(F)c(F)c5F)c5ccc([nH]5)c(-c5c(F)c(F)c(F)c(F)c5F)c5nc(c(-c6c(F)c(F)c(F)c(F)c6F)c6ccc3[nH]6)C=C5)C=C4)cc2)([C@@H]2CCC[C@H](S(C)(=O)=O)C2)C1
REMARK SMILES IDX 10 1 9 2 8 3 6 4 7 5 5 7 1 8 2 9 3 10 89 11 4 12 79 13 80 14
REMARK SMILES IDX 88 15 81 16 83 17 82 18 84 19 85 20 86 21 87 22 11 23 12 24
REMARK SMILES IDX 13 25 14 26 15 28 16 29 17 30 78 31 18 32 77 33 19 34 20 35
REMARK SMILES IDX 21 36 71 37 22 38 76 39 70 40 72 41 23 42 75 43 69 44 68 45
REMARK SMILES IDX 24 47 56 48 36 49 55 50 37 51 40 52 54 53 73 54 38 55 39 56
REMARK SMILES IDX 53 58 74 59 41 60 25 61 26 62 34 63 27 64 28 65 32 66 35 67
REMARK SMILES IDX 29 68 30 69 33 70 31 71 57 72 58 73 66 74 59 75 60 76 64 77
REMARK SMILES IDX 67 78 61 79 62 80 65 81 63 82 42 83 43 84 51 85 44 86 45 87
REMARK SMILES IDX 49 88 52 89 46 90 47 91 50 92 48 93
REMARK H PARENT 8 6 13 27 72 46 40 57
REMARK Flexibility Score: inf
ROOT
ATOM      1  C   UNL A   1      37.084  22.179  24.335  1.00  0.00     0.023 C 
ENDROOT
BRANCH   1   2
ATOM      2  C   UNL A   1      36.828  23.470  25.103  1.00  0.00     0.116 C 
BRANCH   2   3
ATOM      3  N   UNL A   1      36.055  23.269  26.309  1.00  0.00    -0.356 N 
ATOM      4  C   UNL A   1      34.729  23.371  26.585  1.00  0.00     0.226 C 
ATOM      5  O   UNL A   1      34.390  22.883  27.670  1.00  0.00    -0.274 OA
ATOM      6  H   UNL A   1      36.599  23.006  27.087  1.00  0.00     0.163 HD
BRANCH   4   7
ATOM      7  C   UNL A   1      33.658  23.937  25.602  1.00  0.00     0.052 C 
ATOM      8  C   UNL A   1      33.825  27.416  26.500  1.00  0.00     0.007 C 
ATOM      9  C   UNL A   1      33.206  26.398  25.539  1.00  0.00    -0.013 C 
ATOM     10  C   UNL A   1      31.966  25.688  26.077  1.00  0.00     0.004 C 
ATOM     11  C   UNL A   1      34.192  25.310  25.112  1.00  0.00     0.020 C 
ATOM     12  C   UNL A   1      32.280  24.202  26.235  1.00  0.00     0.017 C 
BRANCH   7  13
ATOM     13  C   UNL A   1      33.518  22.917  24.387  1.00  0.00     0.006 C 
ATOM     14  C   UNL A   1      32.341  23.231  23.428  1.00  0.00     0.005 C 
ATOM     15  C   UNL A   1      33.399  21.444  24.866  1.00  0.00     0.024 C 
ATOM     16  C   UNL A   1      32.262  22.235  22.273  1.00  0.00     0.002 C 
ATOM     17  C   UNL A   1      33.311  20.446  23.702  1.00  0.00     0.108 C 
ATOM     18  C   UNL A   1      32.153  20.798  22.770  1.00  0.00     0.020 C 
BRANCH  17  19
ATOM     19  S   UNL A   1      33.162  18.767  24.356  1.00  0.00     0.150 S 
ATOM     20  C   UNL A   1      32.528  17.808  23.001  1.00  0.00     0.158 C 
ATOM     21  O   UNL A   1      34.500  18.274  24.625  1.00  0.00    -0.229 OA
ATOM     22  O   UNL A   1      32.153  18.765  25.399  1.00  0.00    -0.229 OA
ENDBRANCH  17  19
ENDBRANCH   7  13
ENDBRANCH   4   7
ENDBRANCH   2   3
ENDBRANCH   1   2
BRANCH   1  23
ATOM     23  C   UNL A   1      37.540  21.005  25.198  1.00  0.00     0.023 C 
BRANCH  23  24
ATOM     24  C   UNL A   1      38.959  21.104  25.751  1.00  0.00     0.116 C 
BRANCH  24  25
ATOM     25  N   UNL A   1      39.694  19.845  25.728  1.00  0.00    -0.352 N 
ATOM     26  C   UNL A   1      41.024  19.625  26.009  1.00  0.00     0.251 C 
ATOM     27  H   UNL A   1      39.172  19.048  25.482  1.00  0.00     0.163 HD
ATOM     28  O   UNL A   1      41.518  18.509  25.901  1.00  0.00    -0.269 OA
BRANCH  26  29
ATOM     29  C   UNL A   1      41.862  20.778  26.388  1.00  0.00     0.039 A 
ATOM     30  C   UNL A   1      42.281  21.660  25.390  1.00  0.00     0.014 A 
ATOM     31  C   UNL A   1      42.120  21.042  27.734  1.00  0.00     0.014 A 
ATOM     32  C   UNL A   1      42.867  22.872  25.752  1.00  0.00     0.010 A 
ATOM     33  C   UNL A   1      42.641  22.279  28.094  1.00  0.00     0.010 A 
ATOM     34  C   UNL A   1      42.996  23.215  27.108  1.00  0.00    -0.014 A 
BRANCH  34  35
ATOM     35  C   UNL A   1      43.450  24.563  27.529  1.00  0.00     0.031 A 
ATOM     36  C   UNL A   1      42.447  25.595  27.947  1.00  0.00     0.074 A 
ATOM     37  C   UNL A   1      44.753  24.887  27.420  1.00  0.00     0.049 A 
ATOM     38  N   UNL A   1      42.625  26.866  28.205  1.00  0.00    -0.248 NA
ATOM     39  C   UNL A   1      41.050  25.148  28.052  1.00  0.00     0.031 C 
ATOM     40  C   UNL A   1      45.817  23.990  26.965  1.00  0.00     0.029 A 
ATOM     41  N   UNL A   1      45.403  26.073  27.663  1.00  0.00    -0.354 N 
ATOM     42  C   UNL A   1      41.361  27.376  28.468  1.00  0.00     0.074 A 
ATOM     43  C   UNL A   1      40.421  26.287  28.306  1.00  0.00     0.031 C 
ATOM     44  C   UNL A   1      46.986  24.652  26.972  1.00  0.00     0.029 A 
ATOM     45  C   UNL A   1      46.749  26.027  27.397  1.00  0.00     0.049 A 
ATOM     46  H   UNL A   1      44.946  26.879  27.996  1.00  0.00     0.167 HD
ATOM     47  C   UNL A   1      41.020  28.636  28.827  1.00  0.00     0.037 A 
ATOM     48  C   UNL A   1      47.686  26.991  27.476  1.00  0.00     0.037 A 
ATOM     49  C   UNL A   1      41.961  29.703  29.033  1.00  0.00     0.049 A 
ATOM     50  C   UNL A   1      47.287  28.369  27.925  1.00  0.00     0.074 A 
ATOM     51  C   UNL A   1      41.722  30.992  29.476  1.00  0.00     0.029 A 
ATOM     52  N   UNL A   1      43.327  29.602  28.815  1.00  0.00    -0.354 N 
ATOM     53  N   UNL A   1      46.098  28.824  28.235  1.00  0.00    -0.248 NA
ATOM     54  C   UNL A   1      48.361  29.366  28.041  1.00  0.00     0.031 C 
ATOM     55  C   UNL A   1      42.940  31.679  29.501  1.00  0.00     0.029 A 
ATOM     56  C   UNL A   1      43.943  30.808  29.106  1.00  0.00     0.049 A 
ATOM     57  H   UNL A   1      43.791  28.791  28.502  1.00  0.00     0.167 HD
ATOM     58  C   UNL A   1      46.281  30.149  28.604  1.00  0.00     0.074 A 
ATOM     59  C   UNL A   1      47.699  30.424  28.490  1.00  0.00     0.031 C 
ATOM     60  C   UNL A   1      45.356  31.057  29.001  1.00  0.00     0.037 A 
BRANCH  47  61
ATOM     61  C   UNL A   1      39.562  28.924  29.023  1.00  0.00     0.064 A 
ATOM     62  C   UNL A   1      38.958  28.824  30.285  1.00  0.00     0.173 A 
ATOM     63  C   UNL A   1      38.766  29.328  27.942  1.00  0.00     0.173 A 
ATOM     64  F   UNL A   1      39.675  28.427  31.347  1.00  0.00    -0.203 F 
ATOM     65  C   UNL A   1      37.601  29.088  30.452  1.00  0.00     0.198 A 
ATOM     66  C   UNL A   1      37.416  29.618  28.117  1.00  0.00     0.198 A 
ATOM     67  F   UNL A   1      39.297  29.442  26.715  1.00  0.00    -0.203 F 
ATOM     68  F   UNL A   1      37.034  28.939  31.657  1.00  0.00    -0.200 F 
ATOM     69  C   UNL A   1      36.833  29.490  29.369  1.00  0.00     0.200 A 
ATOM     70  F   UNL A   1      36.676  30.014  27.073  1.00  0.00    -0.200 F 
ATOM     71  F   UNL A   1      35.528  29.747  29.532  1.00  0.00    -0.200 F 
ENDBRANCH  47  61
BRANCH  48  72
ATOM     72  C   UNL A   1      49.099  26.677  27.149  1.00  0.00     0.064 A 
ATOM     73  C   UNL A   1      50.019  26.379  28.164  1.00  0.00     0.173 A 
ATOM     74  C   UNL A   1      49.558  26.663  25.825  1.00  0.00     0.173 A 
ATOM     75  F   UNL A   1      49.630  26.400  29.447  1.00  0.00    -0.203 F 
ATOM     76  C   UNL A   1      51.350  26.091  27.866  1.00  0.00     0.198 A 
ATOM     77  C   UNL A   1      50.883  26.354  25.527  1.00  0.00     0.198 A 
ATOM     78  F   UNL A   1      48.714  26.936  24.819  1.00  0.00    -0.203 F 
ATOM     79  F   UNL A   1      52.216  25.845  28.858  1.00  0.00    -0.200 F 
ATOM     80  C   UNL A   1      51.780  26.074  26.548  1.00  0.00     0.200 A 
ATOM     81  F   UNL A   1      51.294  26.328  24.251  1.00  0.00    -0.200 F 
ATOM     82  F   UNL A   1      53.058  25.795  26.263  1.00  0.00    -0.200 F 
ENDBRANCH  48  72
BRANCH  60  83
ATOM     83  C   UNL A   1      45.851  32.421  29.376  1.00  0.00     0.064 A 
ATOM     84  C   UNL A   1      45.905  33.463  28.441  1.00  0.00     0.173 A 
ATOM     85  C   UNL A   1      46.227  32.698  30.698  1.00  0.00     0.173 A 
ATOM     86  F   UNL A   1      45.572  33.240  27.161  1.00  0.00    -0.203 F 
ATOM     87  C   UNL A   1      46.334  34.734  28.814  1.00  0.00     0.198 A 
ATOM     88  C   UNL A   1      46.633  33.975  31.073  1.00  0.00     0.198 A 
ATOM     89  F   UNL A   1      46.188  31.732  31.629  1.00  0.00    -0.203 F 
ATOM     90  F   UNL A   1      46.411  35.710  27.897  1.00  0.00    -0.200 F 
ATOM     91  C   UNL A   1      46.690  34.991  30.130  1.00  0.00     0.200 A 
ATOM     92  F   UNL A   1      46.969  34.224  32.346  1.00  0.00    -0.200 F 
ATOM     93  F   UNL A   1      47.094  36.217  30.489  1.00  0.00    -0.200 F 
ENDBRANCH  60  83
ENDBRANCH  34  35
ENDBRANCH  26  29
ENDBRANCH  24  25
ENDBRANCH  23  24
ENDBRANCH   1  23
TORSDOF 13
ENDMDL
MODEL 3
REMARK VINA RESULT:     -13.0      1.037      7.382
REMARK SMILES C[C@@H]1CC[C@@](C(=O)NCCCCNC(=O)c2ccc(-c3c4nc(c(-c5c(F)c(F)c(F)c(F)c5F)c5ccc([nH]5)c(-c5c(F)c(F)c(F)c(F)c5F)c5nc(c(-c6c(F)c(F)c(F)c(F)c6F)c6ccc3[nH]6)C=C5)C=C4)cc2)([C@@H]2CCC[C@H](S(C)(=O)=O)C2)C1
REMARK SMILES IDX 10 1 9 2 8 3 6 4 7 5 5 7 1 8 2 9 3 10 89 11 4 12 79 13 80 14
REMARK SMILES IDX 88 15 81 16 83 17 82 18 84 19 85 20 86 21 87 22 11 23 12 24
REMARK SMILES IDX 13 25 14 26 15 28 16 29 17 30 78 31 18 32 77 33 19 34 20 35
REMARK SMILES IDX 21 36 71 37 22 38 76 39 70 40 72 41 23 42 75 43 69 44 68 45
REMARK SMILES IDX 24 47 56 48 36 49 55 50 37 51 40 52 54 53 73 54 38 55 39 56
REMARK SMILES IDX 53 58 74 59 41 60 25 61 26 62 34 63 27 64 28 65 32 66 35 67
REMARK SMILES IDX 29 68 30 69 33 70 31 71 57 72 58 73 66 74 59 75 60 76 64 77
REMARK SMILES IDX 67 78 61 79 62 80 65 81 63 82 42 83 43 84 51 85 44 86 45 87
REMARK SMILES IDX 49 88 52 89 46 90 47 91 50 92 48 93
REMARK H PARENT 8 6 13 27 72 46 40 57
REMARK Flexibility Score: inf
ROOT
ATOM      1  C   UNL A   1      32.218  29.767  27.251  1.00  0.00     0.023 C 
ENDROOT
BRANCH   1   2
ATOM      2  C   UNL A   1      33.406  28.936  26.784  1.00  0.00     0.116 C 
BRANCH   2   3
ATOM      3  N   UNL A   1      33.791  29.214  25.418  1.00  0.00    -0.356 N 
ATOM      4  C   UNL A   1      33.374  28.721  24.222  1.00  0.00     0.226 C 
ATOM      5  O   UNL A   1      33.751  29.370  23.239  1.00  0.00    -0.274 OA
ATOM      6  H   UNL A   1      34.496  29.896  25.338  1.00  0.00     0.163 HD
BRANCH   4   7
ATOM      7  C   UNL A   1      32.402  27.513  24.049  1.00  0.00     0.052 C 
ATOM      8  C   UNL A   1      29.916  29.065  21.963  1.00  0.00     0.007 C 
ATOM      9  C   UNL A   1      30.367  27.753  22.611  1.00  0.00    -0.013 C 
ATOM     10  C   UNL A   1      29.922  27.575  24.061  1.00  0.00     0.004 C 
ATOM     11  C   UNL A   1      31.885  27.572  22.586  1.00  0.00     0.020 C 
ATOM     12  C   UNL A   1      31.158  27.554  24.956  1.00  0.00     0.017 C 
BRANCH   7  13
ATOM     13  C   UNL A   1      33.227  26.176  24.306  1.00  0.00     0.006 C 
ATOM     14  C   UNL A   1      33.639  25.426  23.014  1.00  0.00     0.005 C 
ATOM     15  C   UNL A   1      32.475  25.192  25.242  1.00  0.00     0.024 C 
ATOM     16  C   UNL A   1      34.441  24.162  23.315  1.00  0.00     0.002 C 
ATOM     17  C   UNL A   1      33.282  23.917  25.537  1.00  0.00     0.108 C 
ATOM     18  C   UNL A   1      33.684  23.218  24.241  1.00  0.00     0.020 C 
BRANCH  17  19
ATOM     19  S   UNL A   1      32.323  22.832  26.619  1.00  0.00     0.150 S 
ATOM     20  C   UNL A   1      33.538  21.969  27.587  1.00  0.00     0.158 C 
ATOM     21  O   UNL A   1      31.574  23.668  27.539  1.00  0.00    -0.229 OA
ATOM     22  O   UNL A   1      31.641  21.848  25.799  1.00  0.00    -0.229 OA
ENDBRANCH  17  19
ENDBRANCH   7  13
ENDBRANCH   4   7
ENDBRANCH   2   3
ENDBRANCH   1   2
BRANCH   1  23
ATOM     23  C   UNL A   1      32.213  31.209  26.751  1.00  0.00     0.023 C 
BRANCH  23  24
ATOM     24  C   UNL A   1      33.135  32.170  27.498  1.00  0.00     0.116 C 
BRANCH  24  25
ATOM     25  N   UNL A   1      32.604  33.522  27.626  1.00  0.00    -0.352 N 
ATOM     26  C   UNL A   1      33.058  34.547  28.425  1.00  0.00     0.251 C 
ATOM     27  H   UNL A   1      31.820  33.730  27.068  1.00  0.00     0.163 HD
ATOM     28  O   UNL A   1      32.477  35.626  28.463  1.00  0.00    -0.269 OA
BRANCH  26  29
ATOM     29  C   UNL A   1      34.232  34.302  29.283  1.00  0.00     0.039 A 
ATOM     30  C   UNL A   1      34.036  33.721  30.538  1.00  0.00     0.014 A 
ATOM     31  C   UNL A   1      35.518  34.533  28.793  1.00  0.00     0.014 A 
ATOM     32  C   UNL A   1      35.140  33.268  31.260  1.00  0.00     0.010 A 
ATOM     33  C   UNL A   1      36.610  34.020  29.482  1.00  0.00     0.010 A 
ATOM     34  C   UNL A   1      36.428  33.360  30.709  1.00  0.00    -0.014 A 
BRANCH  34  35
ATOM     35  C   UNL A   1      37.600  32.732  31.366  1.00  0.00     0.031 A 
ATOM     36  C   UNL A   1      38.297  31.577  30.712  1.00  0.00     0.074 A 
ATOM     37  C   UNL A   1      37.959  33.129  32.603  1.00  0.00     0.049 A 
ATOM     38  N   UNL A   1      39.239  30.802  31.187  1.00  0.00    -0.248 NA
ATOM     39  C   UNL A   1      37.849  31.223  29.356  1.00  0.00     0.031 C 
ATOM     40  C   UNL A   1      37.319  34.199  33.371  1.00  0.00     0.029 A 
ATOM     41  N   UNL A   1      38.938  32.660  33.444  1.00  0.00    -0.354 N 
ATOM     42  C   UNL A   1      39.469  29.848  30.204  1.00  0.00     0.074 A 
ATOM     43  C   UNL A   1      38.549  30.122  29.121  1.00  0.00     0.031 C 
ATOM     44  C   UNL A   1      37.927  34.312  34.562  1.00  0.00     0.029 A 
ATOM     45  C   UNL A   1      38.976  33.302  34.657  1.00  0.00     0.049 A 
ATOM     46  H   UNL A   1      39.555  31.933  33.199  1.00  0.00     0.167 HD
ATOM     47  C   UNL A   1      40.379  28.846  30.202  1.00  0.00     0.037 A 
ATOM     48  C   UNL A   1      39.761  33.090  35.731  1.00  0.00     0.037 A 
ATOM     49  C   UNL A   1      41.325  28.606  31.259  1.00  0.00     0.049 A 
ATOM     50  C   UNL A   1      40.796  32.001  35.681  1.00  0.00     0.074 A 
ATOM     51  C   UNL A   1      42.339  27.667  31.313  1.00  0.00     0.029 A 
ATOM     52  N   UNL A   1      41.375  29.319  32.447  1.00  0.00    -0.354 N 
ATOM     53  N   UNL A   1      41.050  31.147  34.721  1.00  0.00    -0.248 NA
ATOM     54  C   UNL A   1      41.657  31.851  36.863  1.00  0.00     0.031 C 
ATOM     55  C   UNL A   1      42.987  27.794  32.546  1.00  0.00     0.029 A 
ATOM     56  C   UNL A   1      42.398  28.834  33.246  1.00  0.00     0.049 A 
ATOM     57  H   UNL A   1      40.773  30.061  32.687  1.00  0.00     0.167 HD
ATOM     58  C   UNL A   1      42.112  30.375  35.170  1.00  0.00     0.074 A 
ATOM     59  C   UNL A   1      42.463  30.867  36.486  1.00  0.00     0.031 C 
ATOM     60  C   UNL A   1      42.740  29.348  34.546  1.00  0.00     0.037 A 
BRANCH  47  61
ATOM     61  C   UNL A   1      40.395  27.934  29.012  1.00  0.00     0.064 A 
ATOM     62  C   UNL A   1      39.651  26.746  28.988  1.00  0.00     0.173 A 
ATOM     63  C   UNL A   1      41.146  28.264  27.874  1.00  0.00     0.173 A 
ATOM     64  F   UNL A   1      38.929  26.380  30.058  1.00  0.00    -0.203 F 
ATOM     65  C   UNL A   1      39.680  25.905  27.878  1.00  0.00     0.198 A 
ATOM     66  C   UNL A   1      41.152  27.436  26.756  1.00  0.00     0.198 A 
ATOM     67  F   UNL A   1      41.872  29.391  27.846  1.00  0.00    -0.203 F 
ATOM     68  F   UNL A   1      38.999  24.751  27.896  1.00  0.00    -0.200 F 
ATOM     69  C   UNL A   1      40.425  26.254  26.762  1.00  0.00     0.200 A 
ATOM     70  F   UNL A   1      41.865  27.776  25.674  1.00  0.00    -0.200 F 
ATOM     71  F   UNL A   1      40.450  25.445  25.693  1.00  0.00    -0.200 F 
ENDBRANCH  47  61
BRANCH  48  72
ATOM     72  C   UNL A   1      39.615  33.948  36.933  1.00  0.00     0.064 A 
ATOM     73  C   UNL A   1      38.840  33.527  38.023  1.00  0.00     0.173 A 
ATOM     74  C   UNL A   1      40.245  35.197  37.021  1.00  0.00     0.173 A 
ATOM     75  F   UNL A   1      38.203  32.348  37.974  1.00  0.00    -0.203 F 
ATOM     76  C   UNL A   1      38.691  34.330  39.151  1.00  0.00     0.198 A 
ATOM     77  C   UNL A   1      40.112  35.990  38.159  1.00  0.00     0.198 A 
ATOM     78  F   UNL A   1      41.001  35.641  36.006  1.00  0.00    -0.203 F 
ATOM     79  F   UNL A   1      37.916  33.919  40.164  1.00  0.00    -0.200 F 
ATOM     80  C   UNL A   1      39.330  35.558  39.221  1.00  0.00     0.200 A 
ATOM     81  F   UNL A   1      40.740  37.172  38.228  1.00  0.00    -0.200 F 
ATOM     82  F   UNL A   1      39.188  36.328  40.308  1.00  0.00    -0.200 F 
ENDBRANCH  48  72
BRANCH  60  83
ATOM     83  C   UNL A   1      43.892  28.712  35.262  1.00  0.00     0.064 A 
ATOM     84  C   UNL A   1      45.210  29.144  35.059  1.00  0.00     0.173 A 
ATOM     85  C   UNL A   1      43.667  27.692  36.199  1.00  0.00     0.173 A 
ATOM     86  F   UNL A   1      45.474  30.104  34.161  1.00  0.00    -0.203 F 
ATOM     87  C   UNL A   1      46.265  28.566  35.760  1.00  0.00     0.198 A 
ATOM     88  C   UNL A   1      44.721  27.132  36.913  1.00  0.00     0.198 A 
ATOM     89  F   UNL A   1      42.421  27.249  36.429  1.00  0.00    -0.203 F 
ATOM     90  F   UNL A   1      47.522  28.970  35.527  1.00  0.00    -0.200 F 
ATOM     91  C   UNL A   1      46.020  27.567  36.691  1.00  0.00     0.200 A 
ATOM     92  F   UNL A   1      44.482  26.174  37.818  1.00  0.00    -0.200 F 
ATOM     93  F   UNL A   1      47.036  27.019  37.369  1.00  0.00    -0.200 F 
ENDBRANCH  60  83
ENDBRANCH  34  35
ENDBRANCH  26  29
ENDBRANCH  24  25
ENDBRANCH  23  24
ENDBRANCH   1  23
TORSDOF 13
ENDMDL
