MODEL 1
REMARK VINA RESULT:     -13.9      0.000      0.000
REMARK SMILES Cc1nc(NC(=O)[C@H]2[C@@H]3CC[C@@H](C3)[C@@H]2C(=O)NCCCCNC(=O)c2ccc(-c3c4nc(c(-c5c(F)c(F)c(F)c(F)c5F)c5ccc([nH]5)c(-c5c(F)c(F)c(F)c(F)c5F)c5nc(c(-c6c(F)c(F)c(F)c(F)c6F)c6ccc3[nH]6)C=C5)C=C4)cc2)sc1-c1ccccc1
REMARK SMILES IDX 19 1 18 2 17 3 15 4 16 5 14 7 8 8 9 9 10 10 13 11 12 12
REMARK SMILES IDX 11 13 6 14 5 15 7 17 4 18 1 19 2 20 3 21 89 22 88 23 90 24
REMARK SMILES IDX 91 25 95 26 92 27 94 28 93 29 20 30 21 31 22 32 23 33 24 35
REMARK SMILES IDX 25 36 26 37 87 38 27 39 86 40 28 41 29 42 30 43 80 44 31 45
REMARK SMILES IDX 85 46 79 47 81 48 32 49 84 50 78 51 77 52 33 54 65 55 45 56
REMARK SMILES IDX 64 57 46 58 49 59 63 60 82 61 47 62 48 63 62 65 83 66 50 67
REMARK SMILES IDX 34 68 35 69 43 70 36 71 37 72 41 73 44 74 38 75 39 76 42 77
REMARK SMILES IDX 40 78 66 79 67 80 75 81 68 82 69 83 73 84 76 85 70 86 71 87
REMARK SMILES IDX 74 88 72 89 51 90 52 91 60 92 53 93 54 94 58 95 61 96 55 97
REMARK SMILES IDX 56 98 59 99 57 100
REMARK H PARENT 17 6 5 16 22 34 81 53 49 64
REMARK Flexibility Score: inf
ROOT
ATOM      1  C   UNL A   1      31.679  30.642  26.772  1.00  0.00     0.023 C 
ENDROOT
BRANCH   1   2
ATOM      2  C   UNL A   1      31.991  30.109  25.378  1.00  0.00     0.116 C 
BRANCH   2   3
ATOM      3  N   UNL A   1      32.810  28.916  25.373  1.00  0.00    -0.356 N 
ATOM      4  C   UNL A   1      32.516  27.594  25.214  1.00  0.00     0.224 C 
ATOM      5  O   UNL A   1      33.497  26.854  25.088  1.00  0.00    -0.275 OA
ATOM      6  H   UNL A   1      33.768  29.092  25.511  1.00  0.00     0.163 HD
BRANCH   4   7
ATOM      7  C   UNL A   1      31.069  27.056  25.218  1.00  0.00     0.094 C 
ATOM      8  C   UNL A   1      31.055  25.484  25.164  1.00  0.00     0.094 C 
ATOM      9  C   UNL A   1      30.313  25.248  23.801  1.00  0.00     0.002 C 
ATOM     10  C   UNL A   1      31.154  25.744  22.609  1.00  0.00     0.005 C 
ATOM     11  C   UNL A   1      29.220  26.309  23.879  1.00  0.00     0.009 C 
ATOM     12  C   UNL A   1      30.221  27.452  23.982  1.00  0.00     0.002 C 
ATOM     13  C   UNL A   1      31.030  27.267  22.694  1.00  0.00     0.005 C 
BRANCH   8  14
ATOM     14  C   UNL A   1      30.300  24.654  26.240  1.00  0.00     0.230 C 
ATOM     15  N   UNL A   1      30.602  23.404  26.658  1.00  0.00    -0.302 N 
ATOM     16  H   UNL A   1      30.112  23.087  27.452  1.00  0.00     0.172 HD
ATOM     17  O   UNL A   1      29.310  25.150  26.801  1.00  0.00    -0.274 OA
BRANCH  15  18
ATOM     18  C   UNL A   1      31.488  22.531  26.127  1.00  0.00     0.190 A 
ATOM     19  C   UNL A   1      32.356  20.004  23.795  1.00  0.00     0.068 C 
ATOM     20  C   UNL A   1      32.424  21.029  24.856  1.00  0.00     0.058 A 
ATOM     21  N   UNL A   1      31.238  21.523  25.345  1.00  0.00    -0.225 NA
ATOM     22  C   UNL A   1      33.564  21.677  25.299  1.00  0.00     0.059 A 
ATOM     23  S   UNL A   1      33.137  22.844  26.471  1.00  0.00    -0.096 S 
BRANCH  22  24
ATOM     24  C   UNL A   1      34.911  21.465  24.792  1.00  0.00    -0.006 A 
ATOM     25  C   UNL A   1      35.655  22.555  24.326  1.00  0.00     0.009 A 
ATOM     26  C   UNL A   1      35.564  20.256  25.079  1.00  0.00     0.009 A 
ATOM     27  C   UNL A   1      37.042  22.456  24.209  1.00  0.00     0.001 A 
ATOM     28  C   UNL A   1      36.951  20.161  24.959  1.00  0.00     0.001 A 
ATOM     29  C   UNL A   1      37.690  21.266  24.540  1.00  0.00     0.000 A 
ENDBRANCH  22  24
ENDBRANCH  15  18
ENDBRANCH   8  14
ENDBRANCH   4   7
ENDBRANCH   2   3
ENDBRANCH   1   2
BRANCH   1  30
ATOM     30  C   UNL A   1      31.530  32.163  26.867  1.00  0.00     0.023 C 
BRANCH  30  31
ATOM     31  C   UNL A   1      32.791  32.903  27.275  1.00  0.00     0.116 C 
BRANCH  31  32
ATOM     32  N   UNL A   1      32.521  34.284  27.632  1.00  0.00    -0.352 N 
ATOM     33  C   UNL A   1      33.031  35.014  28.676  1.00  0.00     0.251 C 
ATOM     34  H   UNL A   1      31.887  34.760  27.048  1.00  0.00     0.163 HD
ATOM     35  O   UNL A   1      32.532  36.086  28.986  1.00  0.00    -0.269 OA
BRANCH  33  36
ATOM     36  C   UNL A   1      34.182  34.477  29.429  1.00  0.00     0.039 A 
ATOM     37  C   UNL A   1      33.957  33.840  30.650  1.00  0.00     0.014 A 
ATOM     38  C   UNL A   1      35.477  34.589  28.914  1.00  0.00     0.014 A 
ATOM     39  C   UNL A   1      35.030  33.269  31.331  1.00  0.00     0.010 A 
ATOM     40  C   UNL A   1      36.528  33.938  29.544  1.00  0.00     0.010 A 
ATOM     41  C   UNL A   1      36.316  33.284  30.766  1.00  0.00    -0.014 A 
BRANCH  41  42
ATOM     42  C   UNL A   1      37.461  32.631  31.447  1.00  0.00     0.031 A 
ATOM     43  C   UNL A   1      38.156  31.470  30.793  1.00  0.00     0.074 A 
ATOM     44  C   UNL A   1      37.823  33.046  32.675  1.00  0.00     0.049 A 
ATOM     45  N   UNL A   1      39.131  30.727  31.249  1.00  0.00    -0.248 NA
ATOM     46  C   UNL A   1      37.671  31.068  29.461  1.00  0.00     0.031 C 
ATOM     47  C   UNL A   1      37.179  34.125  33.429  1.00  0.00     0.029 A 
ATOM     48  N   UNL A   1      38.816  32.605  33.513  1.00  0.00    -0.354 N 
ATOM     49  C   UNL A   1      39.362  29.768  30.272  1.00  0.00     0.074 A 
ATOM     50  C   UNL A   1      38.390  29.982  29.224  1.00  0.00     0.031 C 
ATOM     51  C   UNL A   1      37.809  34.278  34.605  1.00  0.00     0.029 A 
ATOM     52  C   UNL A   1      38.870  33.282  34.708  1.00  0.00     0.049 A 
ATOM     53  H   UNL A   1      39.432  31.872  33.280  1.00  0.00     0.167 HD
ATOM     54  C   UNL A   1      40.320  28.811  30.243  1.00  0.00     0.037 A 
ATOM     55  C   UNL A   1      39.679  33.107  35.769  1.00  0.00     0.037 A 
ATOM     56  C   UNL A   1      41.301  28.627  31.279  1.00  0.00     0.049 A 
ATOM     57  C   UNL A   1      40.734  32.034  35.707  1.00  0.00     0.074 A 
ATOM     58  C   UNL A   1      42.359  27.737  31.315  1.00  0.00     0.029 A 
ATOM     59  N   UNL A   1      41.339  29.346  32.465  1.00  0.00    -0.354 N 
ATOM     60  N   UNL A   1      41.000  31.190  34.740  1.00  0.00    -0.248 NA
ATOM     61  C   UNL A   1      41.605  31.894  36.881  1.00  0.00     0.031 C 
ATOM     62  C   UNL A   1      43.002  27.876  32.549  1.00  0.00     0.029 A 
ATOM     63  C   UNL A   1      42.386  28.897  33.254  1.00  0.00     0.049 A 
ATOM     64  H   UNL A   1      40.717  30.068  32.709  1.00  0.00     0.167 HD
ATOM     65  C   UNL A   1      42.085  30.440  35.175  1.00  0.00     0.074 A 
ATOM     66  C   UNL A   1      42.441  30.946  36.485  1.00  0.00     0.031 C 
ATOM     67  C   UNL A   1      42.727  29.422  34.552  1.00  0.00     0.037 A 
BRANCH  54  68
ATOM     68  C   UNL A   1      40.362  27.894  29.055  1.00  0.00     0.064 A 
ATOM     69  C   UNL A   1      39.616  26.706  29.013  1.00  0.00     0.173 A 
ATOM     70  C   UNL A   1      41.110  28.238  27.919  1.00  0.00     0.173 A 
ATOM     71  F   UNL A   1      38.894  26.323  30.076  1.00  0.00    -0.203 F 
ATOM     72  C   UNL A   1      39.635  25.887  27.886  1.00  0.00     0.198 A 
ATOM     73  C   UNL A   1      41.101  27.433  26.783  1.00  0.00     0.198 A 
ATOM     74  F   UNL A   1      41.839  29.363  27.904  1.00  0.00    -0.203 F 
ATOM     75  F   UNL A   1      38.949  24.735  27.886  1.00  0.00    -0.200 F 
ATOM     76  C   UNL A   1      40.369  26.256  26.769  1.00  0.00     0.200 A 
ATOM     77  F   UNL A   1      41.800  27.799  25.699  1.00  0.00    -0.200 F 
ATOM     78  F   UNL A   1      40.372  25.475  25.681  1.00  0.00    -0.200 F 
ENDBRANCH  54  68
BRANCH  55  79
ATOM     79  C   UNL A   1      39.532  33.967  36.974  1.00  0.00     0.064 A 
ATOM     80  C   UNL A   1      38.795  33.534  38.086  1.00  0.00     0.173 A 
ATOM     81  C   UNL A   1      40.107  35.245  37.033  1.00  0.00     0.173 A 
ATOM     82  F   UNL A   1      38.212  32.327  38.074  1.00  0.00    -0.203 F 
ATOM     83  C   UNL A   1      38.606  34.360  39.193  1.00  0.00     0.198 A 
ATOM     84  C   UNL A   1      39.949  36.056  38.155  1.00  0.00     0.198 A 
ATOM     85  F   UNL A   1      40.831  35.705  36.003  1.00  0.00    -0.203 F 
ATOM     86  F   UNL A   1      37.846  33.944  40.214  1.00  0.00    -0.200 F 
ATOM     87  C   UNL A   1      39.187  35.618  39.229  1.00  0.00     0.200 A 
ATOM     88  F   UNL A   1      40.529  37.263  38.194  1.00  0.00    -0.200 F 
ATOM     89  F   UNL A   1      39.007  36.412  40.293  1.00  0.00    -0.200 F 
ENDBRANCH  55  79
BRANCH  67  90
ATOM     90  C   UNL A   1      43.900  28.812  35.262  1.00  0.00     0.064 A 
ATOM     91  C   UNL A   1      45.209  29.268  35.052  1.00  0.00     0.173 A 
ATOM     92  C   UNL A   1      43.706  27.781  36.195  1.00  0.00     0.173 A 
ATOM     93  F   UNL A   1      45.449  30.241  34.159  1.00  0.00    -0.203 F 
ATOM     94  C   UNL A   1      46.283  28.697  35.727  1.00  0.00     0.198 A 
ATOM     95  C   UNL A   1      44.777  27.237  36.896  1.00  0.00     0.198 A 
ATOM     96  F   UNL A   1      42.472  27.314  36.440  1.00  0.00    -0.203 F 
ATOM     97  F   UNL A   1      47.531  29.111  35.470  1.00  0.00    -0.200 F 
ATOM     98  C   UNL A   1      46.066  27.688  36.654  1.00  0.00     0.200 A 
ATOM     99  F   UNL A   1      44.563  26.276  37.804  1.00  0.00    -0.200 F 
ATOM    100  F   UNL A   1      47.101  27.145  37.310  1.00  0.00    -0.200 F 
ENDBRANCH  67  90
ENDBRANCH  41  42
ENDBRANCH  33  36
ENDBRANCH  31  32
ENDBRANCH  30  31
ENDBRANCH   1  30
TORSDOF 14
ENDMDL
MODEL 2
REMARK VINA RESULT:     -13.9      0.130      1.547
REMARK SMILES Cc1nc(NC(=O)[C@H]2[C@@H]3CC[C@@H](C3)[C@@H]2C(=O)NCCCCNC(=O)c2ccc(-c3c4nc(c(-c5c(F)c(F)c(F)c(F)c5F)c5ccc([nH]5)c(-c5c(F)c(F)c(F)c(F)c5F)c5nc(c(-c6c(F)c(F)c(F)c(F)c6F)c6ccc3[nH]6)C=C5)C=C4)cc2)sc1-c1ccccc1
REMARK SMILES IDX 19 1 18 2 17 3 15 4 16 5 14 7 8 8 9 9 10 10 13 11 12 12
REMARK SMILES IDX 11 13 6 14 5 15 7 17 4 18 1 19 2 20 3 21 89 22 88 23 90 24
REMARK SMILES IDX 91 25 95 26 92 27 94 28 93 29 20 30 21 31 22 32 23 33 24 35
REMARK SMILES IDX 25 36 26 37 87 38 27 39 86 40 28 41 29 42 30 43 80 44 31 45
REMARK SMILES IDX 85 46 79 47 81 48 32 49 84 50 78 51 77 52 33 54 65 55 45 56
REMARK SMILES IDX 64 57 46 58 49 59 63 60 82 61 47 62 48 63 62 65 83 66 50 67
REMARK SMILES IDX 34 68 35 69 43 70 36 71 37 72 41 73 44 74 38 75 39 76 42 77
REMARK SMILES IDX 40 78 66 79 67 80 75 81 68 82 69 83 73 84 76 85 70 86 71 87
REMARK SMILES IDX 74 88 72 89 51 90 52 91 60 92 53 93 54 94 58 95 61 96 55 97
REMARK SMILES IDX 56 98 59 99 57 100
REMARK H PARENT 17 6 5 16 22 34 81 53 49 64
REMARK Flexibility Score: inf
ROOT
ATOM      1  C   UNL A   1      31.668  30.673  26.776  1.00  0.00     0.023 C 
ENDROOT
BRANCH   1   2
ATOM      2  C   UNL A   1      31.945  30.142  25.374  1.00  0.00     0.116 C 
BRANCH   2   3
ATOM      3  N   UNL A   1      32.765  28.950  25.346  1.00  0.00    -0.356 N 
ATOM      4  C   UNL A   1      32.472  27.630  25.172  1.00  0.00     0.224 C 
ATOM      5  O   UNL A   1      33.453  26.894  25.029  1.00  0.00    -0.275 OA
ATOM      6  H   UNL A   1      33.724  29.127  25.477  1.00  0.00     0.163 HD
BRANCH   4   7
ATOM      7  C   UNL A   1      31.027  27.089  25.184  1.00  0.00     0.094 C 
ATOM      8  C   UNL A   1      31.016  25.517  25.145  1.00  0.00     0.094 C 
ATOM      9  C   UNL A   1      30.272  25.267  23.785  1.00  0.00     0.002 C 
ATOM     10  C   UNL A   1      31.112  25.753  22.587  1.00  0.00     0.005 C 
ATOM     11  C   UNL A   1      29.178  26.326  23.853  1.00  0.00     0.009 C 
ATOM     12  C   UNL A   1      30.177  27.472  23.945  1.00  0.00     0.002 C 
ATOM     13  C   UNL A   1      30.984  27.277  22.657  1.00  0.00     0.005 C 
BRANCH   8  14
ATOM     14  C   UNL A   1      30.263  24.696  26.228  1.00  0.00     0.230 C 
ATOM     15  N   UNL A   1      30.565  23.448  26.654  1.00  0.00    -0.302 N 
ATOM     16  H   UNL A   1      30.078  23.137  27.452  1.00  0.00     0.172 HD
ATOM     17  O   UNL A   1      29.276  25.197  26.790  1.00  0.00    -0.274 OA
BRANCH  15  18
ATOM     18  C   UNL A   1      31.448  22.570  26.126  1.00  0.00     0.190 A 
ATOM     19  C   UNL A   1      32.289  19.992  23.841  1.00  0.00     0.068 C 
ATOM     20  C   UNL A   1      32.370  21.045  24.873  1.00  0.00     0.058 A 
ATOM     21  N   UNL A   1      31.190  21.540  25.376  1.00  0.00    -0.225 NA
ATOM     22  C   UNL A   1      33.513  21.715  25.273  1.00  0.00     0.059 A 
ATOM     23  S   UNL A   1      33.100  22.908  26.424  1.00  0.00    -0.096 S 
BRANCH  22  24
ATOM     24  C   UNL A   1      34.851  21.503  24.741  1.00  0.00    -0.006 A 
ATOM     25  C   UNL A   1      35.511  22.551  24.090  1.00  0.00     0.009 A 
ATOM     26  C   UNL A   1      35.585  20.385  25.170  1.00  0.00     0.009 A 
ATOM     27  C   UNL A   1      36.896  22.509  23.925  1.00  0.00     0.001 A 
ATOM     28  C   UNL A   1      36.969  20.347  25.002  1.00  0.00     0.001 A 
ATOM     29  C   UNL A   1      37.626  21.417  24.395  1.00  0.00     0.000 A 
ENDBRANCH  22  24
ENDBRANCH  15  18
ENDBRANCH   8  14
ENDBRANCH   4   7
ENDBRANCH   2   3
ENDBRANCH   1   2
BRANCH   1  30
ATOM     30  C   UNL A   1      31.515  32.192  26.876  1.00  0.00     0.023 C 
BRANCH  30  31
ATOM     31  C   UNL A   1      32.783  32.938  27.251  1.00  0.00     0.116 C 
BRANCH  31  32
ATOM     32  N   UNL A   1      32.516  34.315  27.627  1.00  0.00    -0.352 N 
ATOM     33  C   UNL A   1      33.027  35.029  28.680  1.00  0.00     0.251 C 
ATOM     34  H   UNL A   1      31.883  34.800  27.049  1.00  0.00     0.163 HD
ATOM     35  O   UNL A   1      32.531  36.098  29.005  1.00  0.00    -0.269 OA
BRANCH  33  36
ATOM     36  C   UNL A   1      34.177  34.480  29.426  1.00  0.00     0.039 A 
ATOM     37  C   UNL A   1      33.952  33.846  30.649  1.00  0.00     0.014 A 
ATOM     38  C   UNL A   1      35.470  34.578  28.903  1.00  0.00     0.014 A 
ATOM     39  C   UNL A   1      35.024  33.262  31.324  1.00  0.00     0.010 A 
ATOM     40  C   UNL A   1      36.517  33.915  29.527  1.00  0.00     0.010 A 
ATOM     41  C   UNL A   1      36.306  33.264  30.750  1.00  0.00    -0.014 A 
BRANCH  41  42
ATOM     42  C   UNL A   1      37.448  32.598  31.424  1.00  0.00     0.031 A 
ATOM     43  C   UNL A   1      38.139  31.443  30.757  1.00  0.00     0.074 A 
ATOM     44  C   UNL A   1      37.810  32.997  32.658  1.00  0.00     0.049 A 
ATOM     45  N   UNL A   1      39.111  30.691  31.204  1.00  0.00    -0.248 NA
ATOM     46  C   UNL A   1      37.655  31.059  29.419  1.00  0.00     0.031 C 
ATOM     47  C   UNL A   1      37.169  34.067  33.424  1.00  0.00     0.029 A 
ATOM     48  N   UNL A   1      38.800  32.541  33.491  1.00  0.00    -0.354 N 
ATOM     49  C   UNL A   1      39.341  29.744  30.216  1.00  0.00     0.074 A 
ATOM     50  C   UNL A   1      38.371  29.974  29.169  1.00  0.00     0.031 C 
ATOM     51  C   UNL A   1      37.798  34.204  34.603  1.00  0.00     0.029 A 
ATOM     52  C   UNL A   1      38.856  33.203  34.694  1.00  0.00     0.049 A 
ATOM     53  H   UNL A   1      39.414  31.810  33.250  1.00  0.00     0.167 HD
ATOM     54  C   UNL A   1      40.295  28.784  30.176  1.00  0.00     0.037 A 
ATOM     55  C   UNL A   1      39.662  33.012  35.754  1.00  0.00     0.037 A 
ATOM     56  C   UNL A   1      41.275  28.584  31.210  1.00  0.00     0.049 A 
ATOM     57  C   UNL A   1      40.714  31.936  35.680  1.00  0.00     0.074 A 
ATOM     58  C   UNL A   1      42.329  27.689  31.236  1.00  0.00     0.029 A 
ATOM     59  N   UNL A   1      41.314  29.288  32.405  1.00  0.00    -0.354 N 
ATOM     60  N   UNL A   1      40.978  31.103  34.703  1.00  0.00    -0.248 NA
ATOM     61  C   UNL A   1      41.583  31.779  36.853  1.00  0.00     0.031 C 
ATOM     62  C   UNL A   1      42.971  27.810  32.472  1.00  0.00     0.029 A 
ATOM     63  C   UNL A   1      42.358  28.825  33.189  1.00  0.00     0.049 A 
ATOM     64  H   UNL A   1      40.694  30.008  32.658  1.00  0.00     0.167 HD
ATOM     65  C   UNL A   1      42.060  30.344  35.130  1.00  0.00     0.074 A 
ATOM     66  C   UNL A   1      42.416  30.832  36.446  1.00  0.00     0.031 C 
ATOM     67  C   UNL A   1      42.699  29.332  34.494  1.00  0.00     0.037 A 
BRANCH  54  68
ATOM     68  C   UNL A   1      40.335  27.881  28.975  1.00  0.00     0.064 A 
ATOM     69  C   UNL A   1      41.100  28.194  27.842  1.00  0.00     0.173 A 
ATOM     70  C   UNL A   1      39.647  26.659  28.985  1.00  0.00     0.173 A 
ATOM     71  F   UNL A   1      41.766  29.356  27.775  1.00  0.00    -0.203 F 
ATOM     72  C   UNL A   1      41.156  27.327  26.753  1.00  0.00     0.198 A 
ATOM     73  C   UNL A   1      39.732  25.779  27.909  1.00  0.00     0.198 A 
ATOM     74  F   UNL A   1      38.903  26.308  30.045  1.00  0.00    -0.203 F 
ATOM     75  F   UNL A   1      41.859  27.667  25.663  1.00  0.00    -0.200 F 
ATOM     76  C   UNL A   1      40.482  26.116  26.793  1.00  0.00     0.200 A 
ATOM     77  F   UNL A   1      39.091  24.603  27.955  1.00  0.00    -0.200 F 
ATOM     78  F   UNL A   1      40.552  25.275  25.752  1.00  0.00    -0.200 F 
ENDBRANCH  54  68
BRANCH  55  79
ATOM     79  C   UNL A   1      39.517  33.857  36.970  1.00  0.00     0.064 A 
ATOM     80  C   UNL A   1      38.755  33.424  38.066  1.00  0.00     0.173 A 
ATOM     81  C   UNL A   1      40.118  35.121  37.056  1.00  0.00     0.173 A 
ATOM     82  F   UNL A   1      38.148  32.229  38.028  1.00  0.00    -0.203 F 
ATOM     83  C   UNL A   1      38.569  34.237  39.182  1.00  0.00     0.198 A 
ATOM     84  C   UNL A   1      39.962  35.919  38.188  1.00  0.00     0.198 A 
ATOM     85  F   UNL A   1      40.866  35.581  36.042  1.00  0.00    -0.203 F 
ATOM     86  F   UNL A   1      37.787  33.823  40.186  1.00  0.00    -0.200 F 
ATOM     87  C   UNL A   1      39.176  35.482  39.244  1.00  0.00     0.200 A 
ATOM     88  F   UNL A   1      40.566  37.113  38.252  1.00  0.00    -0.200 F 
ATOM     89  F   UNL A   1      38.998  36.264  40.317  1.00  0.00    -0.200 F 
ENDBRANCH  55  79
BRANCH  67  90
ATOM     90  C   UNL A   1      43.869  28.709  35.198  1.00  0.00     0.064 A 
ATOM     91  C   UNL A   1      43.717  27.606  36.050  1.00  0.00     0.173 A 
ATOM     92  C   UNL A   1      45.167  29.200  34.985  1.00  0.00     0.173 A 
ATOM     93  F   UNL A   1      42.495  27.108  36.298  1.00  0.00    -0.203 F 
ATOM     94  C   UNL A   1      44.815  27.036  36.687  1.00  0.00     0.198 A 
ATOM     95  C   UNL A   1      46.268  28.604  35.594  1.00  0.00     0.198 A 
ATOM     96  F   UNL A   1      45.369  30.247  34.172  1.00  0.00    -0.203 F 
ATOM     97  F   UNL A   1      44.639  26.018  37.540  1.00  0.00    -0.200 F 
ATOM     98  C   UNL A   1      46.090  27.530  36.451  1.00  0.00     0.200 A 
ATOM     99  F   UNL A   1      47.499  29.071  35.351  1.00  0.00    -0.200 F 
ATOM    100  F   UNL A   1      47.148  26.973  37.058  1.00  0.00    -0.200 F 
ENDBRANCH  67  90
ENDBRANCH  41  42
ENDBRANCH  33  36
ENDBRANCH  31  32
ENDBRANCH  30  31
ENDBRANCH   1  30
TORSDOF 14
ENDMDL
MODEL 3
REMARK VINA RESULT:     -13.8      0.693      7.120
REMARK SMILES Cc1nc(NC(=O)[C@H]2[C@@H]3CC[C@@H](C3)[C@@H]2C(=O)NCCCCNC(=O)c2ccc(-c3c4nc(c(-c5c(F)c(F)c(F)c(F)c5F)c5ccc([nH]5)c(-c5c(F)c(F)c(F)c(F)c5F)c5nc(c(-c6c(F)c(F)c(F)c(F)c6F)c6ccc3[nH]6)C=C5)C=C4)cc2)sc1-c1ccccc1
REMARK SMILES IDX 19 1 18 2 17 3 15 4 16 5 14 7 8 8 9 9 10 10 13 11 12 12
REMARK SMILES IDX 11 13 6 14 5 15 7 17 4 18 1 19 2 20 3 21 89 22 88 23 90 24
REMARK SMILES IDX 91 25 95 26 92 27 94 28 93 29 20 30 21 31 22 32 23 33 24 35
REMARK SMILES IDX 25 36 26 37 87 38 27 39 86 40 28 41 29 42 30 43 80 44 31 45
REMARK SMILES IDX 85 46 79 47 81 48 32 49 84 50 78 51 77 52 33 54 65 55 45 56
REMARK SMILES IDX 64 57 46 58 49 59 63 60 82 61 47 62 48 63 62 65 83 66 50 67
REMARK SMILES IDX 34 68 35 69 43 70 36 71 37 72 41 73 44 74 38 75 39 76 42 77
REMARK SMILES IDX 40 78 66 79 67 80 75 81 68 82 69 83 73 84 76 85 70 86 71 87
REMARK SMILES IDX 74 88 72 89 51 90 52 91 60 92 53 93 54 94 58 95 61 96 55 97
REMARK SMILES IDX 56 98 59 99 57 100
REMARK H PARENT 17 6 5 16 22 34 81 53 49 64
REMARK Flexibility Score: inf
ROOT
ATOM      1  C   UNL A   1      31.489  30.847  25.950  1.00  0.00     0.023 C 
ENDROOT
BRANCH   1   2
ATOM      2  C   UNL A   1      31.997  29.847  26.982  1.00  0.00     0.116 C 
BRANCH   2   3
ATOM      3  N   UNL A   1      32.822  28.795  26.428  1.00  0.00    -0.356 N 
ATOM      4  C   UNL A   1      32.529  27.660  25.733  1.00  0.00     0.224 C 
ATOM      5  O   UNL A   1      33.506  27.074  25.257  1.00  0.00    -0.275 OA
ATOM      6  H   UNL A   1      33.785  28.924  26.583  1.00  0.00     0.163 HD
BRANCH   4   7
ATOM      7  C   UNL A   1      31.088  27.129  25.574  1.00  0.00     0.094 C 
ATOM      8  C   UNL A   1      31.085  25.569  25.372  1.00  0.00     0.094 C 
ATOM      9  C   UNL A   1      30.451  25.465  23.940  1.00  0.00     0.002 C 
ATOM     10  C   UNL A   1      31.380  26.068  22.868  1.00  0.00     0.005 C 
ATOM     11  C   UNL A   1      29.352  26.517  24.032  1.00  0.00     0.009 C 
ATOM     12  C   UNL A   1      30.337  27.642  24.319  1.00  0.00     0.002 C 
ATOM     13  C   UNL A   1      31.244  27.577  23.086  1.00  0.00     0.005 C 
BRANCH   8  14
ATOM     14  C   UNL A   1      30.252  24.644  26.303  1.00  0.00     0.230 C 
ATOM     15  N   UNL A   1      30.505  23.348  26.595  1.00  0.00    -0.302 N 
ATOM     16  H   UNL A   1      29.964  22.957  27.319  1.00  0.00     0.172 HD
ATOM     17  O   UNL A   1      29.239  25.099  26.859  1.00  0.00    -0.274 OA
BRANCH  15  18
ATOM     18  C   UNL A   1      31.406  22.517  26.021  1.00  0.00     0.190 A 
ATOM     19  C   UNL A   1      32.352  20.217  23.493  1.00  0.00     0.068 C 
ATOM     20  C   UNL A   1      32.382  21.132  24.651  1.00  0.00     0.058 A 
ATOM     21  N   UNL A   1      31.180  21.594  25.134  1.00  0.00    -0.225 NA
ATOM     22  C   UNL A   1      33.507  21.717  25.206  1.00  0.00     0.059 A 
ATOM     23  S   UNL A   1      33.040  22.770  26.467  1.00  0.00    -0.096 S 
BRANCH  22  24
ATOM     24  C   UNL A   1      34.874  21.535  24.741  1.00  0.00    -0.006 A 
ATOM     25  C   UNL A   1      35.600  22.637  24.278  1.00  0.00     0.009 A 
ATOM     26  C   UNL A   1      35.552  20.349  25.067  1.00  0.00     0.009 A 
ATOM     27  C   UNL A   1      36.992  22.576  24.201  1.00  0.00     0.001 A 
ATOM     28  C   UNL A   1      36.944  20.291  24.988  1.00  0.00     0.001 A 
ATOM     29  C   UNL A   1      37.664  21.410  24.571  1.00  0.00     0.000 A 
ENDBRANCH  22  24
ENDBRANCH  15  18
ENDBRANCH   8  14
ENDBRANCH   4   7
ENDBRANCH   2   3
ENDBRANCH   1   2
BRANCH   1  30
ATOM     30  C   UNL A   1      31.355  32.287  26.451  1.00  0.00     0.023 C 
BRANCH  30  31
ATOM     31  C   UNL A   1      32.519  32.782  27.289  1.00  0.00     0.116 C 
BRANCH  31  32
ATOM     32  N   UNL A   1      32.390  34.188  27.628  1.00  0.00    -0.352 N 
ATOM     33  C   UNL A   1      33.030  34.893  28.615  1.00  0.00     0.251 C 
ATOM     34  H   UNL A   1      31.758  34.703  27.076  1.00  0.00     0.163 HD
ATOM     35  O   UNL A   1      32.644  36.010  28.930  1.00  0.00    -0.269 OA
BRANCH  33  36
ATOM     36  C   UNL A   1      34.182  34.277  29.302  1.00  0.00     0.039 A 
ATOM     37  C   UNL A   1      33.952  33.408  30.368  1.00  0.00     0.014 A 
ATOM     38  C   UNL A   1      35.486  34.548  28.874  1.00  0.00     0.014 A 
ATOM     39  C   UNL A   1      35.031  32.768  30.975  1.00  0.00     0.010 A 
ATOM     40  C   UNL A   1      36.549  33.839  29.415  1.00  0.00     0.010 A 
ATOM     41  C   UNL A   1      36.333  32.953  30.480  1.00  0.00    -0.014 A 
BRANCH  41  42
ATOM     42  C   UNL A   1      37.488  32.237  31.073  1.00  0.00     0.031 A 
ATOM     43  C   UNL A   1      37.988  32.623  32.437  1.00  0.00     0.074 A 
ATOM     44  C   UNL A   1      38.118  31.289  30.354  1.00  0.00     0.049 A 
ATOM     45  N   UNL A   1      39.016  32.164  33.102  1.00  0.00    -0.248 NA
ATOM     46  C   UNL A   1      37.253  33.691  33.137  1.00  0.00     0.031 C 
ATOM     47  C   UNL A   1      37.755  30.876  28.996  1.00  0.00     0.029 A 
ATOM     48  N   UNL A   1      39.202  30.506  30.659  1.00  0.00    -0.354 N 
ATOM     49  C   UNL A   1      39.058  32.893  34.282  1.00  0.00     0.074 A 
ATOM     50  C   UNL A   1      37.991  33.866  34.222  1.00  0.00     0.031 C 
ATOM     51  C   UNL A   1      38.585  29.899  28.595  1.00  0.00     0.029 A 
ATOM     52  C   UNL A   1      39.565  29.648  29.648  1.00  0.00     0.049 A 
ATOM     53  H   UNL A   1      39.677  30.554  31.520  1.00  0.00     0.167 HD
ATOM     54  C   UNL A   1      39.898  32.743  35.333  1.00  0.00     0.037 A 
ATOM     55  C   UNL A   1      40.580  28.768  29.577  1.00  0.00     0.037 A 
ATOM     56  C   UNL A   1      40.938  31.751  35.395  1.00  0.00     0.049 A 
ATOM     57  C   UNL A   1      41.499  28.626  30.763  1.00  0.00     0.074 A 
ATOM     58  C   UNL A   1      41.796  31.466  36.441  1.00  0.00     0.029 A 
ATOM     59  N   UNL A   1      41.261  30.884  34.361  1.00  0.00    -0.354 N 
ATOM     60  N   UNL A   1      41.475  29.260  31.910  1.00  0.00    -0.248 NA
ATOM     61  C   UNL A   1      42.580  27.639  30.647  1.00  0.00     0.031 C 
ATOM     62  C   UNL A   1      42.679  30.467  36.019  1.00  0.00     0.029 A 
ATOM     63  C   UNL A   1      42.328  30.084  34.734  1.00  0.00     0.049 A 
ATOM     64  H   UNL A   1      40.800  30.843  33.492  1.00  0.00     0.167 HD
ATOM     65  C   UNL A   1      42.515  28.731  32.661  1.00  0.00     0.074 A 
ATOM     66  C   UNL A   1      43.137  27.707  31.847  1.00  0.00     0.031 C 
ATOM     67  C   UNL A   1      42.925  29.064  33.909  1.00  0.00     0.037 A 
BRANCH  54  68
ATOM     68  C   UNL A   1      39.727  33.666  36.507  1.00  0.00     0.064 A 
ATOM     69  C   UNL A   1      40.351  34.921  36.556  1.00  0.00     0.173 A 
ATOM     70  C   UNL A   1      38.880  33.314  37.568  1.00  0.00     0.173 A 
ATOM     71  F   UNL A   1      41.182  35.302  35.574  1.00  0.00    -0.203 F 
ATOM     72  C   UNL A   1      40.151  35.780  37.633  1.00  0.00     0.198 A 
ATOM     73  C   UNL A   1      38.655  34.189  38.628  1.00  0.00     0.198 A 
ATOM     74  F   UNL A   1      38.256  32.127  37.571  1.00  0.00    -0.203 F 
ATOM     75  F   UNL A   1      40.792  36.957  37.679  1.00  0.00    -0.200 F 
ATOM     76  C   UNL A   1      39.295  35.418  38.662  1.00  0.00     0.200 A 
ATOM     77  F   UNL A   1      37.817  33.843  39.615  1.00  0.00    -0.200 F 
ATOM     78  F   UNL A   1      39.089  36.254  39.689  1.00  0.00    -0.200 F 
ENDBRANCH  54  68
BRANCH  55  79
ATOM     79  C   UNL A   1      40.782  27.950  28.351  1.00  0.00     0.064 A 
ATOM     80  C   UNL A   1      40.206  26.677  28.228  1.00  0.00     0.173 A 
ATOM     81  C   UNL A   1      41.570  28.413  27.288  1.00  0.00     0.173 A 
ATOM     82  F   UNL A   1      39.457  26.182  29.224  1.00  0.00    -0.203 F 
ATOM     83  C   UNL A   1      40.441  25.884  27.106  1.00  0.00     0.198 A 
ATOM     84  C   UNL A   1      41.775  27.634  26.150  1.00  0.00     0.198 A 
ATOM     85  F   UNL A   1      42.135  29.627  27.347  1.00  0.00    -0.203 F 
ATOM     86  F   UNL A   1      39.929  24.649  27.043  1.00  0.00    -0.200 F 
ATOM     87  C   UNL A   1      41.222  26.365  26.066  1.00  0.00     0.200 A 
ATOM     88  F   UNL A   1      42.513  28.111  25.138  1.00  0.00    -0.200 F 
ATOM     89  F   UNL A   1      41.447  25.604  24.987  1.00  0.00    -0.200 F 
ENDBRANCH  55  79
BRANCH  67  90
ATOM     90  C   UNL A   1      44.076  28.291  34.484  1.00  0.00     0.064 A 
ATOM     91  C   UNL A   1      45.400  28.740  34.366  1.00  0.00     0.173 A 
ATOM     92  C   UNL A   1      43.847  27.103  35.196  1.00  0.00     0.173 A 
ATOM     93  F   UNL A   1      45.673  29.862  33.683  1.00  0.00    -0.203 F 
ATOM     94  C   UNL A   1      46.453  28.014  34.914  1.00  0.00     0.198 A 
ATOM     95  C   UNL A   1      44.898  26.400  35.775  1.00  0.00     0.198 A 
ATOM     96  F   UNL A   1      42.599  26.635  35.346  1.00  0.00    -0.203 F 
ATOM     97  F   UNL A   1      47.714  28.433  34.742  1.00  0.00    -0.200 F 
ATOM     98  C   UNL A   1      46.201  26.849  35.625  1.00  0.00     0.200 A 
ATOM     99  F   UNL A   1      44.651  25.285  36.476  1.00  0.00    -0.200 F 
ATOM    100  F   UNL A   1      47.216  26.156  36.159  1.00  0.00    -0.200 F 
ENDBRANCH  67  90
ENDBRANCH  41  42
ENDBRANCH  33  36
ENDBRANCH  31  32
ENDBRANCH  30  31
ENDBRANCH   1  30
TORSDOF 14
ENDMDL
