MODEL 1
REMARK VINA RESULT:     -12.7      0.000      0.000
REMARK SMILES C[NH2+][C@@]1(C(=O)NCCCCNC(=O)c2ccc(-c3c4nc(c(-c5c(F)c(F)c(F)c(F)c5F)c5ccc([nH]5)c(-c5c(F)c(F)c(F)c(F)c5F)c5nc(c(-c6c(F)c(F)c(F)c(F)c6F)c6ccc3[nH]6)C=C5)C=C4)cc2)CCC[C@H](Oc2cccc(OC)c2)C1
REMARK SMILES IDX 8 1 7 2 6 3 4 4 5 5 3 7 77 8 90 9 78 10 80 11 79 12 2 13
REMARK SMILES IDX 1 14 81 17 82 18 83 19 89 20 84 21 86 22 85 23 87 24 88 25
REMARK SMILES IDX 9 26 10 27 11 28 12 29 13 31 14 32 15 33 76 34 16 35 75 36
REMARK SMILES IDX 17 37 18 38 19 39 69 40 20 41 74 42 68 43 70 44 21 45 73 46
REMARK SMILES IDX 67 47 66 48 22 50 54 51 34 52 53 53 35 54 38 55 52 56 71 57
REMARK SMILES IDX 36 58 37 59 51 61 72 62 39 63 23 64 24 65 32 66 25 67 26 68
REMARK SMILES IDX 30 69 33 70 27 71 28 72 31 73 29 74 55 75 56 76 64 77 57 78
REMARK SMILES IDX 58 79 62 80 65 81 59 82 60 83 63 84 61 85 40 86 41 87 49 88
REMARK SMILES IDX 42 89 43 90 47 91 50 92 44 93 45 94 48 95 46 96
REMARK H PARENT 6 6 2 15 2 16 11 30 70 49 38 60
REMARK Flexibility Score: inf
ROOT
ATOM      1  C   UNL A   1      31.765  30.359  26.459  1.00  0.00     0.023 C 
ENDROOT
BRANCH   1   2
ATOM      2  C   UNL A   1      33.139  29.964  25.937  1.00  0.00     0.116 C 
BRANCH   2   3
ATOM      3  N   UNL A   1      33.065  29.726  24.513  1.00  0.00    -0.351 N 
ATOM      4  C   UNL A   1      33.459  28.614  23.829  1.00  0.00     0.281 C 
ATOM      5  O   UNL A   1      34.069  28.853  22.777  1.00  0.00    -0.268 OA
ATOM      6  H   UNL A   1      32.683  30.455  23.972  1.00  0.00     0.163 HD
BRANCH   4   7
ATOM      7  C   UNL A   1      33.049  27.133  24.220  1.00  0.00     0.178 C 
ATOM      8  C   UNL A   1      33.782  25.946  23.584  1.00  0.00     0.079 C 
ATOM      9  C   UNL A   1      31.510  26.954  24.112  1.00  0.00     0.124 C 
ATOM     10  C   UNL A   1      33.189  25.300  22.344  1.00  0.00     0.011 C 
ATOM     11  C   UNL A   1      30.934  26.653  22.715  1.00  0.00     0.180 C 
ATOM     12  C   UNL A   1      31.767  25.633  21.925  1.00  0.00     0.046 C 
BRANCH   7  13
ATOM     13  N   UNL A   1      33.350  27.055  25.706  1.00  0.00    -0.336 N 
ATOM     14  C   UNL A   1      32.315  26.421  26.518  1.00  0.00     0.331 C 
ATOM     15  H   UNL A   1      34.213  26.525  25.825  1.00  0.00     0.346 HD
ATOM     16  H   UNL A   1      33.414  28.018  26.032  1.00  0.00     0.346 HD
ENDBRANCH   7  13
BRANCH  11  17
ATOM     17  O   UNL A   1      30.694  27.898  22.038  1.00  0.00    -0.490 OA
BRANCH  17  18
ATOM     18  C   UNL A   1      29.693  28.761  22.413  1.00  0.00     0.123 A 
ATOM     19  C   UNL A   1      28.483  28.413  23.012  1.00  0.00     0.047 A 
ATOM     20  C   UNL A   1      29.902  30.102  22.043  1.00  0.00     0.092 A 
ATOM     21  C   UNL A   1      27.456  29.357  23.125  1.00  0.00     0.008 A 
ATOM     22  C   UNL A   1      28.883  31.051  22.176  1.00  0.00     0.122 A 
ATOM     23  C   UNL A   1      27.655  30.670  22.705  1.00  0.00     0.046 A 
BRANCH  22  24
ATOM     24  O   UNL A   1      29.029  32.381  21.891  1.00  0.00    -0.497 OA
ATOM     25  C   UNL A   1      28.807  33.251  22.997  1.00  0.00     0.278 C 
ENDBRANCH  22  24
ENDBRANCH  17  18
ENDBRANCH  11  17
ENDBRANCH   4   7
ENDBRANCH   2   3
ENDBRANCH   1   2
BRANCH   1  26
ATOM     26  C   UNL A   1      31.535  31.849  26.588  1.00  0.00     0.023 C 
BRANCH  26  27
ATOM     27  C   UNL A   1      32.696  32.567  27.245  1.00  0.00     0.116 C 
BRANCH  27  28
ATOM     28  N   UNL A   1      32.397  33.947  27.628  1.00  0.00    -0.352 N 
ATOM     29  C   UNL A   1      32.976  34.816  28.523  1.00  0.00     0.251 C 
ATOM     30  H   UNL A   1      31.626  34.330  27.149  1.00  0.00     0.163 HD
ATOM     31  O   UNL A   1      32.489  35.934  28.683  1.00  0.00    -0.269 OA
BRANCH  29  32
ATOM     32  C   UNL A   1      34.148  34.417  29.334  1.00  0.00     0.039 A 
ATOM     33  C   UNL A   1      33.954  33.771  30.560  1.00  0.00     0.014 A 
ATOM     34  C   UNL A   1      35.443  34.663  28.896  1.00  0.00     0.014 A 
ATOM     35  C   UNL A   1      35.054  33.284  31.278  1.00  0.00     0.010 A 
ATOM     36  C   UNL A   1      36.512  34.034  29.512  1.00  0.00     0.010 A 
ATOM     37  C   UNL A   1      36.341  33.358  30.727  1.00  0.00    -0.014 A 
BRANCH  37  38
ATOM     38  C   UNL A   1      37.554  32.812  31.395  1.00  0.00     0.031 A 
ATOM     39  C   UNL A   1      38.316  31.695  30.722  1.00  0.00     0.074 A 
ATOM     40  C   UNL A   1      37.896  33.205  32.637  1.00  0.00     0.049 A 
ATOM     41  N   UNL A   1      39.201  30.869  31.220  1.00  0.00    -0.248 NA
ATOM     42  C   UNL A   1      37.978  31.428  29.313  1.00  0.00     0.031 C 
ATOM     43  C   UNL A   1      37.228  34.244  33.421  1.00  0.00     0.029 A 
ATOM     44  N   UNL A   1      38.889  32.750  33.470  1.00  0.00    -0.354 N 
ATOM     45  C   UNL A   1      39.462  29.950  30.212  1.00  0.00     0.074 A 
ATOM     46  C   UNL A   1      38.601  30.280  29.100  1.00  0.00     0.031 C 
ATOM     47  C   UNL A   1      37.846  34.368  34.606  1.00  0.00     0.029 A 
ATOM     48  C   UNL A   1      38.916  33.380  34.691  1.00  0.00     0.049 A 
ATOM     49  H   UNL A   1      39.521  32.038  33.216  1.00  0.00     0.167 HD
ATOM     50  C   UNL A   1      40.364  28.938  30.200  1.00  0.00     0.037 A 
ATOM     51  C   UNL A   1      39.707  33.170  35.760  1.00  0.00     0.037 A 
ATOM     52  C   UNL A   1      41.287  28.679  31.269  1.00  0.00     0.049 A 
ATOM     53  C   UNL A   1      40.744  32.080  35.702  1.00  0.00     0.074 A 
ATOM     54  C   UNL A   1      42.299  27.738  31.330  1.00  0.00     0.029 A 
ATOM     55  N   UNL A   1      41.328  29.390  32.460  1.00  0.00    -0.354 N 
ATOM     56  N   UNL A   1      40.999  31.228  34.738  1.00  0.00    -0.248 NA
ATOM     57  C   UNL A   1      41.603  31.922  36.883  1.00  0.00     0.031 C 
ATOM     58  C   UNL A   1      42.939  27.865  32.567  1.00  0.00     0.029 A 
ATOM     59  C   UNL A   1      42.350  28.910  33.261  1.00  0.00     0.049 A 
ATOM     60  H   UNL A   1      40.720  30.126  32.700  1.00  0.00     0.167 HD
ATOM     61  C   UNL A   1      42.065  30.458  35.181  1.00  0.00     0.074 A 
ATOM     62  C   UNL A   1      42.416  30.949  36.498  1.00  0.00     0.031 C 
ATOM     63  C   UNL A   1      42.695  29.433  34.557  1.00  0.00     0.037 A 
BRANCH  50  64
ATOM     64  C   UNL A   1      40.408  28.060  28.982  1.00  0.00     0.064 A 
ATOM     65  C   UNL A   1      41.191  28.386  27.863  1.00  0.00     0.173 A 
ATOM     66  C   UNL A   1      39.667  26.869  28.937  1.00  0.00     0.173 A 
ATOM     67  F   UNL A   1      41.907  29.521  27.849  1.00  0.00    -0.203 F 
ATOM     68  C   UNL A   1      41.196  27.578  26.730  1.00  0.00     0.198 A 
ATOM     69  C   UNL A   1      39.704  26.043  27.816  1.00  0.00     0.198 A 
ATOM     70  F   UNL A   1      38.906  26.504  29.979  1.00  0.00    -0.203 F 
ATOM     71  F   UNL A   1      41.897  27.947  25.650  1.00  0.00    -0.200 F 
ATOM     72  C   UNL A   1      40.458  26.404  26.710  1.00  0.00     0.200 A 
ATOM     73  F   UNL A   1      39.000  24.902  27.801  1.00  0.00    -0.200 F 
ATOM     74  F   UNL A   1      40.467  25.626  25.618  1.00  0.00    -0.200 F 
ENDBRANCH  50  64
BRANCH  51  75
ATOM     75  C   UNL A   1      39.577  34.032  36.963  1.00  0.00     0.064 A 
ATOM     76  C   UNL A   1      38.806  33.613  38.056  1.00  0.00     0.173 A 
ATOM     77  C   UNL A   1      40.209  35.280  37.050  1.00  0.00     0.173 A 
ATOM     78  F   UNL A   1      38.165  32.435  38.010  1.00  0.00    -0.203 F 
ATOM     79  C   UNL A   1      38.653  34.419  39.182  1.00  0.00     0.198 A 
ATOM     80  C   UNL A   1      40.077  36.074  38.189  1.00  0.00     0.198 A 
ATOM     81  F   UNL A   1      40.964  35.724  36.035  1.00  0.00    -0.203 F 
ATOM     82  F   UNL A   1      37.871  34.013  40.193  1.00  0.00    -0.200 F 
ATOM     83  C   UNL A   1      39.292  35.647  39.250  1.00  0.00     0.200 A 
ATOM     84  F   UNL A   1      40.706  37.255  38.255  1.00  0.00    -0.200 F 
ATOM     85  F   UNL A   1      39.146  36.422  40.333  1.00  0.00    -0.200 F 
ENDBRANCH  51  75
BRANCH  63  86
ATOM     86  C   UNL A   1      43.860  28.809  35.265  1.00  0.00     0.064 A 
ATOM     87  C   UNL A   1      43.692  27.746  36.162  1.00  0.00     0.173 A 
ATOM     88  C   UNL A   1      45.166  29.250  34.998  1.00  0.00     0.173 A 
ATOM     89  F   UNL A   1      42.462  27.301  36.458  1.00  0.00    -0.203 F 
ATOM     90  C   UNL A   1      44.790  27.157  36.784  1.00  0.00     0.198 A 
ATOM     91  C   UNL A   1      46.263  28.640  35.600  1.00  0.00     0.198 A 
ATOM     92  F   UNL A   1      45.378  30.259  34.141  1.00  0.00    -0.203 F 
ATOM     93  F   UNL A   1      44.605  26.168  37.669  1.00  0.00    -0.200 F 
ATOM     94  C   UNL A   1      46.073  27.599  36.497  1.00  0.00     0.200 A 
ATOM     95  F   UNL A   1      47.503  29.059  35.311  1.00  0.00    -0.200 F 
ATOM     96  F   UNL A   1      47.130  27.024  37.089  1.00  0.00    -0.200 F 
ENDBRANCH  63  86
ENDBRANCH  37  38
ENDBRANCH  29  32
ENDBRANCH  27  28
ENDBRANCH  26  27
ENDBRANCH   1  26
TORSDOF 15
ENDMDL
MODEL 2
REMARK VINA RESULT:     -12.7      0.084      1.584
REMARK SMILES C[NH2+][C@@]1(C(=O)NCCCCNC(=O)c2ccc(-c3c4nc(c(-c5c(F)c(F)c(F)c(F)c5F)c5ccc([nH]5)c(-c5c(F)c(F)c(F)c(F)c5F)c5nc(c(-c6c(F)c(F)c(F)c(F)c6F)c6ccc3[nH]6)C=C5)C=C4)cc2)CCC[C@H](Oc2cccc(OC)c2)C1
REMARK SMILES IDX 8 1 7 2 6 3 4 4 5 5 3 7 77 8 90 9 78 10 80 11 79 12 2 13
REMARK SMILES IDX 1 14 81 17 82 18 83 19 89 20 84 21 86 22 85 23 87 24 88 25
REMARK SMILES IDX 9 26 10 27 11 28 12 29 13 31 14 32 15 33 76 34 16 35 75 36
REMARK SMILES IDX 17 37 18 38 19 39 69 40 20 41 74 42 68 43 70 44 21 45 73 46
REMARK SMILES IDX 67 47 66 48 22 50 54 51 34 52 53 53 35 54 38 55 52 56 71 57
REMARK SMILES IDX 36 58 37 59 51 61 72 62 39 63 23 64 24 65 32 66 25 67 26 68
REMARK SMILES IDX 30 69 33 70 27 71 28 72 31 73 29 74 55 75 56 76 64 77 57 78
REMARK SMILES IDX 58 79 62 80 65 81 59 82 60 83 63 84 61 85 40 86 41 87 49 88
REMARK SMILES IDX 42 89 43 90 47 91 50 92 44 93 45 94 48 95 46 96
REMARK H PARENT 6 6 2 15 2 16 11 30 70 49 38 60
REMARK Flexibility Score: inf
ROOT
ATOM      1  C   UNL A   1      31.762  30.352  26.370  1.00  0.00     0.023 C 
ENDROOT
BRANCH   1   2
ATOM      2  C   UNL A   1      33.152  29.975  25.876  1.00  0.00     0.116 C 
BRANCH   2   3
ATOM      3  N   UNL A   1      33.105  29.711  24.456  1.00  0.00    -0.351 N 
ATOM      4  C   UNL A   1      33.509  28.585  23.800  1.00  0.00     0.281 C 
ATOM      5  O   UNL A   1      34.142  28.804  22.756  1.00  0.00    -0.268 OA
ATOM      6  H   UNL A   1      32.738  30.431  23.894  1.00  0.00     0.163 HD
BRANCH   4   7
ATOM      7  C   UNL A   1      33.086  27.113  24.209  1.00  0.00     0.178 C 
ATOM      8  C   UNL A   1      33.790  25.911  23.568  1.00  0.00     0.079 C 
ATOM      9  C   UNL A   1      31.542  26.956  24.131  1.00  0.00     0.124 C 
ATOM     10  C   UNL A   1      33.165  25.266  22.343  1.00  0.00     0.011 C 
ATOM     11  C   UNL A   1      30.936  26.653  22.747  1.00  0.00     0.180 C 
ATOM     12  C   UNL A   1      31.740  25.617  21.949  1.00  0.00     0.046 C 
BRANCH   7  13
ATOM     13  N   UNL A   1      33.413  27.041  25.689  1.00  0.00    -0.336 N 
ATOM     14  C   UNL A   1      32.379  26.441  26.528  1.00  0.00     0.331 C 
ATOM     15  H   UNL A   1      34.265  26.489  25.797  1.00  0.00     0.346 HD
ATOM     16  H   UNL A   1      33.509  28.005  26.005  1.00  0.00     0.346 HD
ENDBRANCH   7  13
BRANCH  11  17
ATOM     17  O   UNL A   1      30.701  27.897  22.066  1.00  0.00    -0.490 OA
BRANCH  17  18
ATOM     18  C   UNL A   1      29.690  28.756  22.425  1.00  0.00     0.123 A 
ATOM     19  C   UNL A   1      28.473  28.403  23.004  1.00  0.00     0.047 A 
ATOM     20  C   UNL A   1      29.901  30.098  22.060  1.00  0.00     0.092 A 
ATOM     21  C   UNL A   1      27.439  29.342  23.101  1.00  0.00     0.008 A 
ATOM     22  C   UNL A   1      28.876  31.043  22.177  1.00  0.00     0.122 A 
ATOM     23  C   UNL A   1      27.641  30.656  22.686  1.00  0.00     0.046 A 
BRANCH  22  24
ATOM     24  O   UNL A   1      29.021  32.374  21.897  1.00  0.00    -0.497 OA
ATOM     25  C   UNL A   1      28.861  33.237  23.018  1.00  0.00     0.278 C 
ENDBRANCH  22  24
ENDBRANCH  17  18
ENDBRANCH  11  17
ENDBRANCH   4   7
ENDBRANCH   2   3
ENDBRANCH   1   2
BRANCH   1  26
ATOM     26  C   UNL A   1      31.525  31.837  26.535  1.00  0.00     0.023 C 
BRANCH  26  27
ATOM     27  C   UNL A   1      32.667  32.538  27.242  1.00  0.00     0.116 C 
BRANCH  27  28
ATOM     28  N   UNL A   1      32.369  33.921  27.617  1.00  0.00    -0.352 N 
ATOM     29  C   UNL A   1      32.953  34.795  28.504  1.00  0.00     0.251 C 
ATOM     30  H   UNL A   1      31.597  34.301  27.139  1.00  0.00     0.163 HD
ATOM     31  O   UNL A   1      32.467  35.915  28.658  1.00  0.00    -0.269 OA
BRANCH  29  32
ATOM     32  C   UNL A   1      34.128  34.402  29.312  1.00  0.00     0.039 A 
ATOM     33  C   UNL A   1      33.939  33.770  30.547  1.00  0.00     0.014 A 
ATOM     34  C   UNL A   1      35.422  34.640  28.865  1.00  0.00     0.014 A 
ATOM     35  C   UNL A   1      35.042  33.288  31.264  1.00  0.00     0.010 A 
ATOM     36  C   UNL A   1      36.492  34.014  29.482  1.00  0.00     0.010 A 
ATOM     37  C   UNL A   1      36.326  33.351  30.705  1.00  0.00    -0.014 A 
BRANCH  37  38
ATOM     38  C   UNL A   1      37.541  32.809  31.371  1.00  0.00     0.031 A 
ATOM     39  C   UNL A   1      38.310  31.701  30.694  1.00  0.00     0.074 A 
ATOM     40  C   UNL A   1      37.878  33.197  32.616  1.00  0.00     0.049 A 
ATOM     41  N   UNL A   1      39.200  30.877  31.189  1.00  0.00    -0.248 NA
ATOM     42  C   UNL A   1      37.977  31.440  29.283  1.00  0.00     0.031 C 
ATOM     43  C   UNL A   1      37.203  34.228  33.405  1.00  0.00     0.029 A 
ATOM     44  N   UNL A   1      38.872  32.743  33.448  1.00  0.00    -0.354 N 
ATOM     45  C   UNL A   1      39.469  29.966  30.176  1.00  0.00     0.074 A 
ATOM     46  C   UNL A   1      38.608  30.297  29.064  1.00  0.00     0.031 C 
ATOM     47  C   UNL A   1      37.818  34.349  34.592  1.00  0.00     0.029 A 
ATOM     48  C   UNL A   1      38.894  33.367  34.673  1.00  0.00     0.049 A 
ATOM     49  H   UNL A   1      39.510  32.037  33.192  1.00  0.00     0.167 HD
ATOM     50  C   UNL A   1      40.376  28.960  30.160  1.00  0.00     0.037 A 
ATOM     51  C   UNL A   1      39.684  33.155  35.742  1.00  0.00     0.037 A 
ATOM     52  C   UNL A   1      41.299  28.700  31.230  1.00  0.00     0.049 A 
ATOM     53  C   UNL A   1      40.727  32.072  35.681  1.00  0.00     0.074 A 
ATOM     54  C   UNL A   1      42.316  27.764  31.287  1.00  0.00     0.029 A 
ATOM     55  N   UNL A   1      41.334  29.404  32.425  1.00  0.00    -0.354 N 
ATOM     56  N   UNL A   1      40.989  31.227  34.712  1.00  0.00    -0.248 NA
ATOM     57  C   UNL A   1      41.586  31.913  36.862  1.00  0.00     0.031 C 
ATOM     58  C   UNL A   1      42.954  27.889  32.525  1.00  0.00     0.029 A 
ATOM     59  C   UNL A   1      42.358  28.926  33.224  1.00  0.00     0.049 A 
ATOM     60  H   UNL A   1      40.721  30.135  32.668  1.00  0.00     0.167 HD
ATOM     61  C   UNL A   1      42.059  30.461  35.152  1.00  0.00     0.074 A 
ATOM     62  C   UNL A   1      42.405  30.947  36.473  1.00  0.00     0.031 C 
ATOM     63  C   UNL A   1      42.697  29.443  34.524  1.00  0.00     0.037 A 
BRANCH  50  64
ATOM     64  C   UNL A   1      40.428  28.088  28.938  1.00  0.00     0.064 A 
ATOM     65  C   UNL A   1      41.198  28.433  27.816  1.00  0.00     0.173 A 
ATOM     66  C   UNL A   1      39.706  26.885  28.890  1.00  0.00     0.173 A 
ATOM     67  F   UNL A   1      41.895  29.580  27.803  1.00  0.00    -0.203 F 
ATOM     68  C   UNL A   1      41.210  27.631  26.678  1.00  0.00     0.198 A 
ATOM     69  C   UNL A   1      39.751  26.066  27.764  1.00  0.00     0.198 A 
ATOM     70  F   UNL A   1      38.958  26.502  29.934  1.00  0.00    -0.203 F 
ATOM     71  F   UNL A   1      41.899  28.018  25.596  1.00  0.00    -0.200 F 
ATOM     72  C   UNL A   1      40.493  26.445  26.656  1.00  0.00     0.200 A 
ATOM     73  F   UNL A   1      39.067  24.914  27.748  1.00  0.00    -0.200 F 
ATOM     74  F   UNL A   1      40.508  25.673  25.560  1.00  0.00    -0.200 F 
ENDBRANCH  50  64
BRANCH  51  75
ATOM     75  C   UNL A   1      39.547  34.010  36.951  1.00  0.00     0.064 A 
ATOM     76  C   UNL A   1      40.198  35.249  37.022  1.00  0.00     0.173 A 
ATOM     77  C   UNL A   1      38.774  33.615  38.051  1.00  0.00     0.173 A 
ATOM     78  F   UNL A   1      40.966  35.660  36.001  1.00  0.00    -0.203 F 
ATOM     79  C   UNL A   1      40.100  36.052  38.156  1.00  0.00     0.198 A 
ATOM     80  C   UNL A   1      38.655  34.431  39.175  1.00  0.00     0.198 A 
ATOM     81  F   UNL A   1      38.125  32.442  38.031  1.00  0.00    -0.203 F 
ATOM     82  F   UNL A   1      40.772  37.210  38.214  1.00  0.00    -0.200 F 
ATOM     83  C   UNL A   1      39.325  35.645  39.230  1.00  0.00     0.200 A 
ATOM     84  F   UNL A   1      37.895  34.040  40.207  1.00  0.00    -0.200 F 
ATOM     85  F   UNL A   1      39.229  36.416  40.321  1.00  0.00    -0.200 F 
ENDBRANCH  51  75
BRANCH  63  86
ATOM     86  C   UNL A   1      43.865  28.823  35.231  1.00  0.00     0.064 A 
ATOM     87  C   UNL A   1      45.161  29.341  35.104  1.00  0.00     0.173 A 
ATOM     88  C   UNL A   1      43.671  27.728  36.087  1.00  0.00     0.173 A 
ATOM     89  F   UNL A   1      45.396  30.378  34.287  1.00  0.00    -0.203 F 
ATOM     90  C   UNL A   1      46.227  28.772  35.796  1.00  0.00     0.198 A 
ATOM     91  C   UNL A   1      44.734  27.180  36.798  1.00  0.00     0.198 A 
ATOM     92  F   UNL A   1      42.447  27.203  36.247  1.00  0.00    -0.203 F 
ATOM     93  F   UNL A   1      47.465  29.256  35.631  1.00  0.00    -0.200 F 
ATOM     94  C   UNL A   1      46.011  27.698  36.647  1.00  0.00     0.200 A 
ATOM     95  F   UNL A   1      44.521  26.151  37.631  1.00  0.00    -0.200 F 
ATOM     96  F   UNL A   1      47.037  27.158  37.320  1.00  0.00    -0.200 F 
ENDBRANCH  63  86
ENDBRANCH  37  38
ENDBRANCH  29  32
ENDBRANCH  27  28
ENDBRANCH  26  27
ENDBRANCH   1  26
TORSDOF 15
ENDMDL
MODEL 3
REMARK VINA RESULT:     -12.5      6.371     11.738
REMARK SMILES C[NH2+][C@@]1(C(=O)NCCCCNC(=O)c2ccc(-c3c4nc(c(-c5c(F)c(F)c(F)c(F)c5F)c5ccc([nH]5)c(-c5c(F)c(F)c(F)c(F)c5F)c5nc(c(-c6c(F)c(F)c(F)c(F)c6F)c6ccc3[nH]6)C=C5)C=C4)cc2)CCC[C@H](Oc2cccc(OC)c2)C1
REMARK SMILES IDX 8 1 7 2 6 3 4 4 5 5 3 7 77 8 90 9 78 10 80 11 79 12 2 13
REMARK SMILES IDX 1 14 81 17 82 18 83 19 89 20 84 21 86 22 85 23 87 24 88 25
REMARK SMILES IDX 9 26 10 27 11 28 12 29 13 31 14 32 15 33 76 34 16 35 75 36
REMARK SMILES IDX 17 37 18 38 19 39 69 40 20 41 74 42 68 43 70 44 21 45 73 46
REMARK SMILES IDX 67 47 66 48 22 50 54 51 34 52 53 53 35 54 38 55 52 56 71 57
REMARK SMILES IDX 36 58 37 59 51 61 72 62 39 63 23 64 24 65 32 66 25 67 26 68
REMARK SMILES IDX 30 69 33 70 27 71 28 72 31 73 29 74 55 75 56 76 64 77 57 78
REMARK SMILES IDX 58 79 62 80 65 81 59 82 60 83 63 84 61 85 40 86 41 87 49 88
REMARK SMILES IDX 42 89 43 90 47 91 50 92 44 93 45 94 48 95 46 96
REMARK H PARENT 6 6 2 15 2 16 11 30 70 49 38 60
REMARK Flexibility Score: inf
ROOT
ATOM      1  C   UNL A   1      36.289  20.008  24.998  1.00  0.00     0.023 C 
ENDROOT
BRANCH   1   2
ATOM      2  C   UNL A   1      36.167  21.410  25.578  1.00  0.00     0.116 C 
BRANCH   2   3
ATOM      3  N   UNL A   1      35.158  21.418  26.613  1.00  0.00    -0.351 N 
ATOM      4  C   UNL A   1      34.355  22.455  26.989  1.00  0.00     0.281 C 
ATOM      5  O   UNL A   1      34.231  22.582  28.217  1.00  0.00    -0.268 OA
ATOM      6  H   UNL A   1      35.036  20.575  27.105  1.00  0.00     0.163 HD
BRANCH   4   7
ATOM      7  C   UNL A   1      33.503  23.336  25.984  1.00  0.00     0.178 C 
ATOM      8  C   UNL A   1      32.348  24.196  26.512  1.00  0.00     0.079 C 
ATOM      9  C   UNL A   1      33.044  22.478  24.773  1.00  0.00     0.124 C 
ATOM     10  C   UNL A   1      30.942  23.622  26.493  1.00  0.00     0.011 C 
ATOM     11  C   UNL A   1      31.776  21.621  24.960  1.00  0.00     0.180 C 
ATOM     12  C   UNL A   1      30.653  22.357  25.703  1.00  0.00     0.046 C 
BRANCH   7  13
ATOM     13  N   UNL A   1      34.514  24.311  25.412  1.00  0.00    -0.336 N 
ATOM     14  C   UNL A   1      33.967  25.318  24.507  1.00  0.00     0.331 C 
ATOM     15  H   UNL A   1      34.959  24.797  26.191  1.00  0.00     0.346 HD
ATOM     16  H   UNL A   1      35.162  23.754  24.855  1.00  0.00     0.346 HD
ENDBRANCH   7  13
BRANCH  11  17
ATOM     17  O   UNL A   1      32.156  20.357  25.530  1.00  0.00    -0.490 OA
BRANCH  17  18
ATOM     18  C   UNL A   1      32.618  19.312  24.766  1.00  0.00     0.123 A 
ATOM     19  C   UNL A   1      32.528  19.198  23.380  1.00  0.00     0.047 A 
ATOM     20  C   UNL A   1      33.129  18.227  25.501  1.00  0.00     0.092 A 
ATOM     21  C   UNL A   1      32.822  17.982  22.752  1.00  0.00     0.008 A 
ATOM     22  C   UNL A   1      33.446  17.018  24.872  1.00  0.00     0.122 A 
ATOM     23  C   UNL A   1      33.276  16.896  23.497  1.00  0.00     0.046 A 
BRANCH  22  24
ATOM     24  O   UNL A   1      33.998  15.941  25.508  1.00  0.00    -0.497 OA
ATOM     25  C   UNL A   1      35.412  15.836  25.376  1.00  0.00     0.278 C 
ENDBRANCH  22  24
ENDBRANCH  17  18
ENDBRANCH  11  17
ENDBRANCH   4   7
ENDBRANCH   2   3
ENDBRANCH   1   2
BRANCH   1  26
ATOM     26  C   UNL A   1      37.701  19.577  24.663  1.00  0.00     0.023 C 
BRANCH  26  27
ATOM     27  C   UNL A   1      38.715  20.041  25.689  1.00  0.00     0.116 C 
BRANCH  27  28
ATOM     28  N   UNL A   1      39.911  19.200  25.758  1.00  0.00    -0.352 N 
ATOM     29  C   UNL A   1      41.212  19.455  26.124  1.00  0.00     0.251 C 
ATOM     30  H   UNL A   1      39.753  18.267  25.487  1.00  0.00     0.163 HD
ATOM     31  O   UNL A   1      42.048  18.555  26.051  1.00  0.00    -0.269 OA
BRANCH  29  32
ATOM     32  C   UNL A   1      41.639  20.801  26.563  1.00  0.00     0.039 A 
ATOM     33  C   UNL A   1      42.220  20.966  27.826  1.00  0.00     0.014 A 
ATOM     34  C   UNL A   1      41.484  21.910  25.740  1.00  0.00     0.014 A 
ATOM     35  C   UNL A   1      42.735  22.213  28.204  1.00  0.00     0.010 A 
ATOM     36  C   UNL A   1      42.144  23.090  26.038  1.00  0.00     0.010 A 
ATOM     37  C   UNL A   1      42.756  23.272  27.286  1.00  0.00    -0.014 A 
BRANCH  37  38
ATOM     38  C   UNL A   1      43.339  24.608  27.584  1.00  0.00     0.031 A 
ATOM     39  C   UNL A   1      42.447  25.680  28.162  1.00  0.00     0.074 A 
ATOM     40  C   UNL A   1      44.602  24.908  27.224  1.00  0.00     0.049 A 
ATOM     41  N   UNL A   1      42.632  26.975  28.229  1.00  0.00    -0.248 NA
ATOM     42  C   UNL A   1      41.136  25.238  28.669  1.00  0.00     0.031 C 
ATOM     43  C   UNL A   1      45.563  23.984  26.621  1.00  0.00     0.029 A 
ATOM     44  N   UNL A   1      45.287  26.097  27.294  1.00  0.00    -0.354 N 
ATOM     45  C   UNL A   1      41.438  27.497  28.711  1.00  0.00     0.074 A 
ATOM     46  C   UNL A   1      40.519  26.393  28.862  1.00  0.00     0.031 C 
ATOM     47  C   UNL A   1      46.720  24.630  26.404  1.00  0.00     0.029 A 
ATOM     48  C   UNL A   1      46.566  26.027  26.798  1.00  0.00     0.049 A 
ATOM     49  H   UNL A   1      44.897  26.922  27.665  1.00  0.00     0.167 HD
ATOM     50  C   UNL A   1      41.142  28.780  29.032  1.00  0.00     0.037 A 
ATOM     51  C   UNL A   1      47.500  26.987  26.663  1.00  0.00     0.037 A 
ATOM     52  C   UNL A   1      42.093  29.856  28.976  1.00  0.00     0.049 A 
ATOM     53  C   UNL A   1      47.171  28.394  27.082  1.00  0.00     0.074 A 
ATOM     54  C   UNL A   1      41.929  31.175  29.357  1.00  0.00     0.029 A 
ATOM     55  N   UNL A   1      43.402  29.725  28.535  1.00  0.00    -0.354 N 
ATOM     56  N   UNL A   1      46.047  28.877  27.556  1.00  0.00    -0.248 NA
ATOM     57  C   UNL A   1      48.241  29.392  26.948  1.00  0.00     0.031 C 
ATOM     58  C   UNL A   1      43.133  31.848  29.127  1.00  0.00     0.029 A 
ATOM     59  C   UNL A   1      44.057  30.939  28.637  1.00  0.00     0.049 A 
ATOM     60  H   UNL A   1      43.804  28.892  28.198  1.00  0.00     0.167 HD
ATOM     61  C   UNL A   1      46.283  30.222  27.806  1.00  0.00     0.074 A 
ATOM     62  C   UNL A   1      47.662  30.477  27.440  1.00  0.00     0.031 C 
ATOM     63  C   UNL A   1      45.437  31.162  28.290  1.00  0.00     0.037 A 
BRANCH  50  64
ATOM     64  C   UNL A   1      39.745  29.078  29.494  1.00  0.00     0.064 A 
ATOM     65  C   UNL A   1      38.739  29.478  28.600  1.00  0.00     0.173 A 
ATOM     66  C   UNL A   1      39.401  28.949  30.849  1.00  0.00     0.173 A 
ATOM     67  F   UNL A   1      39.018  29.630  27.296  1.00  0.00    -0.203 F 
ATOM     68  C   UNL A   1      37.457  29.781  29.049  1.00  0.00     0.198 A 
ATOM     69  C   UNL A   1      38.107  29.218  31.290  1.00  0.00     0.198 A 
ATOM     70  F   UNL A   1      40.319  28.565  31.748  1.00  0.00    -0.203 F 
ATOM     71  F   UNL A   1      36.535  30.228  28.185  1.00  0.00    -0.200 F 
ATOM     72  C   UNL A   1      37.140  29.644  30.392  1.00  0.00     0.200 A 
ATOM     73  F   UNL A   1      37.798  29.073  32.586  1.00  0.00    -0.200 F 
ATOM     74  F   UNL A   1      35.904  29.934  30.821  1.00  0.00    -0.200 F 
ENDBRANCH  50  64
BRANCH  51  75
ATOM     75  C   UNL A   1      48.849  26.645  26.140  1.00  0.00     0.064 A 
ATOM     76  C   UNL A   1      49.171  26.883  24.796  1.00  0.00     0.173 A 
ATOM     77  C   UNL A   1      49.837  26.079  26.957  1.00  0.00     0.173 A 
ATOM     78  F   UNL A   1      48.251  27.404  23.971  1.00  0.00    -0.203 F 
ATOM     79  C   UNL A   1      50.422  26.547  24.284  1.00  0.00     0.198 A 
ATOM     80  C   UNL A   1      51.098  25.768  26.450  1.00  0.00     0.198 A 
ATOM     81  F   UNL A   1      49.582  25.839  28.252  1.00  0.00    -0.203 F 
ATOM     82  F   UNL A   1      50.685  26.742  22.984  1.00  0.00    -0.200 F 
ATOM     83  C   UNL A   1      51.386  25.993  25.112  1.00  0.00     0.200 A 
ATOM     84  F   UNL A   1      52.031  25.244  27.256  1.00  0.00    -0.200 F 
ATOM     85  F   UNL A   1      52.589  25.671  24.620  1.00  0.00    -0.200 F 
ENDBRANCH  51  75
BRANCH  63  86
ATOM     86  C   UNL A   1      45.989  32.540  28.503  1.00  0.00     0.064 A 
ATOM     87  C   UNL A   1      45.921  33.522  27.506  1.00  0.00     0.173 A 
ATOM     88  C   UNL A   1      46.544  32.894  29.743  1.00  0.00     0.173 A 
ATOM     89  F   UNL A   1      45.411  33.225  26.301  1.00  0.00    -0.203 F 
ATOM     90  C   UNL A   1      46.408  34.806  27.734  1.00  0.00     0.198 A 
ATOM     91  C   UNL A   1      47.004  34.186  29.977  1.00  0.00     0.198 A 
ATOM     92  F   UNL A   1      46.623  31.991  30.731  1.00  0.00    -0.203 F 
ATOM     93  F   UNL A   1      46.371  35.719  26.754  1.00  0.00    -0.200 F 
ATOM     94  C   UNL A   1      46.941  35.138  28.971  1.00  0.00     0.200 A 
ATOM     95  F   UNL A   1      47.506  34.510  31.177  1.00  0.00    -0.200 F 
ATOM     96  F   UNL A   1      47.401  36.378  29.192  1.00  0.00    -0.200 F 
ENDBRANCH  63  86
ENDBRANCH  37  38
ENDBRANCH  29  32
ENDBRANCH  27  28
ENDBRANCH  26  27
ENDBRANCH   1  26
TORSDOF 15
ENDMDL
