MODEL 1
REMARK VINA RESULT:     -12.9      0.000      0.000
REMARK SMILES O=C(CC1(CC(=O)Nc2ccc3ccccc3n2)CCCCC1)NCCCCNC(=O)c1ccc(-c2c3nc(c(-c4c(F)c(F)c(F)c(F)c4F)c4ccc([nH]4)c(-c4c(F)c(F)c(F)c(F)c4F)c4nc(c(-c5c(F)c(F)c(F)c(F)c5F)c5ccc2[nH]5)C=C4)C=C3)cc1
REMARK SMILES IDX 25 1 24 2 1 3 2 4 3 6 4 7 19 8 23 9 20 10 22 11 21 12 5 13
REMARK SMILES IDX 6 14 7 15 8 16 9 18 10 19 18 20 11 21 17 22 12 23 16 24
REMARK SMILES IDX 13 25 15 26 14 27 26 28 27 29 28 30 29 31 30 32 31 34 32 35
REMARK SMILES IDX 33 36 94 37 34 38 93 39 35 40 36 41 37 42 87 43 38 44 92 45
REMARK SMILES IDX 86 46 88 47 39 48 91 49 85 50 84 51 40 53 72 54 52 55 71 56
REMARK SMILES IDX 53 57 56 58 70 59 89 60 54 61 55 62 69 64 90 65 57 66 41 67
REMARK SMILES IDX 42 68 50 69 43 70 44 71 48 72 51 73 45 74 46 75 49 76 47 77
REMARK SMILES IDX 73 78 74 79 82 80 75 81 76 82 80 83 83 84 77 85 78 86 81 87
REMARK SMILES IDX 79 88 58 89 59 90 67 91 60 92 61 93 65 94 68 95 62 96 63 97
REMARK SMILES IDX 66 98 64 99
REMARK H PARENT 24 5 8 17 29 33 88 52 56 63
REMARK Flexibility Score: inf
ROOT
ATOM      1  C   UNL A   1      34.891  22.982  22.740  1.00  0.00     0.116 C 
ENDROOT
BRANCH   1   2
ATOM      2  N   UNL A   1      33.908  23.763  23.469  1.00  0.00    -0.356 N 
ATOM      3  O   UNL A   1      33.896  25.515  21.987  1.00  0.00    -0.275 OA
ATOM      4  C   UNL A   1      33.406  24.939  22.956  1.00  0.00     0.220 C 
ATOM      5  H   UNL A   1      33.595  23.448  24.348  1.00  0.00     0.163 HD
BRANCH   4   6
ATOM      6  C   UNL A   1      32.165  25.487  23.660  1.00  0.00     0.107 C 
BRANCH   6   7
ATOM      7  C   UNL A   1      32.391  26.059  25.098  1.00  0.00    -0.012 C 
ATOM      8  C   UNL A   1      33.676  26.961  25.072  1.00  0.00     0.008 C 
ATOM      9  C   UNL A   1      31.300  27.055  25.476  1.00  0.00     0.008 C 
ATOM     10  C   UNL A   1      33.942  27.748  26.372  1.00  0.00     0.001 C 
ATOM     11  C   UNL A   1      31.468  27.597  26.896  1.00  0.00     0.001 C 
ATOM     12  C   UNL A   1      32.719  28.451  26.960  1.00  0.00     0.000 C 
BRANCH   7  13
ATOM     13  C   UNL A   1      32.574  24.913  26.137  1.00  0.00     0.108 C 
BRANCH  13  14
ATOM     14  C   UNL A   1      31.537  23.822  26.463  1.00  0.00     0.226 C 
ATOM     15  O   UNL A   1      30.639  24.107  27.273  1.00  0.00    -0.275 OA
ATOM     16  N   UNL A   1      31.347  22.694  25.719  1.00  0.00    -0.311 N 
ATOM     17  H   UNL A   1      30.408  22.526  25.478  1.00  0.00     0.171 HD
BRANCH  16  18
ATOM     18  C   UNL A   1      32.239  21.732  25.235  1.00  0.00     0.133 A 
ATOM     19  C   UNL A   1      33.406  21.510  25.946  1.00  0.00     0.048 A 
ATOM     20  N   UNL A   1      31.989  21.077  24.099  1.00  0.00    -0.231 NA
ATOM     21  C   UNL A   1      34.172  20.388  25.628  1.00  0.00     0.014 A 
ATOM     22  C   UNL A   1      32.703  19.969  23.791  1.00  0.00     0.073 A 
ATOM     23  C   UNL A   1      33.758  19.532  24.602  1.00  0.00     0.000 A 
ATOM     24  C   UNL A   1      32.295  19.140  22.745  1.00  0.00     0.029 A 
ATOM     25  C   UNL A   1      34.298  18.243  24.425  1.00  0.00     0.010 A 
ATOM     26  C   UNL A   1      32.769  17.832  22.615  1.00  0.00     0.002 A 
ATOM     27  C   UNL A   1      33.759  17.376  23.473  1.00  0.00     0.001 A 
ENDBRANCH  16  18
ENDBRANCH  13  14
ENDBRANCH   7  13
ENDBRANCH   6   7
ENDBRANCH   4   6
ENDBRANCH   1   2
BRANCH   1  28
ATOM     28  C   UNL A   1      36.188  22.728  23.514  1.00  0.00     0.023 C 
BRANCH  28  29
ATOM     29  C   UNL A   1      36.528  23.727  24.626  1.00  0.00     0.023 C 
BRANCH  29  30
ATOM     30  C   UNL A   1      36.731  23.129  26.016  1.00  0.00     0.116 C 
BRANCH  30  31
ATOM     31  N   UNL A   1      37.945  22.330  26.122  1.00  0.00    -0.352 N 
ATOM     32  C   UNL A   1      39.221  22.691  26.475  1.00  0.00     0.251 C 
ATOM     33  H   UNL A   1      37.830  21.376  25.907  1.00  0.00     0.163 HD
ATOM     34  O   UNL A   1      40.135  21.866  26.376  1.00  0.00    -0.269 OA
BRANCH  32  35
ATOM     35  C   UNL A   1      39.538  24.059  26.947  1.00  0.00     0.039 A 
ATOM     36  C   UNL A   1      39.273  24.382  28.283  1.00  0.00     0.014 A 
ATOM     37  C   UNL A   1      40.052  25.037  26.092  1.00  0.00     0.014 A 
ATOM     38  C   UNL A   1      39.589  25.653  28.774  1.00  0.00     0.010 A 
ATOM     39  C   UNL A   1      40.431  26.282  26.600  1.00  0.00     0.010 A 
ATOM     40  C   UNL A   1      40.210  26.603  27.948  1.00  0.00    -0.014 A 
BRANCH  40  41
ATOM     41  C   UNL A   1      40.650  27.919  28.491  1.00  0.00     0.031 A 
ATOM     42  C   UNL A   1      42.094  28.166  28.838  1.00  0.00     0.074 A 
ATOM     43  C   UNL A   1      39.737  28.883  28.723  1.00  0.00     0.049 A 
ATOM     44  N   UNL A   1      42.650  29.227  29.368  1.00  0.00    -0.248 NA
ATOM     45  C   UNL A   1      43.034  27.067  28.574  1.00  0.00     0.031 C 
ATOM     46  C   UNL A   1      38.301  28.764  28.469  1.00  0.00     0.029 A 
ATOM     47  N   UNL A   1      39.878  30.152  29.234  1.00  0.00    -0.354 N 
ATOM     48  C   UNL A   1      43.998  28.921  29.510  1.00  0.00     0.074 A 
ATOM     49  C   UNL A   1      44.167  27.556  29.058  1.00  0.00     0.031 C 
ATOM     50  C   UNL A   1      37.698  29.916  28.799  1.00  0.00     0.029 A 
ATOM     51  C   UNL A   1      38.694  30.842  29.330  1.00  0.00     0.049 A 
ATOM     52  H   UNL A   1      40.745  30.530  29.505  1.00  0.00     0.167 HD
ATOM     53  C   UNL A   1      45.005  29.711  29.957  1.00  0.00     0.037 A 
ATOM     54  C   UNL A   1      38.434  32.077  29.803  1.00  0.00     0.037 A 
ATOM     55  C   UNL A   1      44.840  31.075  30.390  1.00  0.00     0.049 A 
ATOM     56  C   UNL A   1      39.568  32.922  30.320  1.00  0.00     0.074 A 
ATOM     57  C   UNL A   1      45.810  31.972  30.803  1.00  0.00     0.029 A 
ATOM     58  N   UNL A   1      43.623  31.738  30.474  1.00  0.00    -0.354 N 
ATOM     59  N   UNL A   1      40.846  32.645  30.384  1.00  0.00    -0.248 NA
ATOM     60  C   UNL A   1      39.219  34.258  30.828  1.00  0.00     0.031 C 
ATOM     61  C   UNL A   1      45.176  33.157  31.195  1.00  0.00     0.029 A 
ATOM     62  C   UNL A   1      43.817  33.021  30.963  1.00  0.00     0.049 A 
ATOM     63  H   UNL A   1      42.752  31.354  30.223  1.00  0.00     0.167 HD
ATOM     64  C   UNL A   1      41.458  33.778  30.904  1.00  0.00     0.074 A 
ATOM     65  C   UNL A   1      40.412  34.753  31.127  1.00  0.00     0.031 C 
ATOM     66  C   UNL A   1      42.771  33.990  31.173  1.00  0.00     0.037 A 
BRANCH  53  67
ATOM     67  C   UNL A   1      46.385  29.118  30.010  1.00  0.00     0.064 A 
ATOM     68  C   UNL A   1      46.867  28.469  31.157  1.00  0.00     0.173 A 
ATOM     69  C   UNL A   1      47.220  29.156  28.881  1.00  0.00     0.173 A 
ATOM     70  F   UNL A   1      46.115  28.409  32.266  1.00  0.00    -0.203 F 
ATOM     71  C   UNL A   1      48.144  27.912  31.183  1.00  0.00     0.198 A 
ATOM     72  C   UNL A   1      48.482  28.568  28.900  1.00  0.00     0.198 A 
ATOM     73  F   UNL A   1      46.807  29.755  27.755  1.00  0.00    -0.203 F 
ATOM     74  F   UNL A   1      48.603  27.346  32.308  1.00  0.00    -0.200 F 
ATOM     75  C   UNL A   1      48.947  27.955  30.053  1.00  0.00     0.200 A 
ATOM     76  F   UNL A   1      49.250  28.598  27.802  1.00  0.00    -0.200 F 
ATOM     77  F   UNL A   1      50.172  27.412  30.078  1.00  0.00    -0.200 F 
ENDBRANCH  53  67
BRANCH  54  78
ATOM     78  C   UNL A   1      37.041  32.600  29.798  1.00  0.00     0.064 A 
ATOM     79  C   UNL A   1      36.538  33.299  28.692  1.00  0.00     0.173 A 
ATOM     80  C   UNL A   1      36.192  32.428  30.901  1.00  0.00     0.173 A 
ATOM     81  F   UNL A   1      37.320  33.512  27.623  1.00  0.00    -0.203 F 
ATOM     82  C   UNL A   1      35.249  33.827  28.698  1.00  0.00     0.198 A 
ATOM     83  C   UNL A   1      34.890  32.927  30.893  1.00  0.00     0.198 A 
ATOM     84  F   UNL A   1      36.622  31.765  31.984  1.00  0.00    -0.203 F 
ATOM     85  F   UNL A   1      34.814  34.538  27.649  1.00  0.00    -0.200 F 
ATOM     86  C   UNL A   1      34.423  33.635  29.796  1.00  0.00     0.200 A 
ATOM     87  F   UNL A   1      34.091  32.727  31.949  1.00  0.00    -0.200 F 
ATOM     88  F   UNL A   1      33.182  34.141  29.800  1.00  0.00    -0.200 F 
ENDBRANCH  54  78
BRANCH  66  89
ATOM     89  C   UNL A   1      43.160  35.344  31.697  1.00  0.00     0.064 A 
ATOM     90  C   UNL A   1      43.105  35.653  33.064  1.00  0.00     0.173 A 
ATOM     91  C   UNL A   1      43.629  36.335  30.821  1.00  0.00     0.173 A 
ATOM     92  F   UNL A   1      42.652  34.748  33.944  1.00  0.00    -0.203 F 
ATOM     93  C   UNL A   1      43.479  36.912  33.530  1.00  0.00     0.198 A 
ATOM     94  C   UNL A   1      44.034  37.580  31.294  1.00  0.00     0.198 A 
ATOM     95  F   UNL A   1      43.708  36.091  29.504  1.00  0.00    -0.203 F 
ATOM     96  F   UNL A   1      43.368  37.201  34.835  1.00  0.00    -0.200 F 
ATOM     97  C   UNL A   1      43.950  37.870  32.646  1.00  0.00     0.200 A 
ATOM     98  F   UNL A   1      44.505  38.499  30.439  1.00  0.00    -0.200 F 
ATOM     99  F   UNL A   1      44.318  39.077  33.098  1.00  0.00    -0.200 F 
ENDBRANCH  66  89
ENDBRANCH  40  41
ENDBRANCH  32  35
ENDBRANCH  30  31
ENDBRANCH  29  30
ENDBRANCH  28  29
ENDBRANCH   1  28
TORSDOF 15
ENDMDL
MODEL 2
REMARK VINA RESULT:     -12.8      4.137      7.866
REMARK SMILES O=C(CC1(CC(=O)Nc2ccc3ccccc3n2)CCCCC1)NCCCCNC(=O)c1ccc(-c2c3nc(c(-c4c(F)c(F)c(F)c(F)c4F)c4ccc([nH]4)c(-c4c(F)c(F)c(F)c(F)c4F)c4nc(c(-c5c(F)c(F)c(F)c(F)c5F)c5ccc2[nH]5)C=C4)C=C3)cc1
REMARK SMILES IDX 25 1 24 2 1 3 2 4 3 6 4 7 19 8 23 9 20 10 22 11 21 12 5 13
REMARK SMILES IDX 6 14 7 15 8 16 9 18 10 19 18 20 11 21 17 22 12 23 16 24
REMARK SMILES IDX 13 25 15 26 14 27 26 28 27 29 28 30 29 31 30 32 31 34 32 35
REMARK SMILES IDX 33 36 94 37 34 38 93 39 35 40 36 41 37 42 87 43 38 44 92 45
REMARK SMILES IDX 86 46 88 47 39 48 91 49 85 50 84 51 40 53 72 54 52 55 71 56
REMARK SMILES IDX 53 57 56 58 70 59 89 60 54 61 55 62 69 64 90 65 57 66 41 67
REMARK SMILES IDX 42 68 50 69 43 70 44 71 48 72 51 73 45 74 46 75 49 76 47 77
REMARK SMILES IDX 73 78 74 79 82 80 75 81 76 82 80 83 83 84 77 85 78 86 81 87
REMARK SMILES IDX 79 88 58 89 59 90 67 91 60 92 61 93 65 94 68 95 62 96 63 97
REMARK SMILES IDX 66 98 64 99
REMARK H PARENT 24 5 8 17 29 33 88 52 56 63
REMARK Flexibility Score: inf
ROOT
ATOM      1  C   UNL A   1      32.795  30.136  27.251  1.00  0.00     0.116 C 
ENDROOT
BRANCH   1   2
ATOM      2  N   UNL A   1      33.035  28.759  26.860  1.00  0.00    -0.356 N 
ATOM      3  O   UNL A   1      31.243  27.902  28.009  1.00  0.00    -0.275 OA
ATOM      4  C   UNL A   1      32.150  27.757  27.193  1.00  0.00     0.220 C 
ATOM      5  H   UNL A   1      33.846  28.536  26.346  1.00  0.00     0.163 HD
BRANCH   4   6
ATOM      6  C   UNL A   1      32.351  26.431  26.458  1.00  0.00     0.107 C 
BRANCH   6   7
ATOM      7  C   UNL A   1      31.471  26.214  25.184  1.00  0.00    -0.012 C 
ATOM      8  C   UNL A   1      30.951  27.614  24.701  1.00  0.00     0.008 C 
ATOM      9  C   UNL A   1      32.313  25.752  24.000  1.00  0.00     0.008 C 
ATOM     10  C   UNL A   1      30.211  27.600  23.348  1.00  0.00     0.001 C 
ATOM     11  C   UNL A   1      31.472  25.485  22.752  1.00  0.00     0.001 C 
ATOM     12  C   UNL A   1      30.900  26.796  22.246  1.00  0.00     0.000 C 
BRANCH   7  13
ATOM     13  C   UNL A   1      30.262  25.281  25.489  1.00  0.00     0.108 C 
BRANCH  13  14
ATOM     14  C   UNL A   1      30.305  24.007  26.354  1.00  0.00     0.226 C 
ATOM     15  O   UNL A   1      29.524  23.941  27.318  1.00  0.00    -0.275 OA
ATOM     16  N   UNL A   1      30.900  22.840  25.974  1.00  0.00    -0.311 N 
ATOM     17  H   UNL A   1      30.329  22.045  26.080  1.00  0.00     0.171 HD
BRANCH  16  18
ATOM     18  C   UNL A   1      32.171  22.561  25.464  1.00  0.00     0.133 A 
ATOM     19  C   UNL A   1      32.255  21.939  24.230  1.00  0.00     0.048 A 
ATOM     20  N   UNL A   1      33.269  22.850  26.165  1.00  0.00    -0.231 NA
ATOM     21  C   UNL A   1      33.497  21.890  23.596  1.00  0.00     0.014 A 
ATOM     22  C   UNL A   1      34.479  22.837  25.558  1.00  0.00     0.073 A 
ATOM     23  C   UNL A   1      34.618  22.448  24.219  1.00  0.00     0.000 A 
ATOM     24  C   UNL A   1      35.595  23.371  26.204  1.00  0.00     0.029 A 
ATOM     25  C   UNL A   1      35.819  22.706  23.530  1.00  0.00     0.010 A 
ATOM     26  C   UNL A   1      36.759  23.702  25.507  1.00  0.00     0.002 A 
ATOM     27  C   UNL A   1      36.862  23.387  24.160  1.00  0.00     0.001 A 
ENDBRANCH  16  18
ENDBRANCH  13  14
ENDBRANCH   7  13
ENDBRANCH   6   7
ENDBRANCH   4   6
ENDBRANCH   1   2
BRANCH   1  28
ATOM     28  C   UNL A   1      31.652  30.814  26.488  1.00  0.00     0.023 C 
BRANCH  28  29
ATOM     29  C   UNL A   1      31.461  32.314  26.734  1.00  0.00     0.023 C 
BRANCH  29  30
ATOM     30  C   UNL A   1      32.719  33.089  27.123  1.00  0.00     0.116 C 
BRANCH  30  31
ATOM     31  N   UNL A   1      32.431  34.401  27.685  1.00  0.00    -0.352 N 
ATOM     32  C   UNL A   1      33.007  35.065  28.738  1.00  0.00     0.251 C 
ATOM     33  H   UNL A   1      31.705  34.892  27.236  1.00  0.00     0.163 HD
ATOM     34  O   UNL A   1      32.517  36.130  29.127  1.00  0.00    -0.269 OA
BRANCH  32  35
ATOM     35  C   UNL A   1      34.192  34.523  29.443  1.00  0.00     0.039 A 
ATOM     36  C   UNL A   1      34.008  33.919  30.692  1.00  0.00     0.014 A 
ATOM     37  C   UNL A   1      35.482  34.635  28.917  1.00  0.00     0.014 A 
ATOM     38  C   UNL A   1      35.098  33.367  31.373  1.00  0.00     0.010 A 
ATOM     39  C   UNL A   1      36.558  34.024  29.566  1.00  0.00     0.010 A 
ATOM     40  C   UNL A   1      36.378  33.377  30.798  1.00  0.00    -0.014 A 
BRANCH  40  41
ATOM     41  C   UNL A   1      37.523  32.694  31.465  1.00  0.00     0.031 A 
ATOM     42  C   UNL A   1      38.203  31.519  30.817  1.00  0.00     0.074 A 
ATOM     43  C   UNL A   1      37.922  33.102  32.686  1.00  0.00     0.049 A 
ATOM     44  N   UNL A   1      39.178  30.770  31.271  1.00  0.00    -0.248 NA
ATOM     45  C   UNL A   1      37.708  31.117  29.492  1.00  0.00     0.031 C 
ATOM     46  C   UNL A   1      37.327  34.204  33.443  1.00  0.00     0.029 A 
ATOM     47  N   UNL A   1      38.917  32.634  33.511  1.00  0.00    -0.354 N 
ATOM     48  C   UNL A   1      39.405  29.806  30.297  1.00  0.00     0.074 A 
ATOM     49  C   UNL A   1      38.432  30.033  29.248  1.00  0.00     0.031 C 
ATOM     50  C   UNL A   1      37.981  34.343  34.607  1.00  0.00     0.029 A 
ATOM     51  C   UNL A   1      39.013  33.315  34.701  1.00  0.00     0.049 A 
ATOM     52  H   UNL A   1      39.505  31.881  33.272  1.00  0.00     0.167 HD
ATOM     53  C   UNL A   1      40.350  28.834  30.268  1.00  0.00     0.037 A 
ATOM     54  C   UNL A   1      39.831  33.127  35.755  1.00  0.00     0.037 A 
ATOM     55  C   UNL A   1      41.329  28.620  31.302  1.00  0.00     0.049 A 
ATOM     56  C   UNL A   1      40.853  32.022  35.708  1.00  0.00     0.074 A 
ATOM     57  C   UNL A   1      42.363  27.699  31.334  1.00  0.00     0.029 A 
ATOM     58  N   UNL A   1      41.393  29.330  32.493  1.00  0.00    -0.354 N 
ATOM     59  N   UNL A   1      41.102  31.163  34.751  1.00  0.00    -0.248 NA
ATOM     60  C   UNL A   1      41.712  31.864  36.892  1.00  0.00     0.031 C 
ATOM     61  C   UNL A   1      43.014  27.810  32.568  1.00  0.00     0.029 A 
ATOM     62  C   UNL A   1      42.428  28.845  33.278  1.00  0.00     0.049 A 
ATOM     63  H   UNL A   1      40.793  30.069  32.743  1.00  0.00     0.167 HD
ATOM     64  C   UNL A   1      42.163  30.388  35.199  1.00  0.00     0.074 A 
ATOM     65  C   UNL A   1      42.522  30.887  36.509  1.00  0.00     0.031 C 
ATOM     66  C   UNL A   1      42.785  29.354  34.579  1.00  0.00     0.037 A 
BRANCH  53  67
ATOM     67  C   UNL A   1      40.369  27.916  29.078  1.00  0.00     0.064 A 
ATOM     68  C   UNL A   1      39.599  26.744  29.037  1.00  0.00     0.173 A 
ATOM     69  C   UNL A   1      41.132  28.236  27.944  1.00  0.00     0.173 A 
ATOM     70  F   UNL A   1      38.857  26.385  30.095  1.00  0.00    -0.203 F 
ATOM     71  C   UNL A   1      39.618  25.911  27.920  1.00  0.00     0.198 A 
ATOM     72  C   UNL A   1      41.122  27.419  26.816  1.00  0.00     0.198 A 
ATOM     73  F   UNL A   1      41.881  29.349  27.924  1.00  0.00    -0.203 F 
ATOM     74  F   UNL A   1      38.916  24.769  27.926  1.00  0.00    -0.200 F 
ATOM     75  C   UNL A   1      40.372  26.253  26.808  1.00  0.00     0.200 A 
ATOM     76  F   UNL A   1      41.840  27.760  25.737  1.00  0.00    -0.200 F 
ATOM     77  F   UNL A   1      40.383  25.455  25.732  1.00  0.00    -0.200 F 
ENDBRANCH  53  67
BRANCH  54  78
ATOM     78  C   UNL A   1      39.731  34.016  36.944  1.00  0.00     0.064 A 
ATOM     79  C   UNL A   1      40.451  35.217  37.007  1.00  0.00     0.173 A 
ATOM     80  C   UNL A   1      38.931  33.676  38.045  1.00  0.00     0.173 A 
ATOM     81  F   UNL A   1      41.250  35.573  35.990  1.00  0.00    -0.203 F 
ATOM     82  C   UNL A   1      40.394  36.033  38.136  1.00  0.00     0.198 A 
ATOM     83  C   UNL A   1      38.848  34.510  39.159  1.00  0.00     0.198 A 
ATOM     84  F   UNL A   1      38.221  32.540  38.035  1.00  0.00    -0.203 F 
ATOM     85  F   UNL A   1      41.135  37.148  38.192  1.00  0.00    -0.200 F 
ATOM     86  C   UNL A   1      39.587  35.683  39.208  1.00  0.00     0.200 A 
ATOM     87  F   UNL A   1      38.057  34.175  40.186  1.00  0.00    -0.200 F 
ATOM     88  F   UNL A   1      39.530  36.468  40.292  1.00  0.00    -0.200 F 
ENDBRANCH  54  78
BRANCH  66  89
ATOM     89  C   UNL A   1      43.948  28.720  35.288  1.00  0.00     0.064 A 
ATOM     90  C   UNL A   1      43.775  27.671  36.203  1.00  0.00     0.173 A 
ATOM     91  C   UNL A   1      45.259  29.144  35.020  1.00  0.00     0.173 A 
ATOM     92  F   UNL A   1      42.543  27.236  36.507  1.00  0.00    -0.203 F 
ATOM     93  C   UNL A   1      44.868  27.090  36.844  1.00  0.00     0.198 A 
ATOM     94  C   UNL A   1      46.351  28.538  35.635  1.00  0.00     0.198 A 
ATOM     95  F   UNL A   1      45.483  30.138  34.148  1.00  0.00    -0.203 F 
ATOM     96  F   UNL A   1      44.674  26.125  37.754  1.00  0.00    -0.200 F 
ATOM     97  C   UNL A   1      46.154  27.519  36.554  1.00  0.00     0.200 A 
ATOM     98  F   UNL A   1      47.594  28.944  35.340  1.00  0.00    -0.200 F 
ATOM     99  F   UNL A   1      47.204  26.953  37.164  1.00  0.00    -0.200 F 
ENDBRANCH  66  89
ENDBRANCH  40  41
ENDBRANCH  32  35
ENDBRANCH  30  31
ENDBRANCH  29  30
ENDBRANCH  28  29
ENDBRANCH   1  28
TORSDOF 15
ENDMDL
MODEL 3
REMARK VINA RESULT:     -12.7      3.431      8.893
REMARK SMILES O=C(CC1(CC(=O)Nc2ccc3ccccc3n2)CCCCC1)NCCCCNC(=O)c1ccc(-c2c3nc(c(-c4c(F)c(F)c(F)c(F)c4F)c4ccc([nH]4)c(-c4c(F)c(F)c(F)c(F)c4F)c4nc(c(-c5c(F)c(F)c(F)c(F)c5F)c5ccc2[nH]5)C=C4)C=C3)cc1
REMARK SMILES IDX 25 1 24 2 1 3 2 4 3 6 4 7 19 8 23 9 20 10 22 11 21 12 5 13
REMARK SMILES IDX 6 14 7 15 8 16 9 18 10 19 18 20 11 21 17 22 12 23 16 24
REMARK SMILES IDX 13 25 15 26 14 27 26 28 27 29 28 30 29 31 30 32 31 34 32 35
REMARK SMILES IDX 33 36 94 37 34 38 93 39 35 40 36 41 37 42 87 43 38 44 92 45
REMARK SMILES IDX 86 46 88 47 39 48 91 49 85 50 84 51 40 53 72 54 52 55 71 56
REMARK SMILES IDX 53 57 56 58 70 59 89 60 54 61 55 62 69 64 90 65 57 66 41 67
REMARK SMILES IDX 42 68 50 69 43 70 44 71 48 72 51 73 45 74 46 75 49 76 47 77
REMARK SMILES IDX 73 78 74 79 82 80 75 81 76 82 80 83 83 84 77 85 78 86 81 87
REMARK SMILES IDX 79 88 58 89 59 90 67 91 60 92 61 93 65 94 68 95 62 96 63 97
REMARK SMILES IDX 66 98 64 99
REMARK H PARENT 24 5 8 17 29 33 88 52 56 63
REMARK Flexibility Score: inf
ROOT
ATOM      1  C   UNL A   1      31.018  26.714  26.517  1.00  0.00     0.116 C 
ENDROOT
BRANCH   1   2
ATOM      2  N   UNL A   1      31.757  25.724  25.755  1.00  0.00    -0.356 N 
ATOM      3  O   UNL A   1      31.450  24.027  27.269  1.00  0.00    -0.275 OA
ATOM      4  C   UNL A   1      31.813  24.408  26.158  1.00  0.00     0.220 C 
ATOM      5  H   UNL A   1      32.229  25.999  24.935  1.00  0.00     0.163 HD
BRANCH   4   6
ATOM      6  C   UNL A   1      32.345  23.424  25.117  1.00  0.00     0.107 C 
BRANCH   6   7
ATOM      7  C   UNL A   1      33.807  23.673  24.622  1.00  0.00    -0.012 C 
ATOM      8  C   UNL A   1      34.694  24.027  25.868  1.00  0.00     0.008 C 
ATOM      9  C   UNL A   1      34.449  22.385  24.119  1.00  0.00     0.008 C 
ATOM     10  C   UNL A   1      36.206  24.129  25.581  1.00  0.00     0.001 C 
ATOM     11  C   UNL A   1      35.865  22.607  23.584  1.00  0.00     0.001 C 
ATOM     12  C   UNL A   1      36.777  22.993  24.732  1.00  0.00     0.000 C 
BRANCH   7  13
ATOM     13  C   UNL A   1      33.860  24.839  23.591  1.00  0.00     0.108 C 
BRANCH  13  14
ATOM     14  C   UNL A   1      33.055  24.918  22.281  1.00  0.00     0.226 C 
ATOM     15  O   UNL A   1      33.472  24.265  21.310  1.00  0.00    -0.275 OA
ATOM     16  N   UNL A   1      31.778  25.389  22.190  1.00  0.00    -0.311 N 
ATOM     17  H   UNL A   1      31.162  24.791  21.709  1.00  0.00     0.171 HD
BRANCH  16  18
ATOM     18  C   UNL A   1      31.181  26.566  22.652  1.00  0.00     0.133 A 
ATOM     19  C   UNL A   1      31.954  27.713  22.700  1.00  0.00     0.048 A 
ATOM     20  N   UNL A   1      29.914  26.571  23.073  1.00  0.00    -0.231 NA
ATOM     21  C   UNL A   1      31.314  28.936  22.908  1.00  0.00     0.014 A 
ATOM     22  C   UNL A   1      29.269  27.748  23.249  1.00  0.00     0.073 A 
ATOM     23  C   UNL A   1      29.926  28.973  23.077  1.00  0.00     0.000 A 
ATOM     24  C   UNL A   1      27.887  27.768  23.446  1.00  0.00     0.029 A 
ATOM     25  C   UNL A   1      29.183  30.166  22.988  1.00  0.00     0.010 A 
ATOM     26  C   UNL A   1      27.138  28.935  23.279  1.00  0.00     0.002 A 
ATOM     27  C   UNL A   1      27.788  30.135  23.029  1.00  0.00     0.001 A 
ENDBRANCH  16  18
ENDBRANCH  13  14
ENDBRANCH   7  13
ENDBRANCH   6   7
ENDBRANCH   4   6
ENDBRANCH   1   2
BRANCH   1  28
ATOM     28  C   UNL A   1      31.871  27.885  27.017  1.00  0.00     0.023 C 
BRANCH  28  29
ATOM     29  C   UNL A   1      33.375  27.805  26.733  1.00  0.00     0.023 C 
BRANCH  29  30
ATOM     30  C   UNL A   1      33.971  28.988  25.973  1.00  0.00     0.116 C 
BRANCH  30  31
ATOM     31  N   UNL A   1      33.778  30.260  26.655  1.00  0.00    -0.352 N 
ATOM     32  C   UNL A   1      34.514  30.860  27.646  1.00  0.00     0.251 C 
ATOM     33  H   UNL A   1      32.993  30.774  26.356  1.00  0.00     0.163 HD
ATOM     34  O   UNL A   1      34.095  31.895  28.173  1.00  0.00    -0.269 OA
BRANCH  32  35
ATOM     35  C   UNL A   1      35.793  30.281  28.122  1.00  0.00     0.039 A 
ATOM     36  C   UNL A   1      36.903  30.323  27.271  1.00  0.00     0.014 A 
ATOM     37  C   UNL A   1      35.906  29.664  29.371  1.00  0.00     0.014 A 
ATOM     38  C   UNL A   1      38.134  29.816  27.697  1.00  0.00     0.010 A 
ATOM     39  C   UNL A   1      37.152  29.220  29.822  1.00  0.00     0.010 A 
ATOM     40  C   UNL A   1      38.282  29.296  28.993  1.00  0.00    -0.014 A 
BRANCH  40  41
ATOM     41  C   UNL A   1      39.615  28.856  29.495  1.00  0.00     0.031 A 
ATOM     42  C   UNL A   1      40.373  29.684  30.497  1.00  0.00     0.074 A 
ATOM     43  C   UNL A   1      40.171  27.729  29.007  1.00  0.00     0.049 A 
ATOM     44  N   UNL A   1      41.565  29.486  31.005  1.00  0.00    -0.248 NA
ATOM     45  C   UNL A   1      39.716  30.909  30.975  1.00  0.00     0.031 C 
ATOM     46  C   UNL A   1      39.562  26.853  28.005  1.00  0.00     0.029 A 
ATOM     47  N   UNL A   1      41.378  27.131  29.280  1.00  0.00    -0.354 N 
ATOM     48  C   UNL A   1      41.803  30.561  31.852  1.00  0.00     0.074 A 
ATOM     49  C   UNL A   1      40.653  31.436  31.750  1.00  0.00     0.031 C 
ATOM     50  C   UNL A   1      40.383  25.819  27.767  1.00  0.00     0.029 A 
ATOM     51  C   UNL A   1      41.596  25.979  28.563  1.00  0.00     0.049 A 
ATOM     52  H   UNL A   1      42.024  27.492  29.929  1.00  0.00     0.167 HD
ATOM     53  C   UNL A   1      42.870  30.789  32.655  1.00  0.00     0.037 A 
ATOM     54  C   UNL A   1      42.658  25.149  28.539  1.00  0.00     0.037 A 
ATOM     55  C   UNL A   1      44.006  29.910  32.770  1.00  0.00     0.049 A 
ATOM     56  C   UNL A   1      43.843  25.441  29.420  1.00  0.00     0.074 A 
ATOM     57  C   UNL A   1      45.107  30.027  33.600  1.00  0.00     0.029 A 
ATOM     58  N   UNL A   1      44.191  28.753  32.025  1.00  0.00    -0.354 N 
ATOM     59  N   UNL A   1      44.024  26.424  30.267  1.00  0.00    -0.248 NA
ATOM     60  C   UNL A   1      44.972  24.502  29.344  1.00  0.00     0.031 C 
ATOM     61  C   UNL A   1      45.987  28.976  33.317  1.00  0.00     0.029 A 
ATOM     62  C   UNL A   1      45.403  28.167  32.356  1.00  0.00     0.049 A 
ATOM     63  H   UNL A   1      43.555  28.401  31.361  1.00  0.00     0.167 HD
ATOM     64  C   UNL A   1      45.266  26.205  30.848  1.00  0.00     0.074 A 
ATOM     65  C   UNL A   1      45.790  24.987  30.267  1.00  0.00     0.031 C 
ATOM     66  C   UNL A   1      45.914  26.948  31.780  1.00  0.00     0.037 A 
BRANCH  53  67
ATOM     67  C   UNL A   1      42.870  32.049  33.475  1.00  0.00     0.064 A 
ATOM     68  C   UNL A   1      42.316  32.092  34.764  1.00  0.00     0.173 A 
ATOM     69  C   UNL A   1      43.477  33.217  32.986  1.00  0.00     0.173 A 
ATOM     70  F   UNL A   1      41.717  31.007  35.278  1.00  0.00    -0.203 F 
ATOM     71  C   UNL A   1      42.338  33.264  35.516  1.00  0.00     0.198 A 
ATOM     72  C   UNL A   1      43.528  34.377  33.755  1.00  0.00     0.198 A 
ATOM     73  F   UNL A   1      44.031  33.230  31.765  1.00  0.00    -0.203 F 
ATOM     74  F   UNL A   1      41.753  33.296  36.722  1.00  0.00    -0.200 F 
ATOM     75  C   UNL A   1      42.951  34.403  35.014  1.00  0.00     0.200 A 
ATOM     76  F   UNL A   1      44.133  35.471  33.273  1.00  0.00    -0.200 F 
ATOM     77  F   UNL A   1      42.977  35.527  35.743  1.00  0.00    -0.200 F 
ENDBRANCH  53  67
BRANCH  54  78
ATOM     78  C   UNL A   1      42.647  23.949  27.659  1.00  0.00     0.064 A 
ATOM     79  C   UNL A   1      42.289  22.690  28.162  1.00  0.00     0.173 A 
ATOM     80  C   UNL A   1      43.009  24.032  26.306  1.00  0.00     0.173 A 
ATOM     81  F   UNL A   1      41.960  22.556  29.455  1.00  0.00    -0.203 F 
ATOM     82  C   UNL A   1      42.317  21.557  27.352  1.00  0.00     0.198 A 
ATOM     83  C   UNL A   1      43.003  22.902  25.489  1.00  0.00     0.198 A 
ATOM     84  F   UNL A   1      43.357  25.212  25.774  1.00  0.00    -0.203 F 
ATOM     85  F   UNL A   1      42.023  20.357  27.873  1.00  0.00    -0.200 F 
ATOM     86  C   UNL A   1      42.667  21.664  26.015  1.00  0.00     0.200 A 
ATOM     87  F   UNL A   1      43.329  23.013  24.194  1.00  0.00    -0.200 F 
ATOM     88  F   UNL A   1      42.692  20.574  25.237  1.00  0.00    -0.200 F 
ENDBRANCH  54  78
BRANCH  66  89
ATOM     89  C   UNL A   1      47.243  26.443  32.265  1.00  0.00     0.064 A 
ATOM     90  C   UNL A   1      47.347  25.529  33.325  1.00  0.00     0.173 A 
ATOM     91  C   UNL A   1      48.430  26.852  31.637  1.00  0.00     0.173 A 
ATOM     92  F   UNL A   1      46.247  25.115  33.970  1.00  0.00    -0.203 F 
ATOM     93  C   UNL A   1      48.590  25.067  33.754  1.00  0.00     0.198 A 
ATOM     94  C   UNL A   1      49.667  26.362  32.045  1.00  0.00     0.198 A 
ATOM     95  F   UNL A   1      48.388  27.720  30.614  1.00  0.00    -0.203 F 
ATOM     96  F   UNL A   1      48.667  24.235  34.802  1.00  0.00    -0.200 F 
ATOM     97  C   UNL A   1      49.747  25.477  33.109  1.00  0.00     0.200 A 
ATOM     98  F   UNL A   1      50.782  26.747  31.409  1.00  0.00    -0.200 F 
ATOM     99  F   UNL A   1      50.940  25.024  33.517  1.00  0.00    -0.200 F 
ENDBRANCH  66  89
ENDBRANCH  40  41
ENDBRANCH  32  35
ENDBRANCH  30  31
ENDBRANCH  29  30
ENDBRANCH  28  29
ENDBRANCH   1  28
TORSDOF 15
ENDMDL
