MODEL 1
REMARK VINA RESULT:     -12.3      0.000      0.000
REMARK SMILES CCn1cc(C(=O)/C=C/c2cccc(O[C@H](C)C(=O)NCCCCNC(=O)c3ccc(-c4c5nc(c(-c6c(F)c(F)c(F)c(F)c6F)c6ccc([nH]6)c(-c6c(F)c(F)c(F)c(F)c6F)c6nc(c(-c7c(F)c(F)c(F)c(F)c7F)c7ccc4[nH]7)C=C6)C=C5)cc3)c2)cn1
REMARK SMILES IDX 18 1 19 2 20 3 16 5 17 6 15 7 14 8 10 9 11 10 91 11 12 12
REMARK SMILES IDX 13 13 9 14 8 15 6 16 7 17 5 18 3 19 4 20 93 21 92 22 2 23
REMARK SMILES IDX 1 24 21 25 22 26 23 27 24 28 25 29 26 30 27 32 28 33 29 34
REMARK SMILES IDX 90 35 30 36 89 37 31 38 32 39 33 40 83 41 34 42 88 43 82 44
REMARK SMILES IDX 84 45 35 46 87 47 81 48 80 49 36 51 68 52 48 53 67 54 49 55
REMARK SMILES IDX 52 56 66 57 85 58 50 59 51 60 65 62 86 63 53 64 37 65 38 66
REMARK SMILES IDX 46 67 39 68 40 69 44 70 47 71 41 72 42 73 45 74 43 75 69 76
REMARK SMILES IDX 70 77 78 78 71 79 72 80 76 81 79 82 73 83 74 84 77 85 75 86
REMARK SMILES IDX 54 87 55 88 63 89 56 90 57 91 61 92 64 93 58 94 59 95 62 96
REMARK SMILES IDX 60 97
REMARK H PARENT 20 4 25 31 84 50 52 61
REMARK Flexibility Score: inf
ROOT
ATOM      1  C   UNL A   1      37.526  21.380  25.027  1.00  0.00     0.260 C 
ATOM      2  O   UNL A   1      36.767  20.462  24.703  1.00  0.00    -0.271 OA
ATOM      3  N   UNL A   1      38.640  21.052  25.752  1.00  0.00    -0.353 N 
ATOM      4  H   UNL A   1      38.712  20.102  26.000  1.00  0.00     0.163 HD
ENDROOT
BRANCH   1   5
ATOM      5  C   UNL A   1      37.197  22.847  24.679  1.00  0.00     0.258 C 
ATOM      6  C   UNL A   1      36.601  22.878  23.276  1.00  0.00     0.064 C 
BRANCH   5   7
ATOM      7  O   UNL A   1      36.542  23.418  25.814  1.00  0.00    -0.481 OA
BRANCH   7   8
ATOM      8  C   UNL A   1      35.210  23.539  26.043  1.00  0.00     0.121 A 
ATOM      9  C   UNL A   1      33.354  25.142  25.993  1.00  0.00    -0.022 A 
ATOM     10  C   UNL A   1      32.545  24.182  26.610  1.00  0.00     0.008 A 
ATOM     11  C   UNL A   1      34.691  24.811  25.730  1.00  0.00     0.054 A 
ATOM     12  C   UNL A   1      33.033  22.906  26.875  1.00  0.00     0.004 A 
ATOM     13  C   UNL A   1      34.351  22.578  26.557  1.00  0.00     0.046 A 
BRANCH   9  14
ATOM     14  C   UNL A   1      32.749  26.462  25.733  1.00  0.00     0.012 C 
ATOM     15  C   UNL A   1      33.189  27.408  24.890  1.00  0.00     0.053 C 
BRANCH  15  16
ATOM     16  C   UNL A   1      32.554  28.740  24.637  1.00  0.00     0.189 C 
ATOM     17  O   UNL A   1      33.028  29.727  25.197  1.00  0.00    -0.289 OA
BRANCH  16  18
ATOM     18  C   UNL A   1      31.397  28.837  23.759  1.00  0.00     0.060 A 
ATOM     19  N   UNL A   1      29.468  29.287  22.772  1.00  0.00    -0.272 N 
ATOM     20  C   UNL A   1      30.315  29.699  23.763  1.00  0.00     0.120 A 
ATOM     21  N   UNL A   1      29.994  28.309  22.015  1.00  0.00    -0.181 NA
ATOM     22  C   UNL A   1      31.162  28.043  22.609  1.00  0.00     0.147 A 
BRANCH  19  23
ATOM     23  C   UNL A   1      28.115  29.736  22.493  1.00  0.00     0.141 C 
ATOM     24  C   UNL A   1      27.005  28.905  23.121  1.00  0.00     0.029 C 
ENDBRANCH  19  23
ENDBRANCH  16  18
ENDBRANCH  15  16
ENDBRANCH   9  14
ENDBRANCH   7   8
ENDBRANCH   5   7
ENDBRANCH   1   5
BRANCH   3  25
ATOM     25  C   UNL A   1      39.729  21.893  26.213  1.00  0.00     0.116 C 
BRANCH  25  26
ATOM     26  C   UNL A   1      40.857  21.109  26.891  1.00  0.00     0.023 C 
BRANCH  26  27
ATOM     27  C   UNL A   1      41.431  19.927  26.102  1.00  0.00     0.023 C 
BRANCH  27  28
ATOM     28  C   UNL A   1      42.829  19.498  26.526  1.00  0.00     0.116 C 
BRANCH  28  29
ATOM     29  N   UNL A   1      43.751  19.366  25.402  1.00  0.00    -0.352 N 
ATOM     30  C   UNL A   1      44.261  20.374  24.605  1.00  0.00     0.251 C 
ATOM     31  H   UNL A   1      44.042  18.451  25.186  1.00  0.00     0.163 HD
ATOM     32  O   UNL A   1      44.712  20.136  23.498  1.00  0.00    -0.269 OA
BRANCH  30  33
ATOM     33  C   UNL A   1      44.248  21.756  25.123  1.00  0.00     0.039 A 
ATOM     34  C   UNL A   1      43.328  22.688  24.638  1.00  0.00     0.014 A 
ATOM     35  C   UNL A   1      45.159  22.103  26.119  1.00  0.00     0.014 A 
ATOM     36  C   UNL A   1      43.272  23.948  25.227  1.00  0.00     0.010 A 
ATOM     37  C   UNL A   1      45.031  23.305  26.775  1.00  0.00     0.010 A 
ATOM     38  C   UNL A   1      44.109  24.244  26.317  1.00  0.00    -0.014 A 
BRANCH  38  39
ATOM     39  C   UNL A   1      43.909  25.474  27.082  1.00  0.00     0.031 A 
ATOM     40  C   UNL A   1      44.887  26.558  26.768  1.00  0.00     0.074 A 
ATOM     41  C   UNL A   1      42.811  25.708  27.834  1.00  0.00     0.049 A 
ATOM     42  N   UNL A   1      45.728  27.126  27.568  1.00  0.00    -0.248 NA
ATOM     43  C   UNL A   1      45.029  26.983  25.364  1.00  0.00     0.031 C 
ATOM     44  C   UNL A   1      41.619  24.864  27.972  1.00  0.00     0.029 A 
ATOM     45  N   UNL A   1      42.475  26.816  28.552  1.00  0.00    -0.354 N 
ATOM     46  C   UNL A   1      46.380  28.105  26.819  1.00  0.00     0.074 A 
ATOM     47  C   UNL A   1      46.031  27.861  25.447  1.00  0.00     0.031 C 
ATOM     48  C   UNL A   1      40.616  25.582  28.522  1.00  0.00     0.029 A 
ATOM     49  C   UNL A   1      41.134  26.877  28.922  1.00  0.00     0.049 A 
ATOM     50  H   UNL A   1      43.125  27.516  28.789  1.00  0.00     0.167 HD
ATOM     51  C   UNL A   1      46.962  29.178  27.427  1.00  0.00     0.037 A 
ATOM     52  C   UNL A   1      40.488  27.927  29.489  1.00  0.00     0.037 A 
ATOM     53  C   UNL A   1      47.168  28.918  28.830  1.00  0.00     0.049 A 
ATOM     54  C   UNL A   1      41.521  28.821  30.064  1.00  0.00     0.074 A 
ATOM     55  C   UNL A   1      47.892  27.996  29.558  1.00  0.00     0.029 A 
ATOM     56  N   UNL A   1      46.270  29.466  29.710  1.00  0.00    -0.354 N 
ATOM     57  N   UNL A   1      42.261  28.512  31.090  1.00  0.00    -0.248 NA
ATOM     58  C   UNL A   1      42.027  29.896  29.227  1.00  0.00     0.031 C 
ATOM     59  C   UNL A   1      47.080  27.702  30.693  1.00  0.00     0.029 A 
ATOM     60  C   UNL A   1      45.943  28.509  30.630  1.00  0.00     0.049 A 
ATOM     61  H   UNL A   1      45.922  30.387  29.684  1.00  0.00     0.167 HD
ATOM     62  C   UNL A   1      43.512  29.018  30.779  1.00  0.00     0.074 A 
ATOM     63  C   UNL A   1      43.282  29.952  29.679  1.00  0.00     0.031 C 
ATOM     64  C   UNL A   1      44.642  28.413  31.248  1.00  0.00     0.037 A 
BRANCH  51  65
ATOM     65  C   UNL A   1      46.964  30.591  26.875  1.00  0.00     0.064 A 
ATOM     66  C   UNL A   1      48.163  31.337  26.928  1.00  0.00     0.173 A 
ATOM     67  C   UNL A   1      45.801  31.346  26.611  1.00  0.00     0.173 A 
ATOM     68  F   UNL A   1      49.337  30.732  27.168  1.00  0.00    -0.203 F 
ATOM     69  C   UNL A   1      48.176  32.733  26.848  1.00  0.00     0.198 A 
ATOM     70  C   UNL A   1      45.825  32.734  26.479  1.00  0.00     0.198 A 
ATOM     71  F   UNL A   1      44.582  30.798  26.578  1.00  0.00    -0.203 F 
ATOM     72  F   UNL A   1      49.318  33.401  27.056  1.00  0.00    -0.200 F 
ATOM     73  C   UNL A   1      47.003  33.431  26.637  1.00  0.00     0.200 A 
ATOM     74  F   UNL A   1      44.674  33.394  26.286  1.00  0.00    -0.200 F 
ATOM     75  F   UNL A   1      46.997  34.770  26.634  1.00  0.00    -0.200 F 
ENDBRANCH  51  65
BRANCH  52  76
ATOM     76  C   UNL A   1      39.077  28.358  29.341  1.00  0.00     0.064 A 
ATOM     77  C   UNL A   1      38.246  28.513  30.465  1.00  0.00     0.173 A 
ATOM     78  C   UNL A   1      38.605  28.907  28.134  1.00  0.00     0.173 A 
ATOM     79  F   UNL A   1      38.639  28.058  31.663  1.00  0.00    -0.203 F 
ATOM     80  C   UNL A   1      37.034  29.208  30.391  1.00  0.00     0.198 A 
ATOM     81  C   UNL A   1      37.391  29.594  28.061  1.00  0.00     0.198 A 
ATOM     82  F   UNL A   1      39.357  28.876  27.025  1.00  0.00    -0.203 F 
ATOM     83  F   UNL A   1      36.304  29.398  31.500  1.00  0.00    -0.200 F 
ATOM     84  C   UNL A   1      36.614  29.759  29.193  1.00  0.00     0.200 A 
ATOM     85  F   UNL A   1      37.014  30.156  26.904  1.00  0.00    -0.200 F 
ATOM     86  F   UNL A   1      35.488  30.484  29.137  1.00  0.00    -0.200 F 
ENDBRANCH  52  76
BRANCH  64  87
ATOM     87  C   UNL A   1      44.490  27.403  32.350  1.00  0.00     0.064 A 
ATOM     88  C   UNL A   1      44.290  26.026  32.149  1.00  0.00     0.173 A 
ATOM     89  C   UNL A   1      44.690  27.838  33.668  1.00  0.00     0.173 A 
ATOM     90  F   UNL A   1      44.186  25.515  30.916  1.00  0.00    -0.203 F 
ATOM     91  C   UNL A   1      44.249  25.138  33.223  1.00  0.00     0.198 A 
ATOM     92  C   UNL A   1      44.690  26.945  34.733  1.00  0.00     0.198 A 
ATOM     93  F   UNL A   1      44.938  29.135  33.916  1.00  0.00    -0.203 F 
ATOM     94  F   UNL A   1      44.043  23.830  33.007  1.00  0.00    -0.200 F 
ATOM     95  C   UNL A   1      44.459  25.597  34.512  1.00  0.00     0.200 A 
ATOM     96  F   UNL A   1      44.943  27.387  35.972  1.00  0.00    -0.200 F 
ATOM     97  F   UNL A   1      44.464  24.737  35.541  1.00  0.00    -0.200 F 
ENDBRANCH  64  87
ENDBRANCH  38  39
ENDBRANCH  30  33
ENDBRANCH  28  29
ENDBRANCH  27  28
ENDBRANCH  26  27
ENDBRANCH  25  26
ENDBRANCH   3  25
TORSDOF 17
ENDMDL
MODEL 2
REMARK VINA RESULT:     -11.9      1.723      2.252
REMARK SMILES CCn1cc(C(=O)/C=C/c2cccc(O[C@H](C)C(=O)NCCCCNC(=O)c3ccc(-c4c5nc(c(-c6c(F)c(F)c(F)c(F)c6F)c6ccc([nH]6)c(-c6c(F)c(F)c(F)c(F)c6F)c6nc(c(-c7c(F)c(F)c(F)c(F)c7F)c7ccc4[nH]7)C=C6)C=C5)cc3)c2)cn1
REMARK SMILES IDX 18 1 19 2 20 3 16 5 17 6 15 7 14 8 10 9 11 10 91 11 12 12
REMARK SMILES IDX 13 13 9 14 8 15 6 16 7 17 5 18 3 19 4 20 93 21 92 22 2 23
REMARK SMILES IDX 1 24 21 25 22 26 23 27 24 28 25 29 26 30 27 32 28 33 29 34
REMARK SMILES IDX 90 35 30 36 89 37 31 38 32 39 33 40 83 41 34 42 88 43 82 44
REMARK SMILES IDX 84 45 35 46 87 47 81 48 80 49 36 51 68 52 48 53 67 54 49 55
REMARK SMILES IDX 52 56 66 57 85 58 50 59 51 60 65 62 86 63 53 64 37 65 38 66
REMARK SMILES IDX 46 67 39 68 40 69 44 70 47 71 41 72 42 73 45 74 43 75 69 76
REMARK SMILES IDX 70 77 78 78 71 79 72 80 76 81 79 82 73 83 74 84 77 85 75 86
REMARK SMILES IDX 54 87 55 88 63 89 56 90 57 91 61 92 64 93 58 94 59 95 62 96
REMARK SMILES IDX 60 97
REMARK H PARENT 20 4 25 31 84 50 52 61
REMARK Flexibility Score: inf
ROOT
ATOM      1  C   UNL A   1      38.085  22.975  26.100  1.00  0.00     0.260 C 
ATOM      2  O   UNL A   1      37.955  24.080  26.637  1.00  0.00    -0.271 OA
ATOM      3  N   UNL A   1      39.197  22.245  26.422  1.00  0.00    -0.353 N 
ATOM      4  H   UNL A   1      39.833  22.695  27.025  1.00  0.00     0.163 HD
ENDROOT
BRANCH   1   5
ATOM      5  C   UNL A   1      37.064  22.468  25.061  1.00  0.00     0.258 C 
ATOM      6  C   UNL A   1      36.150  21.459  25.749  1.00  0.00     0.064 C 
BRANCH   5   7
ATOM      7  O   UNL A   1      36.569  23.610  24.357  1.00  0.00    -0.481 OA
BRANCH   7   8
ATOM      8  C   UNL A   1      35.279  23.973  24.146  1.00  0.00     0.121 A 
ATOM      9  C   UNL A   1      33.424  25.255  25.113  1.00  0.00    -0.022 A 
ATOM     10  C   UNL A   1      32.585  24.735  24.122  1.00  0.00     0.008 A 
ATOM     11  C   UNL A   1      34.767  24.851  25.122  1.00  0.00     0.054 A 
ATOM     12  C   UNL A   1      33.093  23.908  23.124  1.00  0.00     0.004 A 
ATOM     13  C   UNL A   1      34.444  23.561  23.118  1.00  0.00     0.046 A 
BRANCH   9  14
ATOM     14  C   UNL A   1      32.806  26.136  26.120  1.00  0.00     0.012 C 
ATOM     15  C   UNL A   1      32.791  27.478  26.131  1.00  0.00     0.053 C 
BRANCH  15  16
ATOM     16  C   UNL A   1      32.150  28.353  27.162  1.00  0.00     0.189 C 
ATOM     17  O   UNL A   1      31.419  27.828  28.000  1.00  0.00    -0.289 OA
BRANCH  16  18
ATOM     18  C   UNL A   1      32.390  29.789  27.145  1.00  0.00     0.060 A 
ATOM     19  N   UNL A   1      33.111  31.861  27.437  1.00  0.00    -0.272 N 
ATOM     20  C   UNL A   1      33.438  30.548  27.634  1.00  0.00     0.120 A 
ATOM     21  N   UNL A   1      31.990  32.011  26.710  1.00  0.00    -0.181 NA
ATOM     22  C   UNL A   1      31.560  30.759  26.529  1.00  0.00     0.147 A 
BRANCH  19  23
ATOM     23  C   UNL A   1      33.782  33.047  27.940  1.00  0.00     0.141 C 
ATOM     24  C   UNL A   1      35.300  32.967  27.999  1.00  0.00     0.029 C 
ENDBRANCH  19  23
ENDBRANCH  16  18
ENDBRANCH  15  16
ENDBRANCH   9  14
ENDBRANCH   7   8
ENDBRANCH   5   7
ENDBRANCH   1   5
BRANCH   3  25
ATOM     25  C   UNL A   1      39.582  20.908  26.008  1.00  0.00     0.116 C 
BRANCH  25  26
ATOM     26  C   UNL A   1      40.966  20.490  26.513  1.00  0.00     0.023 C 
BRANCH  26  27
ATOM     27  C   UNL A   1      41.550  19.208  25.907  1.00  0.00     0.023 C 
BRANCH  27  28
ATOM     28  C   UNL A   1      43.014  18.958  26.238  1.00  0.00     0.116 C 
BRANCH  28  29
ATOM     29  N   UNL A   1      43.859  18.860  25.052  1.00  0.00    -0.352 N 
ATOM     30  C   UNL A   1      44.326  19.893  24.260  1.00  0.00     0.251 C 
ATOM     31  H   UNL A   1      44.127  17.952  24.784  1.00  0.00     0.163 HD
ATOM     32  O   UNL A   1      44.700  19.692  23.118  1.00  0.00    -0.269 OA
BRANCH  30  33
ATOM     33  C   UNL A   1      44.361  21.255  24.828  1.00  0.00     0.039 A 
ATOM     34  C   UNL A   1      43.403  22.203  24.458  1.00  0.00     0.014 A 
ATOM     35  C   UNL A   1      45.355  21.567  25.753  1.00  0.00     0.014 A 
ATOM     36  C   UNL A   1      43.401  23.441  25.096  1.00  0.00     0.010 A 
ATOM     37  C   UNL A   1      45.286  22.744  26.461  1.00  0.00     0.010 A 
ATOM     38  C   UNL A   1      44.330  23.698  26.119  1.00  0.00    -0.014 A 
BRANCH  38  39
ATOM     39  C   UNL A   1      44.199  24.899  26.944  1.00  0.00     0.031 A 
ATOM     40  C   UNL A   1      45.243  25.936  26.687  1.00  0.00     0.074 A 
ATOM     41  C   UNL A   1      43.112  25.162  27.701  1.00  0.00     0.049 A 
ATOM     42  N   UNL A   1      46.111  26.412  27.517  1.00  0.00    -0.248 NA
ATOM     43  C   UNL A   1      45.419  26.420  25.306  1.00  0.00     0.031 C 
ATOM     44  C   UNL A   1      41.871  24.385  27.794  1.00  0.00     0.029 A 
ATOM     45  N   UNL A   1      42.838  26.251  28.472  1.00  0.00    -0.354 N 
ATOM     46  C   UNL A   1      46.826  27.385  26.819  1.00  0.00     0.074 A 
ATOM     47  C   UNL A   1      46.471  27.230  25.435  1.00  0.00     0.031 C 
ATOM     48  C   UNL A   1      40.909  25.135  28.374  1.00  0.00     0.029 A 
ATOM     49  C   UNL A   1      41.502  26.375  28.840  1.00  0.00     0.049 A 
ATOM     50  H   UNL A   1      43.528  26.898  28.746  1.00  0.00     0.167 HD
ATOM     51  C   UNL A   1      47.467  28.390  27.482  1.00  0.00     0.037 A 
ATOM     52  C   UNL A   1      40.916  27.433  29.456  1.00  0.00     0.037 A 
ATOM     53  C   UNL A   1      47.648  28.050  28.871  1.00  0.00     0.049 A 
ATOM     54  C   UNL A   1      41.997  28.234  30.078  1.00  0.00     0.074 A 
ATOM     55  C   UNL A   1      48.310  27.051  29.555  1.00  0.00     0.029 A 
ATOM     56  N   UNL A   1      46.779  28.607  29.774  1.00  0.00    -0.354 N 
ATOM     57  N   UNL A   1      42.711  27.831  31.090  1.00  0.00    -0.248 NA
ATOM     58  C   UNL A   1      42.573  29.316  29.297  1.00  0.00     0.031 C 
ATOM     59  C   UNL A   1      47.475  26.751  30.671  1.00  0.00     0.029 A 
ATOM     60  C   UNL A   1      46.389  27.627  30.644  1.00  0.00     0.049 A 
ATOM     61  H   UNL A   1      46.487  29.548  29.791  1.00  0.00     0.167 HD
ATOM     62  C   UNL A   1      43.992  28.275  30.809  1.00  0.00     0.074 A 
ATOM     63  C   UNL A   1      43.825  29.273  29.756  1.00  0.00     0.031 C 
ATOM     64  C   UNL A   1      45.080  27.580  31.252  1.00  0.00     0.037 A 
BRANCH  51  65
ATOM     65  C   UNL A   1      47.558  29.826  27.000  1.00  0.00     0.064 A 
ATOM     66  C   UNL A   1      48.770  30.528  27.188  1.00  0.00     0.173 A 
ATOM     67  C   UNL A   1      46.445  30.630  26.677  1.00  0.00     0.173 A 
ATOM     68  F   UNL A   1      49.901  29.873  27.495  1.00  0.00    -0.203 F 
ATOM     69  C   UNL A   1      48.831  31.924  27.176  1.00  0.00     0.198 A 
ATOM     70  C   UNL A   1      46.521  32.022  26.615  1.00  0.00     0.198 A 
ATOM     71  F   UNL A   1      45.217  30.127  26.517  1.00  0.00    -0.203 F 
ATOM     72  F   UNL A   1      49.971  32.544  27.509  1.00  0.00    -0.200 F 
ATOM     73  C   UNL A   1      47.702  32.671  26.903  1.00  0.00     0.200 A 
ATOM     74  F   UNL A   1      45.410  32.729  26.359  1.00  0.00    -0.200 F 
ATOM     75  F   UNL A   1      47.736  34.008  26.963  1.00  0.00    -0.200 F 
ENDBRANCH  51  65
BRANCH  52  76
ATOM     76  C   UNL A   1      39.535  27.955  29.324  1.00  0.00     0.064 A 
ATOM     77  C   UNL A   1      38.689  28.056  30.443  1.00  0.00     0.173 A 
ATOM     78  C   UNL A   1      39.120  28.637  28.165  1.00  0.00     0.173 A 
ATOM     79  F   UNL A   1      39.030  27.473  31.601  1.00  0.00    -0.203 F 
ATOM     80  C   UNL A   1      37.519  28.823  30.413  1.00  0.00     0.198 A 
ATOM     81  C   UNL A   1      37.948  29.396  28.135  1.00  0.00     0.198 A 
ATOM     82  F   UNL A   1      39.893  28.664  27.070  1.00  0.00    -0.203 F 
ATOM     83  F   UNL A   1      36.777  28.953  31.522  1.00  0.00    -0.200 F 
ATOM     84  C   UNL A   1      37.157  29.502  29.263  1.00  0.00     0.200 A 
ATOM     85  F   UNL A   1      37.628  30.080  27.027  1.00  0.00    -0.200 F 
ATOM     86  F   UNL A   1      36.074  30.292  29.255  1.00  0.00    -0.200 F 
ENDBRANCH  52  76
BRANCH  64  87
ATOM     87  C   UNL A   1      44.860  26.529  32.302  1.00  0.00     0.064 A 
ATOM     88  C   UNL A   1      44.530  25.189  32.034  1.00  0.00     0.173 A 
ATOM     89  C   UNL A   1      45.128  26.870  33.636  1.00  0.00     0.173 A 
ATOM     90  F   UNL A   1      44.354  24.758  30.778  1.00  0.00    -0.203 F 
ATOM     91  C   UNL A   1      44.432  24.249  33.059  1.00  0.00     0.198 A 
ATOM     92  C   UNL A   1      45.070  25.923  34.651  1.00  0.00     0.198 A 
ATOM     93  F   UNL A   1      45.498  28.124  33.945  1.00  0.00    -0.203 F 
ATOM     94  F   UNL A   1      44.102  22.980  32.779  1.00  0.00    -0.200 F 
ATOM     95  C   UNL A   1      44.711  24.615  34.365  1.00  0.00     0.200 A 
ATOM     96  F   UNL A   1      45.389  26.271  35.905  1.00  0.00    -0.200 F 
ATOM     97  F   UNL A   1      44.660  23.703  35.346  1.00  0.00    -0.200 F 
ENDBRANCH  64  87
ENDBRANCH  38  39
ENDBRANCH  30  33
ENDBRANCH  28  29
ENDBRANCH  27  28
ENDBRANCH  26  27
ENDBRANCH  25  26
ENDBRANCH   3  25
TORSDOF 17
ENDMDL
MODEL 3
REMARK VINA RESULT:     -11.8      3.204      9.288
REMARK SMILES CCn1cc(C(=O)/C=C/c2cccc(O[C@H](C)C(=O)NCCCCNC(=O)c3ccc(-c4c5nc(c(-c6c(F)c(F)c(F)c(F)c6F)c6ccc([nH]6)c(-c6c(F)c(F)c(F)c(F)c6F)c6nc(c(-c7c(F)c(F)c(F)c(F)c7F)c7ccc4[nH]7)C=C6)C=C5)cc3)c2)cn1
REMARK SMILES IDX 18 1 19 2 20 3 16 5 17 6 15 7 14 8 10 9 11 10 91 11 12 12
REMARK SMILES IDX 13 13 9 14 8 15 6 16 7 17 5 18 3 19 4 20 93 21 92 22 2 23
REMARK SMILES IDX 1 24 21 25 22 26 23 27 24 28 25 29 26 30 27 32 28 33 29 34
REMARK SMILES IDX 90 35 30 36 89 37 31 38 32 39 33 40 83 41 34 42 88 43 82 44
REMARK SMILES IDX 84 45 35 46 87 47 81 48 80 49 36 51 68 52 48 53 67 54 49 55
REMARK SMILES IDX 52 56 66 57 85 58 50 59 51 60 65 62 86 63 53 64 37 65 38 66
REMARK SMILES IDX 46 67 39 68 40 69 44 70 47 71 41 72 42 73 45 74 43 75 69 76
REMARK SMILES IDX 70 77 78 78 71 79 72 80 76 81 79 82 73 83 74 84 77 85 75 86
REMARK SMILES IDX 54 87 55 88 63 89 56 90 57 91 61 92 64 93 58 94 59 95 62 96
REMARK SMILES IDX 60 97
REMARK H PARENT 20 4 25 31 84 50 52 61
REMARK Flexibility Score: inf
ROOT
ATOM      1  C   UNL A   1      29.694  30.020  23.418  1.00  0.00     0.260 C 
ATOM      2  O   UNL A   1      29.172  30.940  22.780  1.00  0.00    -0.271 OA
ATOM      3  N   UNL A   1      30.670  30.352  24.320  1.00  0.00    -0.353 N 
ATOM      4  H   UNL A   1      30.909  31.307  24.344  1.00  0.00     0.163 HD
ENDROOT
BRANCH   1   5
ATOM      5  C   UNL A   1      29.304  28.550  23.162  1.00  0.00     0.258 C 
ATOM      6  C   UNL A   1      27.788  28.481  23.013  1.00  0.00     0.064 C 
BRANCH   5   7
ATOM      7  O   UNL A   1      30.205  28.035  22.178  1.00  0.00    -0.481 OA
BRANCH   7   8
ATOM      8  C   UNL A   1      31.249  27.186  22.355  1.00  0.00     0.121 A 
ATOM      9  C   UNL A   1      31.879  25.046  23.374  1.00  0.00    -0.022 A 
ATOM     10  C   UNL A   1      33.216  25.328  23.073  1.00  0.00     0.008 A 
ATOM     11  C   UNL A   1      30.906  25.994  23.023  1.00  0.00     0.054 A 
ATOM     12  C   UNL A   1      33.557  26.478  22.368  1.00  0.00     0.004 A 
ATOM     13  C   UNL A   1      32.569  27.384  21.980  1.00  0.00     0.046 A 
BRANCH   9  14
ATOM     14  C   UNL A   1      31.606  23.796  24.108  1.00  0.00     0.012 C 
ATOM     15  C   UNL A   1      32.333  22.669  24.098  1.00  0.00     0.053 C 
BRANCH  15  16
ATOM     16  C   UNL A   1      32.040  21.413  24.857  1.00  0.00     0.189 C 
ATOM     17  O   UNL A   1      31.165  21.444  25.720  1.00  0.00    -0.289 OA
BRANCH  16  18
ATOM     18  C   UNL A   1      32.797  20.202  24.575  1.00  0.00     0.060 A 
ATOM     19  N   UNL A   1      33.507  18.180  24.021  1.00  0.00    -0.272 N 
ATOM     20  C   UNL A   1      32.447  19.037  23.916  1.00  0.00     0.120 A 
ATOM     21  N   UNL A   1      34.588  18.760  24.569  1.00  0.00    -0.181 NA
ATOM     22  C   UNL A   1      34.160  19.983  24.897  1.00  0.00     0.147 A 
BRANCH  19  23
ATOM     23  C   UNL A   1      33.573  16.773  23.666  1.00  0.00     0.141 C 
ATOM     24  C   UNL A   1      33.211  15.798  24.777  1.00  0.00     0.029 C 
ENDBRANCH  19  23
ENDBRANCH  16  18
ENDBRANCH  15  16
ENDBRANCH   9  14
ENDBRANCH   7   8
ENDBRANCH   5   7
ENDBRANCH   1   5
BRANCH   3  25
ATOM     25  C   UNL A   1      31.405  29.509  25.244  1.00  0.00     0.116 C 
BRANCH  25  26
ATOM     26  C   UNL A   1      32.886  29.359  24.882  1.00  0.00     0.023 C 
BRANCH  26  27
ATOM     27  C   UNL A   1      33.770  28.662  25.923  1.00  0.00     0.023 C 
BRANCH  27  28
ATOM     28  C   UNL A   1      33.905  29.406  27.244  1.00  0.00     0.116 C 
BRANCH  28  29
ATOM     29  N   UNL A   1      34.160  30.833  27.072  1.00  0.00    -0.352 N 
ATOM     30  C   UNL A   1      35.169  31.585  27.644  1.00  0.00     0.251 C 
ATOM     31  H   UNL A   1      33.540  31.316  26.479  1.00  0.00     0.163 HD
ATOM     32  O   UNL A   1      35.078  32.798  27.733  1.00  0.00    -0.269 OA
BRANCH  30  33
ATOM     33  C   UNL A   1      36.366  30.888  28.152  1.00  0.00     0.039 A 
ATOM     34  C   UNL A   1      36.510  29.509  27.984  1.00  0.00     0.014 A 
ATOM     35  C   UNL A   1      37.357  31.638  28.783  1.00  0.00     0.014 A 
ATOM     36  C   UNL A   1      37.701  28.903  28.375  1.00  0.00     0.010 A 
ATOM     37  C   UNL A   1      38.574  31.063  29.068  1.00  0.00     0.010 A 
ATOM     38  C   UNL A   1      38.743  29.691  28.894  1.00  0.00    -0.014 A 
BRANCH  38  39
ATOM     39  C   UNL A   1      40.069  29.108  29.101  1.00  0.00     0.031 A 
ATOM     40  C   UNL A   1      40.438  28.917  30.536  1.00  0.00     0.074 A 
ATOM     41  C   UNL A   1      40.806  28.572  28.104  1.00  0.00     0.049 A 
ATOM     42  N   UNL A   1      41.429  29.440  31.178  1.00  0.00    -0.248 NA
ATOM     43  C   UNL A   1      39.524  28.140  31.392  1.00  0.00     0.031 C 
ATOM     44  C   UNL A   1      40.426  28.398  26.697  1.00  0.00     0.029 A 
ATOM     45  N   UNL A   1      42.022  27.959  28.160  1.00  0.00    -0.354 N 
ATOM     46  C   UNL A   1      41.376  28.920  32.471  1.00  0.00     0.074 A 
ATOM     47  C   UNL A   1      40.103  28.265  32.588  1.00  0.00     0.031 C 
ATOM     48  C   UNL A   1      41.273  27.529  26.103  1.00  0.00     0.029 A 
ATOM     49  C   UNL A   1      42.344  27.214  27.029  1.00  0.00     0.049 A 
ATOM     50  H   UNL A   1      42.622  28.036  28.937  1.00  0.00     0.167 HD
ATOM     51  C   UNL A   1      42.493  28.874  33.252  1.00  0.00     0.037 A 
ATOM     52  C   UNL A   1      43.397  26.372  26.876  1.00  0.00     0.037 A 
ATOM     53  C   UNL A   1      43.504  29.770  32.748  1.00  0.00     0.049 A 
ATOM     54  C   UNL A   1      44.391  26.717  27.920  1.00  0.00     0.074 A 
ATOM     55  C   UNL A   1      43.590  31.133  32.545  1.00  0.00     0.029 A 
ATOM     56  N   UNL A   1      44.528  29.219  32.021  1.00  0.00    -0.354 N 
ATOM     57  N   UNL A   1      45.071  27.828  27.940  1.00  0.00    -0.248 NA
ATOM     58  C   UNL A   1      44.318  26.004  29.185  1.00  0.00     0.031 C 
ATOM     59  C   UNL A   1      44.347  31.279  31.345  1.00  0.00     0.029 A 
ATOM     60  C   UNL A   1      44.738  30.008  30.924  1.00  0.00     0.049 A 
ATOM     61  H   UNL A   1      45.023  28.399  32.248  1.00  0.00     0.167 HD
ATOM     62  C   UNL A   1      45.118  28.181  29.278  1.00  0.00     0.074 A 
ATOM     63  C   UNL A   1      44.739  26.971  30.004  1.00  0.00     0.031 C 
ATOM     64  C   UNL A   1      45.176  29.493  29.648  1.00  0.00     0.037 A 
BRANCH  51  65
ATOM     65  C   UNL A   1      42.839  27.744  34.203  1.00  0.00     0.064 A 
ATOM     66  C   UNL A   1      43.273  26.512  33.661  1.00  0.00     0.173 A 
ATOM     67  C   UNL A   1      42.457  27.699  35.561  1.00  0.00     0.173 A 
ATOM     68  F   UNL A   1      43.665  26.427  32.381  1.00  0.00    -0.203 F 
ATOM     69  C   UNL A   1      43.210  25.318  34.385  1.00  0.00     0.198 A 
ATOM     70  C   UNL A   1      42.445  26.514  36.295  1.00  0.00     0.198 A 
ATOM     71  F   UNL A   1      41.977  28.766  36.207  1.00  0.00    -0.203 F 
ATOM     72  F   UNL A   1      43.488  24.157  33.778  1.00  0.00    -0.200 F 
ATOM     73  C   UNL A   1      42.782  25.318  35.698  1.00  0.00     0.200 A 
ATOM     74  F   UNL A   1      42.017  26.533  37.565  1.00  0.00    -0.200 F 
ATOM     75  F   UNL A   1      42.648  24.169  36.372  1.00  0.00    -0.200 F 
ENDBRANCH  51  65
BRANCH  52  76
ATOM     76  C   UNL A   1      43.501  25.126  26.079  1.00  0.00     0.064 A 
ATOM     77  C   UNL A   1      44.577  24.918  25.197  1.00  0.00     0.173 A 
ATOM     78  C   UNL A   1      42.716  23.999  26.383  1.00  0.00     0.173 A 
ATOM     79  F   UNL A   1      45.401  25.930  24.888  1.00  0.00    -0.203 F 
ATOM     80  C   UNL A   1      44.870  23.651  24.682  1.00  0.00     0.198 A 
ATOM     81  C   UNL A   1      43.006  22.736  25.862  1.00  0.00     0.198 A 
ATOM     82  F   UNL A   1      41.715  24.078  27.271  1.00  0.00    -0.203 F 
ATOM     83  F   UNL A   1      45.947  23.479  23.902  1.00  0.00    -0.200 F 
ATOM     84  C   UNL A   1      44.092  22.559  25.025  1.00  0.00     0.200 A 
ATOM     85  F   UNL A   1      42.268  21.679  26.232  1.00  0.00    -0.200 F 
ATOM     86  F   UNL A   1      44.413  21.333  24.587  1.00  0.00    -0.200 F 
ENDBRANCH  52  76
BRANCH  64  87
ATOM     87  C   UNL A   1      45.509  30.506  28.589  1.00  0.00     0.064 A 
ATOM     88  C   UNL A   1      44.567  31.115  27.742  1.00  0.00     0.173 A 
ATOM     89  C   UNL A   1      46.829  30.974  28.524  1.00  0.00     0.173 A 
ATOM     90  F   UNL A   1      43.268  30.795  27.808  1.00  0.00    -0.203 F 
ATOM     91  C   UNL A   1      44.940  32.114  26.845  1.00  0.00     0.198 A 
ATOM     92  C   UNL A   1      47.192  31.999  27.658  1.00  0.00     0.198 A 
ATOM     93  F   UNL A   1      47.762  30.465  29.345  1.00  0.00    -0.203 F 
ATOM     94  F   UNL A   1      44.025  32.671  26.038  1.00  0.00    -0.200 F 
ATOM     95  C   UNL A   1      46.251  32.561  26.810  1.00  0.00     0.200 A 
ATOM     96  F   UNL A   1      48.449  32.461  27.664  1.00  0.00    -0.200 F 
ATOM     97  F   UNL A   1      46.603  33.552  25.979  1.00  0.00    -0.200 F 
ENDBRANCH  64  87
ENDBRANCH  38  39
ENDBRANCH  30  33
ENDBRANCH  28  29
ENDBRANCH  27  28
ENDBRANCH  26  27
ENDBRANCH  25  26
ENDBRANCH   3  25
TORSDOF 17
ENDMDL
