MODEL 1
REMARK VINA RESULT:     -12.2      0.000      0.000
REMARK SMILES CC(=O)Nc1c(C)nn([C@H](C)C(=O)NCCCCNC(=O)c2ccc(-c3c4nc(c(-c5c(F)c(F)c(F)c(F)c5F)c5ccc([nH]5)c(-c5c(F)c(F)c(F)c(F)c5F)c5nc(c(-c6c(F)c(F)c(F)c(F)c6F)c6ccc3[nH]6)C=C5)C=C4)cc2)c1C
REMARK SMILES IDX 16 1 15 2 14 3 12 4 13 5 10 7 11 8 9 9 5 10 6 11 85 12 7 13
REMARK SMILES IDX 8 14 86 15 4 16 1 17 2 18 3 19 17 21 18 22 19 23 20 24 21 26
REMARK SMILES IDX 22 27 23 28 84 29 24 30 83 31 25 32 26 33 27 34 77 35 28 36
REMARK SMILES IDX 82 37 76 38 78 39 29 40 81 41 75 42 74 43 30 45 62 46 42 47
REMARK SMILES IDX 61 48 43 49 46 50 60 51 79 52 44 53 45 54 59 56 80 57 47 58
REMARK SMILES IDX 31 59 32 60 40 61 33 62 34 63 38 64 41 65 35 66 36 67 39 68
REMARK SMILES IDX 37 69 63 70 64 71 72 72 65 73 66 74 70 75 73 76 67 77 68 78
REMARK SMILES IDX 71 79 69 80 48 81 49 82 57 83 50 84 51 85 55 86 58 87 52 88
REMARK SMILES IDX 53 89 56 90 54 91
REMARK H PARENT 14 6 4 20 19 25 78 44 46 55
REMARK Flexibility Score: inf
ROOT
ATOM      1  C   UNL A   1      37.993  23.214  25.774  1.00  0.00     0.023 C 
ENDROOT
BRANCH   1   2
ATOM      2  C   UNL A   1      36.486  23.252  25.532  1.00  0.00     0.116 C 
BRANCH   2   3
ATOM      3  N   UNL A   1      35.742  22.563  26.570  1.00  0.00    -0.354 N 
ATOM      4  C   UNL A   1      34.488  22.030  26.546  1.00  0.00     0.244 C 
ATOM      5  O   UNL A   1      34.112  21.456  27.576  1.00  0.00    -0.273 OA
ATOM      6  H   UNL A   1      36.217  22.467  27.427  1.00  0.00     0.163 HD
BRANCH   4   7
ATOM      7  C   UNL A   1      33.563  22.116  25.338  1.00  0.00     0.193 C 
ATOM      8  C   UNL A   1      32.450  21.069  25.324  1.00  0.00     0.044 C 
BRANCH   7   9
ATOM      9  N   UNL A   1      33.149  23.494  25.085  1.00  0.00    -0.255 N 
ATOM     10  C   UNL A   1      32.516  25.373  24.138  1.00  0.00     0.085 A 
ATOM     11  C   UNL A   1      32.683  25.519  25.535  1.00  0.00     0.083 A 
ATOM     12  C   UNL A   1      32.958  24.094  23.859  1.00  0.00     0.060 A 
ATOM     13  C   UNL A   1      32.525  26.727  26.382  1.00  0.00     0.071 C 
ATOM     14  N   UNL A   1      32.971  24.349  26.112  1.00  0.00    -0.175 NA
ATOM     15  C   UNL A   1      33.340  23.435  22.579  1.00  0.00     0.069 C 
BRANCH  10  16
ATOM     16  N   UNL A   1      32.134  26.345  23.238  1.00  0.00    -0.323 N 
ATOM     17  C   UNL A   1      29.738  26.343  23.880  1.00  0.00     0.114 C 
ATOM     18  C   UNL A   1      30.858  26.748  22.950  1.00  0.00     0.221 C 
ATOM     19  O   UNL A   1      30.655  27.507  22.002  1.00  0.00    -0.275 OA
ATOM     20  H   UNL A   1      32.858  26.798  22.748  1.00  0.00     0.170 HD
ENDBRANCH  10  16
ENDBRANCH   7   9
ENDBRANCH   4   7
ENDBRANCH   2   3
ENDBRANCH   1   2
BRANCH   1  21
ATOM     21  C   UNL A   1      38.638  21.825  25.732  1.00  0.00     0.023 C 
BRANCH  21  22
ATOM     22  C   UNL A   1      39.798  21.636  26.701  1.00  0.00     0.116 C 
BRANCH  22  23
ATOM     23  N   UNL A   1      41.105  21.683  26.050  1.00  0.00    -0.352 N 
ATOM     24  C   UNL A   1      41.892  22.796  25.807  1.00  0.00     0.251 C 
ATOM     25  H   UNL A   1      41.471  20.821  25.750  1.00  0.00     0.163 HD
ATOM     26  O   UNL A   1      42.746  22.791  24.938  1.00  0.00    -0.269 OA
BRANCH  24  27
ATOM     27  C   UNL A   1      41.685  23.994  26.642  1.00  0.00     0.039 A 
ATOM     28  C   UNL A   1      42.234  24.100  27.922  1.00  0.00     0.014 A 
ATOM     29  C   UNL A   1      40.933  25.034  26.100  1.00  0.00     0.014 A 
ATOM     30  C   UNL A   1      42.079  25.297  28.618  1.00  0.00     0.010 A 
ATOM     31  C   UNL A   1      40.918  26.259  26.711  1.00  0.00     0.010 A 
ATOM     32  C   UNL A   1      41.432  26.378  27.994  1.00  0.00    -0.014 A 
BRANCH  32  33
ATOM     33  C   UNL A   1      41.388  27.694  28.615  1.00  0.00     0.031 A 
ATOM     34  C   UNL A   1      42.494  28.593  28.197  1.00  0.00     0.074 A 
ATOM     35  C   UNL A   1      40.327  28.134  29.327  1.00  0.00     0.049 A 
ATOM     36  N   UNL A   1      43.479  28.999  28.923  1.00  0.00    -0.248 NA
ATOM     37  C   UNL A   1      42.613  28.959  26.776  1.00  0.00     0.031 C 
ATOM     38  C   UNL A   1      39.035  27.474  29.544  1.00  0.00     0.029 A 
ATOM     39  N   UNL A   1      40.148  29.335  29.941  1.00  0.00    -0.354 N 
ATOM     40  C   UNL A   1      44.238  29.839  28.113  1.00  0.00     0.074 A 
ATOM     41  C   UNL A   1      43.772  29.626  26.769  1.00  0.00     0.031 C 
ATOM     42  C   UNL A   1      38.144  28.365  30.036  1.00  0.00     0.029 A 
ATOM     43  C   UNL A   1      38.836  29.607  30.321  1.00  0.00     0.049 A 
ATOM     44  H   UNL A   1      40.888  29.963  30.104  1.00  0.00     0.167 HD
ATOM     45  C   UNL A   1      45.012  30.816  28.665  1.00  0.00     0.037 A 
ATOM     46  C   UNL A   1      38.363  30.782  30.812  1.00  0.00     0.037 A 
ATOM     47  C   UNL A   1      45.164  30.600  30.085  1.00  0.00     0.049 A 
ATOM     48  C   UNL A   1      39.533  31.552  31.308  1.00  0.00     0.074 A 
ATOM     49  C   UNL A   1      45.697  29.590  30.862  1.00  0.00     0.029 A 
ATOM     50  N   UNL A   1      44.355  31.331  30.921  1.00  0.00    -0.354 N 
ATOM     51  N   UNL A   1      40.234  31.204  32.351  1.00  0.00    -0.248 NA
ATOM     52  C   UNL A   1      40.207  32.428  30.364  1.00  0.00     0.031 C 
ATOM     53  C   UNL A   1      44.815  29.480  31.977  1.00  0.00     0.029 A 
ATOM     54  C   UNL A   1      43.849  30.481  31.867  1.00  0.00     0.049 A 
ATOM     55  H   UNL A   1      44.174  32.296  30.852  1.00  0.00     0.167 HD
ATOM     56  C   UNL A   1      41.549  31.423  31.972  1.00  0.00     0.074 A 
ATOM     57  C   UNL A   1      41.467  32.256  30.773  1.00  0.00     0.031 C 
ATOM     58  C   UNL A   1      42.557  30.660  32.487  1.00  0.00     0.037 A 
BRANCH  45  59
ATOM     59  C   UNL A   1      45.301  32.160  28.042  1.00  0.00     0.064 A 
ATOM     60  C   UNL A   1      44.222  33.037  27.797  1.00  0.00     0.173 A 
ATOM     61  C   UNL A   1      46.510  32.493  27.395  1.00  0.00     0.173 A 
ATOM     62  F   UNL A   1      43.022  32.818  28.355  1.00  0.00    -0.203 F 
ATOM     63  C   UNL A   1      44.322  34.099  26.894  1.00  0.00     0.198 A 
ATOM     64  C   UNL A   1      46.619  33.585  26.537  1.00  0.00     0.198 A 
ATOM     65  F   UNL A   1      47.598  31.719  27.470  1.00  0.00    -0.203 F 
ATOM     66  F   UNL A   1      43.232  34.816  26.589  1.00  0.00    -0.200 F 
ATOM     67  C   UNL A   1      45.518  34.367  26.258  1.00  0.00     0.200 A 
ATOM     68  F   UNL A   1      47.784  33.819  25.916  1.00  0.00    -0.200 F 
ATOM     69  F   UNL A   1      45.600  35.340  25.342  1.00  0.00    -0.200 F 
ENDBRANCH  45  59
BRANCH  46  70
ATOM     70  C   UNL A   1      37.034  31.415  30.630  1.00  0.00     0.064 A 
ATOM     71  C   UNL A   1      36.167  31.607  31.720  1.00  0.00     0.173 A 
ATOM     72  C   UNL A   1      36.716  32.114  29.451  1.00  0.00     0.173 A 
ATOM     73  F   UNL A   1      36.418  31.012  32.896  1.00  0.00    -0.203 F 
ATOM     74  C   UNL A   1      35.071  32.476  31.647  1.00  0.00     0.198 A 
ATOM     75  C   UNL A   1      35.620  32.979  29.377  1.00  0.00     0.198 A 
ATOM     76  F   UNL A   1      37.518  32.053  28.380  1.00  0.00    -0.203 F 
ATOM     77  F   UNL A   1      34.309  32.687  32.730  1.00  0.00    -0.200 F 
ATOM     78  C   UNL A   1      34.807  33.172  30.479  1.00  0.00     0.200 A 
ATOM     79  F   UNL A   1      35.399  33.677  28.254  1.00  0.00    -0.200 F 
ATOM     80  F   UNL A   1      33.803  34.058  30.429  1.00  0.00    -0.200 F 
ENDBRANCH  46  70
BRANCH  58  81
ATOM     81  C   UNL A   1      42.244  29.787  33.671  1.00  0.00     0.064 A 
ATOM     82  C   UNL A   1      41.787  28.459  33.587  1.00  0.00     0.173 A 
ATOM     83  C   UNL A   1      42.548  30.281  34.946  1.00  0.00     0.173 A 
ATOM     84  F   UNL A   1      41.571  27.874  32.403  1.00  0.00    -0.203 F 
ATOM     85  C   UNL A   1      41.597  27.687  34.732  1.00  0.00     0.198 A 
ATOM     86  C   UNL A   1      42.397  29.495  36.084  1.00  0.00     0.198 A 
ATOM     87  F   UNL A   1      43.040  31.523  35.085  1.00  0.00    -0.203 F 
ATOM     88  F   UNL A   1      41.142  26.429  34.627  1.00  0.00    -0.200 F 
ATOM     89  C   UNL A   1      41.909  28.203  35.979  1.00  0.00     0.200 A 
ATOM     90  F   UNL A   1      42.750  29.984  37.281  1.00  0.00    -0.200 F 
ATOM     91  F   UNL A   1      41.764  27.448  37.077  1.00  0.00    -0.200 F 
ENDBRANCH  58  81
ENDBRANCH  32  33
ENDBRANCH  24  27
ENDBRANCH  22  23
ENDBRANCH  21  22
ENDBRANCH   1  21
TORSDOF 13
ENDMDL
MODEL 2
REMARK VINA RESULT:     -12.1      1.589      2.683
REMARK SMILES CC(=O)Nc1c(C)nn([C@H](C)C(=O)NCCCCNC(=O)c2ccc(-c3c4nc(c(-c5c(F)c(F)c(F)c(F)c5F)c5ccc([nH]5)c(-c5c(F)c(F)c(F)c(F)c5F)c5nc(c(-c6c(F)c(F)c(F)c(F)c6F)c6ccc3[nH]6)C=C5)C=C4)cc2)c1C
REMARK SMILES IDX 16 1 15 2 14 3 12 4 13 5 10 7 11 8 9 9 5 10 6 11 85 12 7 13
REMARK SMILES IDX 8 14 86 15 4 16 1 17 2 18 3 19 17 21 18 22 19 23 20 24 21 26
REMARK SMILES IDX 22 27 23 28 84 29 24 30 83 31 25 32 26 33 27 34 77 35 28 36
REMARK SMILES IDX 82 37 76 38 78 39 29 40 81 41 75 42 74 43 30 45 62 46 42 47
REMARK SMILES IDX 61 48 43 49 46 50 60 51 79 52 44 53 45 54 59 56 80 57 47 58
REMARK SMILES IDX 31 59 32 60 40 61 33 62 34 63 38 64 41 65 35 66 36 67 39 68
REMARK SMILES IDX 37 69 63 70 64 71 72 72 65 73 66 74 70 75 73 76 67 77 68 78
REMARK SMILES IDX 71 79 69 80 48 81 49 82 57 83 50 84 51 85 55 86 58 87 52 88
REMARK SMILES IDX 53 89 56 90 54 91
REMARK H PARENT 14 6 4 20 19 25 78 44 46 55
REMARK Flexibility Score: inf
ROOT
ATOM      1  C   UNL A   1      38.668  23.900  26.618  1.00  0.00     0.023 C 
ENDROOT
BRANCH   1   2
ATOM      2  C   UNL A   1      37.289  24.093  25.990  1.00  0.00     0.116 C 
BRANCH   2   3
ATOM      3  N   UNL A   1      37.239  23.632  24.616  1.00  0.00    -0.354 N 
ATOM      4  C   UNL A   1      36.179  23.511  23.767  1.00  0.00     0.244 C 
ATOM      5  O   UNL A   1      36.430  23.123  22.620  1.00  0.00    -0.273 OA
ATOM      6  H   UNL A   1      38.106  23.363  24.236  1.00  0.00     0.163 HD
BRANCH   4   7
ATOM      7  C   UNL A   1      34.742  23.823  24.171  1.00  0.00     0.193 C 
ATOM      8  C   UNL A   1      34.170  25.086  23.529  1.00  0.00     0.044 C 
BRANCH   7   9
ATOM      9  N   UNL A   1      33.900  22.631  24.098  1.00  0.00    -0.255 N 
ATOM     10  C   UNL A   1      32.824  20.769  24.551  1.00  0.00     0.085 A 
ATOM     11  C   UNL A   1      32.610  21.189  23.216  1.00  0.00     0.083 A 
ATOM     12  C   UNL A   1      33.770  21.644  25.050  1.00  0.00     0.060 A 
ATOM     13  C   UNL A   1      31.820  20.541  22.140  1.00  0.00     0.071 C 
ATOM     14  N   UNL A   1      33.188  22.371  22.983  1.00  0.00    -0.175 NA
ATOM     15  C   UNL A   1      34.647  21.573  26.252  1.00  0.00     0.069 C 
BRANCH  10  16
ATOM     16  N   UNL A   1      32.309  19.648  25.165  1.00  0.00    -0.323 N 
ATOM     17  C   UNL A   1      34.102  18.111  24.407  1.00  0.00     0.114 C 
ATOM     18  C   UNL A   1      32.750  18.359  25.032  1.00  0.00     0.221 C 
ATOM     19  O   UNL A   1      32.088  17.434  25.508  1.00  0.00    -0.275 OA
ATOM     20  H   UNL A   1      31.539  19.789  25.762  1.00  0.00     0.170 HD
ENDBRANCH  10  16
ENDBRANCH   7   9
ENDBRANCH   4   7
ENDBRANCH   2   3
ENDBRANCH   1   2
BRANCH   1  21
ATOM     21  C   UNL A   1      39.245  22.484  26.531  1.00  0.00     0.023 C 
BRANCH  21  22
ATOM     22  C   UNL A   1      40.516  22.267  27.341  1.00  0.00     0.116 C 
BRANCH  22  23
ATOM     23  N   UNL A   1      41.705  22.089  26.509  1.00  0.00    -0.352 N 
ATOM     24  C   UNL A   1      42.450  23.068  25.874  1.00  0.00     0.251 C 
ATOM     25  H   UNL A   1      42.012  21.163  26.385  1.00  0.00     0.163 HD
ATOM     26  O   UNL A   1      43.156  22.806  24.916  1.00  0.00    -0.269 OA
BRANCH  24  27
ATOM     27  C   UNL A   1      42.387  24.445  26.400  1.00  0.00     0.039 A 
ATOM     28  C   UNL A   1      41.709  25.459  25.720  1.00  0.00     0.014 A 
ATOM     29  C   UNL A   1      43.016  24.698  27.616  1.00  0.00     0.014 A 
ATOM     30  C   UNL A   1      41.609  26.713  26.320  1.00  0.00     0.010 A 
ATOM     31  C   UNL A   1      42.783  25.874  28.276  1.00  0.00     0.010 A 
ATOM     32  C   UNL A   1      42.136  26.904  27.608  1.00  0.00    -0.014 A 
BRANCH  32  33
ATOM     33  C   UNL A   1      41.916  28.144  28.340  1.00  0.00     0.031 A 
ATOM     34  C   UNL A   1      42.954  29.178  28.095  1.00  0.00     0.074 A 
ATOM     35  C   UNL A   1      40.768  28.412  29.001  1.00  0.00     0.049 A 
ATOM     36  N   UNL A   1      43.838  29.602  28.931  1.00  0.00    -0.248 NA
ATOM     37  C   UNL A   1      43.136  29.691  26.727  1.00  0.00     0.031 C 
ATOM     38  C   UNL A   1      39.537  27.616  29.053  1.00  0.00     0.029 A 
ATOM     39  N   UNL A   1      40.426  29.525  29.705  1.00  0.00    -0.354 N 
ATOM     40  C   UNL A   1      44.565  30.583  28.264  1.00  0.00     0.074 A 
ATOM     41  C   UNL A   1      44.219  30.460  26.873  1.00  0.00     0.031 C 
ATOM     42  C   UNL A   1      38.528  28.368  29.550  1.00  0.00     0.029 A 
ATOM     43  C   UNL A   1      39.070  29.635  30.001  1.00  0.00     0.049 A 
ATOM     44  H   UNL A   1      41.086  30.200  29.982  1.00  0.00     0.167 HD
ATOM     45  C   UNL A   1      45.196  31.569  28.962  1.00  0.00     0.037 A 
ATOM     46  C   UNL A   1      38.448  30.708  30.556  1.00  0.00     0.037 A 
ATOM     47  C   UNL A   1      45.267  31.231  30.364  1.00  0.00     0.049 A 
ATOM     48  C   UNL A   1      39.496  31.530  31.212  1.00  0.00     0.074 A 
ATOM     49  C   UNL A   1      45.842  30.204  31.088  1.00  0.00     0.029 A 
ATOM     50  N   UNL A   1      44.331  31.799  31.196  1.00  0.00    -0.354 N 
ATOM     51  N   UNL A   1      40.153  31.150  32.272  1.00  0.00    -0.248 NA
ATOM     52  C   UNL A   1      40.145  32.554  30.408  1.00  0.00     0.031 C 
ATOM     53  C   UNL A   1      44.899  29.904  32.114  1.00  0.00     0.029 A 
ATOM     54  C   UNL A   1      43.847  30.816  32.017  1.00  0.00     0.049 A 
ATOM     55  H   UNL A   1      44.059  32.744  31.200  1.00  0.00     0.167 HD
ATOM     56  C   UNL A   1      41.462  31.526  32.022  1.00  0.00     0.074 A 
ATOM     57  C   UNL A   1      41.383  32.461  30.900  1.00  0.00     0.031 C 
ATOM     58  C   UNL A   1      42.503  30.814  32.545  1.00  0.00     0.037 A 
BRANCH  45  59
ATOM     59  C   UNL A   1      45.392  32.989  28.488  1.00  0.00     0.064 A 
ATOM     60  C   UNL A   1      44.254  33.748  28.138  1.00  0.00     0.173 A 
ATOM     61  C   UNL A   1      46.628  33.522  28.066  1.00  0.00     0.173 A 
ATOM     62  F   UNL A   1      43.024  33.336  28.482  1.00  0.00    -0.203 F 
ATOM     63  C   UNL A   1      44.344  34.891  27.339  1.00  0.00     0.198 A 
ATOM     64  C   UNL A   1      46.717  34.692  27.314  1.00  0.00     0.198 A 
ATOM     65  F   UNL A   1      47.786  32.882  28.257  1.00  0.00    -0.203 F 
ATOM     66  F   UNL A   1      43.226  35.495  26.916  1.00  0.00    -0.200 F 
ATOM     67  C   UNL A   1      45.575  35.357  26.920  1.00  0.00     0.200 A 
ATOM     68  F   UNL A   1      47.919  35.120  26.903  1.00  0.00    -0.200 F 
ATOM     69  F   UNL A   1      45.661  36.411  26.099  1.00  0.00    -0.200 F 
ENDBRANCH  45  59
BRANCH  46  70
ATOM     70  C   UNL A   1      37.078  31.228  30.326  1.00  0.00     0.064 A 
ATOM     71  C   UNL A   1      36.220  31.515  31.403  1.00  0.00     0.173 A 
ATOM     72  C   UNL A   1      36.695  31.739  29.072  1.00  0.00     0.173 A 
ATOM     73  F   UNL A   1      36.530  31.103  32.641  1.00  0.00    -0.203 F 
ATOM     74  C   UNL A   1      35.071  32.298  31.242  1.00  0.00     0.198 A 
ATOM     75  C   UNL A   1      35.546  32.518  28.911  1.00  0.00     0.198 A 
ATOM     76  F   UNL A   1      37.480  31.581  27.998  1.00  0.00    -0.203 F 
ATOM     77  F   UNL A   1      34.317  32.609  32.306  1.00  0.00    -0.200 F 
ATOM     78  C   UNL A   1      34.742  32.811  29.998  1.00  0.00     0.200 A 
ATOM     79  F   UNL A   1      35.261  33.042  27.710  1.00  0.00    -0.200 F 
ATOM     80  F   UNL A   1      33.684  33.620  29.855  1.00  0.00    -0.200 F 
ENDBRANCH  46  70
BRANCH  58  81
ATOM     81  C   UNL A   1      42.195  29.803  33.616  1.00  0.00     0.064 A 
ATOM     82  C   UNL A   1      41.785  28.480  33.374  1.00  0.00     0.173 A 
ATOM     83  C   UNL A   1      42.457  30.161  34.945  1.00  0.00     0.173 A 
ATOM     84  F   UNL A   1      41.612  28.026  32.127  1.00  0.00    -0.203 F 
ATOM     85  C   UNL A   1      41.597  27.578  34.421  1.00  0.00     0.198 A 
ATOM     86  C   UNL A   1      42.310  29.247  35.984  1.00  0.00     0.198 A 
ATOM     87  F   UNL A   1      42.905  31.394  35.234  1.00  0.00    -0.203 F 
ATOM     88  F   UNL A   1      41.187  26.327  34.165  1.00  0.00    -0.200 F 
ATOM     89  C   UNL A   1      41.867  27.961  35.724  1.00  0.00     0.200 A 
ATOM     90  F   UNL A   1      42.622  29.609  37.236  1.00  0.00    -0.200 F 
ATOM     91  F   UNL A   1      41.725  27.083  36.727  1.00  0.00    -0.200 F 
ENDBRANCH  58  81
ENDBRANCH  32  33
ENDBRANCH  24  27
ENDBRANCH  22  23
ENDBRANCH  21  22
ENDBRANCH   1  21
TORSDOF 13
ENDMDL
MODEL 3
REMARK VINA RESULT:     -12.0      3.042      8.906
REMARK SMILES CC(=O)Nc1c(C)nn([C@H](C)C(=O)NCCCCNC(=O)c2ccc(-c3c4nc(c(-c5c(F)c(F)c(F)c(F)c5F)c5ccc([nH]5)c(-c5c(F)c(F)c(F)c(F)c5F)c5nc(c(-c6c(F)c(F)c(F)c(F)c6F)c6ccc3[nH]6)C=C5)C=C4)cc2)c1C
REMARK SMILES IDX 16 1 15 2 14 3 12 4 13 5 10 7 11 8 9 9 5 10 6 11 85 12 7 13
REMARK SMILES IDX 8 14 86 15 4 16 1 17 2 18 3 19 17 21 18 22 19 23 20 24 21 26
REMARK SMILES IDX 22 27 23 28 84 29 24 30 83 31 25 32 26 33 27 34 77 35 28 36
REMARK SMILES IDX 82 37 76 38 78 39 29 40 81 41 75 42 74 43 30 45 62 46 42 47
REMARK SMILES IDX 61 48 43 49 46 50 60 51 79 52 44 53 45 54 59 56 80 57 47 58
REMARK SMILES IDX 31 59 32 60 40 61 33 62 34 63 38 64 41 65 35 66 36 67 39 68
REMARK SMILES IDX 37 69 63 70 64 71 72 72 65 73 66 74 70 75 73 76 67 77 68 78
REMARK SMILES IDX 71 79 69 80 48 81 49 82 57 83 50 84 51 85 55 86 58 87 52 88
REMARK SMILES IDX 53 89 56 90 54 91
REMARK H PARENT 14 6 4 20 19 25 78 44 46 55
REMARK Flexibility Score: inf
ROOT
ATOM      1  C   UNL A   1      32.834  29.495  24.825  1.00  0.00     0.023 C 
ENDROOT
BRANCH   1   2
ATOM      2  C   UNL A   1      33.010  28.929  23.417  1.00  0.00     0.116 C 
BRANCH   2   3
ATOM      3  N   UNL A   1      31.944  29.334  22.521  1.00  0.00    -0.354 N 
ATOM      4  C   UNL A   1      30.635  28.956  22.485  1.00  0.00     0.244 C 
ATOM      5  O   UNL A   1      29.926  29.496  21.626  1.00  0.00    -0.273 OA
ATOM      6  H   UNL A   1      32.207  29.983  21.829  1.00  0.00     0.163 HD
BRANCH   4   7
ATOM      7  C   UNL A   1      30.034  27.923  23.431  1.00  0.00     0.193 C 
ATOM      8  C   UNL A   1      28.520  27.758  23.301  1.00  0.00     0.044 C 
BRANCH   7   9
ATOM      9  N   UNL A   1      30.814  26.688  23.432  1.00  0.00    -0.255 N 
ATOM     10  C   UNL A   1      31.824  24.823  24.009  1.00  0.00     0.085 A 
ATOM     11  C   UNL A   1      32.068  25.156  22.656  1.00  0.00     0.083 A 
ATOM     12  C   UNL A   1      31.127  25.902  24.520  1.00  0.00     0.060 A 
ATOM     13  C   UNL A   1      32.903  24.456  21.649  1.00  0.00     0.071 C 
ATOM     14  N   UNL A   1      31.370  26.235  22.290  1.00  0.00    -0.175 NA
ATOM     15  C   UNL A   1      30.849  26.327  25.920  1.00  0.00     0.069 C 
BRANCH  10  16
ATOM     16  N   UNL A   1      32.304  23.730  24.698  1.00  0.00    -0.323 N 
ATOM     17  C   UNL A   1      34.443  24.789  25.374  1.00  0.00     0.114 C 
ATOM     18  C   UNL A   1      33.555  23.575  25.232  1.00  0.00     0.221 C 
ATOM     19  O   UNL A   1      33.900  22.478  25.674  1.00  0.00    -0.275 OA
ATOM     20  H   UNL A   1      31.679  22.979  24.818  1.00  0.00     0.170 HD
ENDBRANCH  10  16
ENDBRANCH   7   9
ENDBRANCH   4   7
ENDBRANCH   2   3
ENDBRANCH   1   2
BRANCH   1  21
ATOM     21  C   UNL A   1      33.588  28.760  25.936  1.00  0.00     0.023 C 
BRANCH  21  22
ATOM     22  C   UNL A   1      33.688  29.526  27.248  1.00  0.00     0.116 C 
BRANCH  22  23
ATOM     23  N   UNL A   1      34.045  30.932  27.067  1.00  0.00    -0.352 N 
ATOM     24  C   UNL A   1      35.098  31.621  27.645  1.00  0.00     0.251 C 
ATOM     25  H   UNL A   1      33.467  31.452  26.464  1.00  0.00     0.163 HD
ATOM     26  O   UNL A   1      35.082  32.835  27.748  1.00  0.00    -0.269 OA
BRANCH  24  27
ATOM     27  C   UNL A   1      36.261  30.848  28.120  1.00  0.00     0.039 A 
ATOM     28  C   UNL A   1      36.289  29.453  28.061  1.00  0.00     0.014 A 
ATOM     29  C   UNL A   1      37.349  31.564  28.616  1.00  0.00     0.014 A 
ATOM     30  C   UNL A   1      37.456  28.792  28.439  1.00  0.00     0.010 A 
ATOM     31  C   UNL A   1      38.543  30.931  28.833  1.00  0.00     0.010 A 
ATOM     32  C   UNL A   1      38.585  29.544  28.807  1.00  0.00    -0.014 A 
BRANCH  32  33
ATOM     33  C   UNL A   1      39.871  28.908  29.053  1.00  0.00     0.031 A 
ATOM     34  C   UNL A   1      40.161  28.676  30.492  1.00  0.00     0.074 A 
ATOM     35  C   UNL A   1      40.628  28.378  28.067  1.00  0.00     0.049 A 
ATOM     36  N   UNL A   1      41.052  29.271  31.209  1.00  0.00    -0.248 NA
ATOM     37  C   UNL A   1      39.265  27.799  31.264  1.00  0.00     0.031 C 
ATOM     38  C   UNL A   1      40.311  28.249  26.641  1.00  0.00     0.029 A 
ATOM     39  N   UNL A   1      41.830  27.746  28.157  1.00  0.00    -0.354 N 
ATOM     40  C   UNL A   1      40.971  28.705  32.477  1.00  0.00     0.074 A 
ATOM     41  C   UNL A   1      39.743  27.954  32.503  1.00  0.00     0.031 C 
ATOM     42  C   UNL A   1      41.178  27.391  26.056  1.00  0.00     0.029 A 
ATOM     43  C   UNL A   1      42.205  27.038  27.018  1.00  0.00     0.049 A 
ATOM     44  H   UNL A   1      42.391  27.786  28.965  1.00  0.00     0.167 HD
ATOM     45  C   UNL A   1      42.053  28.709  33.306  1.00  0.00     0.037 A 
ATOM     46  C   UNL A   1      43.272  26.207  26.896  1.00  0.00     0.037 A 
ATOM     47  C   UNL A   1      43.059  29.624  32.820  1.00  0.00     0.049 A 
ATOM     48  C   UNL A   1      44.213  26.540  27.997  1.00  0.00     0.074 A 
ATOM     49  C   UNL A   1      43.101  30.985  32.585  1.00  0.00     0.029 A 
ATOM     50  N   UNL A   1      44.108  29.088  32.113  1.00  0.00    -0.354 N 
ATOM     51  N   UNL A   1      44.878  27.659  28.063  1.00  0.00    -0.248 NA
ATOM     52  C   UNL A   1      44.042  25.838  29.259  1.00  0.00     0.031 C 
ATOM     53  C   UNL A   1      43.856  31.128  31.384  1.00  0.00     0.029 A 
ATOM     54  C   UNL A   1      44.308  29.863  31.002  1.00  0.00     0.049 A 
ATOM     55  H   UNL A   1      44.625  28.289  32.363  1.00  0.00     0.167 HD
ATOM     56  C   UNL A   1      44.802  28.029  29.396  1.00  0.00     0.074 A 
ATOM     57  C   UNL A   1      44.350  26.829  30.100  1.00  0.00     0.031 C 
ATOM     58  C   UNL A   1      44.818  29.346  29.755  1.00  0.00     0.037 A 
BRANCH  45  59
ATOM     59  C   UNL A   1      42.394  27.630  34.306  1.00  0.00     0.064 A 
ATOM     60  C   UNL A   1      42.976  26.433  33.838  1.00  0.00     0.173 A 
ATOM     61  C   UNL A   1      41.895  27.585  35.625  1.00  0.00     0.173 A 
ATOM     62  F   UNL A   1      43.479  26.357  32.596  1.00  0.00    -0.203 F 
ATOM     63  C   UNL A   1      42.964  25.258  34.594  1.00  0.00     0.198 A 
ATOM     64  C   UNL A   1      41.933  26.425  36.396  1.00  0.00     0.198 A 
ATOM     65  F   UNL A   1      41.250  28.616  36.182  1.00  0.00    -0.203 F 
ATOM     66  F   UNL A   1      43.400  24.114  34.051  1.00  0.00    -0.200 F 
ATOM     67  C   UNL A   1      42.434  25.253  35.870  1.00  0.00     0.200 A 
ATOM     68  F   UNL A   1      41.399  26.435  37.626  1.00  0.00    -0.200 F 
ATOM     69  F   UNL A   1      42.357  24.115  36.571  1.00  0.00    -0.200 F 
ENDBRANCH  45  59
BRANCH  46  70
ATOM     70  C   UNL A   1      43.419  24.970  26.092  1.00  0.00     0.064 A 
ATOM     71  C   UNL A   1      44.539  24.769  25.266  1.00  0.00     0.173 A 
ATOM     72  C   UNL A   1      42.625  23.836  26.350  1.00  0.00     0.173 A 
ATOM     73  F   UNL A   1      45.374  25.786  25.003  1.00  0.00    -0.203 F 
ATOM     74  C   UNL A   1      44.866  23.505  24.760  1.00  0.00     0.198 A 
ATOM     75  C   UNL A   1      42.949  22.575  25.842  1.00  0.00     0.198 A 
ATOM     76  F   UNL A   1      41.577  23.908  27.182  1.00  0.00    -0.203 F 
ATOM     77  F   UNL A   1      45.981  23.342  24.034  1.00  0.00    -0.200 F 
ATOM     78  C   UNL A   1      44.078  22.407  25.061  1.00  0.00     0.200 A 
ATOM     79  F   UNL A   1      42.202  21.513  26.173  1.00  0.00    -0.200 F 
ATOM     80  F   UNL A   1      44.429  21.184  24.638  1.00  0.00    -0.200 F 
ENDBRANCH  46  70
BRANCH  58  81
ATOM     81  C   UNL A   1      45.206  30.355  28.709  1.00  0.00     0.064 A 
ATOM     82  C   UNL A   1      44.318  30.923  27.777  1.00  0.00     0.173 A 
ATOM     83  C   UNL A   1      46.511  30.863  28.743  1.00  0.00     0.173 A 
ATOM     84  F   UNL A   1      43.028  30.570  27.745  1.00  0.00    -0.203 F 
ATOM     85  C   UNL A   1      44.738  31.914  26.890  1.00  0.00     0.198 A 
ATOM     86  C   UNL A   1      46.916  31.881  27.886  1.00  0.00     0.198 A 
ATOM     87  F   UNL A   1      47.389  30.399  29.648  1.00  0.00    -0.203 F 
ATOM     88  F   UNL A   1      43.877  32.426  25.998  1.00  0.00    -0.200 F 
ATOM     89  C   UNL A   1      46.035  32.397  26.951  1.00  0.00     0.200 A 
ATOM     90  F   UNL A   1      48.156  32.379  27.985  1.00  0.00    -0.200 F 
ATOM     91  F   UNL A   1      46.427  33.378  26.126  1.00  0.00    -0.200 F 
ENDBRANCH  58  81
ENDBRANCH  32  33
ENDBRANCH  24  27
ENDBRANCH  22  23
ENDBRANCH  21  22
ENDBRANCH   1  21
TORSDOF 13
ENDMDL
