MODEL 1
REMARK VINA RESULT:     -11.6      0.000      0.000
REMARK SMILES O=C(NCCCCNC(=O)c1ccc(-c2ccncc2)cn1)c1ccc(-c2c3nc(c(-c4c(F)c(F)c(F)c(F)c4F)c4ccc([nH]4)c(-c4c(F)c(F)c(F)c(F)c4F)c4nc(c(-c5c(F)c(F)c(F)c(F)c5F)c5ccc2[nH]5)C=C4)C=C3)cc1
REMARK SMILES IDX 5 1 4 2 3 3 1 4 2 5 23 7 24 8 85 9 25 10 84 11 26 12 27 13
REMARK SMILES IDX 28 14 78 15 29 16 83 17 77 18 79 19 30 20 82 21 76 22 75 23
REMARK SMILES IDX 31 25 63 26 43 27 62 28 44 29 47 30 61 31 80 32 45 33 46 34
REMARK SMILES IDX 60 36 81 37 48 38 32 39 33 40 41 41 34 42 35 43 39 44 42 45
REMARK SMILES IDX 36 46 37 47 40 48 38 49 64 50 65 51 73 52 66 53 67 54 71 55
REMARK SMILES IDX 74 56 68 57 69 58 72 59 70 60 49 61 50 62 58 63 51 64 52 65
REMARK SMILES IDX 56 66 59 67 53 68 54 69 57 70 55 71 6 72 7 73 8 74 9 75
REMARK SMILES IDX 10 77 11 78 12 79 22 80 13 81 21 82 14 83 15 84 16 85 20 86
REMARK SMILES IDX 17 87 19 88 18 89
REMARK H PARENT 3 6 79 24 47 35 8 76
REMARK Flexibility Score: inf
ROOT
ATOM      1  C   UNL A   1      34.255  33.486  29.334  1.00  0.00     0.023 C 
ENDROOT
BRANCH   1   2
ATOM      2  C   UNL A   1      34.729  32.725  28.102  1.00  0.00     0.116 C 
BRANCH   2   3
ATOM      3  N   UNL A   1      34.036  31.461  27.911  1.00  0.00    -0.352 N 
ATOM      4  O   UNL A   1      33.810  29.239  27.600  1.00  0.00    -0.269 OA
ATOM      5  C   UNL A   1      34.533  30.180  27.915  1.00  0.00     0.251 C 
ATOM      6  H   UNL A   1      33.067  31.535  27.755  1.00  0.00     0.163 HD
BRANCH   5   7
ATOM      7  C   UNL A   1      35.947  29.934  28.269  1.00  0.00     0.039 A 
ATOM      8  C   UNL A   1      36.960  30.084  27.321  1.00  0.00     0.014 A 
ATOM      9  C   UNL A   1      36.260  29.548  29.575  1.00  0.00     0.014 A 
ATOM     10  C   UNL A   1      38.261  29.702  27.632  1.00  0.00     0.010 A 
ATOM     11  C   UNL A   1      37.583  29.245  29.911  1.00  0.00     0.010 A 
ATOM     12  C   UNL A   1      38.588  29.284  28.932  1.00  0.00    -0.014 A 
BRANCH  12  13
ATOM     13  C   UNL A   1      39.992  28.932  29.259  1.00  0.00     0.031 A 
ATOM     14  C   UNL A   1      40.845  29.847  30.092  1.00  0.00     0.074 A 
ATOM     15  C   UNL A   1      40.492  27.767  28.807  1.00  0.00     0.049 A 
ATOM     16  N   UNL A   1      42.095  29.705  30.458  1.00  0.00    -0.248 NA
ATOM     17  C   UNL A   1      40.219  31.088  30.572  1.00  0.00     0.031 C 
ATOM     18  C   UNL A   1      39.762  26.802  27.985  1.00  0.00     0.029 A 
ATOM     19  N   UNL A   1      41.726  27.193  28.979  1.00  0.00    -0.354 N 
ATOM     20  C   UNL A   1      42.410  30.841  31.191  1.00  0.00     0.074 A 
ATOM     21  C   UNL A   1      41.228  31.677  31.198  1.00  0.00     0.031 C 
ATOM     22  C   UNL A   1      40.548  25.741  27.751  1.00  0.00     0.029 A 
ATOM     23  C   UNL A   1      41.854  25.977  28.354  1.00  0.00     0.049 A 
ATOM     24  H   UNL A   1      42.450  27.612  29.500  1.00  0.00     0.167 HD
ATOM     25  C   UNL A   1      43.577  31.153  31.806  1.00  0.00     0.037 A 
ATOM     26  C   UNL A   1      42.913  25.152  28.258  1.00  0.00     0.037 A 
ATOM     27  C   UNL A   1      44.745  30.309  31.809  1.00  0.00     0.049 A 
ATOM     28  C   UNL A   1      44.201  25.534  28.929  1.00  0.00     0.074 A 
ATOM     29  C   UNL A   1      45.961  30.519  32.436  1.00  0.00     0.029 A 
ATOM     30  N   UNL A   1      44.843  29.093  31.148  1.00  0.00    -0.354 N 
ATOM     31  N   UNL A   1      44.476  26.597  29.644  1.00  0.00    -0.248 NA
ATOM     32  C   UNL A   1      45.326  24.603  28.776  1.00  0.00     0.031 C 
ATOM     33  C   UNL A   1      46.810  29.454  32.116  1.00  0.00     0.029 A 
ATOM     34  C   UNL A   1      46.107  28.554  31.332  1.00  0.00     0.049 A 
ATOM     35  H   UNL A   1      44.121  28.675  30.625  1.00  0.00     0.167 HD
ATOM     36  C   UNL A   1      45.797  26.455  30.043  1.00  0.00     0.074 A 
ATOM     37  C   UNL A   1      46.263  25.195  29.503  1.00  0.00     0.031 C 
ATOM     38  C   UNL A   1      46.555  27.296  30.789  1.00  0.00     0.037 A 
BRANCH  25  39
ATOM     39  C   UNL A   1      43.659  32.474  32.515  1.00  0.00     0.064 A 
ATOM     40  C   UNL A   1      43.996  33.657  31.840  1.00  0.00     0.173 A 
ATOM     41  C   UNL A   1      43.355  32.566  33.884  1.00  0.00     0.173 A 
ATOM     42  F   UNL A   1      44.305  33.625  30.536  1.00  0.00    -0.203 F 
ATOM     43  C   UNL A   1      44.051  34.876  32.512  1.00  0.00     0.198 A 
ATOM     44  C   UNL A   1      43.384  33.790  34.546  1.00  0.00     0.198 A 
ATOM     45  F   UNL A   1      43.019  31.466  34.575  1.00  0.00    -0.203 F 
ATOM     46  F   UNL A   1      44.418  35.986  31.857  1.00  0.00    -0.200 F 
ATOM     47  C   UNL A   1      43.739  34.943  33.863  1.00  0.00     0.200 A 
ATOM     48  F   UNL A   1      43.070  33.854  35.847  1.00  0.00    -0.200 F 
ATOM     49  F   UNL A   1      43.787  36.117  34.507  1.00  0.00    -0.200 F 
ENDBRANCH  25  39
BRANCH  26  50
ATOM     50  C   UNL A   1      42.786  23.887  27.494  1.00  0.00     0.064 A 
ATOM     51  C   UNL A   1      43.174  23.814  26.149  1.00  0.00     0.173 A 
ATOM     52  C   UNL A   1      42.303  22.718  28.100  1.00  0.00     0.173 A 
ATOM     53  F   UNL A   1      43.625  24.911  25.523  1.00  0.00    -0.203 F 
ATOM     54  C   UNL A   1      43.075  22.621  25.437  1.00  0.00     0.198 A 
ATOM     55  C   UNL A   1      42.232  21.519  27.395  1.00  0.00     0.198 A 
ATOM     56  F   UNL A   1      41.926  22.736  29.387  1.00  0.00    -0.203 F 
ATOM     57  F   UNL A   1      43.421  22.586  24.143  1.00  0.00    -0.200 F 
ATOM     58  C   UNL A   1      42.612  21.473  26.064  1.00  0.00     0.200 A 
ATOM     59  F   UNL A   1      41.801  20.408  28.009  1.00  0.00    -0.200 F 
ATOM     60  F   UNL A   1      42.530  20.323  25.382  1.00  0.00    -0.200 F 
ENDBRANCH  26  50
BRANCH  38  61
ATOM     61  C   UNL A   1      47.960  26.864  31.090  1.00  0.00     0.064 A 
ATOM     62  C   UNL A   1      48.256  26.027  32.175  1.00  0.00     0.173 A 
ATOM     63  C   UNL A   1      49.018  27.267  30.261  1.00  0.00     0.173 A 
ATOM     64  F   UNL A   1      47.281  25.629  33.006  1.00  0.00    -0.203 F 
ATOM     65  C   UNL A   1      49.565  25.628  32.434  1.00  0.00     0.198 A 
ATOM     66  C   UNL A   1      50.320  26.844  30.506  1.00  0.00     0.198 A 
ATOM     67  F   UNL A   1      48.786  28.065  29.208  1.00  0.00    -0.203 F 
ATOM     68  F   UNL A   1      49.832  24.865  33.503  1.00  0.00    -0.200 F 
ATOM     69  C   UNL A   1      50.594  26.031  31.596  1.00  0.00     0.200 A 
ATOM     70  F   UNL A   1      51.313  27.225  29.689  1.00  0.00    -0.200 F 
ATOM     71  F   UNL A   1      51.852  25.641  31.844  1.00  0.00    -0.200 F 
ENDBRANCH  38  61
ENDBRANCH  12  13
ENDBRANCH   5   7
ENDBRANCH   2   3
ENDBRANCH   1   2
BRANCH   1  72
ATOM     72  C   UNL A   1      33.241  34.597  29.067  1.00  0.00     0.023 C 
BRANCH  72  73
ATOM     73  C   UNL A   1      33.602  35.964  29.637  1.00  0.00     0.116 C 
BRANCH  73  74
ATOM     74  N   UNL A   1      32.644  36.438  30.622  1.00  0.00    -0.351 N 
ATOM     75  C   UNL A   1      32.568  36.123  31.962  1.00  0.00     0.269 C 
ATOM     76  H   UNL A   1      31.962  37.064  30.289  1.00  0.00     0.163 HD
ATOM     77  O   UNL A   1      31.664  36.589  32.650  1.00  0.00    -0.268 OA
BRANCH  75  78
ATOM     78  C   UNL A   1      33.606  35.239  32.555  1.00  0.00     0.128 A 
ATOM     79  C   UNL A   1      34.859  35.761  32.849  1.00  0.00     0.035 A 
ATOM     80  N   UNL A   1      33.279  33.933  32.694  1.00  0.00    -0.250 NA
ATOM     81  C   UNL A   1      35.853  34.879  33.265  1.00  0.00     0.013 A 
ATOM     82  C   UNL A   1      34.263  33.114  33.130  1.00  0.00     0.120 A 
ATOM     83  C   UNL A   1      35.574  33.512  33.406  1.00  0.00     0.000 A 
BRANCH  83  84
ATOM     84  C   UNL A   1      36.617  32.551  33.792  1.00  0.00    -0.014 A 
ATOM     85  C   UNL A   1      36.909  31.435  32.996  1.00  0.00     0.029 A 
ATOM     86  C   UNL A   1      37.336  32.702  34.984  1.00  0.00     0.029 A 
ATOM     87  C   UNL A   1      37.882  30.542  33.419  1.00  0.00     0.111 A 
ATOM     88  C   UNL A   1      38.290  31.755  35.324  1.00  0.00     0.111 A 
ATOM     89  N   UNL A   1      38.576  30.677  34.567  1.00  0.00    -0.265 NA
ENDBRANCH  83  84
ENDBRANCH  75  78
ENDBRANCH  73  74
ENDBRANCH  72  73
ENDBRANCH   1  72
TORSDOF 12
ENDMDL
MODEL 2
REMARK VINA RESULT:     -11.5      4.189      7.406
REMARK SMILES O=C(NCCCCNC(=O)c1ccc(-c2ccncc2)cn1)c1ccc(-c2c3nc(c(-c4c(F)c(F)c(F)c(F)c4F)c4ccc([nH]4)c(-c4c(F)c(F)c(F)c(F)c4F)c4nc(c(-c5c(F)c(F)c(F)c(F)c5F)c5ccc2[nH]5)C=C4)C=C3)cc1
REMARK SMILES IDX 5 1 4 2 3 3 1 4 2 5 23 7 24 8 85 9 25 10 84 11 26 12 27 13
REMARK SMILES IDX 28 14 78 15 29 16 83 17 77 18 79 19 30 20 82 21 76 22 75 23
REMARK SMILES IDX 31 25 63 26 43 27 62 28 44 29 47 30 61 31 80 32 45 33 46 34
REMARK SMILES IDX 60 36 81 37 48 38 32 39 33 40 41 41 34 42 35 43 39 44 42 45
REMARK SMILES IDX 36 46 37 47 40 48 38 49 64 50 65 51 73 52 66 53 67 54 71 55
REMARK SMILES IDX 74 56 68 57 69 58 72 59 70 60 49 61 50 62 58 63 51 64 52 65
REMARK SMILES IDX 56 66 59 67 53 68 54 69 57 70 55 71 6 72 7 73 8 74 9 75
REMARK SMILES IDX 10 77 11 78 12 79 22 80 13 81 21 82 14 83 15 84 16 85 20 86
REMARK SMILES IDX 17 87 19 88 18 89
REMARK H PARENT 3 6 79 24 47 35 8 76
REMARK Flexibility Score: inf
ROOT
ATOM      1  C   UNL A   1      31.780  28.616  26.477  1.00  0.00     0.023 C 
ENDROOT
BRANCH   1   2
ATOM      2  C   UNL A   1      32.902  29.534  26.005  1.00  0.00     0.116 C 
BRANCH   2   3
ATOM      3  N   UNL A   1      32.664  30.934  26.321  1.00  0.00    -0.352 N 
ATOM      4  O   UNL A   1      32.912  32.891  27.413  1.00  0.00    -0.269 OA
ATOM      5  C   UNL A   1      33.346  31.767  27.173  1.00  0.00     0.251 C 
ATOM      6  H   UNL A   1      31.900  31.344  25.854  1.00  0.00     0.163 HD
BRANCH   5   7
ATOM      7  C   UNL A   1      34.589  31.304  27.827  1.00  0.00     0.039 A 
ATOM      8  C   UNL A   1      34.701  30.000  28.313  1.00  0.00     0.014 A 
ATOM      9  C   UNL A   1      35.659  32.194  27.954  1.00  0.00     0.014 A 
ATOM     10  C   UNL A   1      35.817  29.633  29.057  1.00  0.00     0.010 A 
ATOM     11  C   UNL A   1      36.816  31.796  28.630  1.00  0.00     0.010 A 
ATOM     12  C   UNL A   1      36.889  30.525  29.219  1.00  0.00    -0.014 A 
BRANCH  12  13
ATOM     13  C   UNL A   1      38.095  30.095  29.971  1.00  0.00     0.031 A 
ATOM     14  C   UNL A   1      38.344  30.574  31.373  1.00  0.00     0.074 A 
ATOM     15  C   UNL A   1      38.964  29.254  29.380  1.00  0.00     0.049 A 
ATOM     16  N   UNL A   1      39.352  30.314  32.168  1.00  0.00    -0.248 NA
ATOM     17  C   UNL A   1      37.335  31.469  31.959  1.00  0.00     0.031 C 
ATOM     18  C   UNL A   1      38.831  28.727  28.021  1.00  0.00     0.029 A 
ATOM     19  N   UNL A   1      40.124  28.689  29.846  1.00  0.00    -0.354 N 
ATOM     20  C   UNL A   1      39.110  31.025  33.336  1.00  0.00     0.074 A 
ATOM     21  C   UNL A   1      37.873  31.749  33.139  1.00  0.00     0.031 C 
ATOM     22  C   UNL A   1      39.850  27.891  27.773  1.00  0.00     0.029 A 
ATOM     23  C   UNL A   1      40.737  27.869  28.931  1.00  0.00     0.049 A 
ATOM     24  H   UNL A   1      40.482  28.855  30.748  1.00  0.00     0.167 HD
ATOM     25  C   UNL A   1      39.851  31.063  34.470  1.00  0.00     0.037 A 
ATOM     26  C   UNL A   1      41.897  27.190  29.006  1.00  0.00     0.037 A 
ATOM     27  C   UNL A   1      41.075  30.326  34.667  1.00  0.00     0.049 A 
ATOM     28  C   UNL A   1      42.710  27.270  30.265  1.00  0.00     0.074 A 
ATOM     29  C   UNL A   1      41.877  30.268  35.793  1.00  0.00     0.029 A 
ATOM     30  N   UNL A   1      41.675  29.521  33.709  1.00  0.00    -0.354 N 
ATOM     31  N   UNL A   1      42.455  27.921  31.373  1.00  0.00    -0.248 NA
ATOM     32  C   UNL A   1      43.973  26.521  30.283  1.00  0.00     0.031 C 
ATOM     33  C   UNL A   1      42.986  29.467  35.502  1.00  0.00     0.029 A 
ATOM     34  C   UNL A   1      42.850  28.983  34.212  1.00  0.00     0.049 A 
ATOM     35  H   UNL A   1      41.319  29.357  32.806  1.00  0.00     0.167 HD
ATOM     36  C   UNL A   1      43.514  27.648  32.227  1.00  0.00     0.074 A 
ATOM     37  C   UNL A   1      44.406  26.758  31.514  1.00  0.00     0.031 C 
ATOM     38  C   UNL A   1      43.726  28.097  33.489  1.00  0.00     0.037 A 
BRANCH  25  39
ATOM     39  C   UNL A   1      39.372  31.945  35.587  1.00  0.00     0.064 A 
ATOM     40  C   UNL A   1      38.488  31.479  36.571  1.00  0.00     0.173 A 
ATOM     41  C   UNL A   1      39.837  33.266  35.698  1.00  0.00     0.173 A 
ATOM     42  F   UNL A   1      38.005  30.230  36.507  1.00  0.00    -0.203 F 
ATOM     43  C   UNL A   1      38.067  32.308  37.608  1.00  0.00     0.198 A 
ATOM     44  C   UNL A   1      39.436  34.083  36.751  1.00  0.00     0.198 A 
ATOM     45  F   UNL A   1      40.691  33.760  34.787  1.00  0.00    -0.203 F 
ATOM     46  F   UNL A   1      37.187  31.855  38.512  1.00  0.00    -0.200 F 
ATOM     47  C   UNL A   1      38.546  33.607  37.701  1.00  0.00     0.200 A 
ATOM     48  F   UNL A   1      39.910  35.333  36.846  1.00  0.00    -0.200 F 
ATOM     49  F   UNL A   1      38.144  34.402  38.703  1.00  0.00    -0.200 F 
ENDBRANCH  25  39
BRANCH  26  50
ATOM     50  C   UNL A   1      42.346  26.381  27.846  1.00  0.00     0.064 A 
ATOM     51  C   UNL A   1      41.871  25.078  27.648  1.00  0.00     0.173 A 
ATOM     52  C   UNL A   1      43.235  26.906  26.896  1.00  0.00     0.173 A 
ATOM     53  F   UNL A   1      41.033  24.529  28.540  1.00  0.00    -0.203 F 
ATOM     54  C   UNL A   1      42.277  24.326  26.548  1.00  0.00     0.198 A 
ATOM     55  C   UNL A   1      43.617  26.163  25.782  1.00  0.00     0.198 A 
ATOM     56  F   UNL A   1      43.712  28.151  27.039  1.00  0.00    -0.203 F 
ATOM     57  F   UNL A   1      41.834  23.070  26.399  1.00  0.00    -0.200 F 
ATOM     58  C   UNL A   1      43.142  24.873  25.612  1.00  0.00     0.200 A 
ATOM     59  F   UNL A   1      44.440  26.701  24.870  1.00  0.00    -0.200 F 
ATOM     60  F   UNL A   1      43.521  24.153  24.547  1.00  0.00    -0.200 F 
ENDBRANCH  26  50
BRANCH  38  61
ATOM     61  C   UNL A   1      44.960  27.606  34.188  1.00  0.00     0.064 A 
ATOM     62  C   UNL A   1      46.166  28.318  34.140  1.00  0.00     0.173 A 
ATOM     63  C   UNL A   1      44.923  26.423  34.944  1.00  0.00     0.173 A 
ATOM     64  F   UNL A   1      46.256  29.444  33.416  1.00  0.00    -0.203 F 
ATOM     65  C   UNL A   1      47.299  27.852  34.802  1.00  0.00     0.198 A 
ATOM     66  C   UNL A   1      46.048  25.976  35.628  1.00  0.00     0.198 A 
ATOM     67  F   UNL A   1      43.791  25.708  35.025  1.00  0.00    -0.203 F 
ATOM     68  F   UNL A   1      48.454  28.524  34.704  1.00  0.00    -0.200 F 
ATOM     69  C   UNL A   1      47.237  26.686  35.551  1.00  0.00     0.200 A 
ATOM     70  F   UNL A   1      45.985  24.854  36.359  1.00  0.00    -0.200 F 
ATOM     71  F   UNL A   1      48.326  26.242  36.192  1.00  0.00    -0.200 F 
ENDBRANCH  38  61
ENDBRANCH  12  13
ENDBRANCH   5   7
ENDBRANCH   2   3
ENDBRANCH   1   2
BRANCH   1  72
ATOM     72  C   UNL A   1      32.067  27.120  26.363  1.00  0.00     0.023 C 
BRANCH  72  73
ATOM     73  C   UNL A   1      30.837  26.224  26.270  1.00  0.00     0.116 C 
BRANCH  73  74
ATOM     74  N   UNL A   1      30.938  25.232  25.213  1.00  0.00    -0.351 N 
ATOM     75  C   UNL A   1      30.620  25.369  23.878  1.00  0.00     0.269 C 
ATOM     76  H   UNL A   1      31.275  24.348  25.486  1.00  0.00     0.163 HD
ATOM     77  O   UNL A   1      30.731  24.409  23.121  1.00  0.00    -0.268 OA
BRANCH  75  78
ATOM     78  C   UNL A   1      30.171  26.695  23.377  1.00  0.00     0.128 A 
ATOM     79  C   UNL A   1      31.101  27.567  22.828  1.00  0.00     0.035 A 
ATOM     80  N   UNL A   1      28.867  27.002  23.570  1.00  0.00    -0.250 NA
ATOM     81  C   UNL A   1      30.678  28.853  22.503  1.00  0.00     0.013 A 
ATOM     82  C   UNL A   1      28.488  28.251  23.213  1.00  0.00     0.120 A 
ATOM     83  C   UNL A   1      29.343  29.232  22.702  1.00  0.00     0.000 A 
BRANCH  83  84
ATOM     84  C   UNL A   1      28.880  30.598  22.417  1.00  0.00    -0.014 A 
ATOM     85  C   UNL A   1      28.382  30.949  21.156  1.00  0.00     0.029 A 
ATOM     86  C   UNL A   1      28.947  31.603  23.390  1.00  0.00     0.029 A 
ATOM     87  C   UNL A   1      27.985  32.258  20.929  1.00  0.00     0.111 A 
ATOM     88  C   UNL A   1      28.528  32.885  23.068  1.00  0.00     0.111 A 
ATOM     89  N   UNL A   1      28.050  33.234  21.857  1.00  0.00    -0.265 NA
ENDBRANCH  83  84
ENDBRANCH  75  78
ENDBRANCH  73  74
ENDBRANCH  72  73
ENDBRANCH   1  72
TORSDOF 12
ENDMDL
MODEL 3
REMARK VINA RESULT:     -11.5      4.188      7.360
REMARK SMILES O=C(NCCCCNC(=O)c1ccc(-c2ccncc2)cn1)c1ccc(-c2c3nc(c(-c4c(F)c(F)c(F)c(F)c4F)c4ccc([nH]4)c(-c4c(F)c(F)c(F)c(F)c4F)c4nc(c(-c5c(F)c(F)c(F)c(F)c5F)c5ccc2[nH]5)C=C4)C=C3)cc1
REMARK SMILES IDX 5 1 4 2 3 3 1 4 2 5 23 7 24 8 85 9 25 10 84 11 26 12 27 13
REMARK SMILES IDX 28 14 78 15 29 16 83 17 77 18 79 19 30 20 82 21 76 22 75 23
REMARK SMILES IDX 31 25 63 26 43 27 62 28 44 29 47 30 61 31 80 32 45 33 46 34
REMARK SMILES IDX 60 36 81 37 48 38 32 39 33 40 41 41 34 42 35 43 39 44 42 45
REMARK SMILES IDX 36 46 37 47 40 48 38 49 64 50 65 51 73 52 66 53 67 54 71 55
REMARK SMILES IDX 74 56 68 57 69 58 72 59 70 60 49 61 50 62 58 63 51 64 52 65
REMARK SMILES IDX 56 66 59 67 53 68 54 69 57 70 55 71 6 72 7 73 8 74 9 75
REMARK SMILES IDX 10 77 11 78 12 79 22 80 13 81 21 82 14 83 15 84 16 85 20 86
REMARK SMILES IDX 17 87 19 88 18 89
REMARK H PARENT 3 6 79 24 47 35 8 76
REMARK Flexibility Score: inf
ROOT
ATOM      1  C   UNL A   1      31.795  28.481  26.430  1.00  0.00     0.023 C 
ENDROOT
BRANCH   1   2
ATOM      2  C   UNL A   1      32.858  29.448  25.923  1.00  0.00     0.116 C 
BRANCH   2   3
ATOM      3  N   UNL A   1      32.579  30.834  26.268  1.00  0.00    -0.352 N 
ATOM      4  O   UNL A   1      32.771  32.775  27.398  1.00  0.00    -0.269 OA
ATOM      5  C   UNL A   1      33.238  31.670  27.135  1.00  0.00     0.251 C 
ATOM      6  H   UNL A   1      31.801  31.229  25.812  1.00  0.00     0.163 HD
BRANCH   5   7
ATOM      7  C   UNL A   1      34.496  31.232  27.777  1.00  0.00     0.039 A 
ATOM      8  C   UNL A   1      34.654  29.920  28.224  1.00  0.00     0.014 A 
ATOM      9  C   UNL A   1      35.534  32.155  27.930  1.00  0.00     0.014 A 
ATOM     10  C   UNL A   1      35.782  29.571  28.959  1.00  0.00     0.010 A 
ATOM     11  C   UNL A   1      36.705  31.779  28.595  1.00  0.00     0.010 A 
ATOM     12  C   UNL A   1      36.823  30.494  29.147  1.00  0.00    -0.014 A 
BRANCH  12  13
ATOM     13  C   UNL A   1      38.043  30.086  29.887  1.00  0.00     0.031 A 
ATOM     14  C   UNL A   1      38.299  30.572  31.286  1.00  0.00     0.074 A 
ATOM     15  C   UNL A   1      38.919  29.257  29.289  1.00  0.00     0.049 A 
ATOM     16  N   UNL A   1      39.319  30.330  32.071  1.00  0.00    -0.248 NA
ATOM     17  C   UNL A   1      37.282  31.452  31.881  1.00  0.00     0.031 C 
ATOM     18  C   UNL A   1      38.781  28.724  27.933  1.00  0.00     0.029 A 
ATOM     19  N   UNL A   1      40.092  28.711  29.744  1.00  0.00    -0.354 N 
ATOM     20  C   UNL A   1      39.078  31.039  33.240  1.00  0.00     0.074 A 
ATOM     21  C   UNL A   1      37.827  31.743  33.054  1.00  0.00     0.031 C 
ATOM     22  C   UNL A   1      39.810  27.904  27.676  1.00  0.00     0.029 A 
ATOM     23  C   UNL A   1      40.709  27.899  28.824  1.00  0.00     0.049 A 
ATOM     24  H   UNL A   1      40.457  28.885  30.642  1.00  0.00     0.167 HD
ATOM     25  C   UNL A   1      39.831  31.092  34.366  1.00  0.00     0.037 A 
ATOM     26  C   UNL A   1      41.880  27.239  28.889  1.00  0.00     0.037 A 
ATOM     27  C   UNL A   1      41.067  30.375  34.552  1.00  0.00     0.049 A 
ATOM     28  C   UNL A   1      42.705  27.335  30.140  1.00  0.00     0.074 A 
ATOM     29  C   UNL A   1      41.882  30.332  35.669  1.00  0.00     0.029 A 
ATOM     30  N   UNL A   1      41.670  29.578  33.588  1.00  0.00    -0.354 N 
ATOM     31  N   UNL A   1      42.452  27.985  31.249  1.00  0.00    -0.248 NA
ATOM     32  C   UNL A   1      43.981  26.607  30.146  1.00  0.00     0.031 C 
ATOM     33  C   UNL A   1      43.001  29.548  35.368  1.00  0.00     0.029 A 
ATOM     34  C   UNL A   1      42.859  29.059  34.080  1.00  0.00     0.049 A 
ATOM     35  H   UNL A   1      41.308  29.406  32.690  1.00  0.00     0.167 HD
ATOM     36  C   UNL A   1      43.524  27.730  32.092  1.00  0.00     0.074 A 
ATOM     37  C   UNL A   1      44.422  26.853  31.371  1.00  0.00     0.031 C 
ATOM     38  C   UNL A   1      43.741  28.185  33.350  1.00  0.00     0.037 A 
BRANCH  25  39
ATOM     39  C   UNL A   1      39.349  31.969  35.485  1.00  0.00     0.064 A 
ATOM     40  C   UNL A   1      38.470  31.496  36.471  1.00  0.00     0.173 A 
ATOM     41  C   UNL A   1      39.806  33.293  35.597  1.00  0.00     0.173 A 
ATOM     42  F   UNL A   1      37.995  30.243  36.406  1.00  0.00    -0.203 F 
ATOM     43  C   UNL A   1      38.047  32.320  37.511  1.00  0.00     0.198 A 
ATOM     44  C   UNL A   1      39.403  34.105  36.653  1.00  0.00     0.198 A 
ATOM     45  F   UNL A   1      40.654  33.793  34.686  1.00  0.00    -0.203 F 
ATOM     46  F   UNL A   1      37.173  31.860  38.417  1.00  0.00    -0.200 F 
ATOM     47  C   UNL A   1      38.519  33.622  37.605  1.00  0.00     0.200 A 
ATOM     48  F   UNL A   1      39.869  35.358  36.749  1.00  0.00    -0.200 F 
ATOM     49  F   UNL A   1      38.115  34.412  38.610  1.00  0.00    -0.200 F 
ENDBRANCH  25  39
BRANCH  26  50
ATOM     50  C   UNL A   1      42.330  26.435  27.727  1.00  0.00     0.064 A 
ATOM     51  C   UNL A   1      43.259  26.946  26.811  1.00  0.00     0.173 A 
ATOM     52  C   UNL A   1      41.863  25.127  27.524  1.00  0.00     0.173 A 
ATOM     53  F   UNL A   1      43.719  28.198  26.953  1.00  0.00    -0.203 F 
ATOM     54  C   UNL A   1      43.698  26.184  25.731  1.00  0.00     0.198 A 
ATOM     55  C   UNL A   1      42.325  24.355  26.461  1.00  0.00     0.198 A 
ATOM     56  F   UNL A   1      40.978  24.591  28.377  1.00  0.00    -0.203 F 
ATOM     57  F   UNL A   1      44.562  26.708  24.851  1.00  0.00    -0.200 F 
ATOM     58  C   UNL A   1      43.236  24.886  25.562  1.00  0.00     0.200 A 
ATOM     59  F   UNL A   1      41.890  23.096  26.312  1.00  0.00    -0.200 F 
ATOM     60  F   UNL A   1      43.669  24.148  24.531  1.00  0.00    -0.200 F 
ENDBRANCH  26  50
BRANCH  38  61
ATOM     61  C   UNL A   1      44.990  27.716  34.038  1.00  0.00     0.064 A 
ATOM     62  C   UNL A   1      46.186  28.443  33.969  1.00  0.00     0.173 A 
ATOM     63  C   UNL A   1      44.978  26.538  34.803  1.00  0.00     0.173 A 
ATOM     64  F   UNL A   1      46.253  29.565  33.236  1.00  0.00    -0.203 F 
ATOM     65  C   UNL A   1      47.333  27.997  34.621  1.00  0.00     0.198 A 
ATOM     66  C   UNL A   1      46.118  26.111  35.476  1.00  0.00     0.198 A 
ATOM     67  F   UNL A   1      43.857  25.809  34.903  1.00  0.00    -0.203 F 
ATOM     68  F   UNL A   1      48.478  28.683  34.503  1.00  0.00    -0.200 F 
ATOM     69  C   UNL A   1      47.296  26.836  35.379  1.00  0.00     0.200 A 
ATOM     70  F   UNL A   1      46.077  24.994  36.216  1.00  0.00    -0.200 F 
ATOM     71  F   UNL A   1      48.399  26.411  36.010  1.00  0.00    -0.200 F 
ENDBRANCH  38  61
ENDBRANCH  12  13
ENDBRANCH   5   7
ENDBRANCH   2   3
ENDBRANCH   1   2
BRANCH   1  72
ATOM     72  C   UNL A   1      32.199  27.008  26.432  1.00  0.00     0.023 C 
BRANCH  72  73
ATOM     73  C   UNL A   1      31.063  26.018  26.196  1.00  0.00     0.116 C 
BRANCH  73  74
ATOM     74  N   UNL A   1      31.227  25.248  24.975  1.00  0.00    -0.351 N 
ATOM     75  C   UNL A   1      30.885  25.603  23.687  1.00  0.00     0.269 C 
ATOM     76  H   UNL A   1      31.635  24.358  25.080  1.00  0.00     0.163 HD
ATOM     77  O   UNL A   1      31.060  24.811  22.766  1.00  0.00    -0.268 OA
BRANCH  75  78
ATOM     78  C   UNL A   1      30.329  26.960  23.437  1.00  0.00     0.128 A 
ATOM     79  C   UNL A   1      28.961  27.167  23.549  1.00  0.00     0.035 A 
ATOM     80  N   UNL A   1      31.207  27.905  23.027  1.00  0.00    -0.250 NA
ATOM     81  C   UNL A   1      28.455  28.408  23.169  1.00  0.00     0.013 A 
ATOM     82  C   UNL A   1      30.680  29.106  22.696  1.00  0.00     0.120 A 
ATOM     83  C   UNL A   1      29.318  29.417  22.716  1.00  0.00     0.000 A 
BRANCH  83  84
ATOM     84  C   UNL A   1      28.807  30.717  22.259  1.00  0.00    -0.014 A 
ATOM     85  C   UNL A   1      28.323  30.891  20.956  1.00  0.00     0.029 A 
ATOM     86  C   UNL A   1      28.812  31.835  23.103  1.00  0.00     0.029 A 
ATOM     87  C   UNL A   1      27.879  32.145  20.564  1.00  0.00     0.111 A 
ATOM     88  C   UNL A   1      28.348  33.049  22.620  1.00  0.00     0.111 A 
ATOM     89  N   UNL A   1      27.883  33.227  21.367  1.00  0.00    -0.265 NA
ENDBRANCH  83  84
ENDBRANCH  75  78
ENDBRANCH  73  74
ENDBRANCH  72  73
ENDBRANCH   1  72
TORSDOF 12
ENDMDL
