MODEL 1
REMARK VINA RESULT:     -13.5      0.000      0.000
REMARK SMILES O=C(NCCCCNC(=O)c1nnn(-c2ccccc2C(F)(F)F)c1-c1cccc(Cl)c1)c1ccc(-c2c3nc(c(-c4c(F)c(F)c(F)c(F)c4F)c4ccc([nH]4)c(-c4c(F)c(F)c(F)c(F)c4F)c4nc(c(-c5c(F)c(F)c(F)c(F)c5F)c5ccc2[nH]5)C=C4)C=C3)cc1
REMARK SMILES IDX 5 1 4 2 3 3 1 4 2 5 33 7 34 8 95 9 35 10 94 11 36 12 37 13
REMARK SMILES IDX 38 14 88 15 39 16 93 17 87 18 89 19 40 20 92 21 86 22 85 23
REMARK SMILES IDX 41 25 73 26 53 27 72 28 54 29 57 30 71 31 90 32 55 33 56 34
REMARK SMILES IDX 70 36 91 37 58 38 42 39 43 40 51 41 44 42 45 43 49 44 52 45
REMARK SMILES IDX 46 46 47 47 50 48 48 49 74 50 75 51 83 52 76 53 77 54 81 55
REMARK SMILES IDX 84 56 78 57 79 58 82 59 80 60 59 61 60 62 68 63 61 64 62 65
REMARK SMILES IDX 66 66 69 67 63 68 64 69 67 70 65 71 6 72 7 73 8 74 9 75
REMARK SMILES IDX 10 77 11 78 12 79 25 80 13 81 14 82 26 83 27 84 32 85 28 86
REMARK SMILES IDX 30 87 29 88 31 89 15 90 16 91 20 92 17 93 19 94 18 95 21 96
REMARK SMILES IDX 22 97 23 98 24 99
REMARK H PARENT 3 6 89 24 57 35 8 76
REMARK Flexibility Score: inf
ROOT
ATOM      1  C   UNL A   1      36.061  21.087  25.087  1.00  0.00     0.023 C 
ENDROOT
BRANCH   1   2
ATOM      2  C   UNL A   1      37.221  21.940  25.612  1.00  0.00     0.116 C 
BRANCH   2   3
ATOM      3  N   UNL A   1      38.504  21.271  25.718  1.00  0.00    -0.352 N 
ATOM      4  O   UNL A   1      40.554  20.687  26.328  1.00  0.00    -0.269 OA
ATOM      5  C   UNL A   1      39.704  21.580  26.301  1.00  0.00     0.251 C 
ATOM      6  H   UNL A   1      38.515  20.395  25.270  1.00  0.00     0.163 HD
BRANCH   5   7
ATOM      7  C   UNL A   1      40.064  22.921  26.835  1.00  0.00     0.039 A 
ATOM      8  C   UNL A   1      39.443  24.116  26.476  1.00  0.00     0.014 A 
ATOM      9  C   UNL A   1      41.111  22.965  27.776  1.00  0.00     0.014 A 
ATOM     10  C   UNL A   1      39.921  25.333  26.950  1.00  0.00     0.010 A 
ATOM     11  C   UNL A   1      41.561  24.177  28.294  1.00  0.00     0.010 A 
ATOM     12  C   UNL A   1      40.982  25.367  27.856  1.00  0.00    -0.014 A 
BRANCH  12  13
ATOM     13  C   UNL A   1      41.301  26.660  28.465  1.00  0.00     0.031 A 
ATOM     14  C   UNL A   1      42.534  27.312  27.938  1.00  0.00     0.074 A 
ATOM     15  C   UNL A   1      40.497  27.323  29.317  1.00  0.00     0.049 A 
ATOM     16  N   UNL A   1      43.554  27.754  28.602  1.00  0.00    -0.248 NA
ATOM     17  C   UNL A   1      42.671  27.435  26.477  1.00  0.00     0.031 C 
ATOM     18  C   UNL A   1      39.130  26.960  29.689  1.00  0.00     0.029 A 
ATOM     19  N   UNL A   1      40.687  28.531  29.938  1.00  0.00    -0.354 N 
ATOM     20  C   UNL A   1      44.384  28.364  27.662  1.00  0.00     0.074 A 
ATOM     21  C   UNL A   1      43.855  28.036  26.366  1.00  0.00     0.031 C 
ATOM     22  C   UNL A   1      38.540  28.019  30.283  1.00  0.00     0.029 A 
ATOM     23  C   UNL A   1      39.517  29.087  30.433  1.00  0.00     0.049 A 
ATOM     24  H   UNL A   1      41.569  28.961  30.025  1.00  0.00     0.167 HD
ATOM     25  C   UNL A   1      45.298  29.300  28.032  1.00  0.00     0.037 A 
ATOM     26  C   UNL A   1      39.328  30.354  30.873  1.00  0.00     0.037 A 
ATOM     27  C   UNL A   1      45.596  29.229  29.437  1.00  0.00     0.049 A 
ATOM     28  C   UNL A   1      40.638  30.934  31.248  1.00  0.00     0.074 A 
ATOM     29  C   UNL A   1      46.264  28.373  30.284  1.00  0.00     0.029 A 
ATOM     30  N   UNL A   1      44.892  30.099  30.220  1.00  0.00    -0.354 N 
ATOM     31  N   UNL A   1      41.333  30.571  32.288  1.00  0.00    -0.248 NA
ATOM     32  C   UNL A   1      41.330  31.815  30.314  1.00  0.00     0.031 C 
ATOM     33  C   UNL A   1      45.734  28.614  31.588  1.00  0.00     0.029 A 
ATOM     34  C   UNL A   1      44.758  29.603  31.486  1.00  0.00     0.049 A 
ATOM     35  H   UNL A   1      44.531  30.962  29.915  1.00  0.00     0.167 HD
ATOM     36  C   UNL A   1      42.643  30.812  31.925  1.00  0.00     0.074 A 
ATOM     37  C   UNL A   1      42.564  31.753  30.821  1.00  0.00     0.031 C 
ATOM     38  C   UNL A   1      43.634  29.962  32.319  1.00  0.00     0.037 A 
BRANCH  25  39
ATOM     39  C   UNL A   1      45.549  30.585  27.262  1.00  0.00     0.064 A 
ATOM     40  C   UNL A   1      46.883  30.946  26.968  1.00  0.00     0.173 A 
ATOM     41  C   UNL A   1      44.601  31.626  27.146  1.00  0.00     0.173 A 
ATOM     42  F   UNL A   1      47.870  30.041  27.053  1.00  0.00    -0.203 F 
ATOM     43  C   UNL A   1      47.249  32.268  26.696  1.00  0.00     0.198 A 
ATOM     44  C   UNL A   1      44.966  32.932  26.822  1.00  0.00     0.198 A 
ATOM     45  F   UNL A   1      43.312  31.455  27.458  1.00  0.00    -0.203 F 
ATOM     46  F   UNL A   1      48.545  32.588  26.573  1.00  0.00    -0.200 F 
ATOM     47  C   UNL A   1      46.291  33.262  26.636  1.00  0.00     0.200 A 
ATOM     48  F   UNL A   1      44.025  33.888  26.786  1.00  0.00    -0.200 F 
ATOM     49  F   UNL A   1      46.646  34.541  26.455  1.00  0.00    -0.200 F 
ENDBRANCH  25  39
BRANCH  26  50
ATOM     50  C   UNL A   1      38.089  31.168  30.860  1.00  0.00     0.064 A 
ATOM     51  C   UNL A   1      37.447  31.495  29.654  1.00  0.00     0.173 A 
ATOM     52  C   UNL A   1      37.370  31.437  32.042  1.00  0.00     0.173 A 
ATOM     53  F   UNL A   1      38.036  31.230  28.479  1.00  0.00    -0.203 F 
ATOM     54  C   UNL A   1      36.159  32.036  29.630  1.00  0.00     0.198 A 
ATOM     55  C   UNL A   1      36.092  31.996  32.018  1.00  0.00     0.198 A 
ATOM     56  F   UNL A   1      37.852  31.079  33.241  1.00  0.00    -0.203 F 
ATOM     57  F   UNL A   1      35.554  32.268  28.457  1.00  0.00    -0.200 F 
ATOM     58  C   UNL A   1      35.480  32.281  30.812  1.00  0.00     0.200 A 
ATOM     59  F   UNL A   1      35.436  32.200  33.169  1.00  0.00    -0.200 F 
ATOM     60  F   UNL A   1      34.226  32.751  30.789  1.00  0.00    -0.200 F 
ENDBRANCH  26  50
BRANCH  38  61
ATOM     61  C   UNL A   1      43.413  29.198  33.585  1.00  0.00     0.064 A 
ATOM     62  C   UNL A   1      43.747  29.668  34.864  1.00  0.00     0.173 A 
ATOM     63  C   UNL A   1      42.791  27.944  33.491  1.00  0.00     0.173 A 
ATOM     64  F   UNL A   1      44.252  30.897  35.040  1.00  0.00    -0.203 F 
ATOM     65  C   UNL A   1      43.530  28.882  35.993  1.00  0.00     0.198 A 
ATOM     66  C   UNL A   1      42.536  27.181  34.624  1.00  0.00     0.198 A 
ATOM     67  F   UNL A   1      42.404  27.471  32.296  1.00  0.00    -0.203 F 
ATOM     68  F   UNL A   1      43.894  29.330  37.204  1.00  0.00    -0.200 F 
ATOM     69  C   UNL A   1      42.923  27.640  35.872  1.00  0.00     0.200 A 
ATOM     70  F   UNL A   1      41.908  26.003  34.507  1.00  0.00    -0.200 F 
ATOM     71  F   UNL A   1      42.693  26.895  36.962  1.00  0.00    -0.200 F 
ENDBRANCH  38  61
ENDBRANCH  12  13
ENDBRANCH   5   7
ENDBRANCH   2   3
ENDBRANCH   1   2
BRANCH   1  72
ATOM     72  C   UNL A   1      34.803  21.850  24.676  1.00  0.00     0.023 C 
BRANCH  72  73
ATOM     73  C   UNL A   1      34.581  23.168  25.400  1.00  0.00     0.116 C 
BRANCH  73  74
ATOM     74  N   UNL A   1      33.630  23.074  26.488  1.00  0.00    -0.351 N 
ATOM     75  C   UNL A   1      32.361  23.614  26.572  1.00  0.00     0.274 C 
ATOM     76  H   UNL A   1      33.927  22.556  27.271  1.00  0.00     0.163 HD
ATOM     77  O   UNL A   1      31.734  23.468  27.607  1.00  0.00    -0.267 OA
BRANCH  75  78
ATOM     78  C   UNL A   1      31.826  24.345  25.430  1.00  0.00     0.178 A 
ATOM     79  N   UNL A   1      31.215  23.691  24.391  1.00  0.00    -0.124 NA
ATOM     80  C   UNL A   1      31.778  25.716  25.202  1.00  0.00     0.108 A 
ATOM     81  N   UNL A   1      30.731  24.597  23.555  1.00  0.00    -0.061 NA
ATOM     82  N   UNL A   1      31.183  25.807  23.948  1.00  0.00    -0.211 N 
BRANCH  80  83
ATOM     83  C   UNL A   1      32.119  26.852  26.058  1.00  0.00     0.004 A 
ATOM     84  C   UNL A   1      31.124  27.452  26.851  1.00  0.00     0.010 A 
ATOM     85  C   UNL A   1      33.435  27.312  26.150  1.00  0.00     0.031 A 
ATOM     86  C   UNL A   1      31.439  28.502  27.715  1.00  0.00     0.002 A 
ATOM     87  C   UNL A   1      33.740  28.371  27.007  1.00  0.00     0.041 A 
ATOM     88  C   UNL A   1      32.750  28.965  27.790  1.00  0.00     0.020 A 
ATOM     89  Cl  UNL A   1      35.358  28.949  27.106  1.00  0.00    -0.084 Cl
ENDBRANCH  80  83
BRANCH  82  90
ATOM     90  C   UNL A   1      30.853  26.979  23.230  1.00  0.00     0.079 A 
ATOM     91  C   UNL A   1      29.532  27.444  23.342  1.00  0.00     0.029 A 
ATOM     92  C   UNL A   1      31.821  27.722  22.525  1.00  0.00     0.081 A 
ATOM     93  C   UNL A   1      29.195  28.702  22.845  1.00  0.00     0.002 A 
ATOM     94  C   UNL A   1      31.455  28.992  22.044  1.00  0.00     0.015 A 
ATOM     95  C   UNL A   1      30.161  29.484  22.217  1.00  0.00     0.001 A 
BRANCH  92  96
ATOM     96  C   UNL A   1      33.199  27.211  22.164  1.00  0.00     0.418 C 
ATOM     97  F   UNL A   1      33.962  28.177  21.578  1.00  0.00    -0.166 F 
ATOM     98  F   UNL A   1      33.904  26.803  23.254  1.00  0.00    -0.166 F 
ATOM     99  F   UNL A   1      33.211  26.169  21.292  1.00  0.00    -0.166 F 
ENDBRANCH  92  96
ENDBRANCH  82  90
ENDBRANCH  75  78
ENDBRANCH  73  74
ENDBRANCH  72  73
ENDBRANCH   1  72
TORSDOF 14
ENDMDL
MODEL 2
REMARK VINA RESULT:     -13.3      3.471      7.272
REMARK SMILES O=C(NCCCCNC(=O)c1nnn(-c2ccccc2C(F)(F)F)c1-c1cccc(Cl)c1)c1ccc(-c2c3nc(c(-c4c(F)c(F)c(F)c(F)c4F)c4ccc([nH]4)c(-c4c(F)c(F)c(F)c(F)c4F)c4nc(c(-c5c(F)c(F)c(F)c(F)c5F)c5ccc2[nH]5)C=C4)C=C3)cc1
REMARK SMILES IDX 5 1 4 2 3 3 1 4 2 5 33 7 34 8 95 9 35 10 94 11 36 12 37 13
REMARK SMILES IDX 38 14 88 15 39 16 93 17 87 18 89 19 40 20 92 21 86 22 85 23
REMARK SMILES IDX 41 25 73 26 53 27 72 28 54 29 57 30 71 31 90 32 55 33 56 34
REMARK SMILES IDX 70 36 91 37 58 38 42 39 43 40 51 41 44 42 45 43 49 44 52 45
REMARK SMILES IDX 46 46 47 47 50 48 48 49 74 50 75 51 83 52 76 53 77 54 81 55
REMARK SMILES IDX 84 56 78 57 79 58 82 59 80 60 59 61 60 62 68 63 61 64 62 65
REMARK SMILES IDX 66 66 69 67 63 68 64 69 67 70 65 71 6 72 7 73 8 74 9 75
REMARK SMILES IDX 10 77 11 78 12 79 25 80 13 81 14 82 26 83 27 84 32 85 28 86
REMARK SMILES IDX 30 87 29 88 31 89 15 90 16 91 20 92 17 93 19 94 18 95 21 96
REMARK SMILES IDX 22 97 23 98 24 99
REMARK H PARENT 3 6 89 24 57 35 8 76
REMARK Flexibility Score: inf
ROOT
ATOM      1  C   UNL A   1      33.383  29.060  25.998  1.00  0.00     0.023 C 
ENDROOT
BRANCH   1   2
ATOM      2  C   UNL A   1      34.670  28.935  26.820  1.00  0.00     0.116 C 
BRANCH   2   3
ATOM      3  N   UNL A   1      34.771  29.803  27.978  1.00  0.00    -0.352 N 
ATOM      4  O   UNL A   1      35.536  31.127  29.583  1.00  0.00    -0.269 OA
ATOM      5  C   UNL A   1      35.805  30.257  28.752  1.00  0.00     0.251 C 
ATOM      6  H   UNL A   1      33.897  30.144  28.275  1.00  0.00     0.163 HD
BRANCH   5   7
ATOM      7  C   UNL A   1      37.195  29.729  28.699  1.00  0.00     0.039 A 
ATOM      8  C   UNL A   1      38.094  29.949  27.657  1.00  0.00     0.014 A 
ATOM      9  C   UNL A   1      37.617  28.952  29.796  1.00  0.00     0.014 A 
ATOM     10  C   UNL A   1      39.336  29.324  27.649  1.00  0.00     0.010 A 
ATOM     11  C   UNL A   1      38.880  28.364  29.817  1.00  0.00     0.010 A 
ATOM     12  C   UNL A   1      39.731  28.529  28.726  1.00  0.00    -0.014 A 
BRANCH  12  13
ATOM     13  C   UNL A   1      41.120  28.068  28.744  1.00  0.00     0.031 A 
ATOM     14  C   UNL A   1      41.359  26.774  28.043  1.00  0.00     0.074 A 
ATOM     15  C   UNL A   1      42.160  28.791  29.202  1.00  0.00     0.049 A 
ATOM     16  N   UNL A   1      41.936  25.709  28.500  1.00  0.00    -0.248 NA
ATOM     17  C   UNL A   1      40.835  26.632  26.674  1.00  0.00     0.031 C 
ATOM     18  C   UNL A   1      42.129  30.187  29.635  1.00  0.00     0.029 A 
ATOM     19  N   UNL A   1      43.491  28.467  29.262  1.00  0.00    -0.354 N 
ATOM     20  C   UNL A   1      42.003  24.821  27.426  1.00  0.00     0.074 A 
ATOM     21  C   UNL A   1      41.210  25.390  26.369  1.00  0.00     0.031 C 
ATOM     22  C   UNL A   1      43.393  30.656  29.701  1.00  0.00     0.029 A 
ATOM     23  C   UNL A   1      44.320  29.567  29.425  1.00  0.00     0.049 A 
ATOM     24  H   UNL A   1      43.826  27.543  29.195  1.00  0.00     0.167 HD
ATOM     25  C   UNL A   1      42.910  23.810  27.404  1.00  0.00     0.037 A 
ATOM     26  C   UNL A   1      45.665  29.615  29.281  1.00  0.00     0.037 A 
ATOM     27  C   UNL A   1      43.412  23.514  28.719  1.00  0.00     0.049 A 
ATOM     28  C   UNL A   1      46.215  28.248  29.430  1.00  0.00     0.074 A 
ATOM     29  C   UNL A   1      42.934  22.939  29.875  1.00  0.00     0.029 A 
ATOM     30  N   UNL A   1      44.598  24.115  29.030  1.00  0.00    -0.354 N 
ATOM     31  N   UNL A   1      46.259  27.591  30.554  1.00  0.00    -0.248 NA
ATOM     32  C   UNL A   1      46.541  27.468  28.241  1.00  0.00     0.031 C 
ATOM     33  C   UNL A   1      43.758  23.433  30.931  1.00  0.00     0.029 A 
ATOM     34  C   UNL A   1      44.703  24.296  30.380  1.00  0.00     0.049 A 
ATOM     35  H   UNL A   1      45.282  24.381  28.374  1.00  0.00     0.167 HD
ATOM     36  C   UNL A   1      46.190  26.265  30.179  1.00  0.00     0.074 A 
ATOM     37  C   UNL A   1      46.576  26.246  28.778  1.00  0.00     0.031 C 
ATOM     38  C   UNL A   1      45.493  25.370  30.935  1.00  0.00     0.037 A 
BRANCH  25  39
ATOM     39  C   UNL A   1      43.714  23.423  26.174  1.00  0.00     0.064 A 
ATOM     40  C   UNL A   1      43.729  22.069  25.776  1.00  0.00     0.173 A 
ATOM     41  C   UNL A   1      44.737  24.227  25.624  1.00  0.00     0.173 A 
ATOM     42  F   UNL A   1      42.810  21.209  26.242  1.00  0.00    -0.203 F 
ATOM     43  C   UNL A   1      44.754  21.541  24.985  1.00  0.00     0.198 A 
ATOM     44  C   UNL A   1      45.728  23.706  24.793  1.00  0.00     0.198 A 
ATOM     45  F   UNL A   1      44.894  25.512  25.962  1.00  0.00    -0.203 F 
ATOM     46  F   UNL A   1      44.809  20.221  24.760  1.00  0.00    -0.200 F 
ATOM     47  C   UNL A   1      45.760  22.358  24.506  1.00  0.00     0.200 A 
ATOM     48  F   UNL A   1      46.706  24.511  24.352  1.00  0.00    -0.200 F 
ATOM     49  F   UNL A   1      46.787  21.843  23.816  1.00  0.00    -0.200 F 
ENDBRANCH  25  39
BRANCH  26  50
ATOM     50  C   UNL A   1      46.517  30.758  28.874  1.00  0.00     0.064 A 
ATOM     51  C   UNL A   1      46.367  31.363  27.614  1.00  0.00     0.173 A 
ATOM     52  C   UNL A   1      47.329  31.441  29.800  1.00  0.00     0.173 A 
ATOM     53  F   UNL A   1      45.574  30.809  26.686  1.00  0.00    -0.203 F 
ATOM     54  C   UNL A   1      46.973  32.585  27.310  1.00  0.00     0.198 A 
ATOM     55  C   UNL A   1      47.951  32.650  29.488  1.00  0.00     0.198 A 
ATOM     56  F   UNL A   1      47.464  30.999  31.059  1.00  0.00    -0.203 F 
ATOM     57  F   UNL A   1      46.748  33.164  26.122  1.00  0.00    -0.200 F 
ATOM     58  C   UNL A   1      47.760  33.230  28.249  1.00  0.00     0.200 A 
ATOM     59  F   UNL A   1      48.685  33.278  30.418  1.00  0.00    -0.200 F 
ATOM     60  F   UNL A   1      48.299  34.426  27.975  1.00  0.00    -0.200 F 
ENDBRANCH  26  50
BRANCH  38  61
ATOM     61  C   UNL A   1      45.366  25.667  32.395  1.00  0.00     0.064 A 
ATOM     62  C   UNL A   1      46.337  25.351  33.357  1.00  0.00     0.173 A 
ATOM     63  C   UNL A   1      44.215  26.345  32.826  1.00  0.00     0.173 A 
ATOM     64  F   UNL A   1      47.504  24.794  33.005  1.00  0.00    -0.203 F 
ATOM     65  C   UNL A   1      46.129  25.641  34.704  1.00  0.00     0.198 A 
ATOM     66  C   UNL A   1      44.031  26.671  34.164  1.00  0.00     0.198 A 
ATOM     67  F   UNL A   1      43.279  26.716  31.938  1.00  0.00    -0.203 F 
ATOM     68  F   UNL A   1      47.051  25.294  35.615  1.00  0.00    -0.200 F 
ATOM     69  C   UNL A   1      44.978  26.302  35.106  1.00  0.00     0.200 A 
ATOM     70  F   UNL A   1      42.940  27.351  34.541  1.00  0.00    -0.200 F 
ATOM     71  F   UNL A   1      44.791  26.602  36.399  1.00  0.00    -0.200 F 
ENDBRANCH  38  61
ENDBRANCH  12  13
ENDBRANCH   5   7
ENDBRANCH   2   3
ENDBRANCH   1   2
BRANCH   1  72
ATOM     72  C   UNL A   1      32.079  28.818  26.755  1.00  0.00     0.023 C 
BRANCH  72  73
ATOM     73  C   UNL A   1      31.913  27.419  27.325  1.00  0.00     0.116 C 
BRANCH  73  74
ATOM     74  N   UNL A   1      30.741  26.730  26.828  1.00  0.00    -0.351 N 
ATOM     75  C   UNL A   1      30.630  25.425  26.386  1.00  0.00     0.274 C 
ATOM     76  H   UNL A   1      29.912  27.261  26.800  1.00  0.00     0.163 HD
ATOM     77  O   UNL A   1      29.558  25.048  25.948  1.00  0.00    -0.267 OA
BRANCH  75  78
ATOM     78  C   UNL A   1      31.798  24.556  26.450  1.00  0.00     0.178 A 
ATOM     79  N   UNL A   1      31.984  23.690  27.498  1.00  0.00    -0.124 NA
ATOM     80  C   UNL A   1      32.832  24.396  25.534  1.00  0.00     0.108 A 
ATOM     81  N   UNL A   1      33.055  22.953  27.245  1.00  0.00    -0.061 NA
ATOM     82  N   UNL A   1      33.656  23.458  26.147  1.00  0.00    -0.211 N 
BRANCH  80  83
ATOM     83  C   UNL A   1      33.023  24.933  24.187  1.00  0.00     0.004 A 
ATOM     84  C   UNL A   1      32.765  24.121  23.068  1.00  0.00     0.010 A 
ATOM     85  C   UNL A   1      33.397  26.265  23.991  1.00  0.00     0.031 A 
ATOM     86  C   UNL A   1      32.888  24.629  21.774  1.00  0.00     0.002 A 
ATOM     87  C   UNL A   1      33.531  26.763  22.694  1.00  0.00     0.041 A 
ATOM     88  C   UNL A   1      33.276  25.953  21.587  1.00  0.00     0.020 A 
ATOM     89  Cl  UNL A   1      34.010  28.398  22.454  1.00  0.00    -0.084 Cl
ENDBRANCH  80  83
BRANCH  82  90
ATOM     90  C   UNL A   1      34.850  22.894  25.642  1.00  0.00     0.079 A 
ATOM     91  C   UNL A   1      35.988  23.717  25.632  1.00  0.00     0.029 A 
ATOM     92  C   UNL A   1      34.938  21.537  25.273  1.00  0.00     0.081 A 
ATOM     93  C   UNL A   1      37.239  23.167  25.357  1.00  0.00     0.002 A 
ATOM     94  C   UNL A   1      36.215  21.007  25.010  1.00  0.00     0.015 A 
ATOM     95  C   UNL A   1      37.355  21.810  25.069  1.00  0.00     0.001 A 
BRANCH  92  96
ATOM     96  C   UNL A   1      33.748  20.631  25.042  1.00  0.00     0.418 C 
ATOM     97  F   UNL A   1      32.732  21.279  24.404  1.00  0.00    -0.166 F 
ATOM     98  F   UNL A   1      34.052  19.565  24.252  1.00  0.00    -0.166 F 
ATOM     99  F   UNL A   1      33.192  20.121  26.172  1.00  0.00    -0.166 F 
ENDBRANCH  92  96
ENDBRANCH  82  90
ENDBRANCH  75  78
ENDBRANCH  73  74
ENDBRANCH  72  73
ENDBRANCH   1  72
TORSDOF 14
ENDMDL
MODEL 3
REMARK VINA RESULT:     -13.2      1.573      2.308
REMARK SMILES O=C(NCCCCNC(=O)c1nnn(-c2ccccc2C(F)(F)F)c1-c1cccc(Cl)c1)c1ccc(-c2c3nc(c(-c4c(F)c(F)c(F)c(F)c4F)c4ccc([nH]4)c(-c4c(F)c(F)c(F)c(F)c4F)c4nc(c(-c5c(F)c(F)c(F)c(F)c5F)c5ccc2[nH]5)C=C4)C=C3)cc1
REMARK SMILES IDX 5 1 4 2 3 3 1 4 2 5 33 7 34 8 95 9 35 10 94 11 36 12 37 13
REMARK SMILES IDX 38 14 88 15 39 16 93 17 87 18 89 19 40 20 92 21 86 22 85 23
REMARK SMILES IDX 41 25 73 26 53 27 72 28 54 29 57 30 71 31 90 32 55 33 56 34
REMARK SMILES IDX 70 36 91 37 58 38 42 39 43 40 51 41 44 42 45 43 49 44 52 45
REMARK SMILES IDX 46 46 47 47 50 48 48 49 74 50 75 51 83 52 76 53 77 54 81 55
REMARK SMILES IDX 84 56 78 57 79 58 82 59 80 60 59 61 60 62 68 63 61 64 62 65
REMARK SMILES IDX 66 66 69 67 63 68 64 69 67 70 65 71 6 72 7 73 8 74 9 75
REMARK SMILES IDX 10 77 11 78 12 79 25 80 13 81 14 82 26 83 27 84 32 85 28 86
REMARK SMILES IDX 30 87 29 88 31 89 15 90 16 91 20 92 17 93 19 94 18 95 21 96
REMARK SMILES IDX 22 97 23 98 24 99
REMARK H PARENT 3 6 89 24 57 35 8 76
REMARK Flexibility Score: inf
ROOT
ATOM      1  C   UNL A   1      36.499  21.164  24.658  1.00  0.00     0.023 C 
ENDROOT
BRANCH   1   2
ATOM      2  C   UNL A   1      37.779  21.928  25.012  1.00  0.00     0.116 C 
BRANCH   2   3
ATOM      3  N   UNL A   1      38.817  21.158  25.671  1.00  0.00    -0.352 N 
ATOM      4  O   UNL A   1      40.389  20.471  27.074  1.00  0.00    -0.269 OA
ATOM      5  C   UNL A   1      39.754  21.430  26.631  1.00  0.00     0.251 C 
ATOM      6  H   UNL A   1      38.857  20.226  25.355  1.00  0.00     0.163 HD
BRANCH   5   7
ATOM      7  C   UNL A   1      40.094  22.795  27.117  1.00  0.00     0.039 A 
ATOM      8  C   UNL A   1      39.344  23.942  26.864  1.00  0.00     0.014 A 
ATOM      9  C   UNL A   1      41.263  22.915  27.892  1.00  0.00     0.014 A 
ATOM     10  C   UNL A   1      39.800  25.190  27.272  1.00  0.00     0.010 A 
ATOM     11  C   UNL A   1      41.700  24.157  28.348  1.00  0.00     0.010 A 
ATOM     12  C   UNL A   1      40.979  25.302  28.011  1.00  0.00    -0.014 A 
BRANCH  12  13
ATOM     13  C   UNL A   1      41.293  26.615  28.577  1.00  0.00     0.031 A 
ATOM     14  C   UNL A   1      42.523  27.256  28.027  1.00  0.00     0.074 A 
ATOM     15  C   UNL A   1      40.487  27.303  29.407  1.00  0.00     0.049 A 
ATOM     16  N   UNL A   1      43.541  27.724  28.674  1.00  0.00    -0.248 NA
ATOM     17  C   UNL A   1      42.657  27.331  26.563  1.00  0.00     0.031 C 
ATOM     18  C   UNL A   1      39.123  26.946  29.793  1.00  0.00     0.029 A 
ATOM     19  N   UNL A   1      40.673  28.531  29.988  1.00  0.00    -0.354 N 
ATOM     20  C   UNL A   1      44.368  28.306  27.715  1.00  0.00     0.074 A 
ATOM     21  C   UNL A   1      43.838  27.933  26.430  1.00  0.00     0.031 C 
ATOM     22  C   UNL A   1      38.528  28.021  30.353  1.00  0.00     0.029 A 
ATOM     23  C   UNL A   1      39.501  29.098  30.466  1.00  0.00     0.049 A 
ATOM     24  H   UNL A   1      41.553  28.967  30.060  1.00  0.00     0.167 HD
ATOM     25  C   UNL A   1      45.277  29.257  28.053  1.00  0.00     0.037 A 
ATOM     26  C   UNL A   1      39.307  30.378  30.865  1.00  0.00     0.037 A 
ATOM     27  C   UNL A   1      45.578  29.234  29.458  1.00  0.00     0.049 A 
ATOM     28  C   UNL A   1      40.615  30.976  31.219  1.00  0.00     0.074 A 
ATOM     29  C   UNL A   1      46.251  28.409  30.332  1.00  0.00     0.029 A 
ATOM     30  N   UNL A   1      44.871  30.126  30.213  1.00  0.00    -0.354 N 
ATOM     31  N   UNL A   1      41.312  30.650  32.269  1.00  0.00    -0.248 NA
ATOM     32  C   UNL A   1      41.302  31.829  30.256  1.00  0.00     0.031 C 
ATOM     33  C   UNL A   1      45.721  28.690  31.628  1.00  0.00     0.029 A 
ATOM     34  C   UNL A   1      44.741  29.671  31.495  1.00  0.00     0.049 A 
ATOM     35  H   UNL A   1      44.506  30.977  29.881  1.00  0.00     0.167 HD
ATOM     36  C   UNL A   1      42.620  30.884  31.897  1.00  0.00     0.074 A 
ATOM     37  C   UNL A   1      42.537  31.788  30.762  1.00  0.00     0.031 C 
ATOM     38  C   UNL A   1      43.616  30.053  32.317  1.00  0.00     0.037 A 
BRANCH  25  39
ATOM     39  C   UNL A   1      45.523  30.518  27.240  1.00  0.00     0.064 A 
ATOM     40  C   UNL A   1      46.856  30.917  27.000  1.00  0.00     0.173 A 
ATOM     41  C   UNL A   1      44.545  31.515  27.029  1.00  0.00     0.173 A 
ATOM     42  F   UNL A   1      47.870  30.056  27.176  1.00  0.00    -0.203 F 
ATOM     43  C   UNL A   1      47.187  32.240  26.689  1.00  0.00     0.198 A 
ATOM     44  C   UNL A   1      44.877  32.820  26.667  1.00  0.00     0.198 A 
ATOM     45  F   UNL A   1      43.248  31.307  27.282  1.00  0.00    -0.203 F 
ATOM     46  F   UNL A   1      48.475  32.605  26.620  1.00  0.00    -0.200 F 
ATOM     47  C   UNL A   1      46.198  33.192  26.536  1.00  0.00     0.200 A 
ATOM     48  F   UNL A   1      43.905  33.735  26.540  1.00  0.00    -0.200 F 
ATOM     49  F   UNL A   1      46.515  34.476  26.316  1.00  0.00    -0.200 F 
ENDBRANCH  25  39
BRANCH  26  50
ATOM     50  C   UNL A   1      38.064  31.186  30.827  1.00  0.00     0.064 A 
ATOM     51  C   UNL A   1      37.428  31.483  29.610  1.00  0.00     0.173 A 
ATOM     52  C   UNL A   1      37.337  31.477  31.998  1.00  0.00     0.173 A 
ATOM     53  F   UNL A   1      38.025  31.195  28.445  1.00  0.00    -0.203 F 
ATOM     54  C   UNL A   1      36.137  32.017  29.567  1.00  0.00     0.198 A 
ATOM     55  C   UNL A   1      36.056  32.030  31.954  1.00  0.00     0.198 A 
ATOM     56  F   UNL A   1      37.813  31.148  33.207  1.00  0.00    -0.203 F 
ATOM     57  F   UNL A   1      35.538  32.221  28.386  1.00  0.00    -0.200 F 
ATOM     58  C   UNL A   1      35.450  32.285  30.740  1.00  0.00     0.200 A 
ATOM     59  F   UNL A   1      35.393  32.255  33.097  1.00  0.00    -0.200 F 
ATOM     60  F   UNL A   1      34.194  32.749  30.698  1.00  0.00    -0.200 F 
ENDBRANCH  26  50
BRANCH  38  61
ATOM     61  C   UNL A   1      43.400  29.330  33.608  1.00  0.00     0.064 A 
ATOM     62  C   UNL A   1      43.745  29.837  34.869  1.00  0.00     0.173 A 
ATOM     63  C   UNL A   1      42.770  28.077  33.558  1.00  0.00     0.173 A 
ATOM     64  F   UNL A   1      44.259  31.067  35.003  1.00  0.00    -0.203 F 
ATOM     65  C   UNL A   1      43.532  29.087  36.024  1.00  0.00     0.198 A 
ATOM     66  C   UNL A   1      42.519  27.351  34.715  1.00  0.00     0.198 A 
ATOM     67  F   UNL A   1      42.372  27.569  32.380  1.00  0.00    -0.203 F 
ATOM     68  F   UNL A   1      43.907  29.571  37.217  1.00  0.00    -0.200 F 
ATOM     69  C   UNL A   1      42.918  27.846  35.946  1.00  0.00     0.200 A 
ATOM     70  F   UNL A   1      41.883  26.174  34.639  1.00  0.00    -0.200 F 
ATOM     71  F   UNL A   1      42.691  27.137  37.060  1.00  0.00    -0.200 F 
ENDBRANCH  38  61
ENDBRANCH  12  13
ENDBRANCH   5   7
ENDBRANCH   2   3
ENDBRANCH   1   2
BRANCH   1  72
ATOM     72  C   UNL A   1      35.217  21.995  24.605  1.00  0.00     0.023 C 
BRANCH  72  73
ATOM     73  C   UNL A   1      35.292  23.243  23.741  1.00  0.00     0.116 C 
BRANCH  73  74
ATOM     74  N   UNL A   1      34.407  23.204  22.596  1.00  0.00    -0.351 N 
ATOM     75  C   UNL A   1      33.577  24.198  22.114  1.00  0.00     0.274 C 
ATOM     76  H   UNL A   1      34.395  22.357  22.093  1.00  0.00     0.163 HD
ATOM     77  O   UNL A   1      32.860  23.947  21.161  1.00  0.00    -0.267 OA
BRANCH  75  78
ATOM     78  C   UNL A   1      33.580  25.501  22.768  1.00  0.00     0.178 A 
ATOM     79  N   UNL A   1      34.058  26.616  22.127  1.00  0.00    -0.124 NA
ATOM     80  C   UNL A   1      33.101  25.862  24.022  1.00  0.00     0.108 A 
ATOM     81  N   UNL A   1      33.840  27.668  22.902  1.00  0.00    -0.061 NA
ATOM     82  N   UNL A   1      33.401  27.218  24.097  1.00  0.00    -0.211 N 
BRANCH  80  83
ATOM     83  C   UNL A   1      32.342  25.110  25.021  1.00  0.00     0.004 A 
ATOM     84  C   UNL A   1      30.937  25.175  25.026  1.00  0.00     0.010 A 
ATOM     85  C   UNL A   1      32.991  24.274  25.934  1.00  0.00     0.031 A 
ATOM     86  C   UNL A   1      30.193  24.423  25.936  1.00  0.00     0.002 A 
ATOM     87  C   UNL A   1      32.240  23.535  26.850  1.00  0.00     0.041 A 
ATOM     88  C   UNL A   1      30.846  23.605  26.853  1.00  0.00     0.020 A 
ATOM     89  Cl  UNL A   1      33.039  22.520  27.986  1.00  0.00    -0.084 Cl
ENDBRANCH  80  83
BRANCH  82  90
ATOM     90  C   UNL A   1      33.106  28.113  25.150  1.00  0.00     0.079 A 
ATOM     91  C   UNL A   1      33.961  28.088  26.265  1.00  0.00     0.029 A 
ATOM     92  C   UNL A   1      32.076  29.069  25.053  1.00  0.00     0.081 A 
ATOM     93  C   UNL A   1      33.864  29.084  27.235  1.00  0.00     0.002 A 
ATOM     94  C   UNL A   1      32.008  30.068  26.043  1.00  0.00     0.015 A 
ATOM     95  C   UNL A   1      32.904  30.084  27.113  1.00  0.00     0.001 A 
BRANCH  92  96
ATOM     96  C   UNL A   1      30.976  29.044  24.014  1.00  0.00     0.418 C 
ATOM     97  F   UNL A   1      30.042  30.011  24.238  1.00  0.00    -0.166 F 
ATOM     98  F   UNL A   1      31.444  29.275  22.757  1.00  0.00    -0.166 F 
ATOM     99  F   UNL A   1      30.277  27.880  23.951  1.00  0.00    -0.166 F 
ENDBRANCH  92  96
ENDBRANCH  82  90
ENDBRANCH  75  78
ENDBRANCH  73  74
ENDBRANCH  72  73
ENDBRANCH   1  72
TORSDOF 14
ENDMDL
