MODEL 1
REMARK VINA RESULT:     -10.8      0.000      0.000
REMARK SMILES C=CCC(=O)N[C@@](C)(CC)C(=O)NCCCCNC(=O)c1ccc(-c2c3nc(c(-c4c(F)c(F)c(F)c(F)c4F)c4ccc([nH]4)c(-c4c(F)c(F)c(F)c(F)c4F)c4nc(c(-c5c(F)c(F)c(F)c(F)c5F)c5ccc2[nH]5)C=C4)C=C3)cc1
REMARK SMILES IDX 15 1 14 2 13 3 11 4 12 5 7 7 8 8 6 9 4 10 5 11 3 13 2 14
REMARK SMILES IDX 1 15 9 16 10 17 16 18 17 19 18 20 19 21 20 23 21 24 22 25
REMARK SMILES IDX 83 26 23 27 82 28 24 29 25 30 26 31 76 32 27 33 81 34 75 35
REMARK SMILES IDX 77 36 28 37 80 38 74 39 73 40 29 42 61 43 41 44 60 45 42 46
REMARK SMILES IDX 45 47 59 48 78 49 43 50 44 51 58 53 79 54 46 55 30 56 31 57
REMARK SMILES IDX 39 58 32 59 33 60 37 61 40 62 34 63 35 64 38 65 36 66 62 67
REMARK SMILES IDX 63 68 71 69 64 70 65 71 69 72 72 73 66 74 67 75 70 76 68 77
REMARK SMILES IDX 47 78 48 79 56 80 49 81 50 82 54 83 57 84 51 85 52 86 55 87
REMARK SMILES IDX 53 88
REMARK H PARENT 13 6 6 12 18 22 77 41 45 52
REMARK Flexibility Score: inf
ROOT
ATOM      1  C   UNL A   1      31.097  30.806  25.668  1.00  0.00     0.023 C 
ENDROOT
BRANCH   1   2
ATOM      2  C   UNL A   1      32.443  30.078  25.684  1.00  0.00     0.116 C 
BRANCH   2   3
ATOM      3  N   UNL A   1      32.246  28.664  25.938  1.00  0.00    -0.354 N 
ATOM      4  C   UNL A   1      31.570  27.760  25.170  1.00  0.00     0.245 C 
ATOM      5  O   UNL A   1      30.748  27.062  25.770  1.00  0.00    -0.272 OA
ATOM      6  H   UNL A   1      32.647  28.315  26.767  1.00  0.00     0.163 HD
BRANCH   4   7
ATOM      7  C   UNL A   1      31.785  27.670  23.628  1.00  0.00     0.116 C 
ATOM      8  C   UNL A   1      31.060  26.459  23.005  1.00  0.00     0.045 C 
BRANCH   7   9
ATOM      9  N   UNL A   1      31.301  28.874  22.891  1.00  0.00    -0.342 N 
ATOM     10  C   UNL A   1      30.071  29.213  22.417  1.00  0.00     0.224 C 
ATOM     11  O   UNL A   1      30.038  29.836  21.350  1.00  0.00    -0.275 OA
ATOM     12  H   UNL A   1      31.999  29.545  22.714  1.00  0.00     0.164 HD
BRANCH  10  13
ATOM     13  C   UNL A   1      28.785  28.952  23.195  1.00  0.00     0.126 C 
BRANCH  13  14
ATOM     14  C   UNL A   1      27.712  29.982  23.003  1.00  0.00    -0.025 C 
ATOM     15  C   UNL A   1      27.725  31.184  23.597  1.00  0.00     0.004 C 
ENDBRANCH  13  14
ENDBRANCH  10  13
ENDBRANCH   7   9
BRANCH   7  16
ATOM     16  C   UNL A   1      33.313  27.556  23.350  1.00  0.00     0.035 C 
ATOM     17  C   UNL A   1      33.900  28.739  22.581  1.00  0.00     0.007 C 
ENDBRANCH   7  16
ENDBRANCH   4   7
ENDBRANCH   2   3
ENDBRANCH   1   2
BRANCH   1  18
ATOM     18  C   UNL A   1      31.056  32.085  26.512  1.00  0.00     0.023 C 
BRANCH  18  19
ATOM     19  C   UNL A   1      32.401  32.535  27.074  1.00  0.00     0.116 C 
BRANCH  19  20
ATOM     20  N   UNL A   1      32.378  33.910  27.542  1.00  0.00    -0.352 N 
ATOM     21  C   UNL A   1      33.172  34.530  28.468  1.00  0.00     0.251 C 
ATOM     22  H   UNL A   1      31.688  34.481  27.132  1.00  0.00     0.163 HD
ATOM     23  O   UNL A   1      32.898  35.673  28.838  1.00  0.00    -0.269 OA
BRANCH  21  24
ATOM     24  C   UNL A   1      34.336  33.831  29.048  1.00  0.00     0.039 A 
ATOM     25  C   UNL A   1      35.615  34.281  28.712  1.00  0.00     0.014 A 
ATOM     26  C   UNL A   1      34.180  32.731  29.896  1.00  0.00     0.014 A 
ATOM     27  C   UNL A   1      36.735  33.655  29.260  1.00  0.00     0.010 A 
ATOM     28  C   UNL A   1      35.297  32.154  30.500  1.00  0.00     0.010 A 
ATOM     29  C   UNL A   1      36.586  32.604  30.181  1.00  0.00    -0.014 A 
BRANCH  29  30
ATOM     30  C   UNL A   1      37.779  31.980  30.805  1.00  0.00     0.031 A 
ATOM     31  C   UNL A   1      38.210  32.371  32.191  1.00  0.00     0.074 A 
ATOM     32  C   UNL A   1      38.486  31.069  30.108  1.00  0.00     0.049 A 
ATOM     33  N   UNL A   1      39.201  31.905  32.910  1.00  0.00    -0.248 NA
ATOM     34  C   UNL A   1      37.446  33.441  32.849  1.00  0.00     0.031 C 
ATOM     35  C   UNL A   1      38.203  30.654  28.733  1.00  0.00     0.029 A 
ATOM     36  N   UNL A   1      39.581  30.323  30.462  1.00  0.00    -0.354 N 
ATOM     37  C   UNL A   1      39.178  32.626  34.097  1.00  0.00     0.074 A 
ATOM     38  C   UNL A   1      38.118  33.601  33.979  1.00  0.00     0.031 C 
ATOM     39  C   UNL A   1      39.077  29.701  28.374  1.00  0.00     0.029 A 
ATOM     40  C   UNL A   1      39.997  29.457  29.481  1.00  0.00     0.049 A 
ATOM     41  H   UNL A   1      40.027  30.401  31.336  1.00  0.00     0.167 HD
ATOM     42  C   UNL A   1      39.954  32.467  35.198  1.00  0.00     0.037 A 
ATOM     43  C   UNL A   1      41.001  28.561  29.479  1.00  0.00     0.037 A 
ATOM     44  C   UNL A   1      40.998  31.483  35.317  1.00  0.00     0.049 A 
ATOM     45  C   UNL A   1      41.838  28.397  30.718  1.00  0.00     0.074 A 
ATOM     46  C   UNL A   1      41.804  31.207  36.407  1.00  0.00     0.029 A 
ATOM     47  N   UNL A   1      41.383  30.614  34.306  1.00  0.00    -0.354 N 
ATOM     48  N   UNL A   1      41.752  29.026  31.865  1.00  0.00    -0.248 NA
ATOM     49  C   UNL A   1      42.902  27.386  30.665  1.00  0.00     0.031 C 
ATOM     50  C   UNL A   1      42.707  30.202  36.041  1.00  0.00     0.029 A 
ATOM     51  C   UNL A   1      42.428  29.814  34.742  1.00  0.00     0.049 A 
ATOM     52  H   UNL A   1      40.973  30.571  33.412  1.00  0.00     0.167 HD
ATOM     53  C   UNL A   1      42.730  28.470  32.679  1.00  0.00     0.074 A 
ATOM     54  C   UNL A   1      43.381  27.436  31.900  1.00  0.00     0.031 C 
ATOM     55  C   UNL A   1      43.063  28.788  33.954  1.00  0.00     0.037 A 
BRANCH  42  56
ATOM     56  C   UNL A   1      39.695  33.376  36.366  1.00  0.00     0.064 A 
ATOM     57  C   UNL A   1      40.322  34.627  36.476  1.00  0.00     0.173 A 
ATOM     58  C   UNL A   1      38.782  33.011  37.367  1.00  0.00     0.173 A 
ATOM     59  F   UNL A   1      41.213  35.020  35.553  1.00  0.00    -0.203 F 
ATOM     60  C   UNL A   1      40.066  35.465  37.559  1.00  0.00     0.198 A 
ATOM     61  C   UNL A   1      38.505  33.865  38.431  1.00  0.00     0.198 A 
ATOM     62  F   UNL A   1      38.151  31.829  37.309  1.00  0.00    -0.203 F 
ATOM     63  F   UNL A   1      40.715  36.633  37.668  1.00  0.00    -0.200 F 
ATOM     64  C   UNL A   1      39.153  35.087  38.530  1.00  0.00     0.200 A 
ATOM     65  F   UNL A   1      37.612  33.505  39.363  1.00  0.00    -0.200 F 
ATOM     66  F   UNL A   1      38.901  35.899  39.568  1.00  0.00    -0.200 F 
ENDBRANCH  42  56
BRANCH  43  67
ATOM     67  C   UNL A   1      41.243  27.718  28.278  1.00  0.00     0.064 A 
ATOM     68  C   UNL A   1      40.606  26.478  28.128  1.00  0.00     0.173 A 
ATOM     69  C   UNL A   1      42.122  28.128  27.264  1.00  0.00     0.173 A 
ATOM     70  F   UNL A   1      39.771  26.035  29.079  1.00  0.00    -0.203 F 
ATOM     71  C   UNL A   1      40.857  25.668  27.022  1.00  0.00     0.198 A 
ATOM     72  C   UNL A   1      42.349  27.330  26.145  1.00  0.00     0.198 A 
ATOM     73  F   UNL A   1      42.750  29.308  27.357  1.00  0.00    -0.203 F 
ATOM     74  F   UNL A   1      40.274  24.466  26.929  1.00  0.00    -0.200 F 
ATOM     75  C   UNL A   1      41.725  26.098  26.028  1.00  0.00     0.200 A 
ATOM     76  F   UNL A   1      43.175  27.756  25.180  1.00  0.00    -0.200 F 
ATOM     77  F   UNL A   1      41.965  25.320  24.964  1.00  0.00    -0.200 F 
ENDBRANCH  43  67
BRANCH  55  78
ATOM     78  C   UNL A   1      44.158  27.985  34.594  1.00  0.00     0.064 A 
ATOM     79  C   UNL A   1      43.895  26.780  35.264  1.00  0.00     0.173 A 
ATOM     80  C   UNL A   1      45.491  28.420  34.529  1.00  0.00     0.173 A 
ATOM     81  F   UNL A   1      42.636  26.327  35.368  1.00  0.00    -0.203 F 
ATOM     82  C   UNL A   1      44.919  26.063  35.877  1.00  0.00     0.198 A 
ATOM     83  C   UNL A   1      46.516  27.683  35.113  1.00  0.00     0.198 A 
ATOM     84  F   UNL A   1      45.798  29.561  33.893  1.00  0.00    -0.203 F 
ATOM     85  F   UNL A   1      44.634  24.949  36.566  1.00  0.00    -0.200 F 
ATOM     86  C   UNL A   1      46.228  26.512  35.797  1.00  0.00     0.200 A 
ATOM     87  F   UNL A   1      47.783  28.110  35.022  1.00  0.00    -0.200 F 
ATOM     88  F   UNL A   1      47.212  25.821  36.388  1.00  0.00    -0.200 F 
ENDBRANCH  55  78
ENDBRANCH  29  30
ENDBRANCH  21  24
ENDBRANCH  19  20
ENDBRANCH  18  19
ENDBRANCH   1  18
TORSDOF 15
ENDMDL
MODEL 2
REMARK VINA RESULT:     -10.7      6.242     10.044
REMARK SMILES C=CCC(=O)N[C@@](C)(CC)C(=O)NCCCCNC(=O)c1ccc(-c2c3nc(c(-c4c(F)c(F)c(F)c(F)c4F)c4ccc([nH]4)c(-c4c(F)c(F)c(F)c(F)c4F)c4nc(c(-c5c(F)c(F)c(F)c(F)c5F)c5ccc2[nH]5)C=C4)C=C3)cc1
REMARK SMILES IDX 15 1 14 2 13 3 11 4 12 5 7 7 8 8 6 9 4 10 5 11 3 13 2 14
REMARK SMILES IDX 1 15 9 16 10 17 16 18 17 19 18 20 19 21 20 23 21 24 22 25
REMARK SMILES IDX 83 26 23 27 82 28 24 29 25 30 26 31 76 32 27 33 81 34 75 35
REMARK SMILES IDX 77 36 28 37 80 38 74 39 73 40 29 42 61 43 41 44 60 45 42 46
REMARK SMILES IDX 45 47 59 48 78 49 43 50 44 51 58 53 79 54 46 55 30 56 31 57
REMARK SMILES IDX 39 58 32 59 33 60 37 61 40 62 34 63 35 64 38 65 36 66 62 67
REMARK SMILES IDX 63 68 71 69 64 70 65 71 69 72 72 73 66 74 67 75 70 76 68 77
REMARK SMILES IDX 47 78 48 79 56 80 49 81 50 82 54 83 57 84 51 85 52 86 55 87
REMARK SMILES IDX 53 88
REMARK H PARENT 13 6 6 12 18 22 77 41 45 52
REMARK Flexibility Score: inf
ROOT
ATOM      1  C   UNL A   1      36.578  20.023  24.983  1.00  0.00     0.023 C 
ENDROOT
BRANCH   1   2
ATOM      2  C   UNL A   1      36.386  21.338  25.742  1.00  0.00     0.116 C 
BRANCH   2   3
ATOM      3  N   UNL A   1      35.462  22.198  25.028  1.00  0.00    -0.354 N 
ATOM      4  C   UNL A   1      34.153  21.955  24.726  1.00  0.00     0.245 C 
ATOM      5  O   UNL A   1      33.835  22.151  23.549  1.00  0.00    -0.272 OA
ATOM      6  H   UNL A   1      35.824  23.062  24.724  1.00  0.00     0.163 HD
BRANCH   4   7
ATOM      7  C   UNL A   1      33.154  21.405  25.789  1.00  0.00     0.116 C 
ATOM      8  C   UNL A   1      31.683  21.655  25.394  1.00  0.00     0.045 C 
BRANCH   7   9
ATOM      9  N   UNL A   1      33.282  19.936  26.020  1.00  0.00    -0.342 N 
ATOM     10  C   UNL A   1      32.795  18.865  25.337  1.00  0.00     0.224 C 
ATOM     11  O   UNL A   1      32.456  17.884  26.009  1.00  0.00    -0.275 OA
ATOM     12  H   UNL A   1      33.816  19.700  26.812  1.00  0.00     0.164 HD
BRANCH  10  13
ATOM     13  C   UNL A   1      32.760  18.802  23.814  1.00  0.00     0.126 C 
BRANCH  13  14
ATOM     14  C   UNL A   1      32.993  17.440  23.233  1.00  0.00    -0.025 C 
ATOM     15  C   UNL A   1      34.200  16.861  23.164  1.00  0.00     0.004 C 
ENDBRANCH  13  14
ENDBRANCH  10  13
ENDBRANCH   7   9
BRANCH   7  16
ATOM     16  C   UNL A   1      33.449  22.103  27.149  1.00  0.00     0.035 C 
ATOM     17  C   UNL A   1      33.050  23.578  27.196  1.00  0.00     0.007 C 
ENDBRANCH   7  16
ENDBRANCH   4   7
ENDBRANCH   2   3
ENDBRANCH   1   2
BRANCH   1  18
ATOM     18  C   UNL A   1      38.039  19.673  24.678  1.00  0.00     0.023 C 
BRANCH  18  19
ATOM     19  C   UNL A   1      39.037  20.043  25.772  1.00  0.00     0.116 C 
BRANCH  19  20
ATOM     20  N   UNL A   1      40.110  19.073  25.898  1.00  0.00    -0.352 N 
ATOM     21  C   UNL A   1      41.446  19.273  26.119  1.00  0.00     0.251 C 
ATOM     22  H   UNL A   1      39.836  18.130  25.813  1.00  0.00     0.163 HD
ATOM     23  O   UNL A   1      42.224  18.321  26.048  1.00  0.00    -0.269 OA
BRANCH  21  24
ATOM     24  C   UNL A   1      41.966  20.624  26.412  1.00  0.00     0.039 A 
ATOM     25  C   UNL A   1      42.282  21.461  25.340  1.00  0.00     0.014 A 
ATOM     26  C   UNL A   1      42.164  21.061  27.725  1.00  0.00     0.014 A 
ATOM     27  C   UNL A   1      42.755  22.750  25.583  1.00  0.00     0.010 A 
ATOM     28  C   UNL A   1      42.566  22.374  27.967  1.00  0.00     0.010 A 
ATOM     29  C   UNL A   1      42.875  23.228  26.899  1.00  0.00    -0.014 A 
BRANCH  29  30
ATOM     30  C   UNL A   1      43.324  24.620  27.152  1.00  0.00     0.031 A 
ATOM     31  C   UNL A   1      42.373  25.641  27.712  1.00  0.00     0.074 A 
ATOM     32  C   UNL A   1      44.592  24.967  26.857  1.00  0.00     0.049 A 
ATOM     33  N   UNL A   1      42.599  26.891  28.033  1.00  0.00    -0.248 NA
ATOM     34  C   UNL A   1      40.982  25.213  27.917  1.00  0.00     0.031 C 
ATOM     35  C   UNL A   1      45.589  24.082  26.251  1.00  0.00     0.029 A 
ATOM     36  N   UNL A   1      45.261  26.151  27.031  1.00  0.00    -0.354 N 
ATOM     37  C   UNL A   1      41.381  27.394  28.474  1.00  0.00     0.074 A 
ATOM     38  C   UNL A   1      40.407  26.336  28.321  1.00  0.00     0.031 C 
ATOM     39  C   UNL A   1      46.752  24.742  26.141  1.00  0.00     0.029 A 
ATOM     40  C   UNL A   1      46.577  26.102  26.641  1.00  0.00     0.049 A 
ATOM     41  H   UNL A   1      44.838  26.960  27.402  1.00  0.00     0.167 HD
ATOM     42  C   UNL A   1      41.107  28.618  28.987  1.00  0.00     0.037 A 
ATOM     43  C   UNL A   1      47.535  27.046  26.692  1.00  0.00     0.037 A 
ATOM     44  C   UNL A   1      42.084  29.663  29.153  1.00  0.00     0.049 A 
ATOM     45  C   UNL A   1      47.207  28.392  27.278  1.00  0.00     0.074 A 
ATOM     46  C   UNL A   1      41.920  30.918  29.711  1.00  0.00     0.029 A 
ATOM     47  N   UNL A   1      43.411  29.573  28.758  1.00  0.00    -0.354 N 
ATOM     48  N   UNL A   1      46.073  28.827  27.769  1.00  0.00    -0.248 NA
ATOM     49  C   UNL A   1      48.301  29.372  27.330  1.00  0.00     0.031 C 
ATOM     50  C   UNL A   1      43.135  31.604  29.612  1.00  0.00     0.029 A 
ATOM     51  C   UNL A   1      44.071  30.758  29.042  1.00  0.00     0.049 A 
ATOM     52  H   UNL A   1      43.823  28.783  28.338  1.00  0.00     0.167 HD
ATOM     53  C   UNL A   1      46.320  30.120  28.212  1.00  0.00     0.074 A 
ATOM     54  C   UNL A   1      47.720  30.387  27.953  1.00  0.00     0.031 C 
ATOM     55  C   UNL A   1      45.466  31.007  28.779  1.00  0.00     0.037 A 
BRANCH  42  56
ATOM     56  C   UNL A   1      39.693  28.891  29.414  1.00  0.00     0.064 A 
ATOM     57  C   UNL A   1      38.742  29.408  28.519  1.00  0.00     0.173 A 
ATOM     58  C   UNL A   1      39.271  28.598  30.720  1.00  0.00     0.173 A 
ATOM     59  F   UNL A   1      39.096  29.717  27.263  1.00  0.00    -0.203 F 
ATOM     60  C   UNL A   1      37.431  29.648  28.925  1.00  0.00     0.198 A 
ATOM     61  C   UNL A   1      37.952  28.809  31.112  1.00  0.00     0.198 A 
ATOM     62  F   UNL A   1      40.137  28.099  31.614  1.00  0.00    -0.203 F 
ATOM     63  F   UNL A   1      36.555  30.188  28.066  1.00  0.00    -0.200 F 
ATOM     64  C   UNL A   1      37.036  29.341  30.217  1.00  0.00     0.200 A 
ATOM     65  F   UNL A   1      37.567  28.500  32.358  1.00  0.00    -0.200 F 
ATOM     66  F   UNL A   1      35.771  29.564  30.603  1.00  0.00    -0.200 F 
ENDBRANCH  42  56
BRANCH  43  67
ATOM     67  C   UNL A   1      48.909  26.737  26.213  1.00  0.00     0.064 A 
ATOM     68  C   UNL A   1      49.863  26.177  27.073  1.00  0.00     0.173 A 
ATOM     69  C   UNL A   1      49.298  27.004  24.892  1.00  0.00     0.173 A 
ATOM     70  F   UNL A   1      49.544  25.920  28.350  1.00  0.00    -0.203 F 
ATOM     71  C   UNL A   1      51.162  25.919  26.639  1.00  0.00     0.198 A 
ATOM     72  C   UNL A   1      50.588  26.718  24.451  1.00  0.00     0.198 A 
ATOM     73  F   UNL A   1      48.421  27.532  24.027  1.00  0.00    -0.203 F 
ATOM     74  F   UNL A   1      52.068  25.431  27.497  1.00  0.00    -0.200 F 
ATOM     75  C   UNL A   1      51.522  26.185  25.326  1.00  0.00     0.200 A 
ATOM     76  F   UNL A   1      50.927  26.961  23.177  1.00  0.00    -0.200 F 
ATOM     77  F   UNL A   1      52.770  25.935  24.908  1.00  0.00    -0.200 F 
ENDBRANCH  43  67
BRANCH  55  78
ATOM     78  C   UNL A   1      46.034  32.336  29.187  1.00  0.00     0.064 A 
ATOM     79  C   UNL A   1      46.597  32.540  30.456  1.00  0.00     0.173 A 
ATOM     80  C   UNL A   1      46.024  33.418  28.293  1.00  0.00     0.173 A 
ATOM     81  F   UNL A   1      46.618  31.542  31.354  1.00  0.00    -0.203 F 
ATOM     82  C   UNL A   1      47.092  33.787  30.828  1.00  0.00     0.198 A 
ATOM     83  C   UNL A   1      46.551  34.653  28.656  1.00  0.00     0.198 A 
ATOM     84  F   UNL A   1      45.505  33.274  27.064  1.00  0.00    -0.203 F 
ATOM     85  F   UNL A   1      47.567  33.975  32.067  1.00  0.00    -0.200 F 
ATOM     86  C   UNL A   1      47.074  34.841  29.926  1.00  0.00     0.200 A 
ATOM     87  F   UNL A   1      46.546  35.666  27.779  1.00  0.00    -0.200 F 
ATOM     88  F   UNL A   1      47.550  36.040  30.286  1.00  0.00    -0.200 F 
ENDBRANCH  55  78
ENDBRANCH  29  30
ENDBRANCH  21  24
ENDBRANCH  19  20
ENDBRANCH  18  19
ENDBRANCH   1  18
TORSDOF 15
ENDMDL
MODEL 3
REMARK VINA RESULT:     -10.6      0.439      1.795
REMARK SMILES C=CCC(=O)N[C@@](C)(CC)C(=O)NCCCCNC(=O)c1ccc(-c2c3nc(c(-c4c(F)c(F)c(F)c(F)c4F)c4ccc([nH]4)c(-c4c(F)c(F)c(F)c(F)c4F)c4nc(c(-c5c(F)c(F)c(F)c(F)c5F)c5ccc2[nH]5)C=C4)C=C3)cc1
REMARK SMILES IDX 15 1 14 2 13 3 11 4 12 5 7 7 8 8 6 9 4 10 5 11 3 13 2 14
REMARK SMILES IDX 1 15 9 16 10 17 16 18 17 19 18 20 19 21 20 23 21 24 22 25
REMARK SMILES IDX 83 26 23 27 82 28 24 29 25 30 26 31 76 32 27 33 81 34 75 35
REMARK SMILES IDX 77 36 28 37 80 38 74 39 73 40 29 42 61 43 41 44 60 45 42 46
REMARK SMILES IDX 45 47 59 48 78 49 43 50 44 51 58 53 79 54 46 55 30 56 31 57
REMARK SMILES IDX 39 58 32 59 33 60 37 61 40 62 34 63 35 64 38 65 36 66 62 67
REMARK SMILES IDX 63 68 71 69 64 70 65 71 69 72 72 73 66 74 67 75 70 76 68 77
REMARK SMILES IDX 47 78 48 79 56 80 49 81 50 82 54 83 57 84 51 85 52 86 55 87
REMARK SMILES IDX 53 88
REMARK H PARENT 13 6 6 12 18 22 77 41 45 52
REMARK Flexibility Score: inf
ROOT
ATOM      1  C   UNL A   1      31.420  30.491  26.704  1.00  0.00     0.023 C 
ENDROOT
BRANCH   1   2
ATOM      2  C   UNL A   1      32.127  29.800  25.536  1.00  0.00     0.116 C 
BRANCH   2   3
ATOM      3  N   UNL A   1      31.928  28.366  25.607  1.00  0.00    -0.354 N 
ATOM      4  C   UNL A   1      31.315  27.557  24.693  1.00  0.00     0.245 C 
ATOM      5  O   UNL A   1      30.462  26.790  25.150  1.00  0.00    -0.272 OA
ATOM      6  H   UNL A   1      32.277  27.921  26.413  1.00  0.00     0.163 HD
BRANCH   4   7
ATOM      7  C   UNL A   1      31.633  27.652  23.170  1.00  0.00     0.116 C 
ATOM      8  C   UNL A   1      30.970  26.517  22.362  1.00  0.00     0.045 C 
BRANCH   7   9
ATOM      9  N   UNL A   1      31.179  28.930  22.547  1.00  0.00    -0.342 N 
ATOM     10  C   UNL A   1      29.939  29.393  22.228  1.00  0.00     0.224 C 
ATOM     11  O   UNL A   1      29.848  30.075  21.201  1.00  0.00    -0.275 OA
ATOM     12  H   UNL A   1      31.910  29.551  22.327  1.00  0.00     0.164 HD
BRANCH  10  13
ATOM     13  C   UNL A   1      28.726  29.193  23.129  1.00  0.00     0.126 C 
BRANCH  13  14
ATOM     14  C   UNL A   1      27.930  30.435  23.400  1.00  0.00    -0.025 C 
ATOM     15  C   UNL A   1      28.467  31.572  23.864  1.00  0.00     0.004 C 
ENDBRANCH  13  14
ENDBRANCH  10  13
ENDBRANCH   7   9
BRANCH   7  16
ATOM     16  C   UNL A   1      33.177  27.584  22.984  1.00  0.00     0.035 C 
ATOM     17  C   UNL A   1      33.646  26.487  22.028  1.00  0.00     0.007 C 
ENDBRANCH   7  16
ENDBRANCH   4   7
ENDBRANCH   2   3
ENDBRANCH   1   2
BRANCH   1  18
ATOM     18  C   UNL A   1      31.373  32.020  26.603  1.00  0.00     0.023 C 
BRANCH  18  19
ATOM     19  C   UNL A   1      32.656  32.736  27.015  1.00  0.00     0.116 C 
BRANCH  19  20
ATOM     20  N   UNL A   1      32.403  34.051  27.578  1.00  0.00    -0.352 N 
ATOM     21  C   UNL A   1      33.026  34.689  28.617  1.00  0.00     0.251 C 
ATOM     22  H   UNL A   1      31.676  34.559  27.150  1.00  0.00     0.163 HD
ATOM     23  O   UNL A   1      32.566  35.750  29.043  1.00  0.00    -0.269 OA
BRANCH  21  24
ATOM     24  C   UNL A   1      34.225  34.104  29.249  1.00  0.00     0.039 A 
ATOM     25  C   UNL A   1      34.049  33.116  30.220  1.00  0.00     0.014 A 
ATOM     26  C   UNL A   1      35.512  34.533  28.911  1.00  0.00     0.014 A 
ATOM     27  C   UNL A   1      35.162  32.529  30.821  1.00  0.00     0.010 A 
ATOM     28  C   UNL A   1      36.624  33.895  29.458  1.00  0.00     0.010 A 
ATOM     29  C   UNL A   1      36.460  32.893  30.426  1.00  0.00    -0.014 A 
BRANCH  29  30
ATOM     30  C   UNL A   1      37.641  32.224  31.027  1.00  0.00     0.031 A 
ATOM     31  C   UNL A   1      38.107  32.591  32.408  1.00  0.00     0.074 A 
ATOM     32  C   UNL A   1      38.304  31.294  30.314  1.00  0.00     0.049 A 
ATOM     33  N   UNL A   1      39.093  32.087  33.109  1.00  0.00    -0.248 NA
ATOM     34  C   UNL A   1      37.391  33.683  33.085  1.00  0.00     0.031 C 
ATOM     35  C   UNL A   1      37.986  30.897  28.941  1.00  0.00     0.029 A 
ATOM     36  N   UNL A   1      39.379  30.508  30.646  1.00  0.00    -0.354 N 
ATOM     37  C   UNL A   1      39.114  32.800  34.300  1.00  0.00     0.074 A 
ATOM     38  C   UNL A   1      38.086  33.812  34.205  1.00  0.00     0.031 C 
ATOM     39  C   UNL A   1      38.820  29.917  28.563  1.00  0.00     0.029 A 
ATOM     40  C   UNL A   1      39.748  29.634  29.653  1.00  0.00     0.049 A 
ATOM     41  H   UNL A   1      39.840  30.565  31.513  1.00  0.00     0.167 HD
ATOM     42  C   UNL A   1      39.900  32.607  35.387  1.00  0.00     0.037 A 
ATOM     43  C   UNL A   1      40.721  28.704  29.630  1.00  0.00     0.037 A 
ATOM     44  C   UNL A   1      40.911  31.587  35.484  1.00  0.00     0.049 A 
ATOM     45  C   UNL A   1      41.571  28.503  30.854  1.00  0.00     0.074 A 
ATOM     46  C   UNL A   1      41.725  31.276  36.560  1.00  0.00     0.029 A 
ATOM     47  N   UNL A   1      41.250  30.711  34.462  1.00  0.00    -0.354 N 
ATOM     48  N   UNL A   1      41.525  29.127  32.006  1.00  0.00    -0.248 NA
ATOM     49  C   UNL A   1      42.598  27.456  30.778  1.00  0.00     0.031 C 
ATOM     50  C   UNL A   1      42.586  30.243  36.173  1.00  0.00     0.029 A 
ATOM     51  C   UNL A   1      42.273  29.873  34.876  1.00  0.00     0.049 A 
ATOM     52  H   UNL A   1      40.825  30.688  33.574  1.00  0.00     0.167 HD
ATOM     53  C   UNL A   1      42.496  28.533  32.801  1.00  0.00     0.074 A 
ATOM     54  C   UNL A   1      43.098  27.482  32.006  1.00  0.00     0.031 C 
ATOM     55  C   UNL A   1      42.860  28.831  34.072  1.00  0.00     0.037 A 
BRANCH  42  56
ATOM     56  C   UNL A   1      39.692  33.517  36.565  1.00  0.00     0.064 A 
ATOM     57  C   UNL A   1      40.307  34.777  36.638  1.00  0.00     0.173 A 
ATOM     58  C   UNL A   1      38.838  33.144  37.614  1.00  0.00     0.173 A 
ATOM     59  F   UNL A   1      41.142  35.178  35.667  1.00  0.00    -0.203 F 
ATOM     60  C   UNL A   1      40.098  35.616  37.730  1.00  0.00     0.198 A 
ATOM     61  C   UNL A   1      38.607  33.998  38.689  1.00  0.00     0.198 A 
ATOM     62  F   UNL A   1      38.222  31.953  37.593  1.00  0.00    -0.203 F 
ATOM     63  F   UNL A   1      40.735  36.792  37.800  1.00  0.00    -0.200 F 
ATOM     64  C   UNL A   1      39.243  35.229  38.750  1.00  0.00     0.200 A 
ATOM     65  F   UNL A   1      37.770  33.629  39.668  1.00  0.00    -0.200 F 
ATOM     66  F   UNL A   1      39.036  36.041  39.796  1.00  0.00    -0.200 F 
ENDBRANCH  42  56
BRANCH  43  67
ATOM     67  C   UNL A   1      40.914  27.860  28.420  1.00  0.00     0.064 A 
ATOM     68  C   UNL A   1      41.765  28.270  27.385  1.00  0.00     0.173 A 
ATOM     69  C   UNL A   1      40.247  26.635  28.271  1.00  0.00     0.173 A 
ATOM     70  F   UNL A   1      42.411  29.441  27.473  1.00  0.00    -0.203 F 
ATOM     71  C   UNL A   1      41.922  27.500  26.233  1.00  0.00     0.198 A 
ATOM     72  C   UNL A   1      40.428  25.852  27.133  1.00  0.00     0.198 A 
ATOM     73  F   UNL A   1      39.427  26.195  29.237  1.00  0.00    -0.203 F 
ATOM     74  F   UNL A   1      42.702  27.940  25.237  1.00  0.00    -0.200 F 
ATOM     75  C   UNL A   1      41.257  26.289  26.112  1.00  0.00     0.200 A 
ATOM     76  F   UNL A   1      39.795  24.676  27.026  1.00  0.00    -0.200 F 
ATOM     77  F   UNL A   1      41.409  25.548  25.005  1.00  0.00    -0.200 F 
ENDBRANCH  43  67
BRANCH  55  78
ATOM     78  C   UNL A   1      43.937  27.986  34.690  1.00  0.00     0.064 A 
ATOM     79  C   UNL A   1      45.289  28.356  34.633  1.00  0.00     0.173 A 
ATOM     80  C   UNL A   1      43.611  26.796  35.359  1.00  0.00     0.173 A 
ATOM     81  F   UNL A   1      45.656  29.478  33.993  1.00  0.00    -0.203 F 
ATOM     82  C   UNL A   1      46.277  27.547  35.186  1.00  0.00     0.198 A 
ATOM     83  C   UNL A   1      44.598  26.007  35.940  1.00  0.00     0.198 A 
ATOM     84  F   UNL A   1      42.333  26.400  35.450  1.00  0.00    -0.203 F 
ATOM     85  F   UNL A   1      47.568  27.889  35.063  1.00  0.00    -0.200 F 
ATOM     86  C   UNL A   1      45.931  26.376  35.844  1.00  0.00     0.200 A 
ATOM     87  F   UNL A   1      44.261  24.883  36.588  1.00  0.00    -0.200 F 
ATOM     88  F   UNL A   1      46.884  25.598  36.376  1.00  0.00    -0.200 F 
ENDBRANCH  55  78
ENDBRANCH  29  30
ENDBRANCH  21  24
ENDBRANCH  19  20
ENDBRANCH  18  19
ENDBRANCH   1  18
TORSDOF 15
ENDMDL
