MODEL 1
REMARK VINA RESULT:     -12.5      0.000      0.000
REMARK SMILES Cc1cccc(C)c1Nc1ccccc1CC(=O)NCCCCNC(=O)c1ccc(-c2c3nc(c(-c4c(F)c(F)c(F)c(F)c4F)c4ccc([nH]4)c(-c4c(F)c(F)c(F)c(F)c4F)c4nc(c(-c5c(F)c(F)c(F)c(F)c5F)c5ccc2[nH]5)C=C4)C=C3)cc1
REMARK SMILES IDX 21 1 20 2 19 3 17 4 18 5 16 7 15 8 10 9 11 10 12 11 14 12
REMARK SMILES IDX 13 13 9 14 8 16 1 17 2 18 3 19 4 20 6 21 5 22 7 23 22 24
REMARK SMILES IDX 23 25 24 26 25 27 26 29 27 30 28 31 89 32 29 33 88 34 30 35
REMARK SMILES IDX 31 36 32 37 82 38 33 39 87 40 81 41 83 42 34 43 86 44 80 45
REMARK SMILES IDX 79 46 35 48 67 49 47 50 66 51 48 52 51 53 65 54 84 55 49 56
REMARK SMILES IDX 50 57 64 59 85 60 52 61 36 62 37 63 45 64 38 65 39 66 43 67
REMARK SMILES IDX 46 68 40 69 41 70 44 71 42 72 68 73 69 74 77 75 70 76 71 77
REMARK SMILES IDX 75 78 78 79 72 80 73 81 76 82 74 83 53 84 54 85 62 86 55 87
REMARK SMILES IDX 56 88 60 89 63 90 57 91 58 92 61 93 59 94
REMARK H PARENT 19 6 9 15 24 28 83 47 51 58
REMARK Flexibility Score: inf
ROOT
ATOM      1  C   UNL A   1      31.551  30.877  26.150  1.00  0.00     0.023 C 
ENDROOT
BRANCH   1   2
ATOM      2  C   UNL A   1      32.447  30.083  27.101  1.00  0.00     0.116 C 
BRANCH   2   3
ATOM      3  N   UNL A   1      31.893  28.774  27.373  1.00  0.00    -0.356 N 
ATOM      4  C   UNL A   1      32.329  27.567  26.902  1.00  0.00     0.224 C 
ATOM      5  O   UNL A   1      31.641  26.569  27.124  1.00  0.00    -0.275 OA
ATOM      6  H   UNL A   1      31.108  28.750  27.967  1.00  0.00     0.163 HD
BRANCH   4   7
ATOM      7  C   UNL A   1      33.662  27.477  26.176  1.00  0.00     0.137 C 
BRANCH   7   8
ATOM      8  C   UNL A   1      33.564  27.001  24.739  1.00  0.00    -0.015 A 
ATOM      9  C   UNL A   1      33.608  25.638  24.373  1.00  0.00     0.042 A 
ATOM     10  C   UNL A   1      33.633  25.307  23.004  1.00  0.00     0.026 A 
ATOM     11  C   UNL A   1      33.571  26.288  22.016  1.00  0.00     0.002 A 
ATOM     12  C   UNL A   1      33.472  27.979  23.727  1.00  0.00     0.006 A 
ATOM     13  C   UNL A   1      33.474  27.625  22.378  1.00  0.00     0.000 A 
BRANCH   9  14
ATOM     14  N   UNL A   1      33.580  24.562  25.283  1.00  0.00    -0.355 N 
ATOM     15  H   UNL A   1      33.133  24.777  26.132  1.00  0.00     0.167 HD
BRANCH  14  16
ATOM     16  C   UNL A   1      34.066  23.234  25.222  1.00  0.00     0.044 A 
ATOM     17  C   UNL A   1      31.654  22.456  24.839  1.00  0.00     0.046 C 
ATOM     18  C   UNL A   1      33.133  22.191  24.972  1.00  0.00    -0.027 A 
ATOM     19  C   UNL A   1      33.578  20.867  24.812  1.00  0.00     0.005 A 
ATOM     20  C   UNL A   1      34.930  20.562  24.892  1.00  0.00     0.001 A 
ATOM     21  C   UNL A   1      35.434  22.901  25.352  1.00  0.00    -0.027 A 
ATOM     22  C   UNL A   1      35.848  21.569  25.157  1.00  0.00     0.005 A 
ATOM     23  C   UNL A   1      36.505  23.893  25.729  1.00  0.00     0.046 C 
ENDBRANCH  14  16
ENDBRANCH   9  14
ENDBRANCH   7   8
ENDBRANCH   4   7
ENDBRANCH   2   3
ENDBRANCH   1   2
BRANCH   1  24
ATOM     24  C   UNL A   1      31.390  32.350  26.526  1.00  0.00     0.023 C 
BRANCH  24  25
ATOM     25  C   UNL A   1      32.580  32.949  27.259  1.00  0.00     0.116 C 
BRANCH  25  26
ATOM     26  N   UNL A   1      32.334  34.305  27.723  1.00  0.00    -0.352 N 
ATOM     27  C   UNL A   1      32.986  35.001  28.709  1.00  0.00     0.251 C 
ATOM     28  H   UNL A   1      31.604  34.786  27.270  1.00  0.00     0.163 HD
ATOM     29  O   UNL A   1      32.570  36.095  29.078  1.00  0.00    -0.269 OA
BRANCH  27  30
ATOM     30  C   UNL A   1      34.176  34.406  29.347  1.00  0.00     0.039 A 
ATOM     31  C   UNL A   1      34.003  33.601  30.474  1.00  0.00     0.014 A 
ATOM     32  C   UNL A   1      35.454  34.621  28.821  1.00  0.00     0.014 A 
ATOM     33  C   UNL A   1      35.109  32.974  31.047  1.00  0.00     0.010 A 
ATOM     34  C   UNL A   1      36.541  33.926  29.340  1.00  0.00     0.010 A 
ATOM     35  C   UNL A   1      36.383  33.109  30.468  1.00  0.00    -0.014 A 
BRANCH  35  36
ATOM     36  C   UNL A   1      37.556  32.415  31.053  1.00  0.00     0.031 A 
ATOM     37  C   UNL A   1      38.049  32.788  32.424  1.00  0.00     0.074 A 
ATOM     38  C   UNL A   1      38.195  31.469  30.337  1.00  0.00     0.049 A 
ATOM     39  N   UNL A   1      39.046  32.286  33.110  1.00  0.00    -0.248 NA
ATOM     40  C   UNL A   1      37.348  33.887  33.106  1.00  0.00     0.031 C 
ATOM     41  C   UNL A   1      37.849  31.064  28.974  1.00  0.00     0.029 A 
ATOM     42  N   UNL A   1      39.265  30.674  30.659  1.00  0.00    -0.354 N 
ATOM     43  C   UNL A   1      39.090  33.010  34.295  1.00  0.00     0.074 A 
ATOM     44  C   UNL A   1      38.070  34.030  34.206  1.00  0.00     0.031 C 
ATOM     45  C   UNL A   1      38.664  30.068  28.591  1.00  0.00     0.029 A 
ATOM     46  C   UNL A   1      39.610  29.788  29.667  1.00  0.00     0.049 A 
ATOM     47  H   UNL A   1      39.741  30.734  31.519  1.00  0.00     0.167 HD
ATOM     48  C   UNL A   1      39.887  32.821  35.373  1.00  0.00     0.037 A 
ATOM     49  C   UNL A   1      40.575  28.851  29.636  1.00  0.00     0.037 A 
ATOM     50  C   UNL A   1      40.893  31.794  35.463  1.00  0.00     0.049 A 
ATOM     51  C   UNL A   1      41.448  28.661  30.849  1.00  0.00     0.074 A 
ATOM     52  C   UNL A   1      41.724  31.489  36.525  1.00  0.00     0.029 A 
ATOM     53  N   UNL A   1      41.207  30.907  34.443  1.00  0.00    -0.354 N 
ATOM     54  N   UNL A   1      41.430  29.299  31.994  1.00  0.00    -0.248 NA
ATOM     55  C   UNL A   1      42.465  27.605  30.767  1.00  0.00     0.031 C 
ATOM     56  C   UNL A   1      42.575  30.450  36.131  1.00  0.00     0.029 A 
ATOM     57  C   UNL A   1      42.232  30.066  34.845  1.00  0.00     0.049 A 
ATOM     58  H   UNL A   1      40.765  30.879  33.562  1.00  0.00     0.167 HD
ATOM     59  C   UNL A   1      42.405  28.701  32.780  1.00  0.00     0.074 A 
ATOM     60  C   UNL A   1      42.981  27.634  31.987  1.00  0.00     0.031 C 
ATOM     61  C   UNL A   1      42.790  29.005  34.045  1.00  0.00     0.037 A 
BRANCH  48  62
ATOM     62  C   UNL A   1      39.697  33.743  36.544  1.00  0.00     0.064 A 
ATOM     63  C   UNL A   1      40.327  34.997  36.605  1.00  0.00     0.173 A 
ATOM     64  C   UNL A   1      38.858  33.381  37.609  1.00  0.00     0.173 A 
ATOM     65  F   UNL A   1      41.150  35.387  35.620  1.00  0.00    -0.203 F 
ATOM     66  C   UNL A   1      40.152  35.836  37.702  1.00  0.00     0.198 A 
ATOM     67  C   UNL A   1      38.657  34.239  38.688  1.00  0.00     0.198 A 
ATOM     68  F   UNL A   1      38.227  32.197  37.602  1.00  0.00    -0.203 F 
ATOM     69  F   UNL A   1      40.810  37.002  37.763  1.00  0.00    -0.200 F 
ATOM     70  C   UNL A   1      39.311  35.461  38.739  1.00  0.00     0.200 A 
ATOM     71  F   UNL A   1      37.834  33.881  39.682  1.00  0.00    -0.200 F 
ATOM     72  F   UNL A   1      39.138  36.272  39.790  1.00  0.00    -0.200 F 
ENDBRANCH  48  62
BRANCH  49  73
ATOM     73  C   UNL A   1      40.741  27.991  28.435  1.00  0.00     0.064 A 
ATOM     74  C   UNL A   1      41.537  28.405  27.356  1.00  0.00     0.173 A 
ATOM     75  C   UNL A   1      40.100  26.748  28.333  1.00  0.00     0.173 A 
ATOM     76  F   UNL A   1      42.156  29.594  27.398  1.00  0.00    -0.203 F 
ATOM     77  C   UNL A   1      41.660  27.623  26.210  1.00  0.00     0.198 A 
ATOM     78  C   UNL A   1      40.250  25.951  27.199  1.00  0.00     0.198 A 
ATOM     79  F   UNL A   1      39.334  26.302  29.339  1.00  0.00    -0.203 F 
ATOM     80  F   UNL A   1      42.381  28.068  25.172  1.00  0.00    -0.200 F 
ATOM     81  C   UNL A   1      41.021  26.394  26.135  1.00  0.00     0.200 A 
ATOM     82  F   UNL A   1      39.644  24.758  27.137  1.00  0.00    -0.200 F 
ATOM     83  F   UNL A   1      41.140  25.642  25.033  1.00  0.00    -0.200 F 
ENDBRANCH  49  73
BRANCH  61  84
ATOM     84  C   UNL A   1      43.853  28.139  34.662  1.00  0.00     0.064 A 
ATOM     85  C   UNL A   1      43.545  26.930  35.304  1.00  0.00     0.173 A 
ATOM     86  C   UNL A   1      45.201  28.524  34.602  1.00  0.00     0.173 A 
ATOM     87  F   UNL A   1      42.271  26.520  35.399  1.00  0.00    -0.203 F 
ATOM     88  C   UNL A   1      44.541  26.164  35.905  1.00  0.00     0.198 A 
ATOM     89  C   UNL A   1      46.198  27.737  35.171  1.00  0.00     0.198 A 
ATOM     90  F   UNL A   1      45.553  29.665  33.990  1.00  0.00    -0.203 F 
ATOM     91  F   UNL A   1      44.215  25.051  36.576  1.00  0.00    -0.200 F 
ATOM     92  C   UNL A   1      45.867  26.566  35.834  1.00  0.00     0.200 A 
ATOM     93  F   UNL A   1      47.481  28.118  35.086  1.00  0.00    -0.200 F 
ATOM     94  F   UNL A   1      46.823  25.829  36.415  1.00  0.00    -0.200 F 
ENDBRANCH  61  84
ENDBRANCH  35  36
ENDBRANCH  27  30
ENDBRANCH  25  26
ENDBRANCH  24  25
ENDBRANCH   1  24
TORSDOF 14
ENDMDL
MODEL 2
REMARK VINA RESULT:     -12.5      0.056      1.593
REMARK SMILES Cc1cccc(C)c1Nc1ccccc1CC(=O)NCCCCNC(=O)c1ccc(-c2c3nc(c(-c4c(F)c(F)c(F)c(F)c4F)c4ccc([nH]4)c(-c4c(F)c(F)c(F)c(F)c4F)c4nc(c(-c5c(F)c(F)c(F)c(F)c5F)c5ccc2[nH]5)C=C4)C=C3)cc1
REMARK SMILES IDX 21 1 20 2 19 3 17 4 18 5 16 7 15 8 10 9 11 10 12 11 14 12
REMARK SMILES IDX 13 13 9 14 8 16 1 17 2 18 3 19 4 20 6 21 5 22 7 23 22 24
REMARK SMILES IDX 23 25 24 26 25 27 26 29 27 30 28 31 89 32 29 33 88 34 30 35
REMARK SMILES IDX 31 36 32 37 82 38 33 39 87 40 81 41 83 42 34 43 86 44 80 45
REMARK SMILES IDX 79 46 35 48 67 49 47 50 66 51 48 52 51 53 65 54 84 55 49 56
REMARK SMILES IDX 50 57 64 59 85 60 52 61 36 62 37 63 45 64 38 65 39 66 43 67
REMARK SMILES IDX 46 68 40 69 41 70 44 71 42 72 68 73 69 74 77 75 70 76 71 77
REMARK SMILES IDX 75 78 78 79 72 80 73 81 76 82 74 83 53 84 54 85 62 86 55 87
REMARK SMILES IDX 56 88 60 89 63 90 57 91 58 92 61 93 59 94
REMARK H PARENT 19 6 9 15 24 28 83 47 51 58
REMARK Flexibility Score: inf
ROOT
ATOM      1  C   UNL A   1      31.570  30.850  26.182  1.00  0.00     0.023 C 
ENDROOT
BRANCH   1   2
ATOM      2  C   UNL A   1      32.406  30.053  27.184  1.00  0.00     0.116 C 
BRANCH   2   3
ATOM      3  N   UNL A   1      31.844  28.738  27.406  1.00  0.00    -0.356 N 
ATOM      4  C   UNL A   1      32.281  27.547  26.899  1.00  0.00     0.224 C 
ATOM      5  O   UNL A   1      31.587  26.544  27.081  1.00  0.00    -0.275 OA
ATOM      6  H   UNL A   1      31.054  28.697  27.992  1.00  0.00     0.163 HD
BRANCH   4   7
ATOM      7  C   UNL A   1      33.620  27.475  26.182  1.00  0.00     0.137 C 
BRANCH   7   8
ATOM      8  C   UNL A   1      33.540  26.987  24.749  1.00  0.00    -0.015 A 
ATOM      9  C   UNL A   1      33.620  25.622  24.393  1.00  0.00     0.042 A 
ATOM     10  C   UNL A   1      33.659  25.282  23.027  1.00  0.00     0.026 A 
ATOM     11  C   UNL A   1      33.577  26.254  22.031  1.00  0.00     0.002 A 
ATOM     12  C   UNL A   1      33.429  27.955  23.729  1.00  0.00     0.006 A 
ATOM     13  C   UNL A   1      33.446  27.591  22.383  1.00  0.00     0.000 A 
BRANCH   9  14
ATOM     14  N   UNL A   1      33.613  24.552  25.311  1.00  0.00    -0.355 N 
ATOM     15  H   UNL A   1      33.189  24.775  26.170  1.00  0.00     0.167 HD
BRANCH  14  16
ATOM     16  C   UNL A   1      34.095  23.224  25.246  1.00  0.00     0.044 A 
ATOM     17  C   UNL A   1      31.678  22.453  24.880  1.00  0.00     0.046 C 
ATOM     18  C   UNL A   1      33.157  22.183  25.002  1.00  0.00    -0.027 A 
ATOM     19  C   UNL A   1      33.597  20.858  24.839  1.00  0.00     0.005 A 
ATOM     20  C   UNL A   1      34.948  20.549  24.909  1.00  0.00     0.001 A 
ATOM     21  C   UNL A   1      35.463  22.886  25.366  1.00  0.00    -0.027 A 
ATOM     22  C   UNL A   1      35.872  21.554  25.169  1.00  0.00     0.005 A 
ATOM     23  C   UNL A   1      36.539  23.875  25.736  1.00  0.00     0.046 C 
ENDBRANCH  14  16
ENDBRANCH   9  14
ENDBRANCH   7   8
ENDBRANCH   4   7
ENDBRANCH   2   3
ENDBRANCH   1   2
BRANCH   1  24
ATOM     24  C   UNL A   1      31.402  32.327  26.542  1.00  0.00     0.023 C 
BRANCH  24  25
ATOM     25  C   UNL A   1      32.605  32.950  27.232  1.00  0.00     0.116 C 
BRANCH  25  26
ATOM     26  N   UNL A   1      32.347  34.299  27.709  1.00  0.00    -0.352 N 
ATOM     27  C   UNL A   1      32.988  34.989  28.706  1.00  0.00     0.251 C 
ATOM     28  H   UNL A   1      31.617  34.781  27.256  1.00  0.00     0.163 HD
ATOM     29  O   UNL A   1      32.561  36.076  29.084  1.00  0.00    -0.269 OA
BRANCH  27  30
ATOM     30  C   UNL A   1      34.177  34.395  29.347  1.00  0.00     0.039 A 
ATOM     31  C   UNL A   1      34.003  33.591  30.474  1.00  0.00     0.014 A 
ATOM     32  C   UNL A   1      35.456  34.610  28.822  1.00  0.00     0.014 A 
ATOM     33  C   UNL A   1      35.109  32.964  31.048  1.00  0.00     0.010 A 
ATOM     34  C   UNL A   1      36.542  33.916  29.342  1.00  0.00     0.010 A 
ATOM     35  C   UNL A   1      36.383  33.100  30.470  1.00  0.00    -0.014 A 
BRANCH  35  36
ATOM     36  C   UNL A   1      37.556  32.406  31.058  1.00  0.00     0.031 A 
ATOM     37  C   UNL A   1      38.045  32.778  32.430  1.00  0.00     0.074 A 
ATOM     38  C   UNL A   1      38.198  31.463  30.342  1.00  0.00     0.049 A 
ATOM     39  N   UNL A   1      39.041  32.277  33.118  1.00  0.00    -0.248 NA
ATOM     40  C   UNL A   1      37.340  33.875  33.112  1.00  0.00     0.031 C 
ATOM     41  C   UNL A   1      37.856  31.059  28.977  1.00  0.00     0.029 A 
ATOM     42  N   UNL A   1      39.269  30.669  30.665  1.00  0.00    -0.354 N 
ATOM     43  C   UNL A   1      39.081  32.999  34.304  1.00  0.00     0.074 A 
ATOM     44  C   UNL A   1      38.059  34.018  34.214  1.00  0.00     0.031 C 
ATOM     45  C   UNL A   1      38.674  30.065  28.595  1.00  0.00     0.029 A 
ATOM     46  C   UNL A   1      39.617  29.785  29.673  1.00  0.00     0.049 A 
ATOM     47  H   UNL A   1      39.742  30.728  31.526  1.00  0.00     0.167 HD
ATOM     48  C   UNL A   1      39.876  32.809  35.384  1.00  0.00     0.037 A 
ATOM     49  C   UNL A   1      40.584  28.850  29.643  1.00  0.00     0.037 A 
ATOM     50  C   UNL A   1      40.883  31.784  35.475  1.00  0.00     0.049 A 
ATOM     51  C   UNL A   1      41.454  28.659  30.857  1.00  0.00     0.074 A 
ATOM     52  C   UNL A   1      41.712  31.478  36.538  1.00  0.00     0.029 A 
ATOM     53  N   UNL A   1      41.200  30.899  34.454  1.00  0.00    -0.354 N 
ATOM     54  N   UNL A   1      41.432  29.295  32.003  1.00  0.00    -0.248 NA
ATOM     55  C   UNL A   1      42.473  27.604  30.777  1.00  0.00     0.031 C 
ATOM     56  C   UNL A   1      42.565  30.442  36.145  1.00  0.00     0.029 A 
ATOM     57  C   UNL A   1      42.226  30.058  34.857  1.00  0.00     0.049 A 
ATOM     58  H   UNL A   1      40.761  30.871  33.572  1.00  0.00     0.167 HD
ATOM     59  C   UNL A   1      42.407  28.697  32.791  1.00  0.00     0.074 A 
ATOM     60  C   UNL A   1      42.985  27.633  31.997  1.00  0.00     0.031 C 
ATOM     61  C   UNL A   1      42.788  29.000  34.057  1.00  0.00     0.037 A 
BRANCH  48  62
ATOM     62  C   UNL A   1      39.681  33.729  36.556  1.00  0.00     0.064 A 
ATOM     63  C   UNL A   1      38.865  33.376  37.643  1.00  0.00     0.173 A 
ATOM     64  C   UNL A   1      40.335  34.969  36.606  1.00  0.00     0.173 A 
ATOM     65  F   UNL A   1      38.206  32.207  37.641  1.00  0.00    -0.203 F 
ATOM     66  C   UNL A   1      38.683  34.243  38.717  1.00  0.00     0.198 A 
ATOM     67  C   UNL A   1      40.179  35.820  37.699  1.00  0.00     0.198 A 
ATOM     68  F   UNL A   1      41.130  35.357  35.598  1.00  0.00    -0.203 F 
ATOM     69  F   UNL A   1      37.854  33.908  39.714  1.00  0.00    -0.200 F 
ATOM     70  C   UNL A   1      39.346  35.461  38.748  1.00  0.00     0.200 A 
ATOM     71  F   UNL A   1      40.831  36.990  37.734  1.00  0.00    -0.200 F 
ATOM     72  F   UNL A   1      39.176  36.292  39.785  1.00  0.00    -0.200 F 
ENDBRANCH  48  62
BRANCH  49  73
ATOM     73  C   UNL A   1      40.755  27.991  28.441  1.00  0.00     0.064 A 
ATOM     74  C   UNL A   1      41.549  28.410  27.363  1.00  0.00     0.173 A 
ATOM     75  C   UNL A   1      40.119  26.746  28.337  1.00  0.00     0.173 A 
ATOM     76  F   UNL A   1      42.163  29.601  27.407  1.00  0.00    -0.203 F 
ATOM     77  C   UNL A   1      41.676  27.630  26.216  1.00  0.00     0.198 A 
ATOM     78  C   UNL A   1      40.272  25.951  27.202  1.00  0.00     0.198 A 
ATOM     79  F   UNL A   1      39.353  26.295  29.342  1.00  0.00    -0.203 F 
ATOM     80  F   UNL A   1      42.396  28.079  25.179  1.00  0.00    -0.200 F 
ATOM     81  C   UNL A   1      41.042  26.399  26.139  1.00  0.00     0.200 A 
ATOM     82  F   UNL A   1      39.671  24.756  27.138  1.00  0.00    -0.200 F 
ATOM     83  F   UNL A   1      41.165  25.648  25.036  1.00  0.00    -0.200 F 
ENDBRANCH  49  73
BRANCH  61  84
ATOM     84  C   UNL A   1      43.850  28.135  34.676  1.00  0.00     0.064 A 
ATOM     85  C   UNL A   1      45.213  28.458  34.591  1.00  0.00     0.173 A 
ATOM     86  C   UNL A   1      43.496  26.968  35.371  1.00  0.00     0.173 A 
ATOM     87  F   UNL A   1      45.607  29.556  33.929  1.00  0.00    -0.203 F 
ATOM     88  C   UNL A   1      46.183  27.620  35.136  1.00  0.00     0.198 A 
ATOM     89  C   UNL A   1      44.466  26.153  35.947  1.00  0.00     0.198 A 
ATOM     90  F   UNL A   1      42.207  26.618  35.492  1.00  0.00    -0.203 F 
ATOM     91  F   UNL A   1      47.482  27.911  34.979  1.00  0.00    -0.200 F 
ATOM     92  C   UNL A   1      45.808  26.471  35.817  1.00  0.00     0.200 A 
ATOM     93  F   UNL A   1      44.101  25.053  36.620  1.00  0.00    -0.200 F 
ATOM     94  F   UNL A   1      46.744  25.666  36.338  1.00  0.00    -0.200 F 
ENDBRANCH  61  84
ENDBRANCH  35  36
ENDBRANCH  27  30
ENDBRANCH  25  26
ENDBRANCH  24  25
ENDBRANCH   1  24
TORSDOF 14
ENDMDL
MODEL 3
REMARK VINA RESULT:     -12.4      0.593      7.423
REMARK SMILES Cc1cccc(C)c1Nc1ccccc1CC(=O)NCCCCNC(=O)c1ccc(-c2c3nc(c(-c4c(F)c(F)c(F)c(F)c4F)c4ccc([nH]4)c(-c4c(F)c(F)c(F)c(F)c4F)c4nc(c(-c5c(F)c(F)c(F)c(F)c5F)c5ccc2[nH]5)C=C4)C=C3)cc1
REMARK SMILES IDX 21 1 20 2 19 3 17 4 18 5 16 7 15 8 10 9 11 10 12 11 14 12
REMARK SMILES IDX 13 13 9 14 8 16 1 17 2 18 3 19 4 20 6 21 5 22 7 23 22 24
REMARK SMILES IDX 23 25 24 26 25 27 26 29 27 30 28 31 89 32 29 33 88 34 30 35
REMARK SMILES IDX 31 36 32 37 82 38 33 39 87 40 81 41 83 42 34 43 86 44 80 45
REMARK SMILES IDX 79 46 35 48 67 49 47 50 66 51 48 52 51 53 65 54 84 55 49 56
REMARK SMILES IDX 50 57 64 59 85 60 52 61 36 62 37 63 45 64 38 65 39 66 43 67
REMARK SMILES IDX 46 68 40 69 41 70 44 71 42 72 68 73 69 74 77 75 70 76 71 77
REMARK SMILES IDX 75 78 78 79 72 80 73 81 76 82 74 83 53 84 54 85 62 86 55 87
REMARK SMILES IDX 56 88 60 89 63 90 57 91 58 92 61 93 59 94
REMARK H PARENT 19 6 9 15 24 28 83 47 51 58
REMARK Flexibility Score: inf
ROOT
ATOM      1  C   UNL A   1      31.611  30.745  26.128  1.00  0.00     0.023 C 
ENDROOT
BRANCH   1   2
ATOM      2  C   UNL A   1      32.439  29.937  27.128  1.00  0.00     0.116 C 
BRANCH   2   3
ATOM      3  N   UNL A   1      31.850  28.637  27.366  1.00  0.00    -0.356 N 
ATOM      4  C   UNL A   1      32.258  27.431  26.868  1.00  0.00     0.224 C 
ATOM      5  O   UNL A   1      31.543  26.446  27.063  1.00  0.00    -0.275 OA
ATOM      6  H   UNL A   1      31.062  28.619  27.956  1.00  0.00     0.163 HD
BRANCH   4   7
ATOM      7  C   UNL A   1      33.591  27.324  26.146  1.00  0.00     0.137 C 
BRANCH   7   8
ATOM      8  C   UNL A   1      33.496  26.800  24.726  1.00  0.00    -0.015 A 
ATOM      9  C   UNL A   1      33.589  25.428  24.401  1.00  0.00     0.042 A 
ATOM     10  C   UNL A   1      33.612  25.056  23.043  1.00  0.00     0.026 A 
ATOM     11  C   UNL A   1      33.501  26.002  22.026  1.00  0.00     0.002 A 
ATOM     12  C   UNL A   1      33.355  27.741  23.685  1.00  0.00     0.006 A 
ATOM     13  C   UNL A   1      33.357  27.345  22.348  1.00  0.00     0.000 A 
BRANCH   9  14
ATOM     14  N   UNL A   1      33.613  24.381  25.344  1.00  0.00    -0.355 N 
ATOM     15  H   UNL A   1      33.219  24.625  26.212  1.00  0.00     0.167 HD
BRANCH  14  16
ATOM     16  C   UNL A   1      34.089  23.049  25.295  1.00  0.00     0.044 A 
ATOM     17  C   UNL A   1      31.650  22.269  25.174  1.00  0.00     0.046 C 
ATOM     18  C   UNL A   1      33.135  22.001  25.179  1.00  0.00    -0.027 A 
ATOM     19  C   UNL A   1      33.562  20.670  25.035  1.00  0.00     0.005 A 
ATOM     20  C   UNL A   1      34.915  20.361  25.001  1.00  0.00     0.001 A 
ATOM     21  C   UNL A   1      35.463  22.715  25.310  1.00  0.00    -0.027 A 
ATOM     22  C   UNL A   1      35.855  21.374  25.135  1.00  0.00     0.005 A 
ATOM     23  C   UNL A   1      36.565  23.716  25.543  1.00  0.00     0.046 C 
ENDBRANCH  14  16
ENDBRANCH   9  14
ENDBRANCH   7   8
ENDBRANCH   4   7
ENDBRANCH   2   3
ENDBRANCH   1   2
BRANCH   1  24
ATOM     24  C   UNL A   1      31.402  32.207  26.524  1.00  0.00     0.023 C 
BRANCH  24  25
ATOM     25  C   UNL A   1      32.579  32.838  27.251  1.00  0.00     0.116 C 
BRANCH  25  26
ATOM     26  N   UNL A   1      32.337  34.222  27.625  1.00  0.00    -0.352 N 
ATOM     27  C   UNL A   1      32.943  34.959  28.611  1.00  0.00     0.251 C 
ATOM     28  H   UNL A   1      31.647  34.692  27.102  1.00  0.00     0.163 HD
ATOM     29  O   UNL A   1      32.530  36.079  28.894  1.00  0.00    -0.269 OA
BRANCH  27  30
ATOM     30  C   UNL A   1      34.078  34.377  29.353  1.00  0.00     0.039 A 
ATOM     31  C   UNL A   1      33.820  33.663  30.524  1.00  0.00     0.014 A 
ATOM     32  C   UNL A   1      35.388  34.515  28.883  1.00  0.00     0.014 A 
ATOM     33  C   UNL A   1      34.873  33.045  31.199  1.00  0.00     0.010 A 
ATOM     34  C   UNL A   1      36.422  33.827  29.508  1.00  0.00     0.010 A 
ATOM     35  C   UNL A   1      36.179  33.100  30.681  1.00  0.00    -0.014 A 
BRANCH  35  36
ATOM     36  C   UNL A   1      37.296  32.416  31.377  1.00  0.00     0.031 A 
ATOM     37  C   UNL A   1      38.018  31.277  30.711  1.00  0.00     0.074 A 
ATOM     38  C   UNL A   1      37.640  32.802  32.621  1.00  0.00     0.049 A 
ATOM     39  N   UNL A   1      39.027  30.566  31.151  1.00  0.00    -0.248 NA
ATOM     40  C   UNL A   1      37.528  30.863  29.387  1.00  0.00     0.031 C 
ATOM     41  C   UNL A   1      36.976  33.851  33.395  1.00  0.00     0.029 A 
ATOM     42  N   UNL A   1      38.639  32.359  33.451  1.00  0.00    -0.354 N 
ATOM     43  C   UNL A   1      39.284  29.625  30.162  1.00  0.00     0.074 A 
ATOM     44  C   UNL A   1      38.284  29.807  29.135  1.00  0.00     0.031 C 
ATOM     45  C   UNL A   1      37.609  34.000  34.569  1.00  0.00     0.029 A 
ATOM     46  C   UNL A   1      38.702  33.035  34.645  1.00  0.00     0.049 A 
ATOM     47  H   UNL A   1      39.251  31.625  33.213  1.00  0.00     0.167 HD
ATOM     48  C   UNL A   1      40.284  28.713  30.101  1.00  0.00     0.037 A 
ATOM     49  C   UNL A   1      39.552  32.896  35.678  1.00  0.00     0.037 A 
ATOM     50  C   UNL A   1      41.286  28.545  31.121  1.00  0.00     0.049 A 
ATOM     51  C   UNL A   1      40.655  31.875  35.585  1.00  0.00     0.074 A 
ATOM     52  C   UNL A   1      42.366  27.682  31.137  1.00  0.00     0.029 A 
ATOM     53  N   UNL A   1      41.326  29.257  32.312  1.00  0.00    -0.354 N 
ATOM     54  N   UNL A   1      40.937  31.043  34.612  1.00  0.00    -0.248 NA
ATOM     55  C   UNL A   1      41.569  31.789  36.731  1.00  0.00     0.031 C 
ATOM     56  C   UNL A   1      43.031  27.835  32.359  1.00  0.00     0.029 A 
ATOM     57  C   UNL A   1      42.402  28.838  33.079  1.00  0.00     0.049 A 
ATOM     58  H   UNL A   1      40.683  29.956  32.574  1.00  0.00     0.167 HD
ATOM     59  C   UNL A   1      42.077  30.360  35.011  1.00  0.00     0.074 A 
ATOM     60  C   UNL A   1      42.447  30.892  36.306  1.00  0.00     0.031 C 
ATOM     61  C   UNL A   1      42.759  29.382  34.364  1.00  0.00     0.037 A 
BRANCH  48  62
ATOM     62  C   UNL A   1      40.342  27.831  28.886  1.00  0.00     0.064 A 
ATOM     63  C   UNL A   1      41.105  28.177  27.759  1.00  0.00     0.173 A 
ATOM     64  C   UNL A   1      39.645  26.614  28.854  1.00  0.00     0.173 A 
ATOM     65  F   UNL A   1      41.780  29.337  27.732  1.00  0.00    -0.203 F 
ATOM     66  C   UNL A   1      41.140  27.357  26.635  1.00  0.00     0.198 A 
ATOM     67  C   UNL A   1      39.711  25.778  27.741  1.00  0.00     0.198 A 
ATOM     68  F   UNL A   1      38.903  26.229  29.903  1.00  0.00    -0.203 F 
ATOM     69  F   UNL A   1      41.828  27.738  25.551  1.00  0.00    -0.200 F 
ATOM     70  C   UNL A   1      40.450  26.155  26.629  1.00  0.00     0.200 A 
ATOM     71  F   UNL A   1      39.055  24.610  27.742  1.00  0.00    -0.200 F 
ATOM     72  F   UNL A   1      40.489  25.363  25.550  1.00  0.00    -0.200 F 
ENDBRANCH  48  62
BRANCH  49  73
ATOM     73  C   UNL A   1      39.425  33.773  36.872  1.00  0.00     0.064 A 
ATOM     74  C   UNL A   1      38.691  33.361  37.994  1.00  0.00     0.173 A 
ATOM     75  C   UNL A   1      40.020  35.043  36.913  1.00  0.00     0.173 A 
ATOM     76  F   UNL A   1      38.088  32.163  37.997  1.00  0.00    -0.203 F 
ATOM     77  C   UNL A   1      38.531  34.196  39.097  1.00  0.00     0.198 A 
ATOM     78  C   UNL A   1      39.886  35.865  38.030  1.00  0.00     0.198 A 
ATOM     79  F   UNL A   1      40.738  35.482  35.870  1.00  0.00    -0.203 F 
ATOM     80  F   UNL A   1      37.777  33.799  40.132  1.00  0.00    -0.200 F 
ATOM     81  C   UNL A   1      39.133  35.445  39.117  1.00  0.00     0.200 A 
ATOM     82  F   UNL A   1      40.482  37.064  38.052  1.00  0.00    -0.200 F 
ATOM     83  F   UNL A   1      38.980  36.248  40.178  1.00  0.00    -0.200 F 
ENDBRANCH  49  73
BRANCH  61  84
ATOM     84  C   UNL A   1      44.001  28.860  35.031  1.00  0.00     0.064 A 
ATOM     85  C   UNL A   1      45.261  29.441  34.814  1.00  0.00     0.173 A 
ATOM     86  C   UNL A   1      43.927  27.766  35.907  1.00  0.00     0.173 A 
ATOM     87  F   UNL A   1      45.389  30.482  33.978  1.00  0.00    -0.203 F 
ATOM     88  C   UNL A   1      46.404  28.915  35.410  1.00  0.00     0.198 A 
ATOM     89  C   UNL A   1      45.068  27.267  36.530  1.00  0.00     0.198 A 
ATOM     90  F   UNL A   1      42.747  27.179  36.159  1.00  0.00    -0.203 F 
ATOM     91  F   UNL A   1      47.605  29.441  35.131  1.00  0.00    -0.200 F 
ATOM     92  C   UNL A   1      46.306  27.832  36.271  1.00  0.00     0.200 A 
ATOM     93  F   UNL A   1      44.968  26.231  37.375  1.00  0.00    -0.200 F 
ATOM     94  F   UNL A   1      47.408  27.326  36.841  1.00  0.00    -0.200 F 
ENDBRANCH  61  84
ENDBRANCH  35  36
ENDBRANCH  27  30
ENDBRANCH  25  26
ENDBRANCH  24  25
ENDBRANCH   1  24
TORSDOF 14
ENDMDL
