MODEL 1
REMARK VINA RESULT:     -14.3      0.000      0.000
REMARK SMILES Cc1cc(F)cc(N[C@H](C(=O)NCCCCNC(=O)c2ccc(-c3c4nc(c(-c5c(F)c(F)c(F)c(F)c5F)c5ccc([nH]5)c(-c5c(F)c(F)c(F)c(F)c5F)c5nc(c(-c6c(F)c(F)c(F)c(F)c6F)c6ccc3[nH]6)C=C5)C=C4)cc2)c2cc(C)cc(C)c2)c1
REMARK SMILES IDX 14 1 13 2 12 3 10 4 11 5 9 7 8 8 7 10 1 11 2 12 3 13 91 14
REMARK SMILES IDX 4 15 5 16 6 17 83 18 84 19 90 20 85 21 88 22 86 23 87 24
REMARK SMILES IDX 89 25 15 26 16 27 17 28 18 29 19 31 20 32 21 33 82 34 22 35
REMARK SMILES IDX 81 36 23 37 24 38 25 39 75 40 26 41 80 42 74 43 76 44 27 45
REMARK SMILES IDX 79 46 73 47 72 48 28 50 60 51 40 52 59 53 41 54 44 55 58 56
REMARK SMILES IDX 77 57 42 58 43 59 57 61 78 62 45 63 29 64 30 65 38 66 31 67
REMARK SMILES IDX 32 68 36 69 39 70 33 71 34 72 37 73 35 74 61 75 62 76 70 77
REMARK SMILES IDX 63 78 64 79 68 80 71 81 65 82 66 83 69 84 67 85 46 86 47 87
REMARK SMILES IDX 55 88 48 89 49 90 53 91 56 92 50 93 51 94 54 95 52 96
REMARK H PARENT 12 6 8 9 17 30 76 49 44 60
REMARK Flexibility Score: inf
ROOT
ATOM      1  C   UNL A   1      32.595  29.852  26.965  1.00  0.00     0.023 C 
ENDROOT
BRANCH   1   2
ATOM      2  C   UNL A   1      31.889  29.772  25.613  1.00  0.00     0.116 C 
BRANCH   2   3
ATOM      3  N   UNL A   1      32.821  29.693  24.511  1.00  0.00    -0.354 N 
ATOM      4  C   UNL A   1      33.083  28.649  23.668  1.00  0.00     0.247 C 
ATOM      5  O   UNL A   1      33.987  28.853  22.849  1.00  0.00    -0.272 OA
ATOM      6  H   UNL A   1      33.343  30.510  24.342  1.00  0.00     0.163 HD
BRANCH   4   7
ATOM      7  C   UNL A   1      32.381  27.268  23.828  1.00  0.00     0.200 C 
BRANCH   7   8
ATOM      8  N   UNL A   1      31.127  27.106  23.032  1.00  0.00    -0.370 N 
ATOM      9  H   UNL A   1      31.136  26.331  22.425  1.00  0.00     0.161 HD
BRANCH   8  10
ATOM     10  C   UNL A   1      29.957  27.841  22.986  1.00  0.00     0.038 A 
ATOM     11  C   UNL A   1      28.761  31.170  21.464  1.00  0.00     0.044 C 
ATOM     12  C   UNL A   1      28.767  29.855  22.184  1.00  0.00    -0.046 A 
ATOM     13  C   UNL A   1      27.585  29.414  22.776  1.00  0.00     0.042 A 
ATOM     14  C   UNL A   1      29.942  29.079  22.315  1.00  0.00     0.029 A 
ATOM     15  C   UNL A   1      27.584  28.203  23.431  1.00  0.00     0.125 A 
ATOM     16  F   UNL A   1      26.460  27.759  24.011  1.00  0.00    -0.207 F 
ATOM     17  C   UNL A   1      28.735  27.428  23.501  1.00  0.00     0.065 A 
ENDBRANCH   8  10
ENDBRANCH   7   8
BRANCH   7  18
ATOM     18  C   UNL A   1      33.297  26.056  23.671  1.00  0.00    -0.016 A 
ATOM     19  C   UNL A   1      33.114  25.157  22.614  1.00  0.00     0.009 A 
ATOM     20  C   UNL A   1      34.212  25.715  24.677  1.00  0.00     0.009 A 
ATOM     21  C   UNL A   1      33.533  23.831  22.729  1.00  0.00    -0.051 A 
ATOM     22  C   UNL A   1      34.822  24.453  24.687  1.00  0.00    -0.051 A 
ATOM     23  C   UNL A   1      32.830  22.774  21.925  1.00  0.00     0.044 C 
ATOM     24  C   UNL A   1      34.412  23.491  23.755  1.00  0.00     0.006 A 
ATOM     25  C   UNL A   1      35.808  24.081  25.751  1.00  0.00     0.044 C 
ENDBRANCH   7  18
ENDBRANCH   4   7
ENDBRANCH   2   3
ENDBRANCH   1   2
BRANCH   1  26
ATOM     26  C   UNL A   1      33.480  28.655  27.315  1.00  0.00     0.023 C 
BRANCH  26  27
ATOM     27  C   UNL A   1      34.945  28.909  27.040  1.00  0.00     0.116 C 
BRANCH  27  28
ATOM     28  N   UNL A   1      35.294  30.315  27.249  1.00  0.00    -0.352 N 
ATOM     29  C   UNL A   1      36.286  30.806  28.074  1.00  0.00     0.251 C 
ATOM     30  H   UNL A   1      34.768  30.979  26.749  1.00  0.00     0.163 HD
ATOM     31  O   UNL A   1      36.316  31.960  28.446  1.00  0.00    -0.269 OA
BRANCH  29  32
ATOM     32  C   UNL A   1      37.358  29.864  28.413  1.00  0.00     0.039 A 
ATOM     33  C   UNL A   1      37.268  28.954  29.471  1.00  0.00     0.014 A 
ATOM     34  C   UNL A   1      38.468  29.913  27.575  1.00  0.00     0.014 A 
ATOM     35  C   UNL A   1      38.329  28.079  29.684  1.00  0.00     0.010 A 
ATOM     36  C   UNL A   1      39.378  28.914  27.635  1.00  0.00     0.010 A 
ATOM     37  C   UNL A   1      39.377  28.093  28.763  1.00  0.00    -0.014 A 
BRANCH  37  38
ATOM     38  C   UNL A   1      40.637  27.396  28.903  1.00  0.00     0.031 A 
ATOM     39  C   UNL A   1      40.713  25.975  28.577  1.00  0.00     0.074 A 
ATOM     40  C   UNL A   1      41.684  28.237  29.077  1.00  0.00     0.049 A 
ATOM     41  N   UNL A   1      41.628  25.182  29.004  1.00  0.00    -0.248 NA
ATOM     42  C   UNL A   1      39.714  25.306  27.750  1.00  0.00     0.031 C 
ATOM     43  C   UNL A   1      43.107  28.062  28.858  1.00  0.00     0.029 A 
ATOM     44  N   UNL A   1      41.589  29.547  29.586  1.00  0.00    -0.354 N 
ATOM     45  C   UNL A   1      41.562  24.042  28.230  1.00  0.00     0.074 A 
ATOM     46  C   UNL A   1      40.266  24.096  27.598  1.00  0.00     0.031 C 
ATOM     47  C   UNL A   1      43.763  29.040  29.518  1.00  0.00     0.029 A 
ATOM     48  C   UNL A   1      42.773  29.780  30.293  1.00  0.00     0.049 A 
ATOM     49  H   UNL A   1      40.839  30.174  29.468  1.00  0.00     0.167 HD
ATOM     50  C   UNL A   1      42.707  23.319  28.059  1.00  0.00     0.037 A 
ATOM     51  C   UNL A   1      42.689  29.824  31.658  1.00  0.00     0.037 A 
ATOM     52  C   UNL A   1      43.796  23.965  28.799  1.00  0.00     0.049 A 
ATOM     53  C   UNL A   1      43.388  28.636  32.260  1.00  0.00     0.074 A 
ATOM     54  C   UNL A   1      44.756  24.877  28.389  1.00  0.00     0.029 A 
ATOM     55  N   UNL A   1      43.737  24.048  30.187  1.00  0.00    -0.354 N 
ATOM     56  N   UNL A   1      43.463  27.464  31.690  1.00  0.00    -0.248 NA
ATOM     57  C   UNL A   1      44.121  28.715  33.515  1.00  0.00     0.031 C 
ATOM     58  C   UNL A   1      45.209  25.575  29.539  1.00  0.00     0.029 A 
ATOM     59  C   UNL A   1      44.534  25.082  30.645  1.00  0.00     0.049 A 
ATOM     60  H   UNL A   1      43.203  23.454  30.763  1.00  0.00     0.167 HD
ATOM     61  C   UNL A   1      44.284  26.662  32.433  1.00  0.00     0.074 A 
ATOM     62  C   UNL A   1      44.661  27.486  33.569  1.00  0.00     0.031 C 
ATOM     63  C   UNL A   1      44.623  25.392  32.063  1.00  0.00     0.037 A 
BRANCH  50  64
ATOM     64  C   UNL A   1      42.956  22.278  26.982  1.00  0.00     0.064 A 
ATOM     65  C   UNL A   1      42.292  21.029  27.036  1.00  0.00     0.173 A 
ATOM     66  C   UNL A   1      43.843  22.416  25.897  1.00  0.00     0.173 A 
ATOM     67  F   UNL A   1      41.346  20.776  27.949  1.00  0.00    -0.203 F 
ATOM     68  C   UNL A   1      42.565  19.985  26.147  1.00  0.00     0.198 A 
ATOM     69  C   UNL A   1      44.138  21.360  25.022  1.00  0.00     0.198 A 
ATOM     70  F   UNL A   1      44.414  23.587  25.601  1.00  0.00    -0.203 F 
ATOM     71  F   UNL A   1      41.907  18.823  26.266  1.00  0.00    -0.200 F 
ATOM     72  C   UNL A   1      43.506  20.141  25.153  1.00  0.00     0.200 A 
ATOM     73  F   UNL A   1      45.036  21.541  24.044  1.00  0.00    -0.200 F 
ATOM     74  F   UNL A   1      43.781  19.137  24.310  1.00  0.00    -0.200 F 
ENDBRANCH  50  64
BRANCH  51  75
ATOM     75  C   UNL A   1      41.378  30.393  32.121  1.00  0.00     0.064 A 
ATOM     76  C   UNL A   1      41.049  31.699  31.691  1.00  0.00     0.173 A 
ATOM     77  C   UNL A   1      40.319  29.576  32.544  1.00  0.00     0.173 A 
ATOM     78  F   UNL A   1      42.020  32.533  31.287  1.00  0.00    -0.203 F 
ATOM     79  C   UNL A   1      39.724  32.102  31.531  1.00  0.00     0.198 A 
ATOM     80  C   UNL A   1      38.991  29.999  32.414  1.00  0.00     0.198 A 
ATOM     81  F   UNL A   1      40.552  28.330  32.979  1.00  0.00    -0.203 F 
ATOM     82  F   UNL A   1      39.452  33.290  30.969  1.00  0.00    -0.200 F 
ATOM     83  C   UNL A   1      38.696  31.240  31.866  1.00  0.00     0.200 A 
ATOM     84  F   UNL A   1      37.990  29.167  32.736  1.00  0.00    -0.200 F 
ATOM     85  F   UNL A   1      37.424  31.590  31.632  1.00  0.00    -0.200 F 
ENDBRANCH  51  75
BRANCH  63  86
ATOM     86  C   UNL A   1      45.215  24.376  33.001  1.00  0.00     0.064 A 
ATOM     87  C   UNL A   1      46.518  24.474  33.513  1.00  0.00     0.173 A 
ATOM     88  C   UNL A   1      44.428  23.326  33.530  1.00  0.00     0.173 A 
ATOM     89  F   UNL A   1      47.302  25.526  33.238  1.00  0.00    -0.203 F 
ATOM     90  C   UNL A   1      47.045  23.516  34.376  1.00  0.00     0.198 A 
ATOM     91  C   UNL A   1      44.931  22.418  34.456  1.00  0.00     0.198 A 
ATOM     92  F   UNL A   1      43.141  23.164  33.188  1.00  0.00    -0.203 F 
ATOM     93  F   UNL A   1      48.324  23.608  34.762  1.00  0.00    -0.200 F 
ATOM     94  C   UNL A   1      46.251  22.490  34.850  1.00  0.00     0.200 A 
ATOM     95  F   UNL A   1      44.125  21.482  34.975  1.00  0.00    -0.200 F 
ATOM     96  F   UNL A   1      46.749  21.590  35.706  1.00  0.00    -0.200 F 
ENDBRANCH  63  86
ENDBRANCH  37  38
ENDBRANCH  29  32
ENDBRANCH  27  28
ENDBRANCH  26  27
ENDBRANCH   1  26
TORSDOF 14
ENDMDL
MODEL 2
REMARK VINA RESULT:     -14.1      1.332      3.422
REMARK SMILES Cc1cc(F)cc(N[C@H](C(=O)NCCCCNC(=O)c2ccc(-c3c4nc(c(-c5c(F)c(F)c(F)c(F)c5F)c5ccc([nH]5)c(-c5c(F)c(F)c(F)c(F)c5F)c5nc(c(-c6c(F)c(F)c(F)c(F)c6F)c6ccc3[nH]6)C=C5)C=C4)cc2)c2cc(C)cc(C)c2)c1
REMARK SMILES IDX 14 1 13 2 12 3 10 4 11 5 9 7 8 8 7 10 1 11 2 12 3 13 91 14
REMARK SMILES IDX 4 15 5 16 6 17 83 18 84 19 90 20 85 21 88 22 86 23 87 24
REMARK SMILES IDX 89 25 15 26 16 27 17 28 18 29 19 31 20 32 21 33 82 34 22 35
REMARK SMILES IDX 81 36 23 37 24 38 25 39 75 40 26 41 80 42 74 43 76 44 27 45
REMARK SMILES IDX 79 46 73 47 72 48 28 50 60 51 40 52 59 53 41 54 44 55 58 56
REMARK SMILES IDX 77 57 42 58 43 59 57 61 78 62 45 63 29 64 30 65 38 66 31 67
REMARK SMILES IDX 32 68 36 69 39 70 33 71 34 72 37 73 35 74 61 75 62 76 70 77
REMARK SMILES IDX 63 78 64 79 68 80 71 81 65 82 66 83 69 84 67 85 46 86 47 87
REMARK SMILES IDX 55 88 48 89 49 90 53 91 56 92 50 93 51 94 54 95 52 96
REMARK H PARENT 12 6 8 9 17 30 76 49 44 60
REMARK Flexibility Score: inf
ROOT
ATOM      1  C   UNL A   1      32.584  30.060  26.947  1.00  0.00     0.023 C 
ENDROOT
BRANCH   1   2
ATOM      2  C   UNL A   1      31.839  30.142  25.617  1.00  0.00     0.116 C 
BRANCH   2   3
ATOM      3  N   UNL A   1      32.673  29.774  24.495  1.00  0.00    -0.354 N 
ATOM      4  C   UNL A   1      32.506  28.771  23.581  1.00  0.00     0.247 C 
ATOM      5  O   UNL A   1      33.425  28.653  22.762  1.00  0.00    -0.272 OA
ATOM      6  H   UNL A   1      33.478  30.326  24.371  1.00  0.00     0.163 HD
BRANCH   4   7
ATOM      7  C   UNL A   1      31.312  27.775  23.663  1.00  0.00     0.200 C 
BRANCH   7   8
ATOM      8  N   UNL A   1      31.106  27.152  25.006  1.00  0.00    -0.370 N 
ATOM      9  H   UNL A   1      30.572  27.702  25.624  1.00  0.00     0.161 HD
BRANCH   8  10
ATOM     10  C   UNL A   1      31.524  25.950  25.543  1.00  0.00     0.038 A 
ATOM     11  C   UNL A   1      29.893  22.765  26.967  1.00  0.00     0.044 C 
ATOM     12  C   UNL A   1      30.922  23.750  26.500  1.00  0.00    -0.046 A 
ATOM     13  C   UNL A   1      32.269  23.412  26.615  1.00  0.00     0.042 A 
ATOM     14  C   UNL A   1      30.565  25.020  25.989  1.00  0.00     0.029 A 
ATOM     15  C   UNL A   1      33.217  24.310  26.179  1.00  0.00     0.125 A 
ATOM     16  F   UNL A   1      34.519  24.009  26.283  1.00  0.00    -0.207 F 
ATOM     17  C   UNL A   1      32.845  25.530  25.629  1.00  0.00     0.065 A 
ENDBRANCH   8  10
ENDBRANCH   7   8
BRANCH   7  18
ATOM     18  C   UNL A   1      29.996  28.295  23.086  1.00  0.00    -0.016 A 
ATOM     19  C   UNL A   1      29.978  29.422  22.257  1.00  0.00     0.009 A 
ATOM     20  C   UNL A   1      28.769  27.775  23.521  1.00  0.00     0.009 A 
ATOM     21  C   UNL A   1      28.834  30.214  22.160  1.00  0.00    -0.051 A 
ATOM     22  C   UNL A   1      27.571  28.446  23.238  1.00  0.00    -0.051 A 
ATOM     23  C   UNL A   1      28.982  31.667  21.806  1.00  0.00     0.044 C 
ATOM     24  C   UNL A   1      27.624  29.707  22.630  1.00  0.00     0.006 A 
ATOM     25  C   UNL A   1      26.254  27.895  23.689  1.00  0.00     0.044 C 
ENDBRANCH   7  18
ENDBRANCH   4   7
ENDBRANCH   2   3
ENDBRANCH   1   2
BRANCH   1  26
ATOM     26  C   UNL A   1      33.339  28.753  27.197  1.00  0.00     0.023 C 
BRANCH  26  27
ATOM     27  C   UNL A   1      34.840  28.922  27.134  1.00  0.00     0.116 C 
BRANCH  27  28
ATOM     28  N   UNL A   1      35.225  30.332  27.197  1.00  0.00    -0.352 N 
ATOM     29  C   UNL A   1      36.264  30.873  27.928  1.00  0.00     0.251 C 
ATOM     30  H   UNL A   1      34.687  30.961  26.664  1.00  0.00     0.163 HD
ATOM     31  O   UNL A   1      36.333  32.055  28.192  1.00  0.00    -0.269 OA
BRANCH  29  32
ATOM     32  C   UNL A   1      37.333  29.941  28.301  1.00  0.00     0.039 A 
ATOM     33  C   UNL A   1      37.249  29.084  29.404  1.00  0.00     0.014 A 
ATOM     34  C   UNL A   1      38.435  29.942  27.450  1.00  0.00     0.014 A 
ATOM     35  C   UNL A   1      38.306  28.214  29.647  1.00  0.00     0.010 A 
ATOM     36  C   UNL A   1      39.338  28.940  27.549  1.00  0.00     0.010 A 
ATOM     37  C   UNL A   1      39.344  28.175  28.716  1.00  0.00    -0.014 A 
BRANCH  37  38
ATOM     38  C   UNL A   1      40.601  27.477  28.877  1.00  0.00     0.031 A 
ATOM     39  C   UNL A   1      40.677  26.051  28.571  1.00  0.00     0.074 A 
ATOM     40  C   UNL A   1      41.649  28.317  29.047  1.00  0.00     0.049 A 
ATOM     41  N   UNL A   1      41.585  25.262  29.016  1.00  0.00    -0.248 NA
ATOM     42  C   UNL A   1      39.682  25.373  27.745  1.00  0.00     0.031 C 
ATOM     43  C   UNL A   1      43.074  28.135  28.843  1.00  0.00     0.029 A 
ATOM     44  N   UNL A   1      41.554  29.635  29.538  1.00  0.00    -0.354 N 
ATOM     45  C   UNL A   1      41.523  24.112  28.258  1.00  0.00     0.074 A 
ATOM     46  C   UNL A   1      40.232  24.160  27.615  1.00  0.00     0.031 C 
ATOM     47  C   UNL A   1      43.726  29.121  29.496  1.00  0.00     0.029 A 
ATOM     48  C   UNL A   1      42.732  29.875  30.252  1.00  0.00     0.049 A 
ATOM     49  H   UNL A   1      40.806  30.262  29.404  1.00  0.00     0.167 HD
ATOM     50  C   UNL A   1      42.667  23.383  28.107  1.00  0.00     0.037 A 
ATOM     51  C   UNL A   1      42.637  29.938  31.614  1.00  0.00     0.037 A 
ATOM     52  C   UNL A   1      43.751  24.036  28.848  1.00  0.00     0.049 A 
ATOM     53  C   UNL A   1      43.327  28.757  32.239  1.00  0.00     0.074 A 
ATOM     54  C   UNL A   1      44.718  24.940  28.433  1.00  0.00     0.029 A 
ATOM     55  N   UNL A   1      43.681  24.139  30.234  1.00  0.00    -0.354 N 
ATOM     56  N   UNL A   1      43.403  27.576  31.686  1.00  0.00    -0.248 NA
ATOM     57  C   UNL A   1      44.049  28.851  33.500  1.00  0.00     0.031 C 
ATOM     58  C   UNL A   1      45.163  25.653  29.577  1.00  0.00     0.029 A 
ATOM     59  C   UNL A   1      44.477  25.177  30.684  1.00  0.00     0.049 A 
ATOM     60  H   UNL A   1      43.140  23.554  30.813  1.00  0.00     0.167 HD
ATOM     61  C   UNL A   1      44.216  26.783  32.447  1.00  0.00     0.074 A 
ATOM     62  C   UNL A   1      44.585  27.622  33.575  1.00  0.00     0.031 C 
ATOM     63  C   UNL A   1      44.555  25.506  32.098  1.00  0.00     0.037 A 
BRANCH  50  64
ATOM     64  C   UNL A   1      42.923  22.327  27.047  1.00  0.00     0.064 A 
ATOM     65  C   UNL A   1      42.238  21.089  27.100  1.00  0.00     0.173 A 
ATOM     66  C   UNL A   1      43.835  22.439  25.980  1.00  0.00     0.173 A 
ATOM     67  F   UNL A   1      41.268  20.861  27.994  1.00  0.00    -0.203 F 
ATOM     68  C   UNL A   1      42.512  20.031  26.228  1.00  0.00     0.198 A 
ATOM     69  C   UNL A   1      44.132  21.368  25.124  1.00  0.00     0.198 A 
ATOM     70  F   UNL A   1      44.432  23.597  25.684  1.00  0.00    -0.203 F 
ATOM     71  F   UNL A   1      41.833  18.881  26.344  1.00  0.00    -0.200 F 
ATOM     72  C   UNL A   1      43.477  20.161  25.254  1.00  0.00     0.200 A 
ATOM     73  F   UNL A   1      45.054  21.524  24.163  1.00  0.00    -0.200 F 
ATOM     74  F   UNL A   1      43.754  19.143  24.428  1.00  0.00    -0.200 F 
ENDBRANCH  50  64
BRANCH  51  75
ATOM     75  C   UNL A   1      41.323  30.516  32.058  1.00  0.00     0.064 A 
ATOM     76  C   UNL A   1      41.002  31.818  31.609  1.00  0.00     0.173 A 
ATOM     77  C   UNL A   1      40.258  29.708  32.483  1.00  0.00     0.173 A 
ATOM     78  F   UNL A   1      41.979  32.644  31.202  1.00  0.00    -0.203 F 
ATOM     79  C   UNL A   1      39.680  32.222  31.431  1.00  0.00     0.198 A 
ATOM     80  C   UNL A   1      38.932  30.134  32.335  1.00  0.00     0.198 A 
ATOM     81  F   UNL A   1      40.483  28.468  32.936  1.00  0.00    -0.203 F 
ATOM     82  F   UNL A   1      39.416  33.404  30.851  1.00  0.00    -0.200 F 
ATOM     83  C   UNL A   1      38.645  31.368  31.769  1.00  0.00     0.200 A 
ATOM     84  F   UNL A   1      37.926  29.308  32.659  1.00  0.00    -0.200 F 
ATOM     85  F   UNL A   1      37.377  31.719  31.518  1.00  0.00    -0.200 F 
ENDBRANCH  51  75
BRANCH  63  86
ATOM     86  C   UNL A   1      45.136  24.502  33.056  1.00  0.00     0.064 A 
ATOM     87  C   UNL A   1      44.447  23.351  33.469  1.00  0.00     0.173 A 
ATOM     88  C   UNL A   1      46.479  24.599  33.489  1.00  0.00     0.173 A 
ATOM     89  F   UNL A   1      43.237  23.045  32.981  1.00  0.00    -0.203 F 
ATOM     90  C   UNL A   1      45.005  22.439  34.362  1.00  0.00     0.198 A 
ATOM     91  C   UNL A   1      47.062  23.644  34.315  1.00  0.00     0.198 A 
ATOM     92  F   UNL A   1      47.276  25.607  33.104  1.00  0.00    -0.203 F 
ATOM     93  F   UNL A   1      44.271  21.406  34.795  1.00  0.00    -0.200 F 
ATOM     94  C   UNL A   1      46.313  22.584  34.782  1.00  0.00     0.200 A 
ATOM     95  F   UNL A   1      48.356  23.749  34.643  1.00  0.00    -0.200 F 
ATOM     96  F   UNL A   1      46.858  21.688  35.614  1.00  0.00    -0.200 F 
ENDBRANCH  63  86
ENDBRANCH  37  38
ENDBRANCH  29  32
ENDBRANCH  27  28
ENDBRANCH  26  27
ENDBRANCH   1  26
TORSDOF 14
ENDMDL
MODEL 3
REMARK VINA RESULT:     -14.1      4.346     10.372
REMARK SMILES Cc1cc(F)cc(N[C@H](C(=O)NCCCCNC(=O)c2ccc(-c3c4nc(c(-c5c(F)c(F)c(F)c(F)c5F)c5ccc([nH]5)c(-c5c(F)c(F)c(F)c(F)c5F)c5nc(c(-c6c(F)c(F)c(F)c(F)c6F)c6ccc3[nH]6)C=C5)C=C4)cc2)c2cc(C)cc(C)c2)c1
REMARK SMILES IDX 14 1 13 2 12 3 10 4 11 5 9 7 8 8 7 10 1 11 2 12 3 13 91 14
REMARK SMILES IDX 4 15 5 16 6 17 83 18 84 19 90 20 85 21 88 22 86 23 87 24
REMARK SMILES IDX 89 25 15 26 16 27 17 28 18 29 19 31 20 32 21 33 82 34 22 35
REMARK SMILES IDX 81 36 23 37 24 38 25 39 75 40 26 41 80 42 74 43 76 44 27 45
REMARK SMILES IDX 79 46 73 47 72 48 28 50 60 51 40 52 59 53 41 54 44 55 58 56
REMARK SMILES IDX 77 57 42 58 43 59 57 61 78 62 45 63 29 64 30 65 38 66 31 67
REMARK SMILES IDX 32 68 36 69 39 70 33 71 34 72 37 73 35 74 61 75 62 76 70 77
REMARK SMILES IDX 63 78 64 79 68 80 71 81 65 82 66 83 69 84 67 85 46 86 47 87
REMARK SMILES IDX 55 88 48 89 49 90 53 91 56 92 50 93 51 94 54 95 52 96
REMARK H PARENT 12 6 8 9 17 30 76 49 44 60
REMARK Flexibility Score: inf
ROOT
ATOM      1  C   UNL A   1      37.318  21.917  24.894  1.00  0.00     0.023 C 
ENDROOT
BRANCH   1   2
ATOM      2  C   UNL A   1      36.196  20.981  25.340  1.00  0.00     0.116 C 
BRANCH   2   3
ATOM      3  N   UNL A   1      35.527  21.454  26.531  1.00  0.00    -0.354 N 
ATOM      4  C   UNL A   1      34.275  21.985  26.672  1.00  0.00     0.247 C 
ATOM      5  O   UNL A   1      33.994  22.365  27.815  1.00  0.00    -0.272 OA
ATOM      6  H   UNL A   1      36.049  21.384  27.363  1.00  0.00     0.163 HD
BRANCH   4   7
ATOM      7  C   UNL A   1      33.337  22.212  25.449  1.00  0.00     0.200 C 
BRANCH   7   8
ATOM      8  N   UNL A   1      32.401  21.084  25.159  1.00  0.00    -0.370 N 
ATOM      9  H   UNL A   1      31.491  21.219  25.510  1.00  0.00     0.161 HD
BRANCH   8  10
ATOM     10  C   UNL A   1      32.572  19.886  24.492  1.00  0.00     0.038 A 
ATOM     11  C   UNL A   1      33.532  16.263  25.376  1.00  0.00     0.044 C 
ATOM     12  C   UNL A   1      33.112  17.475  24.601  1.00  0.00    -0.046 A 
ATOM     13  C   UNL A   1      32.898  17.347  23.230  1.00  0.00     0.042 A 
ATOM     14  C   UNL A   1      32.971  18.743  25.211  1.00  0.00     0.029 A 
ATOM     15  C   UNL A   1      32.504  18.455  22.514  1.00  0.00     0.125 A 
ATOM     16  F   UNL A   1      32.296  18.359  21.194  1.00  0.00    -0.207 F 
ATOM     17  C   UNL A   1      32.316  19.681  23.142  1.00  0.00     0.065 A 
ENDBRANCH   8  10
ENDBRANCH   7   8
BRANCH   7  18
ATOM     18  C   UNL A   1      32.608  23.554  25.435  1.00  0.00    -0.016 A 
ATOM     19  C   UNL A   1      33.313  24.745  25.225  1.00  0.00     0.009 A 
ATOM     20  C   UNL A   1      31.261  23.642  25.814  1.00  0.00     0.009 A 
ATOM     21  C   UNL A   1      32.824  25.955  25.719  1.00  0.00    -0.051 A 
ATOM     22  C   UNL A   1      30.682  24.885  26.102  1.00  0.00    -0.051 A 
ATOM     23  C   UNL A   1      33.796  27.056  26.039  1.00  0.00     0.044 C 
ATOM     24  C   UNL A   1      31.495  26.025  26.131  1.00  0.00     0.006 A 
ATOM     25  C   UNL A   1      29.242  24.991  26.499  1.00  0.00     0.044 C 
ENDBRANCH   7  18
ENDBRANCH   4   7
ENDBRANCH   2   3
ENDBRANCH   1   2
BRANCH   1  26
ATOM     26  C   UNL A   1      37.002  23.410  24.983  1.00  0.00     0.023 C 
BRANCH  26  27
ATOM     27  C   UNL A   1      37.682  24.085  26.152  1.00  0.00     0.116 C 
BRANCH  27  28
ATOM     28  N   UNL A   1      38.818  23.300  26.638  1.00  0.00    -0.352 N 
ATOM     29  C   UNL A   1      40.056  23.783  27.011  1.00  0.00     0.251 C 
ATOM     30  H   UNL A   1      38.685  22.327  26.707  1.00  0.00     0.163 HD
ATOM     31  O   UNL A   1      41.038  23.075  27.093  1.00  0.00    -0.269 OA
BRANCH  29  32
ATOM     32  C   UNL A   1      40.102  25.202  27.383  1.00  0.00     0.039 A 
ATOM     33  C   UNL A   1      40.300  26.229  26.455  1.00  0.00     0.014 A 
ATOM     34  C   UNL A   1      39.893  25.459  28.735  1.00  0.00     0.014 A 
ATOM     35  C   UNL A   1      40.290  27.543  26.911  1.00  0.00     0.010 A 
ATOM     36  C   UNL A   1      39.647  26.729  29.129  1.00  0.00     0.010 A 
ATOM     37  C   UNL A   1      39.980  27.763  28.253  1.00  0.00    -0.014 A 
BRANCH  37  38
ATOM     38  C   UNL A   1      40.090  29.025  28.952  1.00  0.00     0.031 A 
ATOM     39  C   UNL A   1      38.979  29.972  28.908  1.00  0.00     0.074 A 
ATOM     40  C   UNL A   1      41.142  29.062  29.804  1.00  0.00     0.049 A 
ATOM     41  N   UNL A   1      39.087  31.227  29.149  1.00  0.00    -0.248 NA
ATOM     42  C   UNL A   1      37.623  29.572  28.542  1.00  0.00     0.031 C 
ATOM     43  C   UNL A   1      41.415  29.889  30.964  1.00  0.00     0.029 A 
ATOM     44  N   UNL A   1      42.296  28.260  29.694  1.00  0.00    -0.354 N 
ATOM     45  C   UNL A   1      37.810  31.709  29.343  1.00  0.00     0.074 A 
ATOM     46  C   UNL A   1      36.942  30.698  28.789  1.00  0.00     0.031 C 
ATOM     47  C   UNL A   1      42.732  29.806  31.246  1.00  0.00     0.029 A 
ATOM     48  C   UNL A   1      43.357  29.031  30.179  1.00  0.00     0.049 A 
ATOM     49  H   UNL A   1      42.345  27.340  29.346  1.00  0.00     0.167 HD
ATOM     50  C   UNL A   1      37.653  32.801  30.147  1.00  0.00     0.037 A 
ATOM     51  C   UNL A   1      44.258  29.503  29.264  1.00  0.00     0.037 A 
ATOM     52  C   UNL A   1      38.970  33.232  30.629  1.00  0.00     0.049 A 
ATOM     53  C   UNL A   1      44.145  30.998  29.148  1.00  0.00     0.074 A 
ATOM     54  C   UNL A   1      39.650  32.933  31.800  1.00  0.00     0.029 A 
ATOM     55  N   UNL A   1      39.920  33.698  29.727  1.00  0.00    -0.354 N 
ATOM     56  N   UNL A   1      43.033  31.664  29.311  1.00  0.00    -0.248 NA
ATOM     57  C   UNL A   1      45.300  31.853  28.917  1.00  0.00     0.031 C 
ATOM     58  C   UNL A   1      41.034  33.139  31.562  1.00  0.00     0.029 A 
ATOM     59  C   UNL A   1      41.193  33.570  30.254  1.00  0.00     0.049 A 
ATOM     60  H   UNL A   1      39.716  34.068  28.837  1.00  0.00     0.167 HD
ATOM     61  C   UNL A   1      43.310  33.002  29.279  1.00  0.00     0.074 A 
ATOM     62  C   UNL A   1      44.739  33.068  29.020  1.00  0.00     0.031 C 
ATOM     63  C   UNL A   1      42.367  33.966  29.492  1.00  0.00     0.037 A 
BRANCH  50  64
ATOM     64  C   UNL A   1      36.357  33.263  30.788  1.00  0.00     0.064 A 
ATOM     65  C   UNL A   1      35.462  34.087  30.065  1.00  0.00     0.173 A 
ATOM     66  C   UNL A   1      35.941  32.969  32.101  1.00  0.00     0.173 A 
ATOM     67  F   UNL A   1      35.664  34.377  28.773  1.00  0.00    -0.203 F 
ATOM     68  C   UNL A   1      34.313  34.644  30.634  1.00  0.00     0.198 A 
ATOM     69  C   UNL A   1      34.804  33.550  32.682  1.00  0.00     0.198 A 
ATOM     70  F   UNL A   1      36.578  32.069  32.856  1.00  0.00    -0.203 F 
ATOM     71  F   UNL A   1      33.518  35.427  29.892  1.00  0.00    -0.200 F 
ATOM     72  C   UNL A   1      33.996  34.395  31.951  1.00  0.00     0.200 A 
ATOM     73  F   UNL A   1      34.496  33.274  33.957  1.00  0.00    -0.200 F 
ATOM     74  F   UNL A   1      32.904  34.941  32.504  1.00  0.00    -0.200 F 
ENDBRANCH  50  64
BRANCH  51  75
ATOM     75  C   UNL A   1      44.444  28.550  28.118  1.00  0.00     0.064 A 
ATOM     76  C   UNL A   1      44.882  27.241  28.427  1.00  0.00     0.173 A 
ATOM     77  C   UNL A   1      43.802  28.732  26.885  1.00  0.00     0.173 A 
ATOM     78  F   UNL A   1      45.515  27.005  29.587  1.00  0.00    -0.203 F 
ATOM     79  C   UNL A   1      44.542  26.151  27.627  1.00  0.00     0.198 A 
ATOM     80  C   UNL A   1      43.494  27.637  26.068  1.00  0.00     0.198 A 
ATOM     81  F   UNL A   1      43.371  29.945  26.514  1.00  0.00    -0.203 F 
ATOM     82  F   UNL A   1      44.836  24.907  28.036  1.00  0.00    -0.200 F 
ATOM     83  C   UNL A   1      43.823  26.348  26.462  1.00  0.00     0.200 A 
ATOM     84  F   UNL A   1      42.795  27.822  24.938  1.00  0.00    -0.200 F 
ATOM     85  F   UNL A   1      43.419  25.295  25.738  1.00  0.00    -0.200 F 
ENDBRANCH  51  75
BRANCH  63  86
ATOM     86  C   UNL A   1      42.548  35.413  29.120  1.00  0.00     0.064 A 
ATOM     87  C   UNL A   1      41.903  36.009  28.025  1.00  0.00     0.173 A 
ATOM     88  C   UNL A   1      43.284  36.292  29.948  1.00  0.00     0.173 A 
ATOM     89  F   UNL A   1      41.028  35.328  27.271  1.00  0.00    -0.203 F 
ATOM     90  C   UNL A   1      42.093  37.349  27.699  1.00  0.00     0.198 A 
ATOM     91  C   UNL A   1      43.404  37.649  29.666  1.00  0.00     0.198 A 
ATOM     92  F   UNL A   1      43.884  35.871  31.072  1.00  0.00    -0.203 F 
ATOM     93  F   UNL A   1      41.527  37.845  26.590  1.00  0.00    -0.200 F 
ATOM     94  C   UNL A   1      42.840  38.170  28.521  1.00  0.00     0.200 A 
ATOM     95  F   UNL A   1      44.057  38.450  30.519  1.00  0.00    -0.200 F 
ATOM     96  F   UNL A   1      42.994  39.466  28.223  1.00  0.00    -0.200 F 
ENDBRANCH  63  86
ENDBRANCH  37  38
ENDBRANCH  29  32
ENDBRANCH  27  28
ENDBRANCH  26  27
ENDBRANCH   1  26
TORSDOF 14
ENDMDL
