MODEL 1
REMARK VINA RESULT:     -10.9      0.000      0.000
REMARK SMILES N#CC[C@@H]1C[NH2+][C@H](C(=O)NCCCCNC(=O)c2ccc(-c3c4nc(c(-c5c(F)c(F)c(F)c(F)c5F)c5ccc([nH]5)c(-c5c(F)c(F)c(F)c(F)c5F)c5nc(c(-c6c(F)c(F)c(F)c(F)c6F)c6ccc3[nH]6)C=C5)C=C4)cc2)C1
REMARK SMILES IDX 12 1 11 2 10 3 8 4 9 5 7 7 4 8 5 9 81 10 6 11 3 14 2 15 1 16
REMARK SMILES IDX 13 17 14 18 15 19 16 20 17 22 18 23 19 24 80 25 20 26 79 27
REMARK SMILES IDX 21 28 22 29 23 30 73 31 24 32 78 33 72 34 74 35 25 36 77 37
REMARK SMILES IDX 71 38 70 39 26 41 58 42 38 43 57 44 39 45 42 46 56 47 75 48
REMARK SMILES IDX 40 49 41 50 55 52 76 53 43 54 27 55 28 56 36 57 29 58 30 59
REMARK SMILES IDX 34 60 37 61 31 62 32 63 35 64 33 65 59 66 60 67 68 68 61 69
REMARK SMILES IDX 62 70 66 71 69 72 63 73 64 74 67 75 65 76 44 77 45 78 53 79
REMARK SMILES IDX 46 80 47 81 51 82 54 83 48 84 49 85 52 86 50 87
REMARK H PARENT 10 6 6 12 6 13 15 21 74 40 42 51
REMARK Flexibility Score: inf
ROOT
ATOM      1  C   UNL A   1      31.715  30.549  26.791  1.00  0.00     0.023 C 
ENDROOT
BRANCH   1   2
ATOM      2  C   UNL A   1      33.178  30.111  26.688  1.00  0.00     0.116 C 
BRANCH   2   3
ATOM      3  N   UNL A   1      33.511  29.703  25.339  1.00  0.00    -0.351 N 
ATOM      4  C   UNL A   1      33.681  28.446  24.825  1.00  0.00     0.278 C 
ATOM      5  O   UNL A   1      34.027  28.371  23.645  1.00  0.00    -0.268 OA
ATOM      6  H   UNL A   1      33.634  30.439  24.696  1.00  0.00     0.163 HD
BRANCH   4   7
ATOM      7  C   UNL A   1      33.376  27.216  25.720  1.00  0.00     0.273 C 
ATOM      8  C   UNL A   1      32.913  24.919  25.075  1.00  0.00     0.065 C 
ATOM      9  C   UNL A   1      31.712  25.819  24.808  1.00  0.00     0.265 C 
ATOM     10  C   UNL A   1      34.032  25.928  25.222  1.00  0.00     0.086 C 
ATOM     11  N   UNL A   1      31.922  26.925  25.742  1.00  0.00    -0.336 N 
ATOM     12  H   UNL A   1      31.630  26.657  26.681  1.00  0.00     0.346 HD
ATOM     13  H   UNL A   1      31.377  27.745  25.476  1.00  0.00     0.346 HD
BRANCH   8  14
ATOM     14  C   UNL A   1      33.216  23.887  23.983  1.00  0.00     0.129 C 
BRANCH  14  15
ATOM     15  C   UNL A   1      33.455  24.658  22.695  1.00  0.00     0.063 C 
ATOM     16  N   UNL A   1      33.653  25.297  21.626  1.00  0.00    -0.198 NA
ENDBRANCH  14  15
ENDBRANCH   8  14
ENDBRANCH   4   7
ENDBRANCH   2   3
ENDBRANCH   1   2
BRANCH   1  17
ATOM     17  C   UNL A   1      31.514  32.062  26.843  1.00  0.00     0.023 C 
BRANCH  17  18
ATOM     18  C   UNL A   1      32.748  32.844  27.262  1.00  0.00     0.116 C 
BRANCH  18  19
ATOM     19  N   UNL A   1      32.444  34.219  27.626  1.00  0.00    -0.352 N 
ATOM     20  C   UNL A   1      32.997  34.983  28.622  1.00  0.00     0.251 C 
ATOM     21  H   UNL A   1      31.749  34.660  27.085  1.00  0.00     0.163 HD
ATOM     22  O   UNL A   1      32.527  36.083  28.894  1.00  0.00    -0.269 OA
BRANCH  20  23
ATOM     23  C   UNL A   1      34.142  34.452  29.386  1.00  0.00     0.039 A 
ATOM     24  C   UNL A   1      33.903  33.831  30.613  1.00  0.00     0.014 A 
ATOM     25  C   UNL A   1      35.441  34.537  28.875  1.00  0.00     0.014 A 
ATOM     26  C   UNL A   1      34.964  33.246  31.304  1.00  0.00     0.010 A 
ATOM     27  C   UNL A   1      36.480  33.879  29.521  1.00  0.00     0.010 A 
ATOM     28  C   UNL A   1      36.254  33.237  30.748  1.00  0.00    -0.014 A 
BRANCH  28  29
ATOM     29  C   UNL A   1      37.383  32.575  31.446  1.00  0.00     0.031 A 
ATOM     30  C   UNL A   1      38.096  31.422  30.797  1.00  0.00     0.074 A 
ATOM     31  C   UNL A   1      37.730  32.977  32.684  1.00  0.00     0.049 A 
ATOM     32  N   UNL A   1      39.076  30.688  31.259  1.00  0.00    -0.248 NA
ATOM     33  C   UNL A   1      37.627  31.022  29.461  1.00  0.00     0.031 C 
ATOM     34  C   UNL A   1      37.078  34.049  33.439  1.00  0.00     0.029 A 
ATOM     35  N   UNL A   1      38.714  32.528  33.527  1.00  0.00    -0.354 N 
ATOM     36  C   UNL A   1      39.331  29.739  30.279  1.00  0.00     0.074 A 
ATOM     37  C   UNL A   1      38.362  29.945  29.226  1.00  0.00     0.031 C 
ATOM     38  C   UNL A   1      37.700  34.195  34.620  1.00  0.00     0.029 A 
ATOM     39  C   UNL A   1      38.767  33.205  34.721  1.00  0.00     0.049 A 
ATOM     40  H   UNL A   1      39.324  31.791  33.298  1.00  0.00     0.167 HD
ATOM     41  C   UNL A   1      40.305  28.798  30.246  1.00  0.00     0.037 A 
ATOM     42  C   UNL A   1      39.585  33.041  35.778  1.00  0.00     0.037 A 
ATOM     43  C   UNL A   1      41.279  28.608  31.287  1.00  0.00     0.049 A 
ATOM     44  C   UNL A   1      40.653  31.982  35.719  1.00  0.00     0.074 A 
ATOM     45  C   UNL A   1      42.338  27.719  31.329  1.00  0.00     0.029 A 
ATOM     46  N   UNL A   1      41.310  29.323  32.478  1.00  0.00    -0.354 N 
ATOM     47  N   UNL A   1      40.932  31.138  34.756  1.00  0.00    -0.248 NA
ATOM     48  C   UNL A   1      41.526  31.860  36.895  1.00  0.00     0.031 C 
ATOM     49  C   UNL A   1      42.979  27.859  32.564  1.00  0.00     0.029 A 
ATOM     50  C   UNL A   1      42.357  28.878  33.269  1.00  0.00     0.049 A 
ATOM     51  H   UNL A   1      40.681  30.039  32.723  1.00  0.00     0.167 HD
ATOM     52  C   UNL A   1      42.031  30.410  35.193  1.00  0.00     0.074 A 
ATOM     53  C   UNL A   1      42.376  30.923  36.502  1.00  0.00     0.031 C 
ATOM     54  C   UNL A   1      42.694  29.407  34.567  1.00  0.00     0.037 A 
BRANCH  41  55
ATOM     55  C   UNL A   1      40.365  27.905  29.039  1.00  0.00     0.064 A 
ATOM     56  C   UNL A   1      39.645  26.702  28.977  1.00  0.00     0.173 A 
ATOM     57  C   UNL A   1      41.131  28.268  27.921  1.00  0.00     0.173 A 
ATOM     58  F   UNL A   1      38.906  26.300  30.022  1.00  0.00    -0.203 F 
ATOM     59  C   UNL A   1      39.715  25.881  27.855  1.00  0.00     0.198 A 
ATOM     60  C   UNL A   1      41.172  27.461  26.787  1.00  0.00     0.198 A 
ATOM     61  F   UNL A   1      41.837  29.409  27.925  1.00  0.00    -0.203 F 
ATOM     62  F   UNL A   1      39.064  24.710  27.841  1.00  0.00    -0.200 F 
ATOM     63  C   UNL A   1      40.473  26.264  26.758  1.00  0.00     0.200 A 
ATOM     64  F   UNL A   1      41.894  27.839  25.723  1.00  0.00    -0.200 F 
ATOM     65  F   UNL A   1      40.534  25.476  25.676  1.00  0.00    -0.200 F 
ENDBRANCH  41  55
BRANCH  42  66
ATOM     66  C   UNL A   1      39.450  33.921  36.968  1.00  0.00     0.064 A 
ATOM     67  C   UNL A   1      38.699  33.516  38.082  1.00  0.00     0.173 A 
ATOM     68  C   UNL A   1      40.055  35.186  37.016  1.00  0.00     0.173 A 
ATOM     69  F   UNL A   1      38.085  32.324  38.076  1.00  0.00    -0.203 F 
ATOM     70  C   UNL A   1      38.539  34.351  39.185  1.00  0.00     0.198 A 
ATOM     71  C   UNL A   1      39.920  36.006  38.133  1.00  0.00     0.198 A 
ATOM     72  F   UNL A   1      40.790  35.619  35.981  1.00  0.00    -0.203 F 
ATOM     73  F   UNL A   1      37.774  33.959  40.213  1.00  0.00    -0.200 F 
ATOM     74  C   UNL A   1      39.153  35.593  39.213  1.00  0.00     0.200 A 
ATOM     75  F   UNL A   1      40.529  37.200  38.163  1.00  0.00    -0.200 F 
ATOM     76  F   UNL A   1      39.001  36.395  40.275  1.00  0.00    -0.200 F 
ENDBRANCH  42  66
BRANCH  54  77
ATOM     77  C   UNL A   1      43.890  28.828  35.269  1.00  0.00     0.064 A 
ATOM     78  C   UNL A   1      43.768  27.786  36.199  1.00  0.00     0.173 A 
ATOM     79  C   UNL A   1      45.178  29.307  34.983  1.00  0.00     0.173 A 
ATOM     80  F   UNL A   1      42.558  27.302  36.518  1.00  0.00    -0.203 F 
ATOM     81  C   UNL A   1      44.890  27.266  36.841  1.00  0.00     0.198 A 
ATOM     82  C   UNL A   1      46.299  28.761  35.601  1.00  0.00     0.198 A 
ATOM     83  F   UNL A   1      45.350  30.298  34.095  1.00  0.00    -0.203 F 
ATOM     84  F   UNL A   1      44.744  26.309  37.768  1.00  0.00    -0.200 F 
ATOM     85  C   UNL A   1      46.153  27.749  36.536  1.00  0.00     0.200 A 
ATOM     86  F   UNL A   1      47.521  29.219  35.293  1.00  0.00    -0.200 F 
ATOM     87  F   UNL A   1      47.232  27.244  37.151  1.00  0.00    -0.200 F 
ENDBRANCH  54  77
ENDBRANCH  28  29
ENDBRANCH  20  23
ENDBRANCH  18  19
ENDBRANCH  17  18
ENDBRANCH   1  17
TORSDOF 13
ENDMDL
MODEL 2
REMARK VINA RESULT:     -10.9      6.242     11.657
REMARK SMILES N#CC[C@@H]1C[NH2+][C@H](C(=O)NCCCCNC(=O)c2ccc(-c3c4nc(c(-c5c(F)c(F)c(F)c(F)c5F)c5ccc([nH]5)c(-c5c(F)c(F)c(F)c(F)c5F)c5nc(c(-c6c(F)c(F)c(F)c(F)c6F)c6ccc3[nH]6)C=C5)C=C4)cc2)C1
REMARK SMILES IDX 12 1 11 2 10 3 8 4 9 5 7 7 4 8 5 9 81 10 6 11 3 14 2 15 1 16
REMARK SMILES IDX 13 17 14 18 15 19 16 20 17 22 18 23 19 24 80 25 20 26 79 27
REMARK SMILES IDX 21 28 22 29 23 30 73 31 24 32 78 33 72 34 74 35 25 36 77 37
REMARK SMILES IDX 71 38 70 39 26 41 58 42 38 43 57 44 39 45 42 46 56 47 75 48
REMARK SMILES IDX 40 49 41 50 55 52 76 53 43 54 27 55 28 56 36 57 29 58 30 59
REMARK SMILES IDX 34 60 37 61 31 62 32 63 35 64 33 65 59 66 60 67 68 68 61 69
REMARK SMILES IDX 62 70 66 71 69 72 63 73 64 74 67 75 65 76 44 77 45 78 53 79
REMARK SMILES IDX 46 80 47 81 51 82 54 83 48 84 49 85 52 86 50 87
REMARK H PARENT 10 6 6 12 6 13 15 21 74 40 42 51
REMARK Flexibility Score: inf
ROOT
ATOM      1  C   UNL A   1      37.677  21.156  24.576  1.00  0.00     0.023 C 
ENDROOT
BRANCH   1   2
ATOM      2  C   UNL A   1      37.086  22.025  25.690  1.00  0.00     0.116 C 
BRANCH   2   3
ATOM      3  N   UNL A   1      35.933  22.766  25.224  1.00  0.00    -0.351 N 
ATOM      4  C   UNL A   1      34.623  22.379  25.142  1.00  0.00     0.278 C 
ATOM      5  O   UNL A   1      33.836  23.187  24.645  1.00  0.00    -0.268 OA
ATOM      6  H   UNL A   1      36.119  23.684  24.921  1.00  0.00     0.163 HD
BRANCH   4   7
ATOM      7  C   UNL A   1      34.203  21.002  25.721  1.00  0.00     0.273 C 
ATOM      8  C   UNL A   1      32.876  19.242  24.698  1.00  0.00     0.065 C 
ATOM      9  C   UNL A   1      31.998  20.407  25.141  1.00  0.00     0.265 C 
ATOM     10  C   UNL A   1      34.252  19.873  24.692  1.00  0.00     0.086 C 
ATOM     11  N   UNL A   1      32.798  21.034  26.194  1.00  0.00    -0.336 N 
ATOM     12  H   UNL A   1      32.706  20.513  27.066  1.00  0.00     0.346 HD
ATOM     13  H   UNL A   1      32.490  21.990  26.376  1.00  0.00     0.346 HD
BRANCH   8  14
ATOM     14  C   UNL A   1      32.521  18.633  23.337  1.00  0.00     0.129 C 
BRANCH  14  15
ATOM     15  C   UNL A   1      33.377  17.387  23.171  1.00  0.00     0.063 C 
ATOM     16  N   UNL A   1      34.086  16.354  23.034  1.00  0.00    -0.198 NA
ENDBRANCH  14  15
ENDBRANCH   8  14
ENDBRANCH   4   7
ENDBRANCH   2   3
ENDBRANCH   1   2
BRANCH   1  17
ATOM     17  C   UNL A   1      38.309  19.854  25.062  1.00  0.00     0.023 C 
BRANCH  17  18
ATOM     18  C   UNL A   1      39.402  20.038  26.101  1.00  0.00     0.116 C 
BRANCH  18  19
ATOM     19  N   UNL A   1      40.425  19.007  26.027  1.00  0.00    -0.352 N 
ATOM     20  C   UNL A   1      41.789  19.150  26.070  1.00  0.00     0.251 C 
ATOM     21  H   UNL A   1      40.096  18.084  25.932  1.00  0.00     0.163 HD
ATOM     22  O   UNL A   1      42.521  18.191  25.849  1.00  0.00    -0.269 OA
BRANCH  20  23
ATOM     23  C   UNL A   1      42.365  20.479  26.353  1.00  0.00     0.039 A 
ATOM     24  C   UNL A   1      42.736  21.293  25.282  1.00  0.00     0.014 A 
ATOM     25  C   UNL A   1      42.506  20.930  27.668  1.00  0.00     0.014 A 
ATOM     26  C   UNL A   1      43.200  22.585  25.531  1.00  0.00     0.010 A 
ATOM     27  C   UNL A   1      42.884  22.245  27.910  1.00  0.00     0.010 A 
ATOM     28  C   UNL A   1      43.246  23.082  26.844  1.00  0.00    -0.014 A 
BRANCH  28  29
ATOM     29  C   UNL A   1      43.687  24.470  27.121  1.00  0.00     0.031 A 
ATOM     30  C   UNL A   1      42.705  25.481  27.642  1.00  0.00     0.074 A 
ATOM     31  C   UNL A   1      44.957  24.832  26.855  1.00  0.00     0.049 A 
ATOM     32  N   UNL A   1      42.885  26.750  27.908  1.00  0.00    -0.248 NA
ATOM     33  C   UNL A   1      41.329  25.012  27.868  1.00  0.00     0.031 C 
ATOM     34  C   UNL A   1      45.988  23.954  26.297  1.00  0.00     0.029 A 
ATOM     35  N   UNL A   1      45.596  26.035  27.013  1.00  0.00    -0.354 N 
ATOM     36  C   UNL A   1      41.649  27.228  28.320  1.00  0.00     0.074 A 
ATOM     37  C   UNL A   1      40.712  26.134  28.207  1.00  0.00     0.031 C 
ATOM     38  C   UNL A   1      47.137  24.639  26.189  1.00  0.00     0.029 A 
ATOM     39  C   UNL A   1      46.916  26.012  26.633  1.00  0.00     0.049 A 
ATOM     40  H   UNL A   1      45.151  26.839  27.364  1.00  0.00     0.167 HD
ATOM     41  C   UNL A   1      41.330  28.462  28.780  1.00  0.00     0.037 A 
ATOM     42  C   UNL A   1      47.840  26.990  26.641  1.00  0.00     0.037 A 
ATOM     43  C   UNL A   1      42.270  29.543  28.909  1.00  0.00     0.049 A 
ATOM     44  C   UNL A   1      47.457  28.355  27.148  1.00  0.00     0.074 A 
ATOM     45  C   UNL A   1      42.062  30.815  29.412  1.00  0.00     0.029 A 
ATOM     46  N   UNL A   1      43.603  29.478  28.527  1.00  0.00    -0.354 N 
ATOM     47  N   UNL A   1      46.303  28.776  27.605  1.00  0.00    -0.248 NA
ATOM     48  C   UNL A   1      48.512  29.379  27.149  1.00  0.00     0.031 C 
ATOM     49  C   UNL A   1      43.253  31.536  29.287  1.00  0.00     0.029 A 
ATOM     50  C   UNL A   1      44.223  30.695  28.762  1.00  0.00     0.049 A 
ATOM     51  H   UNL A   1      44.044  28.685  28.145  1.00  0.00     0.167 HD
ATOM     52  C   UNL A   1      46.500  30.099  27.979  1.00  0.00     0.074 A 
ATOM     53  C   UNL A   1      47.889  30.405  27.708  1.00  0.00     0.031 C 
ATOM     54  C   UNL A   1      45.611  30.981  28.498  1.00  0.00     0.037 A 
BRANCH  41  55
ATOM     55  C   UNL A   1      39.903  28.704  29.182  1.00  0.00     0.064 A 
ATOM     56  C   UNL A   1      39.454  28.456  30.489  1.00  0.00     0.173 A 
ATOM     57  C   UNL A   1      38.978  29.213  28.258  1.00  0.00     0.173 A 
ATOM     58  F   UNL A   1      40.293  27.957  31.409  1.00  0.00    -0.203 F 
ATOM     59  C   UNL A   1      38.127  28.678  30.846  1.00  0.00     0.198 A 
ATOM     60  C   UNL A   1      37.660  29.467  28.628  1.00  0.00     0.198 A 
ATOM     61  F   UNL A   1      39.353  29.471  26.996  1.00  0.00    -0.203 F 
ATOM     62  F   UNL A   1      37.709  28.381  32.084  1.00  0.00    -0.200 F 
ATOM     63  C   UNL A   1      37.232  29.190  29.917  1.00  0.00     0.200 A 
ATOM     64  F   UNL A   1      36.800  29.974  27.734  1.00  0.00    -0.200 F 
ATOM     65  F   UNL A   1      35.957  29.410  30.265  1.00  0.00    -0.200 F 
ENDBRANCH  41  55
BRANCH  42  66
ATOM     66  C   UNL A   1      49.227  26.709  26.185  1.00  0.00     0.064 A 
ATOM     67  C   UNL A   1      49.609  26.944  24.856  1.00  0.00     0.173 A 
ATOM     68  C   UNL A   1      50.194  26.193  27.059  1.00  0.00     0.173 A 
ATOM     69  F   UNL A   1      48.715  27.420  23.977  1.00  0.00    -0.203 F 
ATOM     70  C   UNL A   1      50.897  26.649  24.414  1.00  0.00     0.198 A 
ATOM     71  C   UNL A   1      51.490  25.927  26.623  1.00  0.00     0.198 A 
ATOM     72  F   UNL A   1      49.883  25.957  28.343  1.00  0.00    -0.203 F 
ATOM     73  F   UNL A   1      51.219  26.834  23.127  1.00  0.00    -0.200 F 
ATOM     74  C   UNL A   1      51.838  26.146  25.298  1.00  0.00     0.200 A 
ATOM     75  F   UNL A   1      52.402  25.456  27.486  1.00  0.00    -0.200 F 
ATOM     76  F   UNL A   1      53.077  25.864  24.874  1.00  0.00    -0.200 F 
ENDBRANCH  42  66
BRANCH  54  77
ATOM     77  C   UNL A   1      46.123  32.348  28.852  1.00  0.00     0.064 A 
ATOM     78  C   UNL A   1      46.086  33.412  27.939  1.00  0.00     0.173 A 
ATOM     79  C   UNL A   1      46.633  32.602  30.136  1.00  0.00     0.173 A 
ATOM     80  F   UNL A   1      45.621  33.219  26.696  1.00  0.00    -0.203 F 
ATOM     81  C   UNL A   1      46.569  34.671  28.288  1.00  0.00     0.198 A 
ATOM     82  C   UNL A   1      47.083  33.869  30.491  1.00  0.00     0.198 A 
ATOM     83  F   UNL A   1      46.684  31.620  31.049  1.00  0.00    -0.203 F 
ATOM     84  F   UNL A   1      46.576  35.657  27.381  1.00  0.00    -0.200 F 
ATOM     85  C   UNL A   1      47.060  34.899  29.564  1.00  0.00     0.200 A 
ATOM     86  F   UNL A   1      47.543  34.092  31.730  1.00  0.00    -0.200 F 
ATOM     87  F   UNL A   1      47.520  36.113  29.899  1.00  0.00    -0.200 F 
ENDBRANCH  54  77
ENDBRANCH  28  29
ENDBRANCH  20  23
ENDBRANCH  18  19
ENDBRANCH  17  18
ENDBRANCH   1  17
TORSDOF 13
ENDMDL
MODEL 3
REMARK VINA RESULT:     -10.9      0.671      7.695
REMARK SMILES N#CC[C@@H]1C[NH2+][C@H](C(=O)NCCCCNC(=O)c2ccc(-c3c4nc(c(-c5c(F)c(F)c(F)c(F)c5F)c5ccc([nH]5)c(-c5c(F)c(F)c(F)c(F)c5F)c5nc(c(-c6c(F)c(F)c(F)c(F)c6F)c6ccc3[nH]6)C=C5)C=C4)cc2)C1
REMARK SMILES IDX 12 1 11 2 10 3 8 4 9 5 7 7 4 8 5 9 81 10 6 11 3 14 2 15 1 16
REMARK SMILES IDX 13 17 14 18 15 19 16 20 17 22 18 23 19 24 80 25 20 26 79 27
REMARK SMILES IDX 21 28 22 29 23 30 73 31 24 32 78 33 72 34 74 35 25 36 77 37
REMARK SMILES IDX 71 38 70 39 26 41 58 42 38 43 57 44 39 45 42 46 56 47 75 48
REMARK SMILES IDX 40 49 41 50 55 52 76 53 43 54 27 55 28 56 36 57 29 58 30 59
REMARK SMILES IDX 34 60 37 61 31 62 32 63 35 64 33 65 59 66 60 67 68 68 61 69
REMARK SMILES IDX 62 70 66 71 69 72 63 73 64 74 67 75 65 76 44 77 45 78 53 79
REMARK SMILES IDX 46 80 47 81 51 82 54 83 48 84 49 85 52 86 50 87
REMARK H PARENT 10 6 6 12 6 13 15 21 74 40 42 51
REMARK Flexibility Score: inf
ROOT
ATOM      1  C   UNL A   1      31.640  30.719  26.319  1.00  0.00     0.023 C 
ENDROOT
BRANCH   1   2
ATOM      2  C   UNL A   1      33.080  30.224  26.473  1.00  0.00     0.116 C 
BRANCH   2   3
ATOM      3  N   UNL A   1      33.541  29.566  25.268  1.00  0.00    -0.351 N 
ATOM      4  C   UNL A   1      33.590  28.231  24.968  1.00  0.00     0.278 C 
ATOM      5  O   UNL A   1      34.090  27.925  23.884  1.00  0.00    -0.268 OA
ATOM      6  H   UNL A   1      33.867  30.167  24.560  1.00  0.00     0.163 HD
BRANCH   4   7
ATOM      7  C   UNL A   1      32.974  27.209  25.959  1.00  0.00     0.273 C 
ATOM      8  C   UNL A   1      32.490  24.850  25.636  1.00  0.00     0.065 C 
ATOM      9  C   UNL A   1      31.470  25.725  24.917  1.00  0.00     0.265 C 
ATOM     10  C   UNL A   1      33.620  25.826  25.882  1.00  0.00     0.086 C 
ATOM     11  N   UNL A   1      31.539  26.983  25.662  1.00  0.00    -0.336 N 
ATOM     12  H   UNL A   1      31.005  26.912  26.527  1.00  0.00     0.346 HD
ATOM     13  H   UNL A   1      31.146  27.756  25.123  1.00  0.00     0.346 HD
BRANCH   8  14
ATOM     14  C   UNL A   1      32.961  23.616  24.859  1.00  0.00     0.129 C 
BRANCH  14  15
ATOM     15  C   UNL A   1      33.633  24.117  23.592  1.00  0.00     0.063 C 
ATOM     16  N   UNL A   1      34.192  24.533  22.541  1.00  0.00    -0.198 NA
ENDBRANCH  14  15
ENDBRANCH   8  14
ENDBRANCH   4   7
ENDBRANCH   2   3
ENDBRANCH   1   2
BRANCH   1  17
ATOM     17  C   UNL A   1      31.444  32.196  26.655  1.00  0.00     0.023 C 
BRANCH  17  18
ATOM     18  C   UNL A   1      32.686  32.886  27.194  1.00  0.00     0.116 C 
BRANCH  18  19
ATOM     19  N   UNL A   1      32.423  34.244  27.643  1.00  0.00    -0.352 N 
ATOM     20  C   UNL A   1      33.030  34.944  28.655  1.00  0.00     0.251 C 
ATOM     21  H   UNL A   1      31.716  34.726  27.155  1.00  0.00     0.163 HD
ATOM     22  O   UNL A   1      32.592  36.035  29.004  1.00  0.00    -0.269 OA
BRANCH  20  23
ATOM     23  C   UNL A   1      34.194  34.352  29.342  1.00  0.00     0.039 A 
ATOM     24  C   UNL A   1      33.975  33.506  30.430  1.00  0.00     0.014 A 
ATOM     25  C   UNL A   1      35.493  34.605  28.891  1.00  0.00     0.014 A 
ATOM     26  C   UNL A   1      35.060  32.870  31.034  1.00  0.00     0.010 A 
ATOM     27  C   UNL A   1      36.561  33.905  29.437  1.00  0.00     0.010 A 
ATOM     28  C   UNL A   1      36.357  33.039  30.522  1.00  0.00    -0.014 A 
BRANCH  28  29
ATOM     29  C   UNL A   1      37.514  32.330  31.119  1.00  0.00     0.031 A 
ATOM     30  C   UNL A   1      38.003  32.710  32.488  1.00  0.00     0.074 A 
ATOM     31  C   UNL A   1      38.154  31.381  30.408  1.00  0.00     0.049 A 
ATOM     32  N   UNL A   1      39.020  32.238  33.165  1.00  0.00    -0.248 NA
ATOM     33  C   UNL A   1      37.271  33.783  33.179  1.00  0.00     0.031 C 
ATOM     34  C   UNL A   1      37.806  30.962  29.049  1.00  0.00     0.029 A 
ATOM     35  N   UNL A   1      39.236  30.601  30.729  1.00  0.00    -0.354 N 
ATOM     36  C   UNL A   1      39.052  32.962  34.349  1.00  0.00     0.074 A 
ATOM     37  C   UNL A   1      37.998  33.948  34.273  1.00  0.00     0.031 C 
ATOM     38  C   UNL A   1      38.637  29.981  28.666  1.00  0.00     0.029 A 
ATOM     39  C   UNL A   1      39.599  29.728  29.733  1.00  0.00     0.049 A 
ATOM     40  H   UNL A   1      39.707  30.662  31.591  1.00  0.00     0.167 HD
ATOM     41  C   UNL A   1      39.869  32.799  35.418  1.00  0.00     0.037 A 
ATOM     42  C   UNL A   1      40.598  28.826  29.689  1.00  0.00     0.037 A 
ATOM     43  C   UNL A   1      40.905  31.804  35.496  1.00  0.00     0.049 A 
ATOM     44  C   UNL A   1      41.498  28.672  30.886  1.00  0.00     0.074 A 
ATOM     45  C   UNL A   1      41.754  31.521  36.552  1.00  0.00     0.029 A 
ATOM     46  N   UNL A   1      41.236  30.927  34.473  1.00  0.00    -0.354 N 
ATOM     47  N   UNL A   1      41.473  29.311  32.030  1.00  0.00    -0.248 NA
ATOM     48  C   UNL A   1      42.561  27.662  30.787  1.00  0.00     0.031 C 
ATOM     49  C   UNL A   1      42.631  30.509  36.150  1.00  0.00     0.029 A 
ATOM     50  C   UNL A   1      42.290  30.118  34.864  1.00  0.00     0.049 A 
ATOM     51  H   UNL A   1      40.787  30.886  33.597  1.00  0.00     0.167 HD
ATOM     52  C   UNL A   1      42.490  28.759  32.798  1.00  0.00     0.074 A 
ATOM     53  C   UNL A   1      43.102  27.723  31.994  1.00  0.00     0.031 C 
ATOM     54  C   UNL A   1      42.882  29.082  34.055  1.00  0.00     0.037 A 
BRANCH  41  55
ATOM     55  C   UNL A   1      39.670  33.718  36.589  1.00  0.00     0.064 A 
ATOM     56  C   UNL A   1      38.859  33.359  37.678  1.00  0.00     0.173 A 
ATOM     57  C   UNL A   1      40.316  34.963  36.638  1.00  0.00     0.173 A 
ATOM     58  F   UNL A   1      38.208  32.186  37.677  1.00  0.00    -0.203 F 
ATOM     59  C   UNL A   1      38.678  34.223  38.754  1.00  0.00     0.198 A 
ATOM     60  C   UNL A   1      40.159  35.810  37.731  1.00  0.00     0.198 A 
ATOM     61  F   UNL A   1      41.105  35.356  35.626  1.00  0.00    -0.203 F 
ATOM     62  F   UNL A   1      37.855  33.881  39.754  1.00  0.00    -0.200 F 
ATOM     63  C   UNL A   1      39.334  35.445  38.783  1.00  0.00     0.200 A 
ATOM     64  F   UNL A   1      40.804  36.985  37.765  1.00  0.00    -0.200 F 
ATOM     65  F   UNL A   1      39.163  36.273  39.823  1.00  0.00    -0.200 F 
ENDBRANCH  41  55
BRANCH  42  66
ATOM     66  C   UNL A   1      40.781  27.976  28.484  1.00  0.00     0.064 A 
ATOM     67  C   UNL A   1      41.568  28.412  27.408  1.00  0.00     0.173 A 
ATOM     68  C   UNL A   1      40.170  26.718  28.376  1.00  0.00     0.173 A 
ATOM     69  F   UNL A   1      42.157  29.616  27.456  1.00  0.00    -0.203 F 
ATOM     70  C   UNL A   1      41.714  27.636  26.261  1.00  0.00     0.198 A 
ATOM     71  C   UNL A   1      40.343  25.929  27.241  1.00  0.00     0.198 A 
ATOM     72  F   UNL A   1      39.415  26.249  29.380  1.00  0.00    -0.203 F 
ATOM     73  F   UNL A   1      42.428  28.101  25.227  1.00  0.00    -0.200 F 
ATOM     74  C   UNL A   1      41.107  26.392  26.180  1.00  0.00     0.200 A 
ATOM     75  F   UNL A   1      39.767  24.720  27.174  1.00  0.00    -0.200 F 
ATOM     76  F   UNL A   1      41.249  25.645  25.078  1.00  0.00    -0.200 F 
ENDBRANCH  42  66
BRANCH  54  77
ATOM     77  C   UNL A   1      43.996  28.275  34.658  1.00  0.00     0.064 A 
ATOM     78  C   UNL A   1      43.754  27.073  35.340  1.00  0.00     0.173 A 
ATOM     79  C   UNL A   1      45.328  28.697  34.526  1.00  0.00     0.173 A 
ATOM     80  F   UNL A   1      42.498  26.632  35.506  1.00  0.00    -0.203 F 
ATOM     81  C   UNL A   1      44.802  26.341  35.894  1.00  0.00     0.198 A 
ATOM     82  C   UNL A   1      46.375  27.946  35.051  1.00  0.00     0.198 A 
ATOM     83  F   UNL A   1      45.615  29.836  33.876  1.00  0.00    -0.203 F 
ATOM     84  F   UNL A   1      44.542  25.226  36.591  1.00  0.00    -0.200 F 
ATOM     85  C   UNL A   1      46.110  26.775  35.743  1.00  0.00     0.200 A 
ATOM     86  F   UNL A   1      47.640  28.358  34.890  1.00  0.00    -0.200 F 
ATOM     87  F   UNL A   1      47.118  26.067  36.273  1.00  0.00    -0.200 F 
ENDBRANCH  54  77
ENDBRANCH  28  29
ENDBRANCH  20  23
ENDBRANCH  18  19
ENDBRANCH  17  18
ENDBRANCH   1  17
TORSDOF 13
ENDMDL
