MODEL 1
REMARK VINA RESULT:     -13.8      0.000      0.000
REMARK SMILES C[C@H](C(=O)Nc1ccc(C(=O)NCCCCNC(=O)c2ccc(-c3c4nc(c(-c5c(F)c(F)c(F)c(F)c5F)c5ccc([nH]5)c(-c5c(F)c(F)c(F)c(F)c5F)c5nc(c(-c6c(F)c(F)c(F)c(F)c6F)c6ccc3[nH]6)C=C5)C=C4)cc2)cc1)N1C(=O)/C(=C\c2ccco2)SC1=S
REMARK SMILES IDX 13 1 12 2 10 3 11 4 9 6 6 7 7 8 84 9 8 10 83 11 5 12 3 13
REMARK SMILES IDX 4 14 2 16 1 17 85 18 86 19 96 20 87 21 88 22 95 23 97 24
REMARK SMILES IDX 89 25 90 26 91 27 94 28 92 29 93 30 14 31 15 32 16 33 17 34
REMARK SMILES IDX 18 35 19 37 20 38 21 39 82 40 22 41 81 42 23 43 24 44 25 45
REMARK SMILES IDX 75 46 26 47 80 48 74 49 76 50 27 51 79 52 73 53 72 54 28 56
REMARK SMILES IDX 60 57 40 58 59 59 41 60 44 61 58 62 77 63 42 64 43 65 57 67
REMARK SMILES IDX 78 68 45 69 29 70 30 71 38 72 31 73 32 74 36 75 39 76 33 77
REMARK SMILES IDX 34 78 37 79 35 80 61 81 62 82 70 83 63 84 64 85 68 86 71 87
REMARK SMILES IDX 65 88 66 89 69 90 67 91 46 92 47 93 55 94 48 95 49 96 53 97
REMARK SMILES IDX 56 98 50 99 51 100 54 101 52 102
REMARK H PARENT 12 5 5 15 17 36 76 55 44 66
REMARK Flexibility Score: inf
ROOT
ATOM      1  C   UNL A   1      35.899  20.447  25.062  1.00  0.00     0.116 C 
ENDROOT
BRANCH   1   2
ATOM      2  N   UNL A   1      35.333  21.013  26.272  1.00  0.00    -0.352 N 
ATOM      3  C   UNL A   1      34.483  22.080  26.440  1.00  0.00     0.251 C 
ATOM      4  O   UNL A   1      34.019  22.297  27.558  1.00  0.00    -0.269 OA
ATOM      5  H   UNL A   1      35.601  20.562  27.105  1.00  0.00     0.163 HD
BRANCH   3   6
ATOM      6  C   UNL A   1      34.059  22.935  25.298  1.00  0.00     0.039 A 
ATOM      7  C   UNL A   1      33.301  24.333  22.994  1.00  0.00     0.041 A 
ATOM      8  C   UNL A   1      32.501  23.295  23.467  1.00  0.00     0.027 A 
ATOM      9  C   UNL A   1      34.392  24.765  23.744  1.00  0.00     0.027 A 
ATOM     10  C   UNL A   1      32.898  22.576  24.600  1.00  0.00     0.016 A 
ATOM     11  C   UNL A   1      34.747  24.088  24.913  1.00  0.00     0.016 A 
BRANCH   7  12
ATOM     12  N   UNL A   1      32.950  24.987  21.812  1.00  0.00    -0.324 N 
ATOM     13  C   UNL A   1      32.081  26.040  21.643  1.00  0.00     0.247 C 
ATOM     14  O   UNL A   1      31.656  26.257  20.508  1.00  0.00    -0.272 OA
ATOM     15  H   UNL A   1      33.380  24.651  20.993  1.00  0.00     0.170 HD
BRANCH  13  16
ATOM     16  C   UNL A   1      31.786  26.980  22.847  1.00  0.00     0.178 C 
ATOM     17  C   UNL A   1      32.605  28.269  22.711  1.00  0.00     0.042 C 
BRANCH  16  18
ATOM     18  N   UNL A   1      30.363  27.267  23.108  1.00  0.00    -0.280 N 
ATOM     19  C   UNL A   1      29.737  28.347  22.507  1.00  0.00     0.267 C 
ATOM     20  C   UNL A   1      29.625  26.653  24.097  1.00  0.00     0.149 C 
ATOM     21  O   UNL A   1      30.243  29.098  21.690  1.00  0.00    -0.268 OA
ATOM     22  C   UNL A   1      28.337  28.484  23.015  1.00  0.00     0.084 C 
ATOM     23  S   UNL A   1      27.925  27.035  23.869  1.00  0.00    -0.054 SA
ATOM     24  S   UNL A   1      30.162  25.745  25.387  1.00  0.00    -0.052 S 
ATOM     25  C   UNL A   1      27.534  29.556  23.066  1.00  0.00     0.068 C 
BRANCH  25  26
ATOM     26  C   UNL A   1      27.953  30.878  22.776  1.00  0.00     0.127 A 
ATOM     27  C   UNL A   1      28.673  31.819  23.500  1.00  0.00     0.050 A 
ATOM     28  O   UNL A   1      27.633  31.454  21.564  1.00  0.00    -0.465 OA
ATOM     29  C   UNL A   1      28.723  33.011  22.737  1.00  0.00     0.042 A 
ATOM     30  C   UNL A   1      28.072  32.733  21.564  1.00  0.00     0.195 A 
ENDBRANCH  25  26
ENDBRANCH  16  18
ENDBRANCH  13  16
ENDBRANCH   7  12
ENDBRANCH   3   6
ENDBRANCH   1   2
BRANCH   1  31
ATOM     31  C   UNL A   1      37.362  20.850  24.879  1.00  0.00     0.023 C 
BRANCH  31  32
ATOM     32  C   UNL A   1      38.348  19.697  25.058  1.00  0.00     0.023 C 
BRANCH  32  33
ATOM     33  C   UNL A   1      39.563  20.027  25.916  1.00  0.00     0.116 C 
BRANCH  33  34
ATOM     34  N   UNL A   1      40.570  18.977  25.920  1.00  0.00    -0.352 N 
ATOM     35  C   UNL A   1      41.931  19.099  26.079  1.00  0.00     0.251 C 
ATOM     36  H   UNL A   1      40.234  18.060  25.791  1.00  0.00     0.163 HD
ATOM     37  O   UNL A   1      42.664  18.126  25.944  1.00  0.00    -0.269 OA
BRANCH  35  38
ATOM     38  C   UNL A   1      42.508  20.427  26.376  1.00  0.00     0.039 A 
ATOM     39  C   UNL A   1      43.045  21.179  25.329  1.00  0.00     0.014 A 
ATOM     40  C   UNL A   1      42.491  20.939  27.676  1.00  0.00     0.014 A 
ATOM     41  C   UNL A   1      43.509  22.474  25.575  1.00  0.00     0.010 A 
ATOM     42  C   UNL A   1      42.881  22.255  27.905  1.00  0.00     0.010 A 
ATOM     43  C   UNL A   1      43.399  23.034  26.859  1.00  0.00    -0.014 A 
BRANCH  43  44
ATOM     44  C   UNL A   1      43.844  24.423  27.137  1.00  0.00     0.031 A 
ATOM     45  C   UNL A   1      42.851  25.443  27.619  1.00  0.00     0.074 A 
ATOM     46  C   UNL A   1      45.121  24.781  26.899  1.00  0.00     0.049 A 
ATOM     47  N   UNL A   1      43.016  26.723  27.841  1.00  0.00    -0.248 NA
ATOM     48  C   UNL A   1      41.479  24.966  27.859  1.00  0.00     0.031 C 
ATOM     49  C   UNL A   1      46.169  23.895  26.392  1.00  0.00     0.029 A 
ATOM     50  N   UNL A   1      45.750  25.992  27.044  1.00  0.00    -0.354 N 
ATOM     51  C   UNL A   1      41.773  27.202  28.232  1.00  0.00     0.074 A 
ATOM     52  C   UNL A   1      40.848  26.092  28.157  1.00  0.00     0.031 C 
ATOM     53  C   UNL A   1      47.318  24.585  26.294  1.00  0.00     0.029 A 
ATOM     54  C   UNL A   1      47.078  25.968  26.691  1.00  0.00     0.049 A 
ATOM     55  H   UNL A   1      45.294  26.801  27.369  1.00  0.00     0.167 HD
ATOM     56  C   UNL A   1      41.437  28.447  28.645  1.00  0.00     0.037 A 
ATOM     57  C   UNL A   1      47.995  26.955  26.688  1.00  0.00     0.037 A 
ATOM     58  C   UNL A   1      42.362  29.544  28.741  1.00  0.00     0.049 A 
ATOM     59  C   UNL A   1      47.591  28.334  27.138  1.00  0.00     0.074 A 
ATOM     60  C   UNL A   1      42.129  30.837  29.176  1.00  0.00     0.029 A 
ATOM     61  N   UNL A   1      43.704  29.475  28.397  1.00  0.00    -0.354 N 
ATOM     62  N   UNL A   1      46.425  28.763  27.556  1.00  0.00    -0.248 NA
ATOM     63  C   UNL A   1      48.637  29.368  27.122  1.00  0.00     0.031 C 
ATOM     64  C   UNL A   1      43.320  31.559  29.062  1.00  0.00     0.029 A 
ATOM     65  C   UNL A   1      44.309  30.704  28.604  1.00  0.00     0.049 A 
ATOM     66  H   UNL A   1      44.160  28.671  28.057  1.00  0.00     0.167 HD
ATOM     67  C   UNL A   1      46.606  30.097  27.893  1.00  0.00     0.074 A 
ATOM     68  C   UNL A   1      47.997  30.407  27.639  1.00  0.00     0.031 C 
ATOM     69  C   UNL A   1      45.702  30.986  28.372  1.00  0.00     0.037 A 
BRANCH  56  70
ATOM     70  C   UNL A   1      40.006  28.683  29.037  1.00  0.00     0.064 A 
ATOM     71  C   UNL A   1      39.057  29.133  28.107  1.00  0.00     0.173 A 
ATOM     72  C   UNL A   1      39.571  28.426  30.345  1.00  0.00     0.173 A 
ATOM     73  F   UNL A   1      39.423  29.407  26.846  1.00  0.00    -0.203 F 
ATOM     74  C   UNL A   1      37.733  29.348  28.480  1.00  0.00     0.198 A 
ATOM     75  C   UNL A   1      38.239  28.610  30.707  1.00  0.00     0.198 A 
ATOM     76  F   UNL A   1      40.436  27.988  31.273  1.00  0.00    -0.203 F 
ATOM     77  F   UNL A   1      36.857  29.829  27.588  1.00  0.00    -0.200 F 
ATOM     78  C   UNL A   1      37.323  29.079  29.777  1.00  0.00     0.200 A 
ATOM     79  F   UNL A   1      37.842  28.338  31.957  1.00  0.00    -0.200 F 
ATOM     80  F   UNL A   1      36.047  29.279  30.133  1.00  0.00    -0.200 F 
ENDBRANCH  56  70
BRANCH  57  81
ATOM     81  C   UNL A   1      49.397  26.675  26.278  1.00  0.00     0.064 A 
ATOM     82  C   UNL A   1      50.336  26.205  27.208  1.00  0.00     0.173 A 
ATOM     83  C   UNL A   1      49.835  26.897  24.965  1.00  0.00     0.173 A 
ATOM     84  F   UNL A   1      49.969  25.997  28.482  1.00  0.00    -0.203 F 
ATOM     85  C   UNL A   1      51.665  25.996  26.848  1.00  0.00     0.198 A 
ATOM     86  C   UNL A   1      51.158  26.659  24.599  1.00  0.00     0.198 A 
ATOM     87  F   UNL A   1      48.978  27.342  24.036  1.00  0.00    -0.203 F 
ATOM     88  F   UNL A   1      52.553  25.601  27.771  1.00  0.00    -0.200 F 
ATOM     89  C   UNL A   1      52.075  26.220  25.543  1.00  0.00     0.200 A 
ATOM     90  F   UNL A   1      51.549  26.864  23.333  1.00  0.00    -0.200 F 
ATOM     91  F   UNL A   1      53.355  26.023  25.197  1.00  0.00    -0.200 F 
ENDBRANCH  57  81
BRANCH  69  92
ATOM     92  C   UNL A   1      46.201  32.360  28.716  1.00  0.00     0.064 A 
ATOM     93  C   UNL A   1      46.193  33.406  27.782  1.00  0.00     0.173 A 
ATOM     94  C   UNL A   1      46.660  32.638  30.013  1.00  0.00     0.173 A 
ATOM     95  F   UNL A   1      45.777  33.188  26.526  1.00  0.00    -0.203 F 
ATOM     96  C   UNL A   1      46.653  34.675  28.127  1.00  0.00     0.198 A 
ATOM     97  C   UNL A   1      47.089  33.916  30.362  1.00  0.00     0.198 A 
ATOM     98  F   UNL A   1      46.680  31.674  30.945  1.00  0.00    -0.203 F 
ATOM     99  F   UNL A   1      46.684  35.647  27.205  1.00  0.00    -0.200 F 
ATOM    100  C   UNL A   1      47.093  34.930  29.417  1.00  0.00     0.200 A 
ATOM    101  F   UNL A   1      47.499  34.164  31.614  1.00  0.00    -0.200 F 
ATOM    102  F   UNL A   1      47.529  36.154  29.749  1.00  0.00    -0.200 F 
ENDBRANCH  69  92
ENDBRANCH  43  44
ENDBRANCH  35  38
ENDBRANCH  33  34
ENDBRANCH  32  33
ENDBRANCH  31  32
ENDBRANCH   1  31
TORSDOF 15
ENDMDL
MODEL 2
REMARK VINA RESULT:     -13.7      0.771      7.192
REMARK SMILES C[C@H](C(=O)Nc1ccc(C(=O)NCCCCNC(=O)c2ccc(-c3c4nc(c(-c5c(F)c(F)c(F)c(F)c5F)c5ccc([nH]5)c(-c5c(F)c(F)c(F)c(F)c5F)c5nc(c(-c6c(F)c(F)c(F)c(F)c6F)c6ccc3[nH]6)C=C5)C=C4)cc2)cc1)N1C(=O)/C(=C\c2ccco2)SC1=S
REMARK SMILES IDX 13 1 12 2 10 3 11 4 9 6 6 7 7 8 84 9 8 10 83 11 5 12 3 13
REMARK SMILES IDX 4 14 2 16 1 17 85 18 86 19 96 20 87 21 88 22 95 23 97 24
REMARK SMILES IDX 89 25 90 26 91 27 94 28 92 29 93 30 14 31 15 32 16 33 17 34
REMARK SMILES IDX 18 35 19 37 20 38 21 39 82 40 22 41 81 42 23 43 24 44 25 45
REMARK SMILES IDX 75 46 26 47 80 48 74 49 76 50 27 51 79 52 73 53 72 54 28 56
REMARK SMILES IDX 60 57 40 58 59 59 41 60 44 61 58 62 77 63 42 64 43 65 57 67
REMARK SMILES IDX 78 68 45 69 29 70 30 71 38 72 31 73 32 74 36 75 39 76 33 77
REMARK SMILES IDX 34 78 37 79 35 80 61 81 62 82 70 83 63 84 64 85 68 86 71 87
REMARK SMILES IDX 65 88 66 89 69 90 67 91 46 92 47 93 55 94 48 95 49 96 53 97
REMARK SMILES IDX 56 98 50 99 51 100 54 101 52 102
REMARK H PARENT 12 5 5 15 17 36 76 55 44 66
REMARK Flexibility Score: inf
ROOT
ATOM      1  C   UNL A   1      35.834  20.339  24.995  1.00  0.00     0.116 C 
ENDROOT
BRANCH   1   2
ATOM      2  N   UNL A   1      35.149  20.811  26.185  1.00  0.00    -0.352 N 
ATOM      3  C   UNL A   1      34.234  21.825  26.340  1.00  0.00     0.251 C 
ATOM      4  O   UNL A   1      33.676  21.958  27.427  1.00  0.00    -0.269 OA
ATOM      5  H   UNL A   1      35.376  20.328  27.012  1.00  0.00     0.163 HD
BRANCH   3   6
ATOM      6  C   UNL A   1      33.855  22.720  25.213  1.00  0.00     0.039 A 
ATOM      7  C   UNL A   1      33.168  24.194  22.935  1.00  0.00     0.041 A 
ATOM      8  C   UNL A   1      32.308  23.202  23.401  1.00  0.00     0.027 A 
ATOM      9  C   UNL A   1      34.288  24.548  23.682  1.00  0.00     0.027 A 
ATOM     10  C   UNL A   1      32.669  22.443  24.520  1.00  0.00     0.016 A 
ATOM     11  C   UNL A   1      34.610  23.834  24.838  1.00  0.00     0.016 A 
BRANCH   7  12
ATOM     12  N   UNL A   1      32.848  24.886  21.765  1.00  0.00    -0.324 N 
ATOM     13  C   UNL A   1      32.013  25.968  21.612  1.00  0.00     0.247 C 
ATOM     14  O   UNL A   1      31.606  26.223  20.478  1.00  0.00    -0.272 OA
ATOM     15  H   UNL A   1      33.277  24.555  20.943  1.00  0.00     0.170 HD
BRANCH  13  16
ATOM     16  C   UNL A   1      31.734  26.889  22.835  1.00  0.00     0.178 C 
ATOM     17  C   UNL A   1      32.558  28.176  22.713  1.00  0.00     0.042 C 
BRANCH  16  18
ATOM     18  N   UNL A   1      30.315  27.178  23.114  1.00  0.00    -0.280 N 
ATOM     19  C   UNL A   1      29.682  28.257  22.516  1.00  0.00     0.267 C 
ATOM     20  C   UNL A   1      29.590  26.568  24.114  1.00  0.00     0.149 C 
ATOM     21  O   UNL A   1      30.178  29.004  21.690  1.00  0.00    -0.268 OA
ATOM     22  C   UNL A   1      28.289  28.396  23.043  1.00  0.00     0.084 C 
ATOM     23  S   UNL A   1      27.887  26.951  23.908  1.00  0.00    -0.054 SA
ATOM     24  S   UNL A   1      30.143  25.665  25.400  1.00  0.00    -0.052 S 
ATOM     25  C   UNL A   1      27.488  29.469  23.100  1.00  0.00     0.068 C 
BRANCH  25  26
ATOM     26  C   UNL A   1      27.903  30.791  22.800  1.00  0.00     0.127 A 
ATOM     27  C   UNL A   1      28.494  31.789  23.563  1.00  0.00     0.050 A 
ATOM     28  O   UNL A   1      27.731  31.296  21.528  1.00  0.00    -0.465 OA
ATOM     29  C   UNL A   1      28.612  32.945  22.752  1.00  0.00     0.042 A 
ATOM     30  C   UNL A   1      28.131  32.588  21.519  1.00  0.00     0.195 A 
ENDBRANCH  25  26
ENDBRANCH  16  18
ENDBRANCH  13  16
ENDBRANCH   7  12
ENDBRANCH   3   6
ENDBRANCH   1   2
BRANCH   1  31
ATOM     31  C   UNL A   1      37.249  20.908  24.896  1.00  0.00     0.023 C 
BRANCH  31  32
ATOM     32  C   UNL A   1      38.348  19.848  24.971  1.00  0.00     0.023 C 
BRANCH  32  33
ATOM     33  C   UNL A   1      39.343  20.047  26.107  1.00  0.00     0.116 C 
BRANCH  33  34
ATOM     34  N   UNL A   1      40.441  19.092  26.087  1.00  0.00    -0.352 N 
ATOM     35  C   UNL A   1      41.790  19.338  26.196  1.00  0.00     0.251 C 
ATOM     36  H   UNL A   1      40.185  18.146  25.981  1.00  0.00     0.163 HD
ATOM     37  O   UNL A   1      42.603  18.432  26.046  1.00  0.00    -0.269 OA
BRANCH  35  38
ATOM     38  C   UNL A   1      42.255  20.717  26.456  1.00  0.00     0.039 A 
ATOM     39  C   UNL A   1      42.350  21.611  25.388  1.00  0.00     0.014 A 
ATOM     40  C   UNL A   1      42.565  21.133  27.754  1.00  0.00     0.014 A 
ATOM     41  C   UNL A   1      42.697  22.942  25.629  1.00  0.00     0.010 A 
ATOM     42  C   UNL A   1      42.834  22.474  28.003  1.00  0.00     0.010 A 
ATOM     43  C   UNL A   1      42.908  23.392  26.943  1.00  0.00    -0.014 A 
BRANCH  43  44
ATOM     44  C   UNL A   1      43.235  24.811  27.231  1.00  0.00     0.031 A 
ATOM     45  C   UNL A   1      44.613  25.336  26.939  1.00  0.00     0.074 A 
ATOM     46  C   UNL A   1      42.315  25.610  27.809  1.00  0.00     0.049 A 
ATOM     47  N   UNL A   1      45.124  26.515  27.191  1.00  0.00    -0.248 NA
ATOM     48  C   UNL A   1      45.553  24.399  26.303  1.00  0.00     0.031 C 
ATOM     49  C   UNL A   1      40.957  25.210  28.178  1.00  0.00     0.029 A 
ATOM     50  N   UNL A   1      42.391  26.925  28.195  1.00  0.00    -0.354 N 
ATOM     51  C   UNL A   1      46.441  26.455  26.757  1.00  0.00     0.074 A 
ATOM     52  C   UNL A   1      46.672  25.108  26.284  1.00  0.00     0.031 C 
ATOM     53  C   UNL A   1      40.319  26.263  28.714  1.00  0.00     0.029 A 
ATOM     54  C   UNL A   1      41.232  27.400  28.761  1.00  0.00     0.049 A 
ATOM     55  H   UNL A   1      43.198  27.475  28.078  1.00  0.00     0.167 HD
ATOM     56  C   UNL A   1      47.368  27.443  26.726  1.00  0.00     0.037 A 
ATOM     57  C   UNL A   1      40.945  28.616  29.263  1.00  0.00     0.037 A 
ATOM     58  C   UNL A   1      47.130  28.789  27.175  1.00  0.00     0.049 A 
ATOM     59  C   UNL A   1      41.999  29.691  29.231  1.00  0.00     0.074 A 
ATOM     60  C   UNL A   1      47.993  29.871  27.159  1.00  0.00     0.029 A 
ATOM     61  N   UNL A   1      45.936  29.238  27.720  1.00  0.00    -0.354 N 
ATOM     62  N   UNL A   1      43.224  29.639  28.769  1.00  0.00    -0.248 NA
ATOM     63  C   UNL A   1      41.624  31.002  29.784  1.00  0.00     0.031 C 
ATOM     64  C   UNL A   1      47.333  30.965  27.727  1.00  0.00     0.029 A 
ATOM     65  C   UNL A   1      46.043  30.579  28.051  1.00  0.00     0.049 A 
ATOM     66  H   UNL A   1      45.132  28.685  27.852  1.00  0.00     0.167 HD
ATOM     67  C   UNL A   1      43.750  30.913  28.935  1.00  0.00     0.074 A 
ATOM     68  C   UNL A   1      42.708  31.721  29.533  1.00  0.00     0.031 C 
ATOM     69  C   UNL A   1      44.985  31.374  28.619  1.00  0.00     0.037 A 
BRANCH  56  70
ATOM     70  C   UNL A   1      48.722  27.103  26.174  1.00  0.00     0.064 A 
ATOM     71  C   UNL A   1      49.768  26.680  27.010  1.00  0.00     0.173 A 
ATOM     72  C   UNL A   1      48.971  27.167  24.796  1.00  0.00     0.173 A 
ATOM     73  F   UNL A   1      49.587  26.612  28.338  1.00  0.00    -0.203 F 
ATOM     74  C   UNL A   1      51.020  26.365  26.489  1.00  0.00     0.198 A 
ATOM     75  C   UNL A   1      50.215  26.821  24.275  1.00  0.00     0.198 A 
ATOM     76  F   UNL A   1      48.006  27.560  23.951  1.00  0.00    -0.203 F 
ATOM     77  F   UNL A   1      52.018  26.015  27.313  1.00  0.00    -0.200 F 
ATOM     78  C   UNL A   1      51.241  26.428  25.122  1.00  0.00     0.200 A 
ATOM     79  F   UNL A   1      50.424  26.871  22.952  1.00  0.00    -0.200 F 
ATOM     80  F   UNL A   1      52.445  26.119  24.621  1.00  0.00    -0.200 F 
ENDBRANCH  56  70
BRANCH  57  81
ATOM     81  C   UNL A   1      39.592  28.901  29.811  1.00  0.00     0.064 A 
ATOM     82  C   UNL A   1      38.588  29.444  28.996  1.00  0.00     0.173 A 
ATOM     83  C   UNL A   1      39.281  28.666  31.158  1.00  0.00     0.173 A 
ATOM     84  F   UNL A   1      38.844  29.707  27.706  1.00  0.00    -0.203 F 
ATOM     85  C   UNL A   1      37.336  29.770  29.513  1.00  0.00     0.198 A 
ATOM     86  C   UNL A   1      38.019  28.964  31.668  1.00  0.00     0.198 A 
ATOM     87  F   UNL A   1      40.203  28.143  31.980  1.00  0.00    -0.203 F 
ATOM     88  F   UNL A   1      36.416  30.342  28.725  1.00  0.00    -0.200 F 
ATOM     89  C   UNL A   1      37.052  29.527  30.849  1.00  0.00     0.200 A 
ATOM     90  F   UNL A   1      37.743  28.715  32.956  1.00  0.00    -0.200 F 
ATOM     91  F   UNL A   1      35.848  29.843  31.347  1.00  0.00    -0.200 F 
ENDBRANCH  57  81
BRANCH  69  92
ATOM     92  C   UNL A   1      45.258  32.832  28.851  1.00  0.00     0.064 A 
ATOM     93  C   UNL A   1      45.836  33.297  30.041  1.00  0.00     0.173 A 
ATOM     94  C   UNL A   1      44.967  33.771  27.849  1.00  0.00     0.173 A 
ATOM     95  F   UNL A   1      46.119  32.442  31.034  1.00  0.00    -0.203 F 
ATOM     96  C   UNL A   1      46.087  34.654  30.230  1.00  0.00     0.198 A 
ATOM     97  C   UNL A   1      45.250  35.122  28.029  1.00  0.00     0.198 A 
ATOM     98  F   UNL A   1      44.421  33.376  26.690  1.00  0.00    -0.203 F 
ATOM     99  F   UNL A   1      46.593  35.084  31.395  1.00  0.00    -0.200 F 
ATOM    100  C   UNL A   1      45.801  35.564  29.223  1.00  0.00     0.200 A 
ATOM    101  F   UNL A   1      44.986  35.997  27.049  1.00  0.00    -0.200 F 
ATOM    102  F   UNL A   1      46.050  36.868  29.404  1.00  0.00    -0.200 F 
ENDBRANCH  69  92
ENDBRANCH  43  44
ENDBRANCH  35  38
ENDBRANCH  33  34
ENDBRANCH  32  33
ENDBRANCH  31  32
ENDBRANCH   1  31
TORSDOF 15
ENDMDL
MODEL 3
REMARK VINA RESULT:     -13.0      0.674      2.102
REMARK SMILES C[C@H](C(=O)Nc1ccc(C(=O)NCCCCNC(=O)c2ccc(-c3c4nc(c(-c5c(F)c(F)c(F)c(F)c5F)c5ccc([nH]5)c(-c5c(F)c(F)c(F)c(F)c5F)c5nc(c(-c6c(F)c(F)c(F)c(F)c6F)c6ccc3[nH]6)C=C5)C=C4)cc2)cc1)N1C(=O)/C(=C\c2ccco2)SC1=S
REMARK SMILES IDX 13 1 12 2 10 3 11 4 9 6 6 7 7 8 84 9 8 10 83 11 5 12 3 13
REMARK SMILES IDX 4 14 2 16 1 17 85 18 86 19 96 20 87 21 88 22 95 23 97 24
REMARK SMILES IDX 89 25 90 26 91 27 94 28 92 29 93 30 14 31 15 32 16 33 17 34
REMARK SMILES IDX 18 35 19 37 20 38 21 39 82 40 22 41 81 42 23 43 24 44 25 45
REMARK SMILES IDX 75 46 26 47 80 48 74 49 76 50 27 51 79 52 73 53 72 54 28 56
REMARK SMILES IDX 60 57 40 58 59 59 41 60 44 61 58 62 77 63 42 64 43 65 57 67
REMARK SMILES IDX 78 68 45 69 29 70 30 71 38 72 31 73 32 74 36 75 39 76 33 77
REMARK SMILES IDX 34 78 37 79 35 80 61 81 62 82 70 83 63 84 64 85 68 86 71 87
REMARK SMILES IDX 65 88 66 89 69 90 67 91 46 92 47 93 55 94 48 95 49 96 53 97
REMARK SMILES IDX 56 98 50 99 51 100 54 101 52 102
REMARK H PARENT 12 5 5 15 17 36 76 55 44 66
REMARK Flexibility Score: inf
ROOT
ATOM      1  C   UNL A   1      36.555  21.221  25.565  1.00  0.00     0.116 C 
ENDROOT
BRANCH   1   2
ATOM      2  N   UNL A   1      35.281  20.858  26.159  1.00  0.00    -0.352 N 
ATOM      3  C   UNL A   1      33.998  21.103  25.729  1.00  0.00     0.251 C 
ATOM      4  O   UNL A   1      33.062  20.575  26.326  1.00  0.00    -0.269 OA
ATOM      5  H   UNL A   1      35.346  20.357  27.004  1.00  0.00     0.163 HD
BRANCH   3   6
ATOM      6  C   UNL A   1      33.719  21.933  24.525  1.00  0.00     0.039 A 
ATOM      7  C   UNL A   1      33.131  23.690  22.427  1.00  0.00     0.041 A 
ATOM      8  C   UNL A   1      34.239  23.929  23.238  1.00  0.00     0.027 A 
ATOM      9  C   UNL A   1      32.410  22.508  22.568  1.00  0.00     0.027 A 
ATOM     10  C   UNL A   1      34.512  23.068  24.307  1.00  0.00     0.016 A 
ATOM     11  C   UNL A   1      32.727  21.615  23.594  1.00  0.00     0.016 A 
BRANCH   7  12
ATOM     12  N   UNL A   1      32.809  24.601  21.419  1.00  0.00    -0.324 N 
ATOM     13  C   UNL A   1      31.999  25.710  21.496  1.00  0.00     0.247 C 
ATOM     14  O   UNL A   1      31.579  26.188  20.442  1.00  0.00    -0.272 OA
ATOM     15  H   UNL A   1      33.214  24.426  20.539  1.00  0.00     0.170 HD
BRANCH  13  16
ATOM     16  C   UNL A   1      31.766  26.385  22.879  1.00  0.00     0.178 C 
ATOM     17  C   UNL A   1      32.688  27.600  23.024  1.00  0.00     0.042 C 
BRANCH  16  18
ATOM     18  N   UNL A   1      30.368  26.723  23.204  1.00  0.00    -0.280 N 
ATOM     19  C   UNL A   1      29.745  27.807  22.606  1.00  0.00     0.267 C 
ATOM     20  C   UNL A   1      29.664  26.156  24.245  1.00  0.00     0.149 C 
ATOM     21  O   UNL A   1      30.230  28.521  21.746  1.00  0.00    -0.268 OA
ATOM     22  C   UNL A   1      28.378  27.999  23.182  1.00  0.00     0.084 C 
ATOM     23  S   UNL A   1      27.967  26.586  24.093  1.00  0.00    -0.054 SA
ATOM     24  S   UNL A   1      30.240  25.265  25.529  1.00  0.00    -0.052 S 
ATOM     25  C   UNL A   1      27.611  29.097  23.245  1.00  0.00     0.068 C 
BRANCH  25  26
ATOM     26  C   UNL A   1      28.054  30.398  22.900  1.00  0.00     0.127 A 
ATOM     27  C   UNL A   1      28.770  31.365  23.592  1.00  0.00     0.050 A 
ATOM     28  O   UNL A   1      27.768  30.917  21.653  1.00  0.00    -0.465 OA
ATOM     29  C   UNL A   1      28.854  32.517  22.772  1.00  0.00     0.042 A 
ATOM     30  C   UNL A   1      28.225  32.188  21.600  1.00  0.00     0.195 A 
ENDBRANCH  25  26
ENDBRANCH  16  18
ENDBRANCH  13  16
ENDBRANCH   7  12
ENDBRANCH   3   6
ENDBRANCH   1   2
BRANCH   1  31
ATOM     31  C   UNL A   1      37.060  20.139  24.610  1.00  0.00     0.023 C 
BRANCH  31  32
ATOM     32  C   UNL A   1      38.067  19.179  25.242  1.00  0.00     0.023 C 
BRANCH  32  33
ATOM     33  C   UNL A   1      39.287  19.853  25.857  1.00  0.00     0.116 C 
BRANCH  33  34
ATOM     34  N   UNL A   1      40.443  18.974  25.959  1.00  0.00    -0.352 N 
ATOM     35  C   UNL A   1      41.751  19.309  26.218  1.00  0.00     0.251 C 
ATOM     36  H   UNL A   1      40.265  18.014  25.825  1.00  0.00     0.163 HD
ATOM     37  O   UNL A   1      42.636  18.462  26.159  1.00  0.00    -0.269 OA
BRANCH  35  38
ATOM     38  C   UNL A   1      42.090  20.714  26.529  1.00  0.00     0.039 A 
ATOM     39  C   UNL A   1      42.270  21.085  27.863  1.00  0.00     0.014 A 
ATOM     40  C   UNL A   1      42.259  21.652  25.508  1.00  0.00     0.014 A 
ATOM     41  C   UNL A   1      42.682  22.384  28.170  1.00  0.00     0.010 A 
ATOM     42  C   UNL A   1      42.745  22.920  25.808  1.00  0.00     0.010 A 
ATOM     43  C   UNL A   1      42.956  23.302  27.141  1.00  0.00    -0.014 A 
BRANCH  43  44
ATOM     44  C   UNL A   1      43.438  24.675  27.438  1.00  0.00     0.031 A 
ATOM     45  C   UNL A   1      42.488  25.695  28.000  1.00  0.00     0.074 A 
ATOM     46  C   UNL A   1      44.707  25.020  27.147  1.00  0.00     0.049 A 
ATOM     47  N   UNL A   1      42.686  26.965  28.251  1.00  0.00    -0.248 NA
ATOM     48  C   UNL A   1      41.121  25.233  28.294  1.00  0.00     0.031 C 
ATOM     49  C   UNL A   1      45.714  24.134  26.563  1.00  0.00     0.029 A 
ATOM     50  N   UNL A   1      45.364  26.216  27.297  1.00  0.00    -0.354 N 
ATOM     51  C   UNL A   1      41.471  27.451  28.718  1.00  0.00     0.074 A 
ATOM     52  C   UNL A   1      40.525  26.358  28.656  1.00  0.00     0.031 C 
ATOM     53  C   UNL A   1      46.868  24.808  26.428  1.00  0.00     0.029 A 
ATOM     54  C   UNL A   1      46.672  26.182  26.878  1.00  0.00     0.049 A 
ATOM     55  H   UNL A   1      44.938  27.022  27.669  1.00  0.00     0.167 HD
ATOM     56  C   UNL A   1      41.178  28.688  29.184  1.00  0.00     0.037 A 
ATOM     57  C   UNL A   1      47.605  27.154  26.859  1.00  0.00     0.037 A 
ATOM     58  C   UNL A   1      42.126  29.767  29.266  1.00  0.00     0.049 A 
ATOM     59  C   UNL A   1      47.247  28.525  27.369  1.00  0.00     0.074 A 
ATOM     60  C   UNL A   1      41.936  31.050  29.751  1.00  0.00     0.029 A 
ATOM     61  N   UNL A   1      43.447  29.687  28.855  1.00  0.00    -0.354 N 
ATOM     62  N   UNL A   1      46.111  28.959  27.857  1.00  0.00    -0.248 NA
ATOM     63  C   UNL A   1      48.309  29.542  27.332  1.00  0.00     0.031 C 
ATOM     64  C   UNL A   1      43.133  31.755  29.600  1.00  0.00     0.029 A 
ATOM     65  C   UNL A   1      44.083  30.900  29.067  1.00  0.00     0.049 A 
ATOM     66  H   UNL A   1      43.872  28.887  28.468  1.00  0.00     0.167 HD
ATOM     67  C   UNL A   1      46.331  30.278  28.225  1.00  0.00     0.074 A 
ATOM     68  C   UNL A   1      47.713  30.575  27.911  1.00  0.00     0.031 C 
ATOM     69  C   UNL A   1      45.468  31.167  28.775  1.00  0.00     0.037 A 
BRANCH  56  70
ATOM     70  C   UNL A   1      39.773  28.934  29.654  1.00  0.00     0.064 A 
ATOM     71  C   UNL A   1      39.392  28.690  30.983  1.00  0.00     0.173 A 
ATOM     72  C   UNL A   1      38.805  29.449  28.780  1.00  0.00     0.173 A 
ATOM     73  F   UNL A   1      40.276  28.185  31.857  1.00  0.00    -0.203 F 
ATOM     74  C   UNL A   1      38.087  28.923  31.409  1.00  0.00     0.198 A 
ATOM     75  C   UNL A   1      37.510  29.711  29.218  1.00  0.00     0.198 A 
ATOM     76  F   UNL A   1      39.117  29.706  27.501  1.00  0.00    -0.203 F 
ATOM     77  F   UNL A   1      37.735  28.631  32.669  1.00  0.00    -0.200 F 
ATOM     78  C   UNL A   1      37.150  29.440  30.530  1.00  0.00     0.200 A 
ATOM     79  F   UNL A   1      36.608  30.223  28.370  1.00  0.00    -0.200 F 
ATOM     80  F   UNL A   1      35.896  29.670  30.943  1.00  0.00    -0.200 F 
ENDBRANCH  56  70
BRANCH  57  81
ATOM     81  C   UNL A   1      48.980  26.865  26.371  1.00  0.00     0.064 A 
ATOM     82  C   UNL A   1      49.308  27.023  25.017  1.00  0.00     0.173 A 
ATOM     83  C   UNL A   1      49.982  26.401  27.235  1.00  0.00     0.173 A 
ATOM     84  F   UNL A   1      48.377  27.445  24.148  1.00  0.00    -0.203 F 
ATOM     85  C   UNL A   1      50.576  26.699  24.539  1.00  0.00     0.198 A 
ATOM     86  C   UNL A   1      51.259  26.105  26.762  1.00  0.00     0.198 A 
ATOM     87  F   UNL A   1      49.723  26.236  28.540  1.00  0.00    -0.203 F 
ATOM     88  F   UNL A   1      50.844  26.805  23.231  1.00  0.00    -0.200 F 
ATOM     89  C   UNL A   1      51.552  26.243  25.413  1.00  0.00     0.200 A 
ATOM     90  F   UNL A   1      52.204  25.677  27.611  1.00  0.00    -0.200 F 
ATOM     91  F   UNL A   1      52.771  25.928  24.953  1.00  0.00    -0.200 F 
ENDBRANCH  57  81
BRANCH  69  92
ATOM     92  C   UNL A   1      46.006  32.521  29.134  1.00  0.00     0.064 A 
ATOM     93  C   UNL A   1      46.580  32.783  30.387  1.00  0.00     0.173 A 
ATOM     94  C   UNL A   1      45.978  33.562  28.193  1.00  0.00     0.173 A 
ATOM     95  F   UNL A   1      46.618  31.825  31.325  1.00  0.00    -0.203 F 
ATOM     96  C   UNL A   1      47.080  34.045  30.694  1.00  0.00     0.198 A 
ATOM     97  C   UNL A   1      46.508  34.814  28.493  1.00  0.00     0.198 A 
ATOM     98  F   UNL A   1      45.447  33.362  26.978  1.00  0.00    -0.203 F 
ATOM     99  F   UNL A   1      47.578  34.288  31.914  1.00  0.00    -0.200 F 
ATOM    100  C   UNL A   1      47.051  35.057  29.746  1.00  0.00     0.200 A 
ATOM    101  F   UNL A   1      46.492  35.786  27.570  1.00  0.00    -0.200 F 
ATOM    102  F   UNL A   1      47.540  36.270  30.041  1.00  0.00    -0.200 F 
ENDBRANCH  69  92
ENDBRANCH  43  44
ENDBRANCH  35  38
ENDBRANCH  33  34
ENDBRANCH  32  33
ENDBRANCH  31  32
ENDBRANCH   1  31
TORSDOF 15
ENDMDL
