MODEL 1
REMARK VINA RESULT:     -12.3      0.000      0.000
REMARK SMILES O=C(NCCCCNC(=O)[C@@H]1C[C@@H](O)CN1C(=O)CSc1ccc(F)cc1F)c1ccc(-c2c3nc(c(-c4c(F)c(F)c(F)c(F)c4F)c4ccc([nH]4)c(-c4c(F)c(F)c(F)c(F)c4F)c4nc(c(-c5c(F)c(F)c(F)c(F)c5F)c5ccc2[nH]5)C=C4)C=C3)cc1
REMARK SMILES IDX 6 1 5 2 4 3 3 4 1 5 2 6 29 8 30 9 91 10 31 11 90 12 32 13
REMARK SMILES IDX 33 14 34 15 84 16 35 17 89 18 83 19 85 20 36 21 88 22 82 23
REMARK SMILES IDX 81 24 37 26 69 27 49 28 68 29 50 30 53 31 67 32 86 33 51 34
REMARK SMILES IDX 52 35 66 37 87 38 54 39 38 40 39 41 47 42 40 43 41 44 45 45
REMARK SMILES IDX 48 46 42 47 43 48 46 49 44 50 70 51 71 52 79 53 72 54 73 55
REMARK SMILES IDX 77 56 80 57 74 58 75 59 78 60 76 61 55 62 56 63 64 64 57 65
REMARK SMILES IDX 58 66 62 67 65 68 59 69 60 70 63 71 61 72 7 73 8 74 9 75
REMARK SMILES IDX 10 77 11 78 12 79 16 80 13 81 15 82 17 83 18 84 19 85 20 86
REMARK SMILES IDX 21 87 22 88 27 89 23 90 26 91 28 92 24 93 25 94 14 95
REMARK H PARENT 3 7 85 25 53 36 8 76 14 96
REMARK Flexibility Score: inf
ROOT
ATOM      1  C   UNL A   1      31.602  30.832  26.183  1.00  0.00     0.023 C 
ENDROOT
BRANCH   1   2
ATOM      2  C   UNL A   1      31.413  32.204  26.849  1.00  0.00     0.023 C 
BRANCH   2   3
ATOM      3  C   UNL A   1      32.698  32.991  27.081  1.00  0.00     0.116 C 
BRANCH   3   4
ATOM      4  N   UNL A   1      32.450  34.302  27.655  1.00  0.00    -0.352 N 
ATOM      5  O   UNL A   1      32.619  35.948  29.187  1.00  0.00    -0.269 OA
ATOM      6  C   UNL A   1      33.057  34.895  28.732  1.00  0.00     0.251 C 
ATOM      7  H   UNL A   1      31.752  34.836  27.210  1.00  0.00     0.163 HD
BRANCH   6   8
ATOM      8  C   UNL A   1      34.230  34.251  29.362  1.00  0.00     0.039 A 
ATOM      9  C   UNL A   1      34.072  33.364  30.429  1.00  0.00     0.014 A 
ATOM     10  C   UNL A   1      35.504  34.527  28.858  1.00  0.00     0.014 A 
ATOM     11  C   UNL A   1      35.193  32.834  31.059  1.00  0.00     0.010 A 
ATOM     12  C   UNL A   1      36.628  33.942  29.450  1.00  0.00     0.010 A 
ATOM     13  C   UNL A   1      36.480  33.105  30.566  1.00  0.00    -0.014 A 
BRANCH  13  14
ATOM     14  C   UNL A   1      37.652  32.437  31.186  1.00  0.00     0.031 A 
ATOM     15  C   UNL A   1      38.111  32.795  32.568  1.00  0.00     0.074 A 
ATOM     16  C   UNL A   1      38.289  31.479  30.486  1.00  0.00     0.049 A 
ATOM     17  N   UNL A   1      39.103  32.294  33.262  1.00  0.00    -0.248 NA
ATOM     18  C   UNL A   1      37.367  33.855  33.266  1.00  0.00     0.031 C 
ATOM     19  C   UNL A   1      37.936  31.059  29.129  1.00  0.00     0.029 A 
ATOM     20  N   UNL A   1      39.347  30.674  30.820  1.00  0.00    -0.354 N 
ATOM     21  C   UNL A   1      39.110  32.980  34.468  1.00  0.00     0.074 A 
ATOM     22  C   UNL A   1      38.040  33.953  34.407  1.00  0.00     0.031 C 
ATOM     23  C   UNL A   1      38.729  30.042  28.763  1.00  0.00     0.029 A 
ATOM     24  C   UNL A   1      39.682  29.776  29.837  1.00  0.00     0.049 A 
ATOM     25  H   UNL A   1      39.822  30.734  31.681  1.00  0.00     0.167 HD
ATOM     26  C   UNL A   1      39.931  32.803  35.530  1.00  0.00     0.037 A 
ATOM     27  C   UNL A   1      40.653  28.846  29.797  1.00  0.00     0.037 A 
ATOM     28  C   UNL A   1      40.984  31.821  35.589  1.00  0.00     0.049 A 
ATOM     29  C   UNL A   1      41.562  28.686  30.981  1.00  0.00     0.074 A 
ATOM     30  C   UNL A   1      41.848  31.546  36.636  1.00  0.00     0.029 A 
ATOM     31  N   UNL A   1      41.317  30.953  34.560  1.00  0.00    -0.354 N 
ATOM     32  N   UNL A   1      41.544  29.326  32.124  1.00  0.00    -0.248 NA
ATOM     33  C   UNL A   1      42.629  27.683  30.868  1.00  0.00     0.031 C 
ATOM     34  C   UNL A   1      42.730  30.542  36.224  1.00  0.00     0.029 A 
ATOM     35  C   UNL A   1      42.387  30.158  34.939  1.00  0.00     0.049 A 
ATOM     36  H   UNL A   1      40.860  30.909  33.689  1.00  0.00     0.167 HD
ATOM     37  C   UNL A   1      42.587  28.800  32.871  1.00  0.00     0.074 A 
ATOM     38  C   UNL A   1      43.207  27.773  32.058  1.00  0.00     0.031 C 
ATOM     39  C   UNL A   1      42.994  29.141  34.118  1.00  0.00     0.037 A 
BRANCH  26  40
ATOM     40  C   UNL A   1      39.738  33.691  36.725  1.00  0.00     0.064 A 
ATOM     41  C   UNL A   1      38.882  33.305  37.767  1.00  0.00     0.173 A 
ATOM     42  C   UNL A   1      40.335  34.958  36.801  1.00  0.00     0.173 A 
ATOM     43  F   UNL A   1      38.281  32.106  37.738  1.00  0.00    -0.203 F 
ATOM     44  C   UNL A   1      38.619  34.160  38.833  1.00  0.00     0.198 A 
ATOM     45  C   UNL A   1      40.089  35.801  37.881  1.00  0.00     0.198 A 
ATOM     46  F   UNL A   1      41.169  35.370  35.834  1.00  0.00    -0.203 F 
ATOM     47  F   UNL A   1      37.774  33.781  39.802  1.00  0.00    -0.200 F 
ATOM     48  C   UNL A   1      39.224  35.406  38.892  1.00  0.00     0.200 A 
ATOM     49  F   UNL A   1      40.689  36.997  37.946  1.00  0.00    -0.200 F 
ATOM     50  F   UNL A   1      38.975  36.226  39.922  1.00  0.00    -0.200 F 
ENDBRANCH  26  40
BRANCH  27  51
ATOM     51  C   UNL A   1      40.792  27.991  28.592  1.00  0.00     0.064 A 
ATOM     52  C   UNL A   1      41.557  28.403  27.491  1.00  0.00     0.173 A 
ATOM     53  C   UNL A   1      40.114  26.768  28.497  1.00  0.00     0.173 A 
ATOM     54  F   UNL A   1      42.219  29.568  27.532  1.00  0.00    -0.203 F 
ATOM     55  C   UNL A   1      41.616  27.637  26.329  1.00  0.00     0.198 A 
ATOM     56  C   UNL A   1      40.194  25.991  27.344  1.00  0.00     0.198 A 
ATOM     57  F   UNL A   1      39.384  26.325  29.531  1.00  0.00    -0.203 F 
ATOM     58  F   UNL A   1      42.319  28.074  25.276  1.00  0.00    -0.200 F 
ATOM     59  C   UNL A   1      40.937  26.430  26.258  1.00  0.00     0.200 A 
ATOM     60  F   UNL A   1      39.554  24.815  27.285  1.00  0.00    -0.200 F 
ATOM     61  F   UNL A   1      40.997  25.691  25.142  1.00  0.00    -0.200 F 
ENDBRANCH  27  51
BRANCH  39  62
ATOM     62  C   UNL A   1      44.160  28.394  34.690  1.00  0.00     0.064 A 
ATOM     63  C   UNL A   1      45.470  28.851  34.483  1.00  0.00     0.173 A 
ATOM     64  C   UNL A   1      43.984  27.191  35.388  1.00  0.00     0.173 A 
ATOM     65  F   UNL A   1      45.688  29.995  33.817  1.00  0.00    -0.203 F 
ATOM     66  C   UNL A   1      46.562  28.123  34.942  1.00  0.00     0.198 A 
ATOM     67  C   UNL A   1      45.079  26.476  35.867  1.00  0.00     0.198 A 
ATOM     68  F   UNL A   1      42.749  26.722  35.623  1.00  0.00    -0.203 F 
ATOM     69  F   UNL A   1      47.806  28.564  34.709  1.00  0.00    -0.200 F 
ATOM     70  C   UNL A   1      46.366  26.938  35.636  1.00  0.00     0.200 A 
ATOM     71  F   UNL A   1      44.888  25.344  36.557  1.00  0.00    -0.200 F 
ATOM     72  F   UNL A   1      47.419  26.243  36.088  1.00  0.00    -0.200 F 
ENDBRANCH  39  62
ENDBRANCH  13  14
ENDBRANCH   6   8
ENDBRANCH   3   4
ENDBRANCH   2   3
ENDBRANCH   1   2
BRANCH   1  73
ATOM     73  C   UNL A   1      32.971  30.191  26.439  1.00  0.00     0.116 C 
BRANCH  73  74
ATOM     74  N   UNL A   1      33.507  29.661  25.205  1.00  0.00    -0.354 N 
ATOM     75  C   UNL A   1      33.410  28.418  24.659  1.00  0.00     0.242 C 
ATOM     76  H   UNL A   1      34.029  30.305  24.674  1.00  0.00     0.163 HD
ATOM     77  O   UNL A   1      34.249  28.148  23.796  1.00  0.00    -0.273 OA
BRANCH  75  78
ATOM     78  C   UNL A   1      32.262  27.465  25.067  1.00  0.00     0.177 C 
ATOM     79  C   UNL A   1      32.666  26.462  26.156  1.00  0.00     0.069 C 
ATOM     80  N   UNL A   1      31.829  26.600  23.951  1.00  0.00    -0.327 N 
ATOM     81  C   UNL A   1      31.776  25.257  25.876  1.00  0.00     0.136 C 
ATOM     82  C   UNL A   1      31.755  25.199  24.354  1.00  0.00     0.152 C 
BRANCH  80  83
ATOM     83  C   UNL A   1      31.385  27.143  22.766  1.00  0.00     0.233 C 
ATOM     84  O   UNL A   1      31.500  26.509  21.711  1.00  0.00    -0.274 OA
BRANCH  83  85
ATOM     85  C   UNL A   1      30.850  28.568  22.720  1.00  0.00     0.175 C 
BRANCH  85  86
ATOM     86  S   UNL A   1      29.217  28.866  23.477  1.00  0.00    -0.113 SA
BRANCH  86  87
ATOM     87  C   UNL A   1      28.642  30.298  22.580  1.00  0.00     0.044 A 
ATOM     88  C   UNL A   1      28.240  30.164  21.247  1.00  0.00     0.021 A 
ATOM     89  C   UNL A   1      28.703  31.582  23.140  1.00  0.00     0.139 A 
ATOM     90  C   UNL A   1      27.880  31.294  20.505  1.00  0.00     0.040 A 
ATOM     91  C   UNL A   1      28.327  32.708  22.414  1.00  0.00     0.079 A 
ATOM     92  F   UNL A   1      29.145  31.762  24.395  1.00  0.00    -0.206 F 
ATOM     93  C   UNL A   1      27.918  32.552  21.099  1.00  0.00     0.126 A 
ATOM     94  F   UNL A   1      27.575  33.630  20.382  1.00  0.00    -0.207 F 
ENDBRANCH  86  87
ENDBRANCH  85  86
ENDBRANCH  83  85
ENDBRANCH  80  83
BRANCH  81  95
ATOM     95  O   UNL A   1      30.471  25.491  26.405  1.00  0.00    -0.391 OA
ATOM     96  H   UNL A   1      29.862  25.705  25.680  1.00  0.00     0.211 HD
ENDBRANCH  81  95
ENDBRANCH  75  78
ENDBRANCH  73  74
ENDBRANCH   1  73
TORSDOF 16
ENDMDL
MODEL 2
REMARK VINA RESULT:     -12.2      4.200      9.082
REMARK SMILES O=C(NCCCCNC(=O)[C@@H]1C[C@@H](O)CN1C(=O)CSc1ccc(F)cc1F)c1ccc(-c2c3nc(c(-c4c(F)c(F)c(F)c(F)c4F)c4ccc([nH]4)c(-c4c(F)c(F)c(F)c(F)c4F)c4nc(c(-c5c(F)c(F)c(F)c(F)c5F)c5ccc2[nH]5)C=C4)C=C3)cc1
REMARK SMILES IDX 6 1 5 2 4 3 3 4 1 5 2 6 29 8 30 9 91 10 31 11 90 12 32 13
REMARK SMILES IDX 33 14 34 15 84 16 35 17 89 18 83 19 85 20 36 21 88 22 82 23
REMARK SMILES IDX 81 24 37 26 69 27 49 28 68 29 50 30 53 31 67 32 86 33 51 34
REMARK SMILES IDX 52 35 66 37 87 38 54 39 38 40 39 41 47 42 40 43 41 44 45 45
REMARK SMILES IDX 48 46 42 47 43 48 46 49 44 50 70 51 71 52 79 53 72 54 73 55
REMARK SMILES IDX 77 56 80 57 74 58 75 59 78 60 76 61 55 62 56 63 64 64 57 65
REMARK SMILES IDX 58 66 62 67 65 68 59 69 60 70 63 71 61 72 7 73 8 74 9 75
REMARK SMILES IDX 10 77 11 78 12 79 16 80 13 81 15 82 17 83 18 84 19 85 20 86
REMARK SMILES IDX 21 87 22 88 27 89 23 90 26 91 28 92 24 93 25 94 14 95
REMARK H PARENT 3 7 85 25 53 36 8 76 14 96
REMARK Flexibility Score: inf
ROOT
ATOM      1  C   UNL A   1      34.034  23.801  26.279  1.00  0.00     0.023 C 
ENDROOT
BRANCH   1   2
ATOM      2  C   UNL A   1      35.224  23.056  25.653  1.00  0.00     0.023 C 
BRANCH   2   3
ATOM      3  C   UNL A   1      36.590  23.673  25.932  1.00  0.00     0.116 C 
BRANCH   3   4
ATOM      4  N   UNL A   1      37.647  22.678  25.989  1.00  0.00    -0.352 N 
ATOM      5  O   UNL A   1      39.763  21.927  26.200  1.00  0.00    -0.269 OA
ATOM      6  C   UNL A   1      38.958  22.840  26.359  1.00  0.00     0.251 C 
ATOM      7  H   UNL A   1      37.387  21.765  25.727  1.00  0.00     0.163 HD
BRANCH   6   8
ATOM      8  C   UNL A   1      39.406  24.128  26.932  1.00  0.00     0.039 A 
ATOM      9  C   UNL A   1      39.250  24.397  28.294  1.00  0.00     0.014 A 
ATOM     10  C   UNL A   1      40.011  25.068  26.093  1.00  0.00     0.014 A 
ATOM     11  C   UNL A   1      39.602  25.645  28.796  1.00  0.00     0.010 A 
ATOM     12  C   UNL A   1      40.426  26.298  26.612  1.00  0.00     0.010 A 
ATOM     13  C   UNL A   1      40.208  26.601  27.964  1.00  0.00    -0.014 A 
BRANCH  13  14
ATOM     14  C   UNL A   1      40.677  27.882  28.549  1.00  0.00     0.031 A 
ATOM     15  C   UNL A   1      42.133  28.129  28.817  1.00  0.00     0.074 A 
ATOM     16  C   UNL A   1      39.767  28.837  28.818  1.00  0.00     0.049 A 
ATOM     17  N   UNL A   1      42.710  29.199  29.305  1.00  0.00    -0.248 NA
ATOM     18  C   UNL A   1      43.065  27.036  28.502  1.00  0.00     0.031 C 
ATOM     19  C   UNL A   1      38.324  28.700  28.608  1.00  0.00     0.029 A 
ATOM     20  N   UNL A   1      39.914  30.111  29.303  1.00  0.00    -0.354 N 
ATOM     21  C   UNL A   1      44.065  28.907  29.366  1.00  0.00     0.074 A 
ATOM     22  C   UNL A   1      44.227  27.550  28.889  1.00  0.00     0.031 C 
ATOM     23  C   UNL A   1      37.724  29.859  28.915  1.00  0.00     0.029 A 
ATOM     24  C   UNL A   1      38.731  30.800  29.396  1.00  0.00     0.049 A 
ATOM     25  H   UNL A   1      40.784  30.493  29.560  1.00  0.00     0.167 HD
ATOM     26  C   UNL A   1      45.079  29.706  29.775  1.00  0.00     0.037 A 
ATOM     27  C   UNL A   1      38.479  32.049  29.828  1.00  0.00     0.037 A 
ATOM     28  C   UNL A   1      44.912  31.062  30.233  1.00  0.00     0.049 A 
ATOM     29  C   UNL A   1      39.620  32.906  30.295  1.00  0.00     0.074 A 
ATOM     30  C   UNL A   1      45.883  31.960  30.638  1.00  0.00     0.029 A 
ATOM     31  N   UNL A   1      43.693  31.714  30.348  1.00  0.00    -0.354 N 
ATOM     32  N   UNL A   1      40.900  32.625  30.326  1.00  0.00    -0.248 NA
ATOM     33  C   UNL A   1      39.284  34.246  30.792  1.00  0.00     0.031 C 
ATOM     34  C   UNL A   1      45.250  33.141  31.037  1.00  0.00     0.029 A 
ATOM     35  C   UNL A   1      43.887  32.997  30.838  1.00  0.00     0.049 A 
ATOM     36  H   UNL A   1      42.820  31.325  30.116  1.00  0.00     0.167 HD
ATOM     37  C   UNL A   1      41.524  33.754  30.836  1.00  0.00     0.074 A 
ATOM     38  C   UNL A   1      40.484  34.732  31.083  1.00  0.00     0.031 C 
ATOM     39  C   UNL A   1      42.841  33.957  31.080  1.00  0.00     0.037 A 
BRANCH  26  40
ATOM     40  C   UNL A   1      46.470  29.144  29.755  1.00  0.00     0.064 A 
ATOM     41  C   UNL A   1      47.246  29.205  28.588  1.00  0.00     0.173 A 
ATOM     42  C   UNL A   1      47.005  28.471  30.864  1.00  0.00     0.173 A 
ATOM     43  F   UNL A   1      46.777  29.830  27.497  1.00  0.00    -0.203 F 
ATOM     44  C   UNL A   1      48.499  28.603  28.527  1.00  0.00     0.198 A 
ATOM     45  C   UNL A   1      48.269  27.891  30.807  1.00  0.00     0.198 A 
ATOM     46  F   UNL A   1      46.307  28.393  32.007  1.00  0.00    -0.203 F 
ATOM     47  F   UNL A   1      49.210  28.649  27.391  1.00  0.00    -0.200 F 
ATOM     48  C   UNL A   1      49.012  27.949  29.636  1.00  0.00     0.200 A 
ATOM     49  F   UNL A   1      48.772  27.275  31.886  1.00  0.00    -0.200 F 
ATOM     50  F   UNL A   1      50.221  27.374  29.579  1.00  0.00    -0.200 F 
ENDBRANCH  26  40
BRANCH  27  51
ATOM     51  C   UNL A   1      37.084  32.555  29.817  1.00  0.00     0.064 A 
ATOM     52  C   UNL A   1      36.574  33.259  28.717  1.00  0.00     0.173 A 
ATOM     53  C   UNL A   1      36.251  32.391  30.932  1.00  0.00     0.173 A 
ATOM     54  F   UNL A   1      37.335  33.448  27.628  1.00  0.00    -0.203 F 
ATOM     55  C   UNL A   1      35.294  33.806  28.743  1.00  0.00     0.198 A 
ATOM     56  C   UNL A   1      34.961  32.916  30.947  1.00  0.00     0.198 A 
ATOM     57  F   UNL A   1      36.689  31.709  32.000  1.00  0.00    -0.203 F 
ATOM     58  F   UNL A   1      34.847  34.512  27.696  1.00  0.00    -0.200 F 
ATOM     59  C   UNL A   1      34.487  33.631  29.857  1.00  0.00     0.200 A 
ATOM     60  F   UNL A   1      34.176  32.727  32.017  1.00  0.00    -0.200 F 
ATOM     61  F   UNL A   1      33.253  34.152  29.881  1.00  0.00    -0.200 F 
ENDBRANCH  27  51
BRANCH  39  62
ATOM     62  C   UNL A   1      43.241  35.291  31.634  1.00  0.00     0.064 A 
ATOM     63  C   UNL A   1      43.133  35.552  33.008  1.00  0.00     0.173 A 
ATOM     64  C   UNL A   1      43.669  36.331  30.797  1.00  0.00     0.173 A 
ATOM     65  F   UNL A   1      42.724  34.590  33.849  1.00  0.00    -0.203 F 
ATOM     66  C   UNL A   1      43.427  36.812  33.521  1.00  0.00     0.198 A 
ATOM     67  C   UNL A   1      43.985  37.583  31.317  1.00  0.00     0.198 A 
ATOM     68  F   UNL A   1      43.801  36.123  29.478  1.00  0.00    -0.203 F 
ATOM     69  F   UNL A   1      43.290  37.047  34.834  1.00  0.00    -0.200 F 
ATOM     70  C   UNL A   1      43.855  37.824  32.676  1.00  0.00     0.200 A 
ATOM     71  F   UNL A   1      44.420  38.554  30.503  1.00  0.00    -0.200 F 
ATOM     72  F   UNL A   1      44.147  39.034  33.174  1.00  0.00    -0.200 F 
ENDBRANCH  39  62
ENDBRANCH  13  14
ENDBRANCH   6   8
ENDBRANCH   3   4
ENDBRANCH   2   3
ENDBRANCH   1   2
BRANCH   1  73
ATOM     73  C   UNL A   1      33.836  25.226  25.752  1.00  0.00     0.116 C 
BRANCH  73  74
ATOM     74  N   UNL A   1      32.477  25.657  25.993  1.00  0.00    -0.354 N 
ATOM     75  C   UNL A   1      31.991  26.852  26.429  1.00  0.00     0.242 C 
ATOM     76  H   UNL A   1      31.791  24.975  25.813  1.00  0.00     0.163 HD
ATOM     77  O   UNL A   1      30.844  26.827  26.881  1.00  0.00    -0.273 OA
BRANCH  75  78
ATOM     78  C   UNL A   1      32.827  28.145  26.281  1.00  0.00     0.177 C 
ATOM     79  C   UNL A   1      33.289  28.726  27.625  1.00  0.00     0.069 C 
ATOM     80  N   UNL A   1      32.050  29.248  25.683  1.00  0.00    -0.327 N 
ATOM     81  C   UNL A   1      33.385  30.221  27.351  1.00  0.00     0.136 C 
ATOM     82  C   UNL A   1      32.179  30.479  26.457  1.00  0.00     0.152 C 
BRANCH  80  83
ATOM     83  C   UNL A   1      31.459  29.109  24.447  1.00  0.00     0.233 C 
ATOM     84  O   UNL A   1      30.391  29.680  24.202  1.00  0.00    -0.274 OA
BRANCH  83  85
ATOM     85  C   UNL A   1      32.052  28.167  23.407  1.00  0.00     0.175 C 
BRANCH  85  86
ATOM     86  S   UNL A   1      30.877  27.229  22.373  1.00  0.00    -0.113 SA
BRANCH  86  87
ATOM     87  C   UNL A   1      31.469  25.555  22.554  1.00  0.00     0.044 A 
ATOM     88  C   UNL A   1      30.691  24.614  23.237  1.00  0.00     0.021 A 
ATOM     89  C   UNL A   1      32.758  25.189  22.138  1.00  0.00     0.139 A 
ATOM     90  C   UNL A   1      31.187  23.327  23.470  1.00  0.00     0.040 A 
ATOM     91  C   UNL A   1      33.249  23.904  22.348  1.00  0.00     0.079 A 
ATOM     92  F   UNL A   1      33.563  26.080  21.536  1.00  0.00    -0.206 F 
ATOM     93  C   UNL A   1      32.456  22.983  23.014  1.00  0.00     0.126 A 
ATOM     94  F   UNL A   1      32.927  21.750  23.242  1.00  0.00    -0.207 F 
ENDBRANCH  86  87
ENDBRANCH  85  86
ENDBRANCH  83  85
ENDBRANCH  80  83
BRANCH  81  95
ATOM     95  O   UNL A   1      34.608  30.506  26.670  1.00  0.00    -0.391 OA
ATOM     96  H   UNL A   1      34.411  30.840  25.780  1.00  0.00     0.211 HD
ENDBRANCH  81  95
ENDBRANCH  75  78
ENDBRANCH  73  74
ENDBRANCH   1  73
TORSDOF 16
ENDMDL
MODEL 3
REMARK VINA RESULT:     -12.1      6.103     11.448
REMARK SMILES O=C(NCCCCNC(=O)[C@@H]1C[C@@H](O)CN1C(=O)CSc1ccc(F)cc1F)c1ccc(-c2c3nc(c(-c4c(F)c(F)c(F)c(F)c4F)c4ccc([nH]4)c(-c4c(F)c(F)c(F)c(F)c4F)c4nc(c(-c5c(F)c(F)c(F)c(F)c5F)c5ccc2[nH]5)C=C4)C=C3)cc1
REMARK SMILES IDX 6 1 5 2 4 3 3 4 1 5 2 6 29 8 30 9 91 10 31 11 90 12 32 13
REMARK SMILES IDX 33 14 34 15 84 16 35 17 89 18 83 19 85 20 36 21 88 22 82 23
REMARK SMILES IDX 81 24 37 26 69 27 49 28 68 29 50 30 53 31 67 32 86 33 51 34
REMARK SMILES IDX 52 35 66 37 87 38 54 39 38 40 39 41 47 42 40 43 41 44 45 45
REMARK SMILES IDX 48 46 42 47 43 48 46 49 44 50 70 51 71 52 79 53 72 54 73 55
REMARK SMILES IDX 77 56 80 57 74 58 75 59 78 60 76 61 55 62 56 63 64 64 57 65
REMARK SMILES IDX 58 66 62 67 65 68 59 69 60 70 63 71 61 72 7 73 8 74 9 75
REMARK SMILES IDX 10 77 11 78 12 79 16 80 13 81 15 82 17 83 18 84 19 85 20 86
REMARK SMILES IDX 21 87 22 88 27 89 23 90 26 91 28 92 24 93 25 94 14 95
REMARK H PARENT 3 7 85 25 53 36 8 76 14 96
REMARK Flexibility Score: inf
ROOT
ATOM      1  C   UNL A   1      36.827  20.384  24.984  1.00  0.00     0.023 C 
ENDROOT
BRANCH   1   2
ATOM      2  C   UNL A   1      38.055  19.459  25.021  1.00  0.00     0.023 C 
BRANCH   2   3
ATOM      3  C   UNL A   1      39.227  19.977  25.845  1.00  0.00     0.116 C 
BRANCH   3   4
ATOM      4  N   UNL A   1      40.342  19.046  25.869  1.00  0.00    -0.352 N 
ATOM      5  O   UNL A   1      42.510  18.425  25.899  1.00  0.00    -0.269 OA
ATOM      6  C   UNL A   1      41.674  19.308  26.067  1.00  0.00     0.251 C 
ATOM      7  H   UNL A   1      40.111  18.100  25.724  1.00  0.00     0.163 HD
BRANCH   6   8
ATOM      8  C   UNL A   1      42.105  20.667  26.463  1.00  0.00     0.039 A 
ATOM      9  C   UNL A   1      42.441  21.620  25.498  1.00  0.00     0.014 A 
ATOM     10  C   UNL A   1      42.150  20.994  27.821  1.00  0.00     0.014 A 
ATOM     11  C   UNL A   1      42.923  22.863  25.894  1.00  0.00     0.010 A 
ATOM     12  C   UNL A   1      42.571  22.267  28.216  1.00  0.00     0.010 A 
ATOM     13  C   UNL A   1      42.977  23.204  27.256  1.00  0.00    -0.014 A 
BRANCH  13  14
ATOM     14  C   UNL A   1      43.387  24.576  27.646  1.00  0.00     0.031 A 
ATOM     15  C   UNL A   1      44.831  24.985  27.656  1.00  0.00     0.074 A 
ATOM     16  C   UNL A   1      42.429  25.463  27.973  1.00  0.00     0.049 A 
ATOM     17  N   UNL A   1      45.355  26.148  27.952  1.00  0.00    -0.248 NA
ATOM     18  C   UNL A   1      45.818  23.958  27.291  1.00  0.00     0.031 C 
ATOM     19  C   UNL A   1      40.994  25.172  28.008  1.00  0.00     0.029 A 
ATOM     20  N   UNL A   1      42.508  26.789  28.316  1.00  0.00    -0.354 N 
ATOM     21  C   UNL A   1      46.728  25.993  27.821  1.00  0.00     0.074 A 
ATOM     22  C   UNL A   1      46.962  24.615  27.443  1.00  0.00     0.031 C 
ATOM     23  C   UNL A   1      40.325  26.294  28.306  1.00  0.00     0.029 A 
ATOM     24  C   UNL A   1      41.284  27.370  28.537  1.00  0.00     0.049 A 
ATOM     25  H   UNL A   1      43.360  27.276  28.398  1.00  0.00     0.167 HD
ATOM     26  C   UNL A   1      47.699  26.921  27.993  1.00  0.00     0.037 A 
ATOM     27  C   UNL A   1      40.966  28.627  28.895  1.00  0.00     0.037 A 
ATOM     28  C   UNL A   1      47.455  28.295  28.354  1.00  0.00     0.049 A 
ATOM     29  C   UNL A   1      42.064  29.630  29.099  1.00  0.00     0.074 A 
ATOM     30  C   UNL A   1      48.373  29.317  28.519  1.00  0.00     0.029 A 
ATOM     31  N   UNL A   1      46.204  28.838  28.604  1.00  0.00    -0.354 N 
ATOM     32  N   UNL A   1      43.357  29.476  28.950  1.00  0.00    -0.248 NA
ATOM     33  C   UNL A   1      41.662  30.977  29.525  1.00  0.00     0.031 C 
ATOM     34  C   UNL A   1      47.682  30.468  28.912  1.00  0.00     0.029 A 
ATOM     35  C   UNL A   1      46.329  30.176  28.945  1.00  0.00     0.049 A 
ATOM     36  H   UNL A   1      45.353  28.347  28.549  1.00  0.00     0.167 HD
ATOM     37  C   UNL A   1      43.924  30.704  29.255  1.00  0.00     0.074 A 
ATOM     38  C   UNL A   1      42.832  31.600  29.579  1.00  0.00     0.031 C 
ATOM     39  C   UNL A   1      45.233  31.054  29.267  1.00  0.00     0.037 A 
BRANCH  26  40
ATOM     40  C   UNL A   1      49.124  26.493  27.800  1.00  0.00     0.064 A 
ATOM     41  C   UNL A   1      49.958  26.279  28.908  1.00  0.00     0.173 A 
ATOM     42  C   UNL A   1      49.688  26.375  26.521  1.00  0.00     0.173 A 
ATOM     43  F   UNL A   1      49.469  26.386  30.153  1.00  0.00    -0.203 F 
ATOM     44  C   UNL A   1      51.306  25.976  28.742  1.00  0.00     0.198 A 
ATOM     45  C   UNL A   1      51.031  26.049  26.359  1.00  0.00     0.198 A 
ATOM     46  F   UNL A   1      48.930  26.561  25.430  1.00  0.00    -0.203 F 
ATOM     47  F   UNL A   1      52.091  25.805  29.816  1.00  0.00    -0.200 F 
ATOM     48  C   UNL A   1      51.842  25.858  27.469  1.00  0.00     0.200 A 
ATOM     49  F   UNL A   1      51.543  25.917  25.128  1.00  0.00    -0.200 F 
ATOM     50  F   UNL A   1      53.139  25.561  27.310  1.00  0.00    -0.200 F 
ENDBRANCH  26  40
BRANCH  27  51
ATOM     51  C   UNL A   1      39.538  28.996  29.063  1.00  0.00     0.064 A 
ATOM     52  C   UNL A   1      38.905  28.905  30.311  1.00  0.00     0.173 A 
ATOM     53  C   UNL A   1      38.765  29.394  27.964  1.00  0.00     0.173 A 
ATOM     54  F   UNL A   1      39.602  28.522  31.391  1.00  0.00    -0.203 F 
ATOM     55  C   UNL A   1      37.545  29.169  30.449  1.00  0.00     0.198 A 
ATOM     56  C   UNL A   1      37.410  29.684  28.108  1.00  0.00     0.198 A 
ATOM     57  F   UNL A   1      39.331  29.512  26.755  1.00  0.00    -0.203 F 
ATOM     58  F   UNL A   1      36.955  29.033  31.643  1.00  0.00    -0.200 F 
ATOM     59  C   UNL A   1      36.799  29.562  29.347  1.00  0.00     0.200 A 
ATOM     60  F   UNL A   1      36.696  30.082  27.046  1.00  0.00    -0.200 F 
ATOM     61  F   UNL A   1      35.492  29.822  29.480  1.00  0.00    -0.200 F 
ENDBRANCH  27  51
BRANCH  39  62
ATOM     62  C   UNL A   1      45.564  32.469  29.634  1.00  0.00     0.064 A 
ATOM     63  C   UNL A   1      45.786  32.824  30.972  1.00  0.00     0.173 A 
ATOM     64  C   UNL A   1      45.597  33.485  28.667  1.00  0.00     0.173 A 
ATOM     65  F   UNL A   1      45.760  31.888  31.933  1.00  0.00    -0.203 F 
ATOM     66  C   UNL A   1      46.016  34.149  31.332  1.00  0.00     0.198 A 
ATOM     67  C   UNL A   1      45.851  34.805  29.027  1.00  0.00     0.198 A 
ATOM     68  F   UNL A   1      45.404  33.190  27.373  1.00  0.00    -0.203 F 
ATOM     69  F   UNL A   1      46.198  34.470  32.620  1.00  0.00    -0.200 F 
ATOM     70  C   UNL A   1      46.051  35.137  30.360  1.00  0.00     0.200 A 
ATOM     71  F   UNL A   1      45.907  35.755  28.085  1.00  0.00    -0.200 F 
ATOM     72  F   UNL A   1      46.283  36.410  30.706  1.00  0.00    -0.200 F 
ENDBRANCH  39  62
ENDBRANCH  13  14
ENDBRANCH   6   8
ENDBRANCH   3   4
ENDBRANCH   2   3
ENDBRANCH   1   2
BRANCH   1  73
ATOM     73  C   UNL A   1      37.111  21.783  24.429  1.00  0.00     0.116 C 
BRANCH  73  74
ATOM     74  N   UNL A   1      36.489  22.783  25.269  1.00  0.00    -0.354 N 
ATOM     75  C   UNL A   1      35.418  23.591  25.040  1.00  0.00     0.242 C 
ATOM     76  H   UNL A   1      36.911  22.898  26.151  1.00  0.00     0.163 HD
ATOM     77  O   UNL A   1      35.330  24.580  25.771  1.00  0.00    -0.273 OA
BRANCH  75  78
ATOM     78  C   UNL A   1      34.362  23.217  23.972  1.00  0.00     0.177 C 
ATOM     79  C   UNL A   1      34.333  24.187  22.783  1.00  0.00     0.069 C 
ATOM     80  N   UNL A   1      32.985  23.284  24.500  1.00  0.00    -0.327 N 
ATOM     81  C   UNL A   1      32.886  24.125  22.310  1.00  0.00     0.136 C 
ATOM     82  C   UNL A   1      32.106  24.045  23.617  1.00  0.00     0.152 C 
BRANCH  80  83
ATOM     83  C   UNL A   1      32.609  22.537  25.593  1.00  0.00     0.233 C 
ATOM     84  O   UNL A   1      32.274  23.098  26.643  1.00  0.00    -0.274 OA
BRANCH  83  85
ATOM     85  C   UNL A   1      32.705  21.017  25.564  1.00  0.00     0.175 C 
BRANCH  85  86
ATOM     86  S   UNL A   1      32.522  20.206  23.940  1.00  0.00    -0.113 SA
BRANCH  86  87
ATOM     87  C   UNL A   1      32.739  18.484  24.353  1.00  0.00     0.044 A 
ATOM     88  C   UNL A   1      32.626  18.071  25.685  1.00  0.00     0.021 A 
ATOM     89  C   UNL A   1      33.147  17.549  23.390  1.00  0.00     0.139 A 
ATOM     90  C   UNL A   1      32.890  16.742  26.034  1.00  0.00     0.040 A 
ATOM     91  C   UNL A   1      33.391  16.221  23.727  1.00  0.00     0.079 A 
ATOM     92  F   UNL A   1      33.331  17.917  22.112  1.00  0.00    -0.206 F 
ATOM     93  C   UNL A   1      33.260  15.830  25.050  1.00  0.00     0.126 A 
ATOM     94  F   UNL A   1      33.514  14.560  25.391  1.00  0.00    -0.207 F 
ENDBRANCH  86  87
ENDBRANCH  85  86
ENDBRANCH  83  85
ENDBRANCH  80  83
BRANCH  81  95
ATOM     95  O   UNL A   1      32.691  22.954  21.516  1.00  0.00    -0.391 OA
ATOM     96  H   UNL A   1      31.741  22.810  21.382  1.00  0.00     0.211 HD
ENDBRANCH  81  95
ENDBRANCH  75  78
ENDBRANCH  73  74
ENDBRANCH   1  73
TORSDOF 16
ENDMDL
