MODEL 1
REMARK VINA RESULT:     -11.8      0.000      0.000
REMARK SMILES CCC(CC)(CC(=O)Nc1ccc(F)c(F)c1)C(=O)NCCCCNC(=O)c1ccc(-c2c3nc(c(-c4c(F)c(F)c(F)c(F)c4F)c4ccc([nH]4)c(-c4c(F)c(F)c(F)c(F)c4F)c4nc(c(-c5c(F)c(F)c(F)c(F)c5F)c5ccc2[nH]5)C=C4)C=C3)cc1
REMARK SMILES IDX 22 1 21 2 20 3 18 4 19 5 3 7 2 8 1 9 4 10 5 11 6 12 7 13
REMARK SMILES IDX 8 14 9 15 10 17 11 18 17 19 12 20 15 21 13 22 16 23 14 24
REMARK SMILES IDX 23 25 24 26 25 27 26 28 27 30 28 31 29 32 90 33 30 34 89 35
REMARK SMILES IDX 31 36 32 37 33 38 83 39 34 40 88 41 82 42 84 43 35 44 87 45
REMARK SMILES IDX 81 46 80 47 36 49 68 50 48 51 67 52 49 53 52 54 66 55 85 56
REMARK SMILES IDX 50 57 51 58 65 60 86 61 53 62 37 63 38 64 46 65 39 66 40 67
REMARK SMILES IDX 44 68 47 69 41 70 42 71 45 72 43 73 69 74 70 75 78 76 71 77
REMARK SMILES IDX 72 78 76 79 79 80 73 81 74 82 77 83 75 84 54 85 55 86 63 87
REMARK SMILES IDX 56 88 57 89 61 90 64 91 58 92 59 93 62 94 60 95
REMARK H PARENT 20 6 9 16 25 29 84 48 52 59
REMARK Flexibility Score: inf
ROOT
ATOM      1  C   UNL A   1      37.096  20.977  24.600  1.00  0.00     0.023 C 
ENDROOT
BRANCH   1   2
ATOM      2  C   UNL A   1      36.744  21.987  25.686  1.00  0.00     0.116 C 
BRANCH   2   3
ATOM      3  N   UNL A   1      35.614  21.554  26.477  1.00  0.00    -0.356 N 
ATOM      4  C   UNL A   1      34.341  22.001  26.588  1.00  0.00     0.226 C 
ATOM      5  O   UNL A   1      33.667  21.442  27.462  1.00  0.00    -0.274 OA
ATOM      6  H   UNL A   1      35.809  20.779  27.050  1.00  0.00     0.163 HD
BRANCH   4   7
ATOM      7  C   UNL A   1      33.751  23.124  25.704  1.00  0.00     0.057 C 
BRANCH   7   8
ATOM      8  C   UNL A   1      33.499  22.515  24.294  1.00  0.00     0.014 C 
ATOM      9  C   UNL A   1      34.341  23.002  23.121  1.00  0.00     0.005 C 
ENDBRANCH   7   8
BRANCH   7  10
ATOM     10  C   UNL A   1      34.752  24.314  25.554  1.00  0.00     0.014 C 
ATOM     11  C   UNL A   1      34.121  25.703  25.541  1.00  0.00     0.005 C 
ENDBRANCH   7  10
BRANCH   7  12
ATOM     12  C   UNL A   1      32.369  23.592  26.259  1.00  0.00     0.117 C 
BRANCH  12  13
ATOM     13  C   UNL A   1      31.100  23.065  25.581  1.00  0.00     0.225 C 
ATOM     14  O   UNL A   1      30.658  21.949  25.868  1.00  0.00    -0.275 OA
ATOM     15  N   UNL A   1      30.360  23.872  24.746  1.00  0.00    -0.326 N 
ATOM     16  H   UNL A   1      29.450  23.560  24.540  1.00  0.00     0.169 HD
BRANCH  15  17
ATOM     17  C   UNL A   1      30.739  25.083  24.154  1.00  0.00     0.044 A 
ATOM     18  C   UNL A   1      31.298  25.084  22.873  1.00  0.00     0.029 A 
ATOM     19  C   UNL A   1      30.512  26.290  24.809  1.00  0.00     0.068 A 
ATOM     20  C   UNL A   1      31.830  26.256  22.334  1.00  0.00     0.044 A 
ATOM     21  C   UNL A   1      30.996  27.468  24.240  1.00  0.00     0.160 A 
ATOM     22  C   UNL A   1      31.692  27.445  23.036  1.00  0.00     0.158 A 
ATOM     23  F   UNL A   1      30.802  28.630  24.877  1.00  0.00    -0.204 F 
ATOM     24  F   UNL A   1      32.228  28.568  22.537  1.00  0.00    -0.204 F 
ENDBRANCH  15  17
ENDBRANCH  12  13
ENDBRANCH   7  12
ENDBRANCH   4   7
ENDBRANCH   2   3
ENDBRANCH   1   2
BRANCH   1  25
ATOM     25  C   UNL A   1      37.992  19.823  25.050  1.00  0.00     0.023 C 
BRANCH  25  26
ATOM     26  C   UNL A   1      39.274  20.231  25.763  1.00  0.00     0.116 C 
BRANCH  26  27
ATOM     27  N   UNL A   1      40.241  19.148  25.856  1.00  0.00    -0.352 N 
ATOM     28  C   UNL A   1      41.595  19.210  26.087  1.00  0.00     0.251 C 
ATOM     29  H   UNL A   1      39.873  18.243  25.737  1.00  0.00     0.163 HD
ATOM     30  O   UNL A   1      42.288  18.209  26.000  1.00  0.00    -0.269 OA
BRANCH  28  31
ATOM     31  C   UNL A   1      42.209  20.514  26.408  1.00  0.00     0.039 A 
ATOM     32  C   UNL A   1      42.687  21.308  25.364  1.00  0.00     0.014 A 
ATOM     33  C   UNL A   1      42.274  20.964  27.730  1.00  0.00     0.014 A 
ATOM     34  C   UNL A   1      43.166  22.588  25.640  1.00  0.00     0.010 A 
ATOM     35  C   UNL A   1      42.675  22.269  27.993  1.00  0.00     0.010 A 
ATOM     36  C   UNL A   1      43.125  23.094  26.950  1.00  0.00    -0.014 A 
BRANCH  36  37
ATOM     37  C   UNL A   1      43.547  24.485  27.250  1.00  0.00     0.031 A 
ATOM     38  C   UNL A   1      42.545  25.482  27.759  1.00  0.00     0.074 A 
ATOM     39  C   UNL A   1      44.820  24.861  27.014  1.00  0.00     0.049 A 
ATOM     40  N   UNL A   1      42.705  26.754  28.023  1.00  0.00    -0.248 NA
ATOM     41  C   UNL A   1      41.174  24.994  27.979  1.00  0.00     0.031 C 
ATOM     42  C   UNL A   1      45.871  23.992  26.482  1.00  0.00     0.029 A 
ATOM     43  N   UNL A   1      45.446  26.070  27.188  1.00  0.00    -0.354 N 
ATOM     44  C   UNL A   1      41.460  27.214  28.429  1.00  0.00     0.074 A 
ATOM     45  C   UNL A   1      40.540  26.105  28.321  1.00  0.00     0.031 C 
ATOM     46  C   UNL A   1      47.018  24.685  26.407  1.00  0.00     0.029 A 
ATOM     47  C   UNL A   1      46.776  26.057  26.841  1.00  0.00     0.049 A 
ATOM     48  H   UNL A   1      44.985  26.871  27.529  1.00  0.00     0.167 HD
ATOM     49  C   UNL A   1      41.126  28.445  28.880  1.00  0.00     0.037 A 
ATOM     50  C   UNL A   1      47.694  27.043  26.869  1.00  0.00     0.037 A 
ATOM     51  C   UNL A   1      42.054  29.537  29.013  1.00  0.00     0.049 A 
ATOM     52  C   UNL A   1      47.289  28.409  27.354  1.00  0.00     0.074 A 
ATOM     53  C   UNL A   1      41.822  30.806  29.508  1.00  0.00     0.029 A 
ATOM     54  N   UNL A   1      43.392  29.486  28.648  1.00  0.00    -0.354 N 
ATOM     55  N   UNL A   1      46.122  28.816  27.792  1.00  0.00    -0.248 NA
ATOM     56  C   UNL A   1      48.325  29.451  27.352  1.00  0.00     0.031 C 
ATOM     57  C   UNL A   1      43.004  31.541  29.396  1.00  0.00     0.029 A 
ATOM     58  C   UNL A   1      43.990  30.712  28.885  1.00  0.00     0.049 A 
ATOM     59  H   UNL A   1      43.847  28.696  28.276  1.00  0.00     0.167 HD
ATOM     60  C   UNL A   1      46.289  30.150  28.140  1.00  0.00     0.074 A 
ATOM     61  C   UNL A   1      47.674  30.479  27.879  1.00  0.00     0.031 C 
ATOM     62  C   UNL A   1      45.375  31.021  28.631  1.00  0.00     0.037 A 
BRANCH  49  63
ATOM     63  C   UNL A   1      39.701  28.682  29.288  1.00  0.00     0.064 A 
ATOM     64  C   UNL A   1      38.781  29.231  28.383  1.00  0.00     0.173 A 
ATOM     65  C   UNL A   1      39.267  28.445  30.602  1.00  0.00     0.173 A 
ATOM     66  F   UNL A   1      39.146  29.482  27.116  1.00  0.00    -0.203 F 
ATOM     67  C   UNL A   1      37.487  29.553  28.782  1.00  0.00     0.198 A 
ATOM     68  C   UNL A   1      37.962  28.739  30.989  1.00  0.00     0.198 A 
ATOM     69  F   UNL A   1      40.103  27.910  31.504  1.00  0.00    -0.203 F 
ATOM     70  F   UNL A   1      36.638  30.114  27.909  1.00  0.00    -0.200 F 
ATOM     71  C   UNL A   1      37.077  29.304  30.083  1.00  0.00     0.200 A 
ATOM     72  F   UNL A   1      37.561  28.474  32.241  1.00  0.00    -0.200 F 
ATOM     73  F   UNL A   1      35.829  29.608  30.464  1.00  0.00    -0.200 F 
ENDBRANCH  49  63
BRANCH  50  74
ATOM     74  C   UNL A   1      49.095  26.758  26.458  1.00  0.00     0.064 A 
ATOM     75  C   UNL A   1      50.050  26.294  27.374  1.00  0.00     0.173 A 
ATOM     76  C   UNL A   1      49.511  26.969  25.136  1.00  0.00     0.173 A 
ATOM     77  F   UNL A   1      49.706  26.079  28.652  1.00  0.00    -0.203 F 
ATOM     78  C   UNL A   1      51.371  26.072  26.989  1.00  0.00     0.198 A 
ATOM     79  C   UNL A   1      50.825  26.719  24.745  1.00  0.00     0.198 A 
ATOM     80  F   UNL A   1      48.631  27.393  24.217  1.00  0.00    -0.203 F 
ATOM     81  F   UNL A   1      52.271  25.663  27.893  1.00  0.00    -0.200 F 
ATOM     82  C   UNL A   1      51.756  26.279  25.673  1.00  0.00     0.200 A 
ATOM     83  F   UNL A   1      51.186  26.895  23.467  1.00  0.00    -0.200 F 
ATOM     84  F   UNL A   1      53.023  26.051  25.299  1.00  0.00    -0.200 F 
ENDBRANCH  50  74
BRANCH  62  85
ATOM     85  C   UNL A   1      45.834  32.416  28.945  1.00  0.00     0.064 A 
ATOM     86  C   UNL A   1      46.304  32.736  30.228  1.00  0.00     0.173 A 
ATOM     87  C   UNL A   1      45.719  33.454  28.009  1.00  0.00     0.173 A 
ATOM     88  F   UNL A   1      46.423  31.781  31.163  1.00  0.00    -0.203 F 
ATOM     89  C   UNL A   1      46.622  34.047  30.569  1.00  0.00     0.198 A 
ATOM     90  C   UNL A   1      46.069  34.759  28.344  1.00  0.00     0.198 A 
ATOM     91  F   UNL A   1      45.286  33.197  26.765  1.00  0.00    -0.203 F 
ATOM     92  F   UNL A   1      47.025  34.336  31.814  1.00  0.00    -0.200 F 
ATOM     93  C   UNL A   1      46.507  35.057  29.626  1.00  0.00     0.200 A 
ATOM     94  F   UNL A   1      45.981  35.730  27.425  1.00  0.00    -0.200 F 
ATOM     95  F   UNL A   1      46.818  36.319  29.953  1.00  0.00    -0.200 F 
ENDBRANCH  62  85
ENDBRANCH  36  37
ENDBRANCH  28  31
ENDBRANCH  26  27
ENDBRANCH  25  26
ENDBRANCH   1  25
TORSDOF 16
ENDMDL
MODEL 2
REMARK VINA RESULT:     -11.8      5.827     11.010
REMARK SMILES CCC(CC)(CC(=O)Nc1ccc(F)c(F)c1)C(=O)NCCCCNC(=O)c1ccc(-c2c3nc(c(-c4c(F)c(F)c(F)c(F)c4F)c4ccc([nH]4)c(-c4c(F)c(F)c(F)c(F)c4F)c4nc(c(-c5c(F)c(F)c(F)c(F)c5F)c5ccc2[nH]5)C=C4)C=C3)cc1
REMARK SMILES IDX 22 1 21 2 20 3 18 4 19 5 3 7 2 8 1 9 4 10 5 11 6 12 7 13
REMARK SMILES IDX 8 14 9 15 10 17 11 18 17 19 12 20 15 21 13 22 16 23 14 24
REMARK SMILES IDX 23 25 24 26 25 27 26 28 27 30 28 31 29 32 90 33 30 34 89 35
REMARK SMILES IDX 31 36 32 37 33 38 83 39 34 40 88 41 82 42 84 43 35 44 87 45
REMARK SMILES IDX 81 46 80 47 36 49 68 50 48 51 67 52 49 53 52 54 66 55 85 56
REMARK SMILES IDX 50 57 51 58 65 60 86 61 53 62 37 63 38 64 46 65 39 66 40 67
REMARK SMILES IDX 44 68 47 69 41 70 42 71 45 72 43 73 69 74 70 75 78 76 71 77
REMARK SMILES IDX 72 78 76 79 79 80 73 81 74 82 77 83 75 84 54 85 55 86 63 87
REMARK SMILES IDX 56 88 57 89 61 90 64 91 58 92 59 93 62 94 60 95
REMARK H PARENT 20 6 9 16 25 29 84 48 52 59
REMARK Flexibility Score: inf
ROOT
ATOM      1  C   UNL A   1      31.862  30.471  26.576  1.00  0.00     0.023 C 
ENDROOT
BRANCH   1   2
ATOM      2  C   UNL A   1      31.536  29.937  25.186  1.00  0.00     0.116 C 
BRANCH   2   3
ATOM      3  N   UNL A   1      32.732  29.622  24.436  1.00  0.00    -0.356 N 
ATOM      4  C   UNL A   1      33.317  28.454  24.081  1.00  0.00     0.226 C 
ATOM      5  O   UNL A   1      34.413  28.570  23.521  1.00  0.00    -0.274 OA
ATOM      6  H   UNL A   1      33.219  30.417  24.120  1.00  0.00     0.163 HD
BRANCH   4   7
ATOM      7  C   UNL A   1      32.685  27.068  24.348  1.00  0.00     0.057 C 
BRANCH   7   8
ATOM      8  C   UNL A   1      33.466  26.033  23.486  1.00  0.00     0.014 C 
ATOM      9  C   UNL A   1      34.445  25.091  24.176  1.00  0.00     0.005 C 
ENDBRANCH   7   8
BRANCH   7  10
ATOM     10  C   UNL A   1      31.184  27.035  23.914  1.00  0.00     0.014 C 
ATOM     11  C   UNL A   1      30.928  26.599  22.475  1.00  0.00     0.005 C 
ENDBRANCH   7  10
BRANCH   7  12
ATOM     12  C   UNL A   1      32.869  26.659  25.842  1.00  0.00     0.117 C 
BRANCH  12  13
ATOM     13  C   UNL A   1      31.617  26.311  26.657  1.00  0.00     0.225 C 
ATOM     14  O   UNL A   1      31.008  27.191  27.269  1.00  0.00    -0.275 OA
ATOM     15  N   UNL A   1      31.077  25.045  26.612  1.00  0.00    -0.326 N 
ATOM     16  H   UNL A   1      30.161  24.955  26.957  1.00  0.00     0.169 HD
BRANCH  15  17
ATOM     17  C   UNL A   1      31.669  23.868  26.136  1.00  0.00     0.044 A 
ATOM     18  C   UNL A   1      32.553  23.157  26.951  1.00  0.00     0.029 A 
ATOM     19  C   UNL A   1      31.340  23.373  24.878  1.00  0.00     0.068 A 
ATOM     20  C   UNL A   1      33.275  22.077  26.440  1.00  0.00     0.044 A 
ATOM     21  C   UNL A   1      32.024  22.258  24.391  1.00  0.00     0.160 A 
ATOM     22  C   UNL A   1      33.018  21.645  25.147  1.00  0.00     0.158 A 
ATOM     23  F   UNL A   1      31.729  21.791  23.170  1.00  0.00    -0.204 F 
ATOM     24  F   UNL A   1      33.730  20.629  24.640  1.00  0.00    -0.204 F 
ENDBRANCH  15  17
ENDBRANCH  12  13
ENDBRANCH   7  12
ENDBRANCH   4   7
ENDBRANCH   2   3
ENDBRANCH   1   2
BRANCH   1  25
ATOM     25  C   UNL A   1      31.622  31.968  26.770  1.00  0.00     0.023 C 
BRANCH  25  26
ATOM     26  C   UNL A   1      32.808  32.755  27.311  1.00  0.00     0.116 C 
BRANCH  26  27
ATOM     27  N   UNL A   1      32.474  34.135  27.631  1.00  0.00    -0.352 N 
ATOM     28  C   UNL A   1      33.007  34.957  28.596  1.00  0.00     0.251 C 
ATOM     29  H   UNL A   1      31.765  34.536  27.080  1.00  0.00     0.163 HD
ATOM     30  O   UNL A   1      32.518  36.051  28.823  1.00  0.00    -0.269 OA
BRANCH  28  31
ATOM     31  C   UNL A   1      34.165  34.482  29.382  1.00  0.00     0.039 A 
ATOM     32  C   UNL A   1      33.935  33.875  30.618  1.00  0.00     0.014 A 
ATOM     33  C   UNL A   1      35.463  34.602  28.880  1.00  0.00     0.014 A 
ATOM     34  C   UNL A   1      35.006  33.321  31.320  1.00  0.00     0.010 A 
ATOM     35  C   UNL A   1      36.516  33.979  29.541  1.00  0.00     0.010 A 
ATOM     36  C   UNL A   1      36.297  33.332  30.767  1.00  0.00    -0.014 A 
BRANCH  36  37
ATOM     37  C   UNL A   1      37.433  32.670  31.456  1.00  0.00     0.031 A 
ATOM     38  C   UNL A   1      38.152  31.529  30.795  1.00  0.00     0.074 A 
ATOM     39  C   UNL A   1      37.780  33.064  32.698  1.00  0.00     0.049 A 
ATOM     40  N   UNL A   1      39.126  30.788  31.258  1.00  0.00    -0.248 NA
ATOM     41  C   UNL A   1      37.704  31.154  29.445  1.00  0.00     0.031 C 
ATOM     42  C   UNL A   1      37.128  34.133  33.456  1.00  0.00     0.029 A 
ATOM     43  N   UNL A   1      38.764  32.612  33.541  1.00  0.00    -0.354 N 
ATOM     44  C   UNL A   1      39.397  29.859  30.262  1.00  0.00     0.074 A 
ATOM     45  C   UNL A   1      38.450  30.088  29.196  1.00  0.00     0.031 C 
ATOM     46  C   UNL A   1      37.751  34.278  34.636  1.00  0.00     0.029 A 
ATOM     47  C   UNL A   1      38.816  33.285  34.739  1.00  0.00     0.049 A 
ATOM     48  H   UNL A   1      39.374  31.874  33.310  1.00  0.00     0.167 HD
ATOM     49  C   UNL A   1      40.372  28.920  30.232  1.00  0.00     0.037 A 
ATOM     50  C   UNL A   1      39.631  33.117  35.799  1.00  0.00     0.037 A 
ATOM     51  C   UNL A   1      41.331  28.717  31.285  1.00  0.00     0.049 A 
ATOM     52  C   UNL A   1      40.691  32.050  35.747  1.00  0.00     0.074 A 
ATOM     53  C   UNL A   1      42.388  27.826  31.325  1.00  0.00     0.029 A 
ATOM     54  N   UNL A   1      41.350  29.417  32.484  1.00  0.00    -0.354 N 
ATOM     55  N   UNL A   1      40.976  31.217  34.775  1.00  0.00    -0.248 NA
ATOM     56  C   UNL A   1      41.543  31.900  36.934  1.00  0.00     0.031 C 
ATOM     57  C   UNL A   1      43.015  27.948  32.567  1.00  0.00     0.029 A 
ATOM     58  C   UNL A   1      42.386  28.957  33.279  1.00  0.00     0.049 A 
ATOM     59  H   UNL A   1      40.720  30.132  32.731  1.00  0.00     0.167 HD
ATOM     60  C   UNL A   1      42.053  30.464  35.222  1.00  0.00     0.074 A 
ATOM     61  C   UNL A   1      42.382  30.949  36.546  1.00  0.00     0.031 C 
ATOM     62  C   UNL A   1      42.709  29.459  34.591  1.00  0.00     0.037 A 
BRANCH  49  63
ATOM     63  C   UNL A   1      40.472  28.049  29.014  1.00  0.00     0.064 A 
ATOM     64  C   UNL A   1      41.223  28.459  27.902  1.00  0.00     0.173 A 
ATOM     65  C   UNL A   1      39.754  26.847  28.913  1.00  0.00     0.173 A 
ATOM     66  F   UNL A   1      41.924  29.602  27.944  1.00  0.00    -0.203 F 
ATOM     67  C   UNL A   1      41.237  27.709  26.730  1.00  0.00     0.198 A 
ATOM     68  C   UNL A   1      39.796  26.084  27.749  1.00  0.00     0.198 A 
ATOM     69  F   UNL A   1      39.030  26.403  29.952  1.00  0.00    -0.203 F 
ATOM     70  F   UNL A   1      41.930  28.141  25.667  1.00  0.00    -0.200 F 
ATOM     71  C   UNL A   1      40.526  26.521  26.655  1.00  0.00     0.200 A 
ATOM     72  F   UNL A   1      39.127  24.923  27.688  1.00  0.00    -0.200 F 
ATOM     73  F   UNL A   1      40.544  25.797  25.527  1.00  0.00    -0.200 F 
ENDBRANCH  49  63
BRANCH  50  74
ATOM     74  C   UNL A   1      39.494  34.008  36.982  1.00  0.00     0.064 A 
ATOM     75  C   UNL A   1      40.128  35.258  37.038  1.00  0.00     0.173 A 
ATOM     76  C   UNL A   1      38.740  33.611  38.096  1.00  0.00     0.173 A 
ATOM     77  F   UNL A   1      40.865  35.684  36.002  1.00  0.00    -0.203 F 
ATOM     78  C   UNL A   1      40.031  36.066  38.169  1.00  0.00     0.198 A 
ATOM     79  C   UNL A   1      38.619  34.432  39.215  1.00  0.00     0.198 A 
ATOM     80  F   UNL A   1      38.098  32.434  38.083  1.00  0.00    -0.203 F 
ATOM     81  F   UNL A   1      40.677  37.239  38.211  1.00  0.00    -0.200 F 
ATOM     82  C   UNL A   1      39.272  35.655  39.255  1.00  0.00     0.200 A 
ATOM     83  F   UNL A   1      37.862  34.044  40.249  1.00  0.00    -0.200 F 
ATOM     84  F   UNL A   1      39.165  36.439  40.337  1.00  0.00    -0.200 F 
ENDBRANCH  50  74
BRANCH  62  85
ATOM     85  C   UNL A   1      43.867  28.822  35.303  1.00  0.00     0.064 A 
ATOM     86  C   UNL A   1      45.179  29.242  35.039  1.00  0.00     0.173 A 
ATOM     87  C   UNL A   1      43.685  27.735  36.170  1.00  0.00     0.173 A 
ATOM     88  F   UNL A   1      45.407  30.271  34.209  1.00  0.00    -0.203 F 
ATOM     89  C   UNL A   1      46.269  28.583  35.601  1.00  0.00     0.198 A 
ATOM     90  C   UNL A   1      44.777  27.099  36.756  1.00  0.00     0.198 A 
ATOM     91  F   UNL A   1      42.449  27.303  36.464  1.00  0.00    -0.203 F 
ATOM     92  F   UNL A   1      47.515  28.973  35.299  1.00  0.00    -0.200 F 
ATOM     93  C   UNL A   1      46.066  27.515  36.461  1.00  0.00     0.200 A 
ATOM     94  F   UNL A   1      44.580  26.082  37.606  1.00  0.00    -0.200 F 
ATOM     95  F   UNL A   1      47.116  26.884  37.006  1.00  0.00    -0.200 F 
ENDBRANCH  62  85
ENDBRANCH  36  37
ENDBRANCH  28  31
ENDBRANCH  26  27
ENDBRANCH  25  26
ENDBRANCH   1  25
TORSDOF 16
ENDMDL
MODEL 3
REMARK VINA RESULT:     -11.8      5.580      9.813
REMARK SMILES CCC(CC)(CC(=O)Nc1ccc(F)c(F)c1)C(=O)NCCCCNC(=O)c1ccc(-c2c3nc(c(-c4c(F)c(F)c(F)c(F)c4F)c4ccc([nH]4)c(-c4c(F)c(F)c(F)c(F)c4F)c4nc(c(-c5c(F)c(F)c(F)c(F)c5F)c5ccc2[nH]5)C=C4)C=C3)cc1
REMARK SMILES IDX 22 1 21 2 20 3 18 4 19 5 3 7 2 8 1 9 4 10 5 11 6 12 7 13
REMARK SMILES IDX 8 14 9 15 10 17 11 18 17 19 12 20 15 21 13 22 16 23 14 24
REMARK SMILES IDX 23 25 24 26 25 27 26 28 27 30 28 31 29 32 90 33 30 34 89 35
REMARK SMILES IDX 31 36 32 37 33 38 83 39 34 40 88 41 82 42 84 43 35 44 87 45
REMARK SMILES IDX 81 46 80 47 36 49 68 50 48 51 67 52 49 53 52 54 66 55 85 56
REMARK SMILES IDX 50 57 51 58 65 60 86 61 53 62 37 63 38 64 46 65 39 66 40 67
REMARK SMILES IDX 44 68 47 69 41 70 42 71 45 72 43 73 69 74 70 75 78 76 71 77
REMARK SMILES IDX 72 78 76 79 79 80 73 81 74 82 77 83 75 84 54 85 55 86 63 87
REMARK SMILES IDX 56 88 57 89 61 90 64 91 58 92 59 93 62 94 60 95
REMARK H PARENT 20 6 9 16 25 29 84 48 52 59
REMARK Flexibility Score: inf
ROOT
ATOM      1  C   UNL A   1      31.639  30.621  26.501  1.00  0.00     0.023 C 
ENDROOT
BRANCH   1   2
ATOM      2  C   UNL A   1      31.367  30.158  25.074  1.00  0.00     0.116 C 
BRANCH   2   3
ATOM      3  N   UNL A   1      32.518  29.506  24.491  1.00  0.00    -0.356 N 
ATOM      4  C   UNL A   1      32.715  28.270  23.973  1.00  0.00     0.226 C 
ATOM      5  O   UNL A   1      33.883  28.017  23.657  1.00  0.00    -0.274 OA
ATOM      6  H   UNL A   1      33.322  30.073  24.466  1.00  0.00     0.163 HD
BRANCH   4   7
ATOM      7  C   UNL A   1      31.581  27.236  23.783  1.00  0.00     0.057 C 
BRANCH   7   8
ATOM      8  C   UNL A   1      30.495  27.902  22.888  1.00  0.00     0.014 C 
ATOM      9  C   UNL A   1      29.036  27.820  23.317  1.00  0.00     0.005 C 
ENDBRANCH   7   8
BRANCH   7  10
ATOM     10  C   UNL A   1      30.925  26.853  25.148  1.00  0.00     0.014 C 
ATOM     11  C   UNL A   1      31.894  26.678  26.313  1.00  0.00     0.005 C 
ENDBRANCH   7  10
BRANCH   7  12
ATOM     12  C   UNL A   1      32.105  25.981  23.017  1.00  0.00     0.117 C 
BRANCH  12  13
ATOM     13  C   UNL A   1      31.478  24.620  23.341  1.00  0.00     0.225 C 
ATOM     14  O   UNL A   1      30.266  24.442  23.194  1.00  0.00    -0.275 OA
ATOM     15  N   UNL A   1      32.268  23.542  23.671  1.00  0.00    -0.326 N 
ATOM     16  H   UNL A   1      31.832  22.661  23.632  1.00  0.00     0.169 HD
BRANCH  15  17
ATOM     17  C   UNL A   1      33.614  23.541  24.055  1.00  0.00     0.044 A 
ATOM     18  C   UNL A   1      33.967  23.927  25.350  1.00  0.00     0.029 A 
ATOM     19  C   UNL A   1      34.599  23.104  23.172  1.00  0.00     0.068 A 
ATOM     20  C   UNL A   1      35.309  24.089  25.701  1.00  0.00     0.044 A 
ATOM     21  C   UNL A   1      35.938  23.215  23.547  1.00  0.00     0.160 A 
ATOM     22  C   UNL A   1      36.291  23.748  24.782  1.00  0.00     0.158 A 
ATOM     23  F   UNL A   1      36.891  22.819  22.693  1.00  0.00    -0.204 F 
ATOM     24  F   UNL A   1      37.580  23.930  25.102  1.00  0.00    -0.204 F 
ENDBRANCH  15  17
ENDBRANCH  12  13
ENDBRANCH   7  12
ENDBRANCH   4   7
ENDBRANCH   2   3
ENDBRANCH   1   2
BRANCH   1  25
ATOM     25  C   UNL A   1      31.465  32.120  26.743  1.00  0.00     0.023 C 
BRANCH  25  26
ATOM     26  C   UNL A   1      32.701  32.847  27.254  1.00  0.00     0.116 C 
BRANCH  26  27
ATOM     27  N   UNL A   1      32.423  34.213  27.672  1.00  0.00    -0.352 N 
ATOM     28  C   UNL A   1      33.016  34.955  28.667  1.00  0.00     0.251 C 
ATOM     29  H   UNL A   1      31.710  34.670  27.173  1.00  0.00     0.163 HD
ATOM     30  O   UNL A   1      32.570  36.047  28.980  1.00  0.00    -0.269 OA
BRANCH  28  31
ATOM     31  C   UNL A   1      34.183  34.396  29.380  1.00  0.00     0.039 A 
ATOM     32  C   UNL A   1      33.968  33.625  30.523  1.00  0.00     0.014 A 
ATOM     33  C   UNL A   1      35.478  34.601  28.895  1.00  0.00     0.014 A 
ATOM     34  C   UNL A   1      35.049  32.998  31.142  1.00  0.00     0.010 A 
ATOM     35  C   UNL A   1      36.542  33.911  29.464  1.00  0.00     0.010 A 
ATOM     36  C   UNL A   1      36.338  33.102  30.593  1.00  0.00    -0.014 A 
BRANCH  36  37
ATOM     37  C   UNL A   1      37.485  32.370  31.184  1.00  0.00     0.031 A 
ATOM     38  C   UNL A   1      37.993  32.742  32.548  1.00  0.00     0.074 A 
ATOM     39  C   UNL A   1      38.101  31.407  30.469  1.00  0.00     0.049 A 
ATOM     40  N   UNL A   1      39.016  32.262  33.209  1.00  0.00    -0.248 NA
ATOM     41  C   UNL A   1      37.272  33.811  33.257  1.00  0.00     0.031 C 
ATOM     42  C   UNL A   1      37.723  30.988  29.119  1.00  0.00     0.029 A 
ATOM     43  N   UNL A   1      39.174  30.609  30.777  1.00  0.00    -0.354 N 
ATOM     44  C   UNL A   1      39.063  32.974  34.399  1.00  0.00     0.074 A 
ATOM     45  C   UNL A   1      38.007  33.959  34.349  1.00  0.00     0.031 C 
ATOM     46  C   UNL A   1      38.528  29.986  28.728  1.00  0.00     0.029 A 
ATOM     47  C   UNL A   1      39.506  29.723  29.779  1.00  0.00     0.049 A 
ATOM     48  H   UNL A   1      39.661  30.665  31.631  1.00  0.00     0.167 HD
ATOM     49  C   UNL A   1      39.896  32.798  35.451  1.00  0.00     0.037 A 
ATOM     50  C   UNL A   1      40.489  28.803  29.720  1.00  0.00     0.037 A 
ATOM     51  C   UNL A   1      40.926  31.796  35.507  1.00  0.00     0.049 A 
ATOM     52  C   UNL A   1      41.415  28.645  30.896  1.00  0.00     0.074 A 
ATOM     53  C   UNL A   1      41.788  31.505  36.549  1.00  0.00     0.029 A 
ATOM     54  N   UNL A   1      41.234  30.919  34.475  1.00  0.00    -0.354 N 
ATOM     55  N   UNL A   1      41.413  29.285  32.040  1.00  0.00    -0.248 NA
ATOM     56  C   UNL A   1      42.478  27.637  30.775  1.00  0.00     0.031 C 
ATOM     57  C   UNL A   1      42.651  30.490  36.131  1.00  0.00     0.029 A 
ATOM     58  C   UNL A   1      42.289  30.106  34.850  1.00  0.00     0.049 A 
ATOM     59  H   UNL A   1      40.770  30.883  33.608  1.00  0.00     0.167 HD
ATOM     60  C   UNL A   1      42.453  28.741  32.784  1.00  0.00     0.074 A 
ATOM     61  C   UNL A   1      43.055  27.708  31.967  1.00  0.00     0.031 C 
ATOM     62  C   UNL A   1      42.870  29.072  34.030  1.00  0.00     0.037 A 
BRANCH  49  63
ATOM     63  C   UNL A   1      39.721  33.692  36.645  1.00  0.00     0.064 A 
ATOM     64  C   UNL A   1      38.885  33.312  37.704  1.00  0.00     0.173 A 
ATOM     65  C   UNL A   1      40.314  34.963  36.700  1.00  0.00     0.173 A 
ATOM     66  F   UNL A   1      38.290  32.109  37.699  1.00  0.00    -0.203 F 
ATOM     67  C   UNL A   1      38.633  34.177  38.765  1.00  0.00     0.198 A 
ATOM     68  C   UNL A   1      40.084  35.813  37.779  1.00  0.00     0.198 A 
ATOM     69  F   UNL A   1      41.132  35.370  35.718  1.00  0.00    -0.203 F 
ATOM     70  F   UNL A   1      37.799  33.807  39.747  1.00  0.00    -0.200 F 
ATOM     71  C   UNL A   1      39.235  35.425  38.803  1.00  0.00     0.200 A 
ATOM     72  F   UNL A   1      40.687  37.010  37.825  1.00  0.00    -0.200 F 
ATOM     73  F   UNL A   1      38.996  36.255  39.827  1.00  0.00    -0.200 F 
ENDBRANCH  49  63
BRANCH  50  74
ATOM     74  C   UNL A   1      40.620  27.939  28.517  1.00  0.00     0.064 A 
ATOM     75  C   UNL A   1      41.359  28.347  27.396  1.00  0.00     0.173 A 
ATOM     76  C   UNL A   1      39.985  26.691  28.458  1.00  0.00     0.173 A 
ATOM     77  F   UNL A   1      41.984  29.533  27.399  1.00  0.00    -0.203 F 
ATOM     78  C   UNL A   1      41.439  27.549  26.256  1.00  0.00     0.198 A 
ATOM     79  C   UNL A   1      40.090  25.881  27.329  1.00  0.00     0.198 A 
ATOM     80  F   UNL A   1      39.283  26.247  29.511  1.00  0.00    -0.203 F 
ATOM     81  F   UNL A   1      42.121  27.979  25.186  1.00  0.00    -0.200 F 
ATOM     82  C   UNL A   1      40.809  26.314  26.225  1.00  0.00     0.200 A 
ATOM     83  F   UNL A   1      39.502  24.677  27.314  1.00  0.00    -0.200 F 
ATOM     84  F   UNL A   1      40.899  25.540  25.135  1.00  0.00    -0.200 F 
ENDBRANCH  50  74
BRANCH  62  85
ATOM     85  C   UNL A   1      44.020  28.301  34.611  1.00  0.00     0.064 A 
ATOM     86  C   UNL A   1      43.788  27.132  35.352  1.00  0.00     0.173 A 
ATOM     87  C   UNL A   1      45.338  28.769  34.517  1.00  0.00     0.173 A 
ATOM     88  F   UNL A   1      42.543  26.649  35.481  1.00  0.00    -0.203 F 
ATOM     89  C   UNL A   1      44.830  26.472  35.996  1.00  0.00     0.198 A 
ATOM     90  C   UNL A   1      46.383  28.088  35.135  1.00  0.00     0.198 A 
ATOM     91  F   UNL A   1      45.614  29.875  33.810  1.00  0.00    -0.203 F 
ATOM     92  F   UNL A   1      44.578  25.384  36.736  1.00  0.00    -0.200 F 
ATOM     93  C   UNL A   1      46.127  26.949  35.884  1.00  0.00     0.200 A 
ATOM     94  F   UNL A   1      47.640  28.535  35.007  1.00  0.00    -0.200 F 
ATOM     95  F   UNL A   1      47.132  26.310  36.500  1.00  0.00    -0.200 F 
ENDBRANCH  62  85
ENDBRANCH  36  37
ENDBRANCH  28  31
ENDBRANCH  26  27
ENDBRANCH  25  26
ENDBRANCH   1  25
TORSDOF 16
ENDMDL
