MODEL 1
REMARK VINA RESULT:     -14.1      0.000      0.000
REMARK SMILES CC1(C)[C@H](O)CC[C@]2(C)[C@@H]1CC[C@@]1(C)Oc3oc(C(=O)NCCCCNC(=O)c4ccc(-c5c6nc(c(-c7c(F)c(F)c(F)c(F)c7F)c7ccc([nH]7)c(-c7c(F)c(F)c(F)c(F)c7F)c7nc(c(-c8c(F)c(F)c(F)c(F)c8F)c8ccc5[nH]8)C=C7)C=C6)cc4)cc(=O)c3C[C@H]21
REMARK SMILES IDX 24 1 23 2 22 3 21 4 19 5 20 6 18 8 1 9 2 10 3 11 4 12 10 13
REMARK SMILES IDX 6 14 8 15 11 16 7 17 9 18 97 19 12 20 13 21 96 22 14 23
REMARK SMILES IDX 15 24 95 25 16 26 93 27 17 28 92 29 94 30 5 31 25 33 26 34
REMARK SMILES IDX 27 35 28 37 29 38 30 39 91 40 31 41 90 42 32 43 33 44 34 45
REMARK SMILES IDX 84 46 35 47 89 48 83 49 85 50 36 51 88 52 82 53 81 54 37 56
REMARK SMILES IDX 69 57 49 58 68 59 50 60 53 61 67 62 86 63 51 64 52 65 66 67
REMARK SMILES IDX 87 68 54 69 38 70 39 71 47 72 40 73 41 74 45 75 48 76 42 77
REMARK SMILES IDX 43 78 46 79 44 80 70 81 71 82 79 83 72 84 73 85 77 86 80 87
REMARK SMILES IDX 74 88 75 89 78 90 76 91 55 92 56 93 64 94 57 95 58 96 62 97
REMARK SMILES IDX 65 98 59 99 60 100 63 101 61 102
REMARK H PARENT 21 7 5 32 26 36 85 55 53 66
REMARK Flexibility Score: inf
ROOT
ATOM      1  C   UNL A   1      38.166  19.966  24.664  1.00  0.00     0.023 C 
ENDROOT
BRANCH   1   2
ATOM      2  C   UNL A   1      36.831  19.304  24.977  1.00  0.00     0.023 C 
BRANCH   2   3
ATOM      3  C   UNL A   1      35.610  20.246  25.007  1.00  0.00     0.116 C 
BRANCH   3   4
ATOM      4  N   UNL A   1      34.321  19.529  24.983  1.00  0.00    -0.349 N 
ATOM      5  C   UNL A   1      32.995  19.895  24.813  1.00  0.00     0.287 C 
ATOM      6  O   UNL A   1      32.169  18.989  24.707  1.00  0.00    -0.266 OA
ATOM      7  H   UNL A   1      34.427  18.560  25.121  1.00  0.00     0.163 HD
BRANCH   5   8
ATOM      8  C   UNL A   1      32.561  21.329  24.664  1.00  0.00     0.199 A 
ATOM      9  C   UNL A   1      31.085  30.821  25.963  1.00  0.00     0.014 C 
ATOM     10  C   UNL A   1      32.425  30.025  26.071  1.00  0.00    -0.006 C 
ATOM     11  C   UNL A   1      33.516  31.097  26.301  1.00  0.00     0.014 C 
ATOM     12  C   UNL A   1      32.231  29.228  27.554  1.00  0.00     0.120 C 
ATOM     13  C   UNL A   1      32.585  28.921  24.700  1.00  0.00     0.004 C 
ATOM     14  C   UNL A   1      31.368  27.971  27.485  1.00  0.00     0.033 C 
ATOM     15  C   UNL A   1      32.834  27.618  25.424  1.00  0.00    -0.022 C 
ATOM     16  C   UNL A   1      33.369  28.837  23.352  1.00  0.00     0.009 C 
ATOM     17  C   UNL A   1      31.394  27.512  26.074  1.00  0.00     0.010 C 
ATOM     18  C   UNL A   1      34.290  27.866  26.011  1.00  0.00     0.012 C 
ATOM     19  C   UNL A   1      33.152  26.261  24.837  1.00  0.00     0.044 C 
ATOM     20  C   UNL A   1      33.591  27.311  22.708  1.00  0.00     0.049 C 
ATOM     21  C   UNL A   1      32.861  26.035  23.384  1.00  0.00     0.113 C 
ATOM     22  C   UNL A   1      32.819  25.217  25.874  1.00  0.00     0.055 C 
ATOM     23  C   UNL A   1      31.410  25.995  22.912  1.00  0.00     0.057 C 
ATOM     24  O   UNL A   1      33.453  24.665  23.091  1.00  0.00    -0.458 OA
ATOM     25  C   UNL A   1      32.603  23.948  25.233  1.00  0.00     0.081 A 
ATOM     26  C   UNL A   1      33.051  23.628  24.018  1.00  0.00     0.292 A 
ATOM     27  C   UNL A   1      31.769  23.039  26.005  1.00  0.00     0.192 A 
ATOM     28  O   UNL A   1      33.200  22.234  23.755  1.00  0.00    -0.420 OA
ATOM     29  C   UNL A   1      31.557  21.733  25.437  1.00  0.00     0.105 A 
ATOM     30  O   UNL A   1      31.270  23.315  27.089  1.00  0.00    -0.289 OA
BRANCH  12  31
ATOM     31  O   UNL A   1      33.461  28.915  28.220  1.00  0.00    -0.393 OA
ATOM     32  H   UNL A   1      33.300  28.240  28.897  1.00  0.00     0.210 HD
ENDBRANCH  12  31
ENDBRANCH   5   8
ENDBRANCH   3   4
ENDBRANCH   2   3
ENDBRANCH   1   2
BRANCH   1  33
ATOM     33  C   UNL A   1      39.110  20.090  25.847  1.00  0.00     0.116 C 
BRANCH  33  34
ATOM     34  N   UNL A   1      40.162  19.083  25.861  1.00  0.00    -0.352 N 
ATOM     35  C   UNL A   1      41.498  19.272  26.111  1.00  0.00     0.251 C 
ATOM     36  H   UNL A   1      39.882  18.159  25.668  1.00  0.00     0.163 HD
ATOM     37  O   UNL A   1      42.306  18.348  26.009  1.00  0.00    -0.269 OA
BRANCH  35  38
ATOM     38  C   UNL A   1      41.962  20.621  26.482  1.00  0.00     0.039 A 
ATOM     39  C   UNL A   1      42.172  20.925  27.829  1.00  0.00     0.014 A 
ATOM     40  C   UNL A   1      42.243  21.557  25.482  1.00  0.00     0.014 A 
ATOM     41  C   UNL A   1      42.709  22.165  28.175  1.00  0.00     0.010 A 
ATOM     42  C   UNL A   1      42.837  22.763  25.823  1.00  0.00     0.010 A 
ATOM     43  C   UNL A   1      43.055  23.084  27.172  1.00  0.00    -0.014 A 
BRANCH  43  44
ATOM     44  C   UNL A   1      43.540  24.442  27.504  1.00  0.00     0.031 A 
ATOM     45  C   UNL A   1      42.542  25.469  27.953  1.00  0.00     0.074 A 
ATOM     46  C   UNL A   1      44.837  24.765  27.352  1.00  0.00     0.049 A 
ATOM     47  N   UNL A   1      42.708  26.746  28.178  1.00  0.00    -0.248 NA
ATOM     48  C   UNL A   1      41.162  24.995  28.153  1.00  0.00     0.031 C 
ATOM     49  C   UNL A   1      45.894  23.850  26.922  1.00  0.00     0.029 A 
ATOM     50  N   UNL A   1      45.480  25.963  27.530  1.00  0.00    -0.354 N 
ATOM     51  C   UNL A   1      41.457  27.225  28.540  1.00  0.00     0.074 A 
ATOM     52  C   UNL A   1      40.529  26.119  28.446  1.00  0.00     0.031 C 
ATOM     53  C   UNL A   1      47.058  24.520  26.876  1.00  0.00     0.029 A 
ATOM     54  C   UNL A   1      46.820  25.917  27.235  1.00  0.00     0.049 A 
ATOM     55  H   UNL A   1      45.025  26.779  27.838  1.00  0.00     0.167 HD
ATOM     56  C   UNL A   1      41.117  28.472  28.939  1.00  0.00     0.037 A 
ATOM     57  C   UNL A   1      47.744  26.898  27.243  1.00  0.00     0.037 A 
ATOM     58  C   UNL A   1      42.047  29.564  29.040  1.00  0.00     0.049 A 
ATOM     59  C   UNL A   1      47.327  28.292  27.638  1.00  0.00     0.074 A 
ATOM     60  C   UNL A   1      41.810  30.862  29.456  1.00  0.00     0.029 A 
ATOM     61  N   UNL A   1      43.395  29.485  28.720  1.00  0.00    -0.354 N 
ATOM     62  N   UNL A   1      46.149  28.733  28.006  1.00  0.00    -0.248 NA
ATOM     63  C   UNL A   1      48.374  29.323  27.621  1.00  0.00     0.031 C 
ATOM     64  C   UNL A   1      43.002  31.582  29.338  1.00  0.00     0.029 A 
ATOM     65  C   UNL A   1      43.998  30.718  28.907  1.00  0.00     0.049 A 
ATOM     66  H   UNL A   1      43.855  28.673  28.407  1.00  0.00     0.167 HD
ATOM     67  C   UNL A   1      46.316  30.083  28.288  1.00  0.00     0.074 A 
ATOM     68  C   UNL A   1      47.717  30.381  28.072  1.00  0.00     0.031 C 
ATOM     69  C   UNL A   1      45.394  30.997  28.683  1.00  0.00     0.037 A 
BRANCH  56  70
ATOM     70  C   UNL A   1      39.683  28.718  29.301  1.00  0.00     0.064 A 
ATOM     71  C   UNL A   1      39.201  28.479  30.597  1.00  0.00     0.173 A 
ATOM     72  C   UNL A   1      38.789  29.243  28.357  1.00  0.00     0.173 A 
ATOM     73  F   UNL A   1      40.010  27.958  31.533  1.00  0.00    -0.203 F 
ATOM     74  C   UNL A   1      37.875  28.740  30.929  1.00  0.00     0.198 A 
ATOM     75  C   UNL A   1      37.471  29.533  28.701  1.00  0.00     0.198 A 
ATOM     76  F   UNL A   1      39.197  29.487  27.101  1.00  0.00    -0.203 F 
ATOM     77  F   UNL A   1      37.427  28.461  32.162  1.00  0.00    -0.200 F 
ATOM     78  C   UNL A   1      37.014  29.277  29.984  1.00  0.00     0.200 A 
ATOM     79  F   UNL A   1      36.644  30.064  27.790  1.00  0.00    -0.200 F 
ATOM     80  F   UNL A   1      35.743  29.544  30.310  1.00  0.00    -0.200 F 
ENDBRANCH  56  70
BRANCH  57  81
ATOM     81  C   UNL A   1      49.155  26.595  26.887  1.00  0.00     0.064 A 
ATOM     82  C   UNL A   1      49.584  26.640  25.553  1.00  0.00     0.173 A 
ATOM     83  C   UNL A   1      50.102  26.253  27.864  1.00  0.00     0.173 A 
ATOM     84  F   UNL A   1      48.710  26.938  24.580  1.00  0.00    -0.203 F 
ATOM     85  C   UNL A   1      50.900  26.340  25.209  1.00  0.00     0.198 A 
ATOM     86  C   UNL A   1      51.426  25.982  27.521  1.00  0.00     0.198 A 
ATOM     87  F   UNL A   1      49.744  26.194  29.155  1.00  0.00    -0.203 F 
ATOM     88  F   UNL A   1      51.271  26.349  23.920  1.00  0.00    -0.200 F 
ATOM     89  C   UNL A   1      51.822  26.019  26.193  1.00  0.00     0.200 A 
ATOM     90  F   UNL A   1      52.316  25.686  28.477  1.00  0.00    -0.200 F 
ATOM     91  F   UNL A   1      53.090  25.740  25.862  1.00  0.00    -0.200 F 
ENDBRANCH  57  81
BRANCH  69  92
ATOM     92  C   UNL A   1      45.874  32.401  28.924  1.00  0.00     0.064 A 
ATOM     93  C   UNL A   1      46.370  32.805  30.172  1.00  0.00     0.173 A 
ATOM     94  C   UNL A   1      45.875  33.343  27.883  1.00  0.00     0.173 A 
ATOM     95  F   UNL A   1      46.382  31.947  31.204  1.00  0.00    -0.203 F 
ATOM     96  C   UNL A   1      46.814  34.108  30.380  1.00  0.00     0.198 A 
ATOM     97  C   UNL A   1      46.356  34.635  28.084  1.00  0.00     0.198 A 
ATOM     98  F   UNL A   1      45.425  33.007  26.664  1.00  0.00    -0.203 F 
ATOM     99  F   UNL A   1      47.226  34.487  31.598  1.00  0.00    -0.200 F 
ATOM    100  C   UNL A   1      46.814  35.019  29.334  1.00  0.00     0.200 A 
ATOM    101  F   UNL A   1      46.375  35.507  27.066  1.00  0.00    -0.200 F 
ATOM    102  F   UNL A   1      47.248  36.271  29.534  1.00  0.00    -0.200 F 
ENDBRANCH  69  92
ENDBRANCH  43  44
ENDBRANCH  35  38
ENDBRANCH  33  34
ENDBRANCH   1  33
TORSDOF 12
ENDMDL
MODEL 2
REMARK VINA RESULT:     -13.9      5.322     10.895
REMARK SMILES CC1(C)[C@H](O)CC[C@]2(C)[C@@H]1CC[C@@]1(C)Oc3oc(C(=O)NCCCCNC(=O)c4ccc(-c5c6nc(c(-c7c(F)c(F)c(F)c(F)c7F)c7ccc([nH]7)c(-c7c(F)c(F)c(F)c(F)c7F)c7nc(c(-c8c(F)c(F)c(F)c(F)c8F)c8ccc5[nH]8)C=C7)C=C6)cc4)cc(=O)c3C[C@H]21
REMARK SMILES IDX 24 1 23 2 22 3 21 4 19 5 20 6 18 8 1 9 2 10 3 11 4 12 10 13
REMARK SMILES IDX 6 14 8 15 11 16 7 17 9 18 97 19 12 20 13 21 96 22 14 23
REMARK SMILES IDX 15 24 95 25 16 26 93 27 17 28 92 29 94 30 5 31 25 33 26 34
REMARK SMILES IDX 27 35 28 37 29 38 30 39 91 40 31 41 90 42 32 43 33 44 34 45
REMARK SMILES IDX 84 46 35 47 89 48 83 49 85 50 36 51 88 52 82 53 81 54 37 56
REMARK SMILES IDX 69 57 49 58 68 59 50 60 53 61 67 62 86 63 51 64 52 65 66 67
REMARK SMILES IDX 87 68 54 69 38 70 39 71 47 72 40 73 41 74 45 75 48 76 42 77
REMARK SMILES IDX 43 78 46 79 44 80 70 81 71 82 79 83 72 84 73 85 77 86 80 87
REMARK SMILES IDX 74 88 75 89 78 90 76 91 55 92 56 93 64 94 57 95 58 96 62 97
REMARK SMILES IDX 65 98 59 99 60 100 63 101 61 102
REMARK H PARENT 21 7 5 32 26 36 85 55 53 66
REMARK Flexibility Score: inf
ROOT
ATOM      1  C   UNL A   1      31.426  31.955  27.085  1.00  0.00     0.023 C 
ENDROOT
BRANCH   1   2
ATOM      2  C   UNL A   1      30.926  31.790  25.655  1.00  0.00     0.023 C 
BRANCH   2   3
ATOM      3  C   UNL A   1      31.051  30.371  25.065  1.00  0.00     0.116 C 
BRANCH   3   4
ATOM      4  N   UNL A   1      30.217  30.165  23.866  1.00  0.00    -0.349 N 
ATOM      5  C   UNL A   1      29.870  29.073  23.086  1.00  0.00     0.287 C 
ATOM      6  O   UNL A   1      29.015  29.249  22.218  1.00  0.00    -0.266 OA
ATOM      7  H   UNL A   1      29.811  31.001  23.541  1.00  0.00     0.163 HD
BRANCH   5   8
ATOM      8  C   UNL A   1      30.424  27.694  23.326  1.00  0.00     0.199 A 
ATOM      9  C   UNL A   1      36.281  20.074  24.590  1.00  0.00     0.014 C 
ATOM     10  C   UNL A   1      36.373  21.487  25.251  1.00  0.00    -0.006 C 
ATOM     11  C   UNL A   1      37.531  21.383  26.270  1.00  0.00     0.014 C 
ATOM     12  C   UNL A   1      36.959  22.428  23.968  1.00  0.00     0.120 C 
ATOM     13  C   UNL A   1      34.777  21.994  25.817  1.00  0.00     0.004 C 
ATOM     14  C   UNL A   1      35.894  22.852  22.961  1.00  0.00     0.033 C 
ATOM     15  C   UNL A   1      34.662  23.342  25.144  1.00  0.00    -0.022 C 
ATOM     16  C   UNL A   1      33.994  22.102  27.164  1.00  0.00     0.009 C 
ATOM     17  C   UNL A   1      34.589  22.782  23.664  1.00  0.00     0.010 C 
ATOM     18  C   UNL A   1      35.746  24.181  25.949  1.00  0.00     0.012 C 
ATOM     19  C   UNL A   1      33.563  24.372  25.279  1.00  0.00     0.044 C 
ATOM     20  C   UNL A   1      32.723  23.186  27.207  1.00  0.00     0.049 C 
ATOM     21  C   UNL A   1      32.250  23.929  25.850  1.00  0.00     0.113 C 
ATOM     22  C   UNL A   1      33.627  25.281  24.077  1.00  0.00     0.055 C 
ATOM     23  C   UNL A   1      31.372  22.972  25.049  1.00  0.00     0.057 C 
ATOM     24  O   UNL A   1      31.457  25.218  26.009  1.00  0.00    -0.458 OA
ATOM     25  C   UNL A   1      32.353  25.917  23.880  1.00  0.00     0.081 A 
ATOM     26  C   UNL A   1      31.419  26.048  24.824  1.00  0.00     0.292 A 
ATOM     27  C   UNL A   1      32.123  26.353  22.511  1.00  0.00     0.192 A 
ATOM     28  O   UNL A   1      30.481  27.106  24.632  1.00  0.00    -0.420 OA
ATOM     29  C   UNL A   1      30.883  27.040  22.262  1.00  0.00     0.105 A 
ATOM     30  O   UNL A   1      32.916  26.184  21.593  1.00  0.00    -0.289 OA
BRANCH  12  31
ATOM     31  O   UNL A   1      37.704  23.582  24.377  1.00  0.00    -0.393 OA
ATOM     32  H   UNL A   1      38.161  23.394  25.210  1.00  0.00     0.210 HD
ENDBRANCH  12  31
ENDBRANCH   5   8
ENDBRANCH   3   4
ENDBRANCH   2   3
ENDBRANCH   1   2
BRANCH   1  33
ATOM     33  C   UNL A   1      32.662  32.825  27.233  1.00  0.00     0.116 C 
BRANCH  33  34
ATOM     34  N   UNL A   1      32.364  34.203  27.598  1.00  0.00    -0.352 N 
ATOM     35  C   UNL A   1      32.980  34.966  28.558  1.00  0.00     0.251 C 
ATOM     36  H   UNL A   1      31.636  34.638  27.097  1.00  0.00     0.163 HD
ATOM     37  O   UNL A   1      32.578  36.097  28.832  1.00  0.00    -0.269 OA
BRANCH  35  38
ATOM     38  C   UNL A   1      34.127  34.394  29.285  1.00  0.00     0.039 A 
ATOM     39  C   UNL A   1      33.895  33.587  30.401  1.00  0.00     0.014 A 
ATOM     40  C   UNL A   1      35.425  34.615  28.816  1.00  0.00     0.014 A 
ATOM     41  C   UNL A   1      34.971  32.960  31.029  1.00  0.00     0.010 A 
ATOM     42  C   UNL A   1      36.487  33.940  29.401  1.00  0.00     0.010 A 
ATOM     43  C   UNL A   1      36.270  33.125  30.523  1.00  0.00    -0.014 A 
BRANCH  43  44
ATOM     44  C   UNL A   1      37.446  32.553  31.215  1.00  0.00     0.031 A 
ATOM     45  C   UNL A   1      38.186  31.425  30.555  1.00  0.00     0.074 A 
ATOM     46  C   UNL A   1      37.810  32.993  32.433  1.00  0.00     0.049 A 
ATOM     47  N   UNL A   1      39.161  30.688  31.018  1.00  0.00    -0.248 NA
ATOM     48  C   UNL A   1      37.751  31.067  29.195  1.00  0.00     0.031 C 
ATOM     49  C   UNL A   1      37.165  34.079  33.169  1.00  0.00     0.029 A 
ATOM     50  N   UNL A   1      38.807  32.563  33.271  1.00  0.00    -0.354 N 
ATOM     51  C   UNL A   1      39.450  29.778  30.011  1.00  0.00     0.074 A 
ATOM     52  C   UNL A   1      38.510  30.014  28.937  1.00  0.00     0.031 C 
ATOM     53  C   UNL A   1      37.788  34.237  34.349  1.00  0.00     0.029 A 
ATOM     54  C   UNL A   1      38.848  33.237  34.467  1.00  0.00     0.049 A 
ATOM     55  H   UNL A   1      39.432  31.840  33.040  1.00  0.00     0.167 HD
ATOM     56  C   UNL A   1      40.429  28.846  29.975  1.00  0.00     0.037 A 
ATOM     57  C   UNL A   1      39.647  33.055  35.537  1.00  0.00     0.037 A 
ATOM     58  C   UNL A   1      41.367  28.624  31.042  1.00  0.00     0.049 A 
ATOM     59  C   UNL A   1      40.693  31.971  35.493  1.00  0.00     0.074 A 
ATOM     60  C   UNL A   1      42.411  27.720  31.097  1.00  0.00     0.029 A 
ATOM     61  N   UNL A   1      41.371  29.317  32.245  1.00  0.00    -0.354 N 
ATOM     62  N   UNL A   1      40.980  31.133  34.527  1.00  0.00    -0.248 NA
ATOM     63  C   UNL A   1      41.530  31.813  36.691  1.00  0.00     0.031 C 
ATOM     64  C   UNL A   1      43.016  27.828  32.353  1.00  0.00     0.029 A 
ATOM     65  C   UNL A   1      42.387  28.843  33.059  1.00  0.00     0.049 A 
ATOM     66  H   UNL A   1      40.745  30.038  32.484  1.00  0.00     0.167 HD
ATOM     67  C   UNL A   1      42.043  30.366  34.988  1.00  0.00     0.074 A 
ATOM     68  C   UNL A   1      42.365  30.857  36.312  1.00  0.00     0.031 C 
ATOM     69  C   UNL A   1      42.690  29.342  34.376  1.00  0.00     0.037 A 
BRANCH  56  70
ATOM     70  C   UNL A   1      40.538  28.001  28.740  1.00  0.00     0.064 A 
ATOM     71  C   UNL A   1      39.841  26.790  28.615  1.00  0.00     0.173 A 
ATOM     72  C   UNL A   1      41.311  28.428  27.651  1.00  0.00     0.173 A 
ATOM     73  F   UNL A   1      39.104  26.326  29.636  1.00  0.00    -0.203 F 
ATOM     74  C   UNL A   1      39.927  26.030  27.452  1.00  0.00     0.198 A 
ATOM     75  C   UNL A   1      41.369  27.682  26.477  1.00  0.00     0.198 A 
ATOM     76  F   UNL A   1      42.001  29.577  27.720  1.00  0.00    -0.203 F 
ATOM     77  F   UNL A   1      39.286  24.855  27.373  1.00  0.00    -0.200 F 
ATOM     78  C   UNL A   1      40.681  26.482  26.380  1.00  0.00     0.200 A 
ATOM     79  F   UNL A   1      42.089  28.126  25.438  1.00  0.00    -0.200 F 
ATOM     80  F   UNL A   1      40.748  25.759  25.255  1.00  0.00    -0.200 F 
ENDBRANCH  56  70
BRANCH  57  81
ATOM     81  C   UNL A   1      39.504  33.931  36.730  1.00  0.00     0.064 A 
ATOM     82  C   UNL A   1      38.734  33.525  37.829  1.00  0.00     0.173 A 
ATOM     83  C   UNL A   1      40.126  35.186  36.799  1.00  0.00     0.173 A 
ATOM     84  F   UNL A   1      38.099  32.343  37.801  1.00  0.00    -0.203 F 
ATOM     85  C   UNL A   1      38.580  34.346  38.944  1.00  0.00     0.198 A 
ATOM     86  C   UNL A   1      39.995  35.994  37.927  1.00  0.00     0.198 A 
ATOM     87  F   UNL A   1      40.873  35.623  35.775  1.00  0.00    -0.203 F 
ATOM     88  F   UNL A   1      37.802  33.950  39.962  1.00  0.00    -0.200 F 
ATOM     89  C   UNL A   1      39.216  35.576  38.996  1.00  0.00     0.200 A 
ATOM     90  F   UNL A   1      40.623  37.176  37.979  1.00  0.00    -0.200 F 
ATOM     91  F   UNL A   1      39.075  36.362  40.072  1.00  0.00    -0.200 F 
ENDBRANCH  57  81
BRANCH  69  92
ATOM     92  C   UNL A   1      43.823  28.697  35.125  1.00  0.00     0.064 A 
ATOM     93  C   UNL A   1      45.145  29.146  34.990  1.00  0.00     0.173 A 
ATOM     94  C   UNL A   1      43.578  27.642  36.018  1.00  0.00     0.173 A 
ATOM     95  F   UNL A   1      45.435  30.146  34.143  1.00  0.00    -0.203 F 
ATOM     96  C   UNL A   1      46.183  28.541  35.692  1.00  0.00     0.198 A 
ATOM     97  C   UNL A   1      44.614  27.064  36.748  1.00  0.00     0.198 A 
ATOM     98  F   UNL A   1      42.331  27.181  36.196  1.00  0.00    -0.203 F 
ATOM     99  F   UNL A   1      47.446  28.948  35.501  1.00  0.00    -0.200 F 
ATOM    100  C   UNL A   1      45.916  27.506  36.576  1.00  0.00     0.200 A 
ATOM    101  F   UNL A   1      44.350  26.078  37.617  1.00  0.00    -0.200 F 
ATOM    102  F   UNL A   1      46.917  26.929  37.256  1.00  0.00    -0.200 F 
ENDBRANCH  69  92
ENDBRANCH  43  44
ENDBRANCH  35  38
ENDBRANCH  33  34
ENDBRANCH   1  33
TORSDOF 12
ENDMDL
MODEL 3
REMARK VINA RESULT:     -13.9      2.844      7.974
REMARK SMILES CC1(C)[C@H](O)CC[C@]2(C)[C@@H]1CC[C@@]1(C)Oc3oc(C(=O)NCCCCNC(=O)c4ccc(-c5c6nc(c(-c7c(F)c(F)c(F)c(F)c7F)c7ccc([nH]7)c(-c7c(F)c(F)c(F)c(F)c7F)c7nc(c(-c8c(F)c(F)c(F)c(F)c8F)c8ccc5[nH]8)C=C7)C=C6)cc4)cc(=O)c3C[C@H]21
REMARK SMILES IDX 24 1 23 2 22 3 21 4 19 5 20 6 18 8 1 9 2 10 3 11 4 12 10 13
REMARK SMILES IDX 6 14 8 15 11 16 7 17 9 18 97 19 12 20 13 21 96 22 14 23
REMARK SMILES IDX 15 24 95 25 16 26 93 27 17 28 92 29 94 30 5 31 25 33 26 34
REMARK SMILES IDX 27 35 28 37 29 38 30 39 91 40 31 41 90 42 32 43 33 44 34 45
REMARK SMILES IDX 84 46 35 47 89 48 83 49 85 50 36 51 88 52 82 53 81 54 37 56
REMARK SMILES IDX 69 57 49 58 68 59 50 60 53 61 67 62 86 63 51 64 52 65 66 67
REMARK SMILES IDX 87 68 54 69 38 70 39 71 47 72 40 73 41 74 45 75 48 76 42 77
REMARK SMILES IDX 43 78 46 79 44 80 70 81 71 82 79 83 72 84 73 85 77 86 80 87
REMARK SMILES IDX 74 88 75 89 78 90 76 91 55 92 56 93 64 94 57 95 58 96 62 97
REMARK SMILES IDX 65 98 59 99 60 100 63 101 61 102
REMARK H PARENT 21 7 5 32 26 36 85 55 53 66
REMARK Flexibility Score: inf
ROOT
ATOM      1  C   UNL A   1      35.850  22.899  25.594  1.00  0.00     0.023 C 
ENDROOT
BRANCH   1   2
ATOM      2  C   UNL A   1      35.586  21.483  26.088  1.00  0.00     0.023 C 
BRANCH   2   3
ATOM      3  C   UNL A   1      35.567  20.390  25.001  1.00  0.00     0.116 C 
BRANCH   3   4
ATOM      4  N   UNL A   1      34.292  19.650  24.942  1.00  0.00    -0.349 N 
ATOM      5  C   UNL A   1      32.961  19.997  24.772  1.00  0.00     0.287 C 
ATOM      6  O   UNL A   1      32.152  19.080  24.629  1.00  0.00    -0.266 OA
ATOM      7  H   UNL A   1      34.415  18.680  25.048  1.00  0.00     0.163 HD
BRANCH   5   8
ATOM      8  C   UNL A   1      32.501  21.427  24.667  1.00  0.00     0.199 A 
ATOM      9  C   UNL A   1      31.028  30.894  26.140  1.00  0.00     0.014 C 
ATOM     10  C   UNL A   1      32.381  30.113  26.138  1.00  0.00    -0.006 C 
ATOM     11  C   UNL A   1      33.475  31.196  26.288  1.00  0.00     0.014 C 
ATOM     12  C   UNL A   1      32.312  29.305  27.626  1.00  0.00     0.120 C 
ATOM     13  C   UNL A   1      32.445  29.018  24.751  1.00  0.00     0.004 C 
ATOM     14  C   UNL A   1      31.460  28.039  27.616  1.00  0.00     0.033 C 
ATOM     15  C   UNL A   1      32.764  27.714  25.444  1.00  0.00    -0.022 C 
ATOM     16  C   UNL A   1      33.122  28.951  23.345  1.00  0.00     0.009 C 
ATOM     17  C   UNL A   1      31.380  27.589  26.205  1.00  0.00     0.010 C 
ATOM     18  C   UNL A   1      34.259  27.976  25.918  1.00  0.00     0.012 C 
ATOM     19  C   UNL A   1      33.050  26.364  24.826  1.00  0.00     0.044 C 
ATOM     20  C   UNL A   1      33.309  27.431  22.675  1.00  0.00     0.049 C 
ATOM     21  C   UNL A   1      32.649  26.144  23.399  1.00  0.00     0.113 C 
ATOM     22  C   UNL A   1      32.810  25.311  25.878  1.00  0.00     0.055 C 
ATOM     23  C   UNL A   1      31.166  26.089  23.041  1.00  0.00     0.057 C 
ATOM     24  O   UNL A   1      33.231  24.782  23.051  1.00  0.00    -0.458 OA
ATOM     25  C   UNL A   1      32.559  24.043  25.249  1.00  0.00     0.081 A 
ATOM     26  C   UNL A   1      32.914  23.735  24.000  1.00  0.00     0.292 A 
ATOM     27  C   UNL A   1      31.797  23.120  26.077  1.00  0.00     0.192 A 
ATOM     28  O   UNL A   1      33.057  22.344  23.716  1.00  0.00    -0.420 OA
ATOM     29  C   UNL A   1      31.556  21.815  25.519  1.00  0.00     0.105 A 
ATOM     30  O   UNL A   1      31.381  23.385  27.198  1.00  0.00    -0.289 OA
BRANCH  12  31
ATOM     31  O   UNL A   1      33.594  29.002  28.192  1.00  0.00    -0.393 OA
ATOM     32  H   UNL A   1      33.784  29.622  28.912  1.00  0.00     0.210 HD
ENDBRANCH  12  31
ENDBRANCH   5   8
ENDBRANCH   3   4
ENDBRANCH   2   3
ENDBRANCH   1   2
BRANCH   1  33
ATOM     33  C   UNL A   1      37.183  23.487  26.021  1.00  0.00     0.116 C 
BRANCH  33  34
ATOM     34  N   UNL A   1      38.271  22.519  26.028  1.00  0.00    -0.352 N 
ATOM     35  C   UNL A   1      39.575  22.730  26.401  1.00  0.00     0.251 C 
ATOM     36  H   UNL A   1      38.045  21.608  25.731  1.00  0.00     0.163 HD
ATOM     37  O   UNL A   1      40.426  21.847  26.281  1.00  0.00    -0.269 OA
BRANCH  35  38
ATOM     38  C   UNL A   1      39.953  24.053  26.927  1.00  0.00     0.039 A 
ATOM     39  C   UNL A   1      40.411  25.034  26.045  1.00  0.00     0.014 A 
ATOM     40  C   UNL A   1      39.793  24.329  28.289  1.00  0.00     0.014 A 
ATOM     41  C   UNL A   1      40.672  26.318  26.524  1.00  0.00     0.010 A 
ATOM     42  C   UNL A   1      39.989  25.623  28.751  1.00  0.00     0.010 A 
ATOM     43  C   UNL A   1      40.450  26.620  27.876  1.00  0.00    -0.014 A 
BRANCH  43  44
ATOM     44  C   UNL A   1      40.802  27.943  28.439  1.00  0.00     0.031 A 
ATOM     45  C   UNL A   1      42.229  28.198  28.829  1.00  0.00     0.074 A 
ATOM     46  C   UNL A   1      39.855  28.874  28.650  1.00  0.00     0.049 A 
ATOM     47  N   UNL A   1      42.749  29.225  29.449  1.00  0.00    -0.248 NA
ATOM     48  C   UNL A   1      43.197  27.142  28.492  1.00  0.00     0.031 C 
ATOM     49  C   UNL A   1      38.439  28.735  28.312  1.00  0.00     0.029 A 
ATOM     50  N   UNL A   1      39.945  30.120  29.217  1.00  0.00    -0.354 N 
ATOM     51  C   UNL A   1      44.100  28.933  29.581  1.00  0.00     0.074 A 
ATOM     52  C   UNL A   1      44.310  27.612  29.032  1.00  0.00     0.031 C 
ATOM     53  C   UNL A   1      37.793  29.857  28.672  1.00  0.00     0.029 A 
ATOM     54  C   UNL A   1      38.741  30.774  29.301  1.00  0.00     0.049 A 
ATOM     55  H   UNL A   1      40.791  30.507  29.535  1.00  0.00     0.167 HD
ATOM     56  C   UNL A   1      45.082  29.711  30.092  1.00  0.00     0.037 A 
ATOM     57  C   UNL A   1      38.442  31.974  29.837  1.00  0.00     0.037 A 
ATOM     58  C   UNL A   1      44.867  31.029  30.625  1.00  0.00     0.049 A 
ATOM     59  C   UNL A   1      39.547  32.797  30.451  1.00  0.00     0.074 A 
ATOM     60  C   UNL A   1      45.798  31.909  31.147  1.00  0.00     0.029 A 
ATOM     61  N   UNL A   1      43.632  31.655  30.707  1.00  0.00    -0.354 N 
ATOM     62  N   UNL A   1      40.826  32.529  30.546  1.00  0.00    -0.248 NA
ATOM     63  C   UNL A   1      39.161  34.092  31.027  1.00  0.00     0.031 C 
ATOM     64  C   UNL A   1      45.119  33.047  31.592  1.00  0.00     0.029 A 
ATOM     65  C   UNL A   1      43.773  32.903  31.292  1.00  0.00     0.049 A 
ATOM     66  H   UNL A   1      42.781  31.271  30.395  1.00  0.00     0.167 HD
ATOM     67  C   UNL A   1      41.402  33.628  31.170  1.00  0.00     0.074 A 
ATOM     68  C   UNL A   1      40.334  34.578  31.406  1.00  0.00     0.031 C 
ATOM     69  C   UNL A   1      42.696  33.833  31.523  1.00  0.00     0.037 A 
BRANCH  56  70
ATOM     70  C   UNL A   1      46.476  29.158  30.090  1.00  0.00     0.064 A 
ATOM     71  C   UNL A   1      46.975  28.422  31.175  1.00  0.00     0.173 A 
ATOM     72  C   UNL A   1      47.308  29.325  28.973  1.00  0.00     0.173 A 
ATOM     73  F   UNL A   1      46.228  28.251  32.277  1.00  0.00    -0.203 F 
ATOM     74  C   UNL A   1      48.261  27.889  31.149  1.00  0.00     0.198 A 
ATOM     75  C   UNL A   1      48.581  28.762  28.938  1.00  0.00     0.198 A 
ATOM     76  F   UNL A   1      46.881  30.024  27.910  1.00  0.00    -0.203 F 
ATOM     77  F   UNL A   1      48.731  27.227  32.216  1.00  0.00    -0.200 F 
ATOM     78  C   UNL A   1      49.058  28.050  30.027  1.00  0.00     0.200 A 
ATOM     79  F   UNL A   1      49.345  28.909  27.847  1.00  0.00    -0.200 F 
ATOM     80  F   UNL A   1      50.288  27.520  29.995  1.00  0.00    -0.200 F 
ENDBRANCH  56  70
BRANCH  57  81
ATOM     81  C   UNL A   1      37.045  32.479  29.799  1.00  0.00     0.064 A 
ATOM     82  C   UNL A   1      36.560  33.163  28.675  1.00  0.00     0.173 A 
ATOM     83  C   UNL A   1      36.167  32.295  30.878  1.00  0.00     0.173 A 
ATOM     84  F   UNL A   1      37.368  33.387  27.628  1.00  0.00    -0.203 F 
ATOM     85  C   UNL A   1      35.257  33.656  28.637  1.00  0.00     0.198 A 
ATOM     86  C   UNL A   1      34.855  32.762  30.826  1.00  0.00     0.198 A 
ATOM     87  F   UNL A   1      36.580  31.648  31.977  1.00  0.00    -0.203 F 
ATOM     88  F   UNL A   1      34.835  34.344  27.567  1.00  0.00    -0.200 F 
ATOM     89  C   UNL A   1      34.403  33.448  29.709  1.00  0.00     0.200 A 
ATOM     90  F   UNL A   1      34.029  32.547  31.859  1.00  0.00    -0.200 F 
ATOM     91  F   UNL A   1      33.147  33.914  29.669  1.00  0.00    -0.200 F 
ENDBRANCH  57  81
BRANCH  69  92
ATOM     92  C   UNL A   1      43.032  35.140  32.185  1.00  0.00     0.064 A 
ATOM     93  C   UNL A   1      43.523  36.231  31.453  1.00  0.00     0.173 A 
ATOM     94  C   UNL A   1      42.823  35.317  33.562  1.00  0.00     0.173 A 
ATOM     95  F   UNL A   1      43.750  36.114  30.135  1.00  0.00    -0.203 F 
ATOM     96  C   UNL A   1      43.827  37.437  32.079  1.00  0.00     0.198 A 
ATOM     97  C   UNL A   1      43.091  36.537  34.178  1.00  0.00     0.198 A 
ATOM     98  F   UNL A   1      42.342  34.311  34.308  1.00  0.00    -0.203 F 
ATOM     99  F   UNL A   1      44.352  38.445  31.369  1.00  0.00    -0.200 F 
ATOM    100  C   UNL A   1      43.603  37.591  33.439  1.00  0.00     0.200 A 
ATOM    101  F   UNL A   1      42.854  36.689  35.489  1.00  0.00    -0.200 F 
ATOM    102  F   UNL A   1      43.889  38.755  34.039  1.00  0.00    -0.200 F 
ENDBRANCH  69  92
ENDBRANCH  43  44
ENDBRANCH  35  38
ENDBRANCH  33  34
ENDBRANCH   1  33
TORSDOF 12
ENDMDL
