MODEL 1
REMARK VINA RESULT:     -13.7      0.000      0.000
REMARK SMILES NS(=O)(=O)c1ccc(-n2nc(C(=O)NCCCCNC(=O)c3ccc(-c4c5nc(c(-c6c(F)c(F)c(F)c(F)c6F)c6ccc([nH]6)c(-c6c(F)c(F)c(F)c(F)c6F)c6nc(c(-c7c(F)c(F)c(F)c(F)c7F)c7ccc4[nH]7)C=C6)C=C5)cc3)cc2-c2ccc(Cl)s2)cc1
REMARK SMILES IDX 16 1 15 2 14 3 12 4 13 5 11 7 9 8 10 9 86 10 85 11 8 12 5 13
REMARK SMILES IDX 6 14 94 15 7 16 93 17 2 18 3 19 4 20 1 21 87 24 88 25 92 26
REMARK SMILES IDX 89 27 90 28 91 29 17 30 18 31 19 32 20 33 21 35 22 36 23 37
REMARK SMILES IDX 84 38 24 39 83 40 25 41 26 42 27 43 77 44 28 45 82 46 76 47
REMARK SMILES IDX 78 48 29 49 81 50 75 51 74 52 30 54 62 55 42 56 61 57 43 58
REMARK SMILES IDX 46 59 60 60 79 61 44 62 45 63 59 65 80 66 47 67 31 68 32 69
REMARK SMILES IDX 40 70 33 71 34 72 38 73 41 74 35 75 36 76 39 77 37 78 63 79
REMARK SMILES IDX 64 80 72 81 65 82 66 83 70 84 73 85 67 86 68 87 71 88 69 89
REMARK SMILES IDX 48 90 49 91 57 92 50 93 51 94 55 95 58 96 52 97 53 98 56 99
REMARK SMILES IDX 54 100
REMARK H PARENT 14 6 1 22 1 23 19 34 78 53 46 64
REMARK Flexibility Score: inf
ROOT
ATOM      1  C   UNL A   1      36.764  22.464  23.954  1.00  0.00     0.023 C 
ENDROOT
BRANCH   1   2
ATOM      2  C   UNL A   1      35.456  22.955  23.326  1.00  0.00     0.116 C 
BRANCH   2   3
ATOM      3  N   UNL A   1      34.305  22.202  23.779  1.00  0.00    -0.351 N 
ATOM      4  C   UNL A   1      33.095  22.546  24.344  1.00  0.00     0.271 C 
ATOM      5  O   UNL A   1      32.354  21.592  24.598  1.00  0.00    -0.267 OA
ATOM      6  H   UNL A   1      34.410  21.230  23.659  1.00  0.00     0.163 HD
BRANCH   4   7
ATOM      7  C   UNL A   1      32.690  23.949  24.608  1.00  0.00     0.151 A 
ATOM      8  N   UNL A   1      31.686  25.826  24.232  1.00  0.00    -0.231 N 
ATOM      9  N   UNL A   1      31.733  24.530  23.847  1.00  0.00    -0.162 NA
ATOM     10  C   UNL A   1      32.474  26.057  25.341  1.00  0.00     0.085 A 
ATOM     11  C   UNL A   1      33.123  24.870  25.591  1.00  0.00     0.066 A 
BRANCH   8  12
ATOM     12  C   UNL A   1      30.845  26.761  23.581  1.00  0.00     0.065 A 
ATOM     13  C   UNL A   1      29.260  28.852  22.673  1.00  0.00     0.082 A 
ATOM     14  C   UNL A   1      30.611  28.807  22.314  1.00  0.00     0.024 A 
ATOM     15  C   UNL A   1      28.684  27.827  23.432  1.00  0.00     0.024 A 
ATOM     16  C   UNL A   1      31.410  27.766  22.781  1.00  0.00     0.030 A 
ATOM     17  C   UNL A   1      29.475  26.756  23.863  1.00  0.00     0.030 A 
BRANCH  13  18
ATOM     18  S   UNL A   1      28.329  30.264  22.155  1.00  0.00     0.238 S 
ATOM     19  O   UNL A   1      27.293  30.507  23.142  1.00  0.00    -0.207 OA
ATOM     20  O   UNL A   1      28.051  30.133  20.751  1.00  0.00    -0.207 OA
BRANCH  18  21
ATOM     21  N   UNL A   1      29.388  31.560  22.294  1.00  0.00    -0.225 NA
ATOM     22  H   UNL A   1      29.851  31.719  21.399  1.00  0.00     0.137 HD
ATOM     23  H   UNL A   1      30.088  31.351  23.007  1.00  0.00     0.137 HD
ENDBRANCH  18  21
ENDBRANCH  13  18
ENDBRANCH   8  12
BRANCH  10  24
ATOM     24  C   UNL A   1      32.512  27.244  26.142  1.00  0.00     0.054 A 
ATOM     25  C   UNL A   1      31.520  27.704  26.987  1.00  0.00     0.024 A 
ATOM     26  S   UNL A   1      33.823  28.349  26.049  1.00  0.00    -0.122 S 
ATOM     27  C   UNL A   1      31.851  28.965  27.570  1.00  0.00     0.033 A 
ATOM     28  C   UNL A   1      33.074  29.404  27.135  1.00  0.00     0.094 A 
ATOM     29  Cl  UNL A   1      33.850  30.873  27.566  1.00  0.00    -0.072 Cl
ENDBRANCH  10  24
ENDBRANCH   4   7
ENDBRANCH   2   3
ENDBRANCH   1   2
BRANCH   1  30
ATOM     30  C   UNL A   1      36.780  22.470  25.492  1.00  0.00     0.023 C 
BRANCH  30  31
ATOM     31  C   UNL A   1      37.973  23.182  26.129  1.00  0.00     0.116 C 
BRANCH  31  32
ATOM     32  N   UNL A   1      39.146  22.322  26.284  1.00  0.00    -0.352 N 
ATOM     33  C   UNL A   1      40.472  22.701  26.382  1.00  0.00     0.251 C 
ATOM     34  H   UNL A   1      38.970  21.354  26.325  1.00  0.00     0.163 HD
ATOM     35  O   UNL A   1      41.379  21.924  26.109  1.00  0.00    -0.269 OA
BRANCH  33  36
ATOM     36  C   UNL A   1      40.780  24.063  26.845  1.00  0.00     0.039 A 
ATOM     37  C   UNL A   1      40.380  25.194  26.127  1.00  0.00     0.014 A 
ATOM     38  C   UNL A   1      41.457  24.184  28.055  1.00  0.00     0.014 A 
ATOM     39  C   UNL A   1      40.591  26.452  26.686  1.00  0.00     0.010 A 
ATOM     40  C   UNL A   1      41.534  25.408  28.669  1.00  0.00     0.010 A 
ATOM     41  C   UNL A   1      41.151  26.549  27.970  1.00  0.00    -0.014 A 
BRANCH  41  42
ATOM     42  C   UNL A   1      41.237  27.833  28.659  1.00  0.00     0.031 A 
ATOM     43  C   UNL A   1      42.397  28.678  28.256  1.00  0.00     0.074 A 
ATOM     44  C   UNL A   1      40.215  28.318  29.399  1.00  0.00     0.049 A 
ATOM     45  N   UNL A   1      43.376  29.087  28.994  1.00  0.00    -0.248 NA
ATOM     46  C   UNL A   1      42.551  29.014  26.830  1.00  0.00     0.031 C 
ATOM     47  C   UNL A   1      38.886  27.725  29.597  1.00  0.00     0.029 A 
ATOM     48  N   UNL A   1      40.103  29.513  30.041  1.00  0.00    -0.354 N 
ATOM     49  C   UNL A   1      44.169  29.892  28.175  1.00  0.00     0.074 A 
ATOM     50  C   UNL A   1      43.718  29.663  26.829  1.00  0.00     0.031 C 
ATOM     51  C   UNL A   1      38.041  28.654  30.093  1.00  0.00     0.029 A 
ATOM     52  C   UNL A   1      38.805  29.843  30.416  1.00  0.00     0.049 A 
ATOM     53  H   UNL A   1      40.876  30.096  30.224  1.00  0.00     0.167 HD
ATOM     54  C   UNL A   1      44.958  30.867  28.707  1.00  0.00     0.037 A 
ATOM     55  C   UNL A   1      38.380  31.020  30.936  1.00  0.00     0.037 A 
ATOM     56  C   UNL A   1      45.128  30.665  30.124  1.00  0.00     0.049 A 
ATOM     57  C   UNL A   1      39.573  31.721  31.465  1.00  0.00     0.074 A 
ATOM     58  C   UNL A   1      45.694  29.688  30.915  1.00  0.00     0.029 A 
ATOM     59  N   UNL A   1      44.327  31.409  30.951  1.00  0.00    -0.354 N 
ATOM     60  N   UNL A   1      40.267  31.304  32.485  1.00  0.00    -0.248 NA
ATOM     61  C   UNL A   1      40.251  32.662  30.590  1.00  0.00     0.031 C 
ATOM     62  C   UNL A   1      44.865  29.621  32.075  1.00  0.00     0.029 A 
ATOM     63  C   UNL A   1      43.878  30.603  31.962  1.00  0.00     0.049 A 
ATOM     64  H   UNL A   1      44.111  32.363  30.838  1.00  0.00     0.167 HD
ATOM     65  C   UNL A   1      41.585  31.569  32.143  1.00  0.00     0.074 A 
ATOM     66  C   UNL A   1      41.502  32.515  31.033  1.00  0.00     0.031 C 
ATOM     67  C   UNL A   1      42.593  30.770  32.601  1.00  0.00     0.037 A 
BRANCH  54  68
ATOM     68  C   UNL A   1      45.225  32.216  28.067  1.00  0.00     0.064 A 
ATOM     69  C   UNL A   1      44.134  33.083  27.829  1.00  0.00     0.173 A 
ATOM     70  C   UNL A   1      46.418  32.557  27.394  1.00  0.00     0.173 A 
ATOM     71  F   UNL A   1      42.944  32.860  28.408  1.00  0.00    -0.203 F 
ATOM     72  C   UNL A   1      44.208  34.136  26.912  1.00  0.00     0.198 A 
ATOM     73  C   UNL A   1      46.502  33.641  26.520  1.00  0.00     0.198 A 
ATOM     74  F   UNL A   1      47.518  31.800  27.457  1.00  0.00    -0.203 F 
ATOM     75  F   UNL A   1      43.106  34.838  26.616  1.00  0.00    -0.200 F 
ATOM     76  C   UNL A   1      45.390  34.407  26.250  1.00  0.00     0.200 A 
ATOM     77  F   UNL A   1      47.654  33.876  25.875  1.00  0.00    -0.200 F 
ATOM     78  F   UNL A   1      45.446  35.369  25.319  1.00  0.00    -0.200 F 
ENDBRANCH  54  68
BRANCH  55  79
ATOM     79  C   UNL A   1      37.073  31.693  30.759  1.00  0.00     0.064 A 
ATOM     80  C   UNL A   1      36.178  31.841  31.832  1.00  0.00     0.173 A 
ATOM     81  C   UNL A   1      36.800  32.450  29.605  1.00  0.00     0.173 A 
ATOM     82  F   UNL A   1      36.393  31.189  32.983  1.00  0.00    -0.203 F 
ATOM     83  C   UNL A   1      35.088  32.715  31.761  1.00  0.00     0.198 A 
ATOM     84  C   UNL A   1      35.709  33.318  29.533  1.00  0.00     0.198 A 
ATOM     85  F   UNL A   1      37.640  32.433  28.559  1.00  0.00    -0.203 F 
ATOM     86  F   UNL A   1      34.290  32.877  32.826  1.00  0.00    -0.200 F 
ATOM     87  C   UNL A   1      34.861  33.461  30.615  1.00  0.00     0.200 A 
ATOM     88  F   UNL A   1      35.524  34.063  28.434  1.00  0.00    -0.200 F 
ATOM     89  F   UNL A   1      33.854  34.346  30.570  1.00  0.00    -0.200 F 
ENDBRANCH  55  79
BRANCH  67  90
ATOM     90  C   UNL A   1      42.275  29.834  33.735  1.00  0.00     0.064 A 
ATOM     91  C   UNL A   1      41.800  28.520  33.576  1.00  0.00     0.173 A 
ATOM     92  C   UNL A   1      42.589  30.250  35.036  1.00  0.00     0.173 A 
ATOM     93  F   UNL A   1      41.565  28.012  32.361  1.00  0.00    -0.203 F 
ATOM     94  C   UNL A   1      41.610  27.681  34.673  1.00  0.00     0.198 A 
ATOM     95  C   UNL A   1      42.435  29.398  36.125  1.00  0.00     0.198 A 
ATOM     96  F   UNL A   1      43.094  31.476  35.244  1.00  0.00    -0.203 F 
ATOM     97  F   UNL A   1      41.141  26.437  34.496  1.00  0.00    -0.200 F 
ATOM     98  C   UNL A   1      41.935  28.118  35.946  1.00  0.00     0.200 A 
ATOM     99  F   UNL A   1      42.797  29.811  37.347  1.00  0.00    -0.200 F 
ATOM    100  F   UNL A   1      41.791  27.300  36.997  1.00  0.00    -0.200 F 
ENDBRANCH  67  90
ENDBRANCH  41  42
ENDBRANCH  33  36
ENDBRANCH  31  32
ENDBRANCH  30  31
ENDBRANCH   1  30
TORSDOF 15
ENDMDL
MODEL 2
REMARK VINA RESULT:     -13.6      3.489      9.085
REMARK SMILES NS(=O)(=O)c1ccc(-n2nc(C(=O)NCCCCNC(=O)c3ccc(-c4c5nc(c(-c6c(F)c(F)c(F)c(F)c6F)c6ccc([nH]6)c(-c6c(F)c(F)c(F)c(F)c6F)c6nc(c(-c7c(F)c(F)c(F)c(F)c7F)c7ccc4[nH]7)C=C6)C=C5)cc3)cc2-c2ccc(Cl)s2)cc1
REMARK SMILES IDX 16 1 15 2 14 3 12 4 13 5 11 7 9 8 10 9 86 10 85 11 8 12 5 13
REMARK SMILES IDX 6 14 94 15 7 16 93 17 2 18 3 19 4 20 1 21 87 24 88 25 92 26
REMARK SMILES IDX 89 27 90 28 91 29 17 30 18 31 19 32 20 33 21 35 22 36 23 37
REMARK SMILES IDX 84 38 24 39 83 40 25 41 26 42 27 43 77 44 28 45 82 46 76 47
REMARK SMILES IDX 78 48 29 49 81 50 75 51 74 52 30 54 62 55 42 56 61 57 43 58
REMARK SMILES IDX 46 59 60 60 79 61 44 62 45 63 59 65 80 66 47 67 31 68 32 69
REMARK SMILES IDX 40 70 33 71 34 72 38 73 41 74 35 75 36 76 39 77 37 78 63 79
REMARK SMILES IDX 64 80 72 81 65 82 66 83 70 84 73 85 67 86 68 87 71 88 69 89
REMARK SMILES IDX 48 90 49 91 57 92 50 93 51 94 55 95 58 96 52 97 53 98 56 99
REMARK SMILES IDX 54 100
REMARK H PARENT 14 6 1 22 1 23 19 34 78 53 46 64
REMARK Flexibility Score: inf
ROOT
ATOM      1  C   UNL A   1      31.645  28.363  27.622  1.00  0.00     0.023 C 
ENDROOT
BRANCH   1   2
ATOM      2  C   UNL A   1      31.069  27.321  26.658  1.00  0.00     0.116 C 
BRANCH   2   3
ATOM      3  N   UNL A   1      31.171  27.729  25.272  1.00  0.00    -0.351 N 
ATOM      4  C   UNL A   1      31.823  27.222  24.168  1.00  0.00     0.271 C 
ATOM      5  O   UNL A   1      31.662  27.872  23.131  1.00  0.00    -0.267 OA
ATOM      6  H   UNL A   1      30.663  28.550  25.075  1.00  0.00     0.163 HD
BRANCH   4   7
ATOM      7  C   UNL A   1      32.638  25.982  24.202  1.00  0.00     0.151 A 
ATOM      8  N   UNL A   1      33.006  23.852  24.194  1.00  0.00    -0.231 N 
ATOM      9  N   UNL A   1      32.054  24.785  23.957  1.00  0.00    -0.162 NA
ATOM     10  C   UNL A   1      34.238  24.428  24.426  1.00  0.00     0.085 A 
ATOM     11  C   UNL A   1      34.020  25.786  24.436  1.00  0.00     0.066 A 
BRANCH   8  12
ATOM     12  C   UNL A   1      32.718  22.468  24.118  1.00  0.00     0.065 A 
ATOM     13  C   UNL A   1      32.584  19.709  23.829  1.00  0.00     0.082 A 
ATOM     14  C   UNL A   1      32.908  20.256  25.075  1.00  0.00     0.024 A 
ATOM     15  C   UNL A   1      32.269  20.535  22.744  1.00  0.00     0.024 A 
ATOM     16  C   UNL A   1      32.988  21.639  25.217  1.00  0.00     0.030 A 
ATOM     17  C   UNL A   1      32.304  21.925  22.897  1.00  0.00     0.030 A 
BRANCH  13  18
ATOM     18  S   UNL A   1      32.621  17.948  23.681  1.00  0.00     0.238 S 
ATOM     19  O   UNL A   1      31.757  17.392  24.708  1.00  0.00    -0.207 OA
ATOM     20  O   UNL A   1      33.987  17.536  23.508  1.00  0.00    -0.207 OA
BRANCH  18  21
ATOM     21  N   UNL A   1      31.852  17.615  22.226  1.00  0.00    -0.225 NA
ATOM     22  H   UNL A   1      32.535  17.269  21.552  1.00  0.00     0.137 HD
ATOM     23  H   UNL A   1      31.421  18.467  21.867  1.00  0.00     0.137 HD
ENDBRANCH  18  21
ENDBRANCH  13  18
ENDBRANCH   8  12
BRANCH  10  24
ATOM     24  C   UNL A   1      35.502  23.759  24.508  1.00  0.00     0.054 A 
ATOM     25  C   UNL A   1      36.098  22.992  23.526  1.00  0.00     0.024 A 
ATOM     26  S   UNL A   1      36.415  23.743  25.962  1.00  0.00    -0.122 S 
ATOM     27  C   UNL A   1      37.320  22.402  23.970  1.00  0.00     0.033 A 
ATOM     28  C   UNL A   1      37.589  22.743  25.269  1.00  0.00     0.094 A 
ATOM     29  Cl  UNL A   1      38.939  22.242  26.204  1.00  0.00    -0.072 Cl
ENDBRANCH  10  24
ENDBRANCH   4   7
ENDBRANCH   2   3
ENDBRANCH   1   2
BRANCH   1  30
ATOM     30  C   UNL A   1      32.306  29.573  26.939  1.00  0.00     0.023 C 
BRANCH  30  31
ATOM     31  C   UNL A   1      33.764  29.822  27.324  1.00  0.00     0.116 C 
BRANCH  31  32
ATOM     32  N   UNL A   1      34.193  31.203  27.105  1.00  0.00    -0.352 N 
ATOM     33  C   UNL A   1      35.274  31.857  27.669  1.00  0.00     0.251 C 
ATOM     34  H   UNL A   1      33.646  31.733  26.481  1.00  0.00     0.163 HD
ATOM     35  O   UNL A   1      35.313  33.079  27.739  1.00  0.00    -0.269 OA
BRANCH  33  36
ATOM     36  C   UNL A   1      36.399  31.052  28.168  1.00  0.00     0.039 A 
ATOM     37  C   UNL A   1      36.510  29.687  27.887  1.00  0.00     0.014 A 
ATOM     38  C   UNL A   1      37.377  31.714  28.905  1.00  0.00     0.014 A 
ATOM     39  C   UNL A   1      37.664  29.014  28.281  1.00  0.00     0.010 A 
ATOM     40  C   UNL A   1      38.569  31.090  29.163  1.00  0.00     0.010 A 
ATOM     41  C   UNL A   1      38.701  29.729  28.901  1.00  0.00    -0.014 A 
BRANCH  41  42
ATOM     42  C   UNL A   1      39.988  29.101  29.181  1.00  0.00     0.031 A 
ATOM     43  C   UNL A   1      40.287  28.913  30.628  1.00  0.00     0.074 A 
ATOM     44  C   UNL A   1      40.719  28.507  28.212  1.00  0.00     0.049 A 
ATOM     45  N   UNL A   1      41.258  29.424  31.312  1.00  0.00    -0.248 NA
ATOM     46  C   UNL A   1      39.323  28.157  31.447  1.00  0.00     0.031 C 
ATOM     47  C   UNL A   1      40.367  28.334  26.796  1.00  0.00     0.029 A 
ATOM     48  N   UNL A   1      41.891  27.821  28.310  1.00  0.00    -0.354 N 
ATOM     49  C   UNL A   1      41.141  28.904  32.601  1.00  0.00     0.074 A 
ATOM     50  C   UNL A   1      39.845  28.285  32.669  1.00  0.00     0.031 C 
ATOM     51  C   UNL A   1      41.169  27.402  26.237  1.00  0.00     0.029 A 
ATOM     52  C   UNL A   1      42.199  27.049  27.195  1.00  0.00     0.049 A 
ATOM     53  H   UNL A   1      42.473  27.867  29.103  1.00  0.00     0.167 HD
ATOM     54  C   UNL A   1      42.228  28.810  33.418  1.00  0.00     0.037 A 
ATOM     55  C   UNL A   1      43.216  26.162  27.071  1.00  0.00     0.037 A 
ATOM     56  C   UNL A   1      43.305  29.632  32.926  1.00  0.00     0.049 A 
ATOM     57  C   UNL A   1      44.206  26.482  28.125  1.00  0.00     0.074 A 
ATOM     58  C   UNL A   1      43.495  30.983  32.724  1.00  0.00     0.029 A 
ATOM     59  N   UNL A   1      44.282  28.997  32.203  1.00  0.00    -0.354 N 
ATOM     60  N   UNL A   1      44.912  27.576  28.150  1.00  0.00    -0.248 NA
ATOM     61  C   UNL A   1      44.102  25.776  29.391  1.00  0.00     0.031 C 
ATOM     62  C   UNL A   1      44.294  31.074  31.545  1.00  0.00     0.029 A 
ATOM     63  C   UNL A   1      44.604  29.778  31.127  1.00  0.00     0.049 A 
ATOM     64  H   UNL A   1      44.686  28.126  32.422  1.00  0.00     0.167 HD
ATOM     65  C   UNL A   1      44.962  27.930  29.490  1.00  0.00     0.074 A 
ATOM     66  C   UNL A   1      44.561  26.725  30.212  1.00  0.00     0.031 C 
ATOM     67  C   UNL A   1      45.040  29.242  29.858  1.00  0.00     0.037 A 
BRANCH  54  68
ATOM     68  C   UNL A   1      42.485  27.680  34.397  1.00  0.00     0.064 A 
ATOM     69  C   UNL A   1      43.009  26.463  33.908  1.00  0.00     0.173 A 
ATOM     70  C   UNL A   1      41.951  27.621  35.702  1.00  0.00     0.173 A 
ATOM     71  F   UNL A   1      43.540  26.390  32.678  1.00  0.00    -0.203 F 
ATOM     72  C   UNL A   1      42.906  25.268  34.627  1.00  0.00     0.198 A 
ATOM     73  C   UNL A   1      41.899  26.436  36.438  1.00  0.00     0.198 A 
ATOM     74  F   UNL A   1      41.354  28.668  36.281  1.00  0.00    -0.203 F 
ATOM     75  F   UNL A   1      43.289  24.115  34.059  1.00  0.00    -0.200 F 
ATOM     76  C   UNL A   1      42.341  25.254  35.887  1.00  0.00     0.200 A 
ATOM     77  F   UNL A   1      41.331  26.442  37.652  1.00  0.00    -0.200 F 
ATOM     78  F   UNL A   1      42.177  24.101  36.549  1.00  0.00    -0.200 F 
ENDBRANCH  54  68
BRANCH  55  79
ATOM     79  C   UNL A   1      43.258  24.902  26.294  1.00  0.00     0.064 A 
ATOM     80  C   UNL A   1      44.201  24.707  25.273  1.00  0.00     0.173 A 
ATOM     81  C   UNL A   1      42.557  23.761  26.729  1.00  0.00     0.173 A 
ATOM     82  F   UNL A   1      44.943  25.734  24.834  1.00  0.00    -0.203 F 
ATOM     83  C   UNL A   1      44.447  23.438  24.735  1.00  0.00     0.198 A 
ATOM     84  C   UNL A   1      42.799  22.497  26.188  1.00  0.00     0.198 A 
ATOM     85  F   UNL A   1      41.693  23.836  27.752  1.00  0.00    -0.203 F 
ATOM     86  F   UNL A   1      45.398  23.279  23.804  1.00  0.00    -0.200 F 
ATOM     87  C   UNL A   1      43.753  22.333  25.201  1.00  0.00     0.200 A 
ATOM     88  F   UNL A   1      42.150  21.431  26.676  1.00  0.00    -0.200 F 
ATOM     89  F   UNL A   1      44.033  21.108  24.732  1.00  0.00    -0.200 F 
ENDBRANCH  55  79
BRANCH  67  90
ATOM     90  C   UNL A   1      45.410  30.240  28.794  1.00  0.00     0.064 A 
ATOM     91  C   UNL A   1      44.488  30.897  27.961  1.00  0.00     0.173 A 
ATOM     92  C   UNL A   1      46.751  30.637  28.706  1.00  0.00     0.173 A 
ATOM     93  F   UNL A   1      43.176  30.646  28.047  1.00  0.00    -0.203 F 
ATOM     94  C   UNL A   1      44.898  31.875  27.055  1.00  0.00     0.198 A 
ATOM     95  C   UNL A   1      47.153  31.640  27.829  1.00  0.00     0.198 A 
ATOM     96  F   UNL A   1      47.669  30.081  29.511  1.00  0.00    -0.203 F 
ATOM     97  F   UNL A   1      44.000  32.477  26.261  1.00  0.00    -0.200 F 
ATOM     98  C   UNL A   1      46.229  32.251  26.996  1.00  0.00     0.200 A 
ATOM     99  F   UNL A   1      48.433  32.032  27.811  1.00  0.00    -0.200 F 
ATOM    100  F   UNL A   1      46.619  33.219  26.155  1.00  0.00    -0.200 F 
ENDBRANCH  67  90
ENDBRANCH  41  42
ENDBRANCH  33  36
ENDBRANCH  31  32
ENDBRANCH  30  31
ENDBRANCH   1  30
TORSDOF 15
ENDMDL
MODEL 3
REMARK VINA RESULT:     -13.4      3.471      8.940
REMARK SMILES NS(=O)(=O)c1ccc(-n2nc(C(=O)NCCCCNC(=O)c3ccc(-c4c5nc(c(-c6c(F)c(F)c(F)c(F)c6F)c6ccc([nH]6)c(-c6c(F)c(F)c(F)c(F)c6F)c6nc(c(-c7c(F)c(F)c(F)c(F)c7F)c7ccc4[nH]7)C=C6)C=C5)cc3)cc2-c2ccc(Cl)s2)cc1
REMARK SMILES IDX 16 1 15 2 14 3 12 4 13 5 11 7 9 8 10 9 86 10 85 11 8 12 5 13
REMARK SMILES IDX 6 14 94 15 7 16 93 17 2 18 3 19 4 20 1 21 87 24 88 25 92 26
REMARK SMILES IDX 89 27 90 28 91 29 17 30 18 31 19 32 20 33 21 35 22 36 23 37
REMARK SMILES IDX 84 38 24 39 83 40 25 41 26 42 27 43 77 44 28 45 82 46 76 47
REMARK SMILES IDX 78 48 29 49 81 50 75 51 74 52 30 54 62 55 42 56 61 57 43 58
REMARK SMILES IDX 46 59 60 60 79 61 44 62 45 63 59 65 80 66 47 67 31 68 32 69
REMARK SMILES IDX 40 70 33 71 34 72 38 73 41 74 35 75 36 76 39 77 37 78 63 79
REMARK SMILES IDX 64 80 72 81 65 82 66 83 70 84 73 85 67 86 68 87 71 88 69 89
REMARK SMILES IDX 48 90 49 91 57 92 50 93 51 94 55 95 58 96 52 97 53 98 56 99
REMARK SMILES IDX 54 100
REMARK H PARENT 14 6 1 22 1 23 19 34 78 53 46 64
REMARK Flexibility Score: inf
ROOT
ATOM      1  C   UNL A   1      32.205  29.112  27.257  1.00  0.00     0.023 C 
ENDROOT
BRANCH   1   2
ATOM      2  C   UNL A   1      31.424  27.892  26.757  1.00  0.00     0.116 C 
BRANCH   2   3
ATOM      3  N   UNL A   1      31.065  27.997  25.358  1.00  0.00    -0.351 N 
ATOM      4  C   UNL A   1      31.381  27.271  24.229  1.00  0.00     0.271 C 
ATOM      5  O   UNL A   1      30.862  27.684  23.188  1.00  0.00    -0.267 OA
ATOM      6  H   UNL A   1      30.464  28.755  25.172  1.00  0.00     0.163 HD
BRANCH   4   7
ATOM      7  C   UNL A   1      32.253  26.070  24.251  1.00  0.00     0.151 A 
ATOM      8  N   UNL A   1      32.720  23.960  24.227  1.00  0.00    -0.231 N 
ATOM      9  N   UNL A   1      31.725  24.849  24.000  1.00  0.00    -0.162 NA
ATOM     10  C   UNL A   1      33.925  24.591  24.457  1.00  0.00     0.085 A 
ATOM     11  C   UNL A   1      33.643  25.938  24.478  1.00  0.00     0.066 A 
BRANCH   8  12
ATOM     12  C   UNL A   1      32.497  22.564  24.143  1.00  0.00     0.065 A 
ATOM     13  C   UNL A   1      32.504  19.800  23.879  1.00  0.00     0.082 A 
ATOM     14  C   UNL A   1      32.687  20.371  25.143  1.00  0.00     0.024 A 
ATOM     15  C   UNL A   1      32.259  20.601  22.758  1.00  0.00     0.024 A 
ATOM     16  C   UNL A   1      32.697  21.758  25.273  1.00  0.00     0.030 A 
ATOM     17  C   UNL A   1      32.223  21.992  22.896  1.00  0.00     0.030 A 
BRANCH  13  18
ATOM     18  S   UNL A   1      32.627  18.040  23.759  1.00  0.00     0.238 S 
ATOM     19  O   UNL A   1      31.792  17.459  24.796  1.00  0.00    -0.207 OA
ATOM     20  O   UNL A   1      34.011  17.693  23.590  1.00  0.00    -0.207 OA
BRANCH  18  21
ATOM     21  N   UNL A   1      31.874  17.647  22.311  1.00  0.00    -0.225 NA
ATOM     22  H   UNL A   1      32.111  18.343  21.604  1.00  0.00     0.137 HD
ATOM     23  H   UNL A   1      30.863  17.632  22.448  1.00  0.00     0.137 HD
ENDBRANCH  18  21
ENDBRANCH  13  18
ENDBRANCH   8  12
BRANCH  10  24
ATOM     24  C   UNL A   1      35.220  23.982  24.529  1.00  0.00     0.054 A 
ATOM     25  C   UNL A   1      35.859  23.276  23.529  1.00  0.00     0.024 A 
ATOM     26  S   UNL A   1      36.123  23.966  25.989  1.00  0.00    -0.122 S 
ATOM     27  C   UNL A   1      37.105  22.732  23.965  1.00  0.00     0.033 A 
ATOM     28  C   UNL A   1      37.349  23.046  25.276  1.00  0.00     0.094 A 
ATOM     29  Cl  UNL A   1      38.715  22.583  26.206  1.00  0.00    -0.072 Cl
ENDBRANCH  10  24
ENDBRANCH   4   7
ENDBRANCH   2   3
ENDBRANCH   1   2
BRANCH   1  30
ATOM     30  C   UNL A   1      33.348  29.565  26.333  1.00  0.00     0.023 C 
BRANCH  30  31
ATOM     31  C   UNL A   1      34.625  30.008  27.046  1.00  0.00     0.116 C 
BRANCH  31  32
ATOM     32  N   UNL A   1      34.483  31.283  27.749  1.00  0.00    -0.352 N 
ATOM     33  C   UNL A   1      35.071  31.668  28.941  1.00  0.00     0.251 C 
ATOM     34  H   UNL A   1      33.897  31.950  27.323  1.00  0.00     0.163 HD
ATOM     35  O   UNL A   1      34.592  32.559  29.630  1.00  0.00    -0.269 OA
BRANCH  33  36
ATOM     36  C   UNL A   1      36.310  30.994  29.360  1.00  0.00     0.039 A 
ATOM     37  C   UNL A   1      36.316  29.667  29.798  1.00  0.00     0.014 A 
ATOM     38  C   UNL A   1      37.492  31.724  29.268  1.00  0.00     0.014 A 
ATOM     39  C   UNL A   1      37.538  29.052  30.057  1.00  0.00     0.010 A 
ATOM     40  C   UNL A   1      38.696  31.079  29.381  1.00  0.00     0.010 A 
ATOM     41  C   UNL A   1      38.728  29.760  29.825  1.00  0.00    -0.014 A 
BRANCH  41  42
ATOM     42  C   UNL A   1      40.027  29.104  29.925  1.00  0.00     0.031 A 
ATOM     43  C   UNL A   1      40.551  28.970  31.314  1.00  0.00     0.074 A 
ATOM     44  C   UNL A   1      40.579  28.446  28.881  1.00  0.00     0.049 A 
ATOM     45  N   UNL A   1      41.631  29.479  31.809  1.00  0.00    -0.248 NA
ATOM     46  C   UNL A   1      39.713  28.281  32.311  1.00  0.00     0.031 C 
ATOM     47  C   UNL A   1      39.999  28.224  27.550  1.00  0.00     0.029 A 
ATOM     48  N   UNL A   1      41.734  27.729  28.824  1.00  0.00    -0.354 N 
ATOM     49  C   UNL A   1      41.711  29.019  33.123  1.00  0.00     0.074 A 
ATOM     50  C   UNL A   1      40.427  28.444  33.426  1.00  0.00     0.031 C 
ATOM     51  C   UNL A   1      40.678  27.243  26.915  1.00  0.00     0.029 A 
ATOM     52  C   UNL A   1      41.840  26.900  27.712  1.00  0.00     0.049 A 
ATOM     53  H   UNL A   1      42.437  27.790  29.511  1.00  0.00     0.167 HD
ATOM     54  C   UNL A   1      42.912  28.925  33.759  1.00  0.00     0.037 A 
ATOM     55  C   UNL A   1      42.802  25.977  27.470  1.00  0.00     0.037 A 
ATOM     56  C   UNL A   1      43.915  29.691  33.064  1.00  0.00     0.049 A 
ATOM     57  C   UNL A   1      43.956  26.310  28.336  1.00  0.00     0.074 A 
ATOM     58  C   UNL A   1      44.104  31.025  32.770  1.00  0.00     0.029 A 
ATOM     59  N   UNL A   1      44.748  28.995  32.225  1.00  0.00    -0.354 N 
ATOM     60  N   UNL A   1      44.683  27.382  28.196  1.00  0.00    -0.248 NA
ATOM     61  C   UNL A   1      44.040  25.663  29.635  1.00  0.00     0.031 C 
ATOM     62  C   UNL A   1      44.705  31.040  31.475  1.00  0.00     0.029 A 
ATOM     63  C   UNL A   1      44.912  29.718  31.076  1.00  0.00     0.049 A 
ATOM     64  H   UNL A   1      45.161  28.122  32.419  1.00  0.00     0.167 HD
ATOM     65  C   UNL A   1      44.957  27.791  29.492  1.00  0.00     0.074 A 
ATOM     66  C   UNL A   1      44.648  26.631  30.326  1.00  0.00     0.031 C 
ATOM     67  C   UNL A   1      45.125  29.114  29.780  1.00  0.00     0.037 A 
BRANCH  54  68
ATOM     68  C   UNL A   1      43.296  27.831  34.738  1.00  0.00     0.064 A 
ATOM     69  C   UNL A   1      43.662  28.195  36.053  1.00  0.00     0.173 A 
ATOM     70  C   UNL A   1      43.630  26.511  34.367  1.00  0.00     0.173 A 
ATOM     71  F   UNL A   1      43.403  29.426  36.521  1.00  0.00    -0.203 F 
ATOM     72  C   UNL A   1      44.395  27.341  36.884  1.00  0.00     0.198 A 
ATOM     73  C   UNL A   1      44.315  25.644  35.218  1.00  0.00     0.198 A 
ATOM     74  F   UNL A   1      43.416  26.037  33.135  1.00  0.00    -0.203 F 
ATOM     75  F   UNL A   1      44.841  27.786  38.067  1.00  0.00    -0.200 F 
ATOM     76  C   UNL A   1      44.730  26.070  36.460  1.00  0.00     0.200 A 
ATOM     77  F   UNL A   1      44.645  24.420  34.781  1.00  0.00    -0.200 F 
ATOM     78  F   UNL A   1      45.492  25.275  37.224  1.00  0.00    -0.200 F 
ENDBRANCH  54  68
BRANCH  55  79
ATOM     79  C   UNL A   1      42.688  24.684  26.757  1.00  0.00     0.064 A 
ATOM     80  C   UNL A   1      43.318  24.475  25.520  1.00  0.00     0.173 A 
ATOM     81  C   UNL A   1      42.193  23.539  27.411  1.00  0.00     0.173 A 
ATOM     82  F   UNL A   1      43.856  25.508  24.855  1.00  0.00    -0.203 F 
ATOM     83  C   UNL A   1      43.465  23.193  24.980  1.00  0.00     0.198 A 
ATOM     84  C   UNL A   1      42.337  22.261  26.869  1.00  0.00     0.198 A 
ATOM     85  F   UNL A   1      41.646  23.630  28.632  1.00  0.00    -0.203 F 
ATOM     86  F   UNL A   1      44.127  23.025  23.825  1.00  0.00    -0.200 F 
ATOM     87  C   UNL A   1      42.985  22.086  25.660  1.00  0.00     0.200 A 
ATOM     88  F   UNL A   1      41.903  21.195  27.556  1.00  0.00    -0.200 F 
ATOM     89  F   UNL A   1      43.182  20.852  25.174  1.00  0.00    -0.200 F 
ENDBRANCH  55  79
BRANCH  67  90
ATOM     90  C   UNL A   1      45.343  30.053  28.625  1.00  0.00     0.064 A 
ATOM     91  C   UNL A   1      44.314  30.672  27.894  1.00  0.00     0.173 A 
ATOM     92  C   UNL A   1      46.658  30.437  28.331  1.00  0.00     0.173 A 
ATOM     93  F   UNL A   1      43.027  30.434  28.174  1.00  0.00    -0.203 F 
ATOM     94  C   UNL A   1      44.594  31.599  26.891  1.00  0.00     0.198 A 
ATOM     95  C   UNL A   1      46.935  31.390  27.356  1.00  0.00     0.198 A 
ATOM     96  F   UNL A   1      47.680  29.917  29.030  1.00  0.00    -0.203 F 
ATOM     97  F   UNL A   1      43.594  32.165  26.198  1.00  0.00    -0.200 F 
ATOM     98  C   UNL A   1      45.904  31.963  26.628  1.00  0.00     0.200 A 
ATOM     99  F   UNL A   1      48.200  31.773  27.141  1.00  0.00    -0.200 F 
ATOM    100  F   UNL A   1      46.173  32.883  25.692  1.00  0.00    -0.200 F 
ENDBRANCH  67  90
ENDBRANCH  41  42
ENDBRANCH  33  36
ENDBRANCH  31  32
ENDBRANCH  30  31
ENDBRANCH   1  30
TORSDOF 15
ENDMDL
