MODEL 1
REMARK VINA RESULT:     -14.1      0.000      0.000
REMARK SMILES Cc1cc(C[N@H+]2CC[C@@H](C(=O)NCCCCNC(=O)c3ccc(-c4c5nc(c(-c6c(F)c(F)c(F)c(F)c6F)c6ccc([nH]6)c(-c6c(F)c(F)c(F)c(F)c6F)c6nc(c(-c7c(F)c(F)c(F)c(F)c7F)c7ccc4[nH]7)C=C6)C=C5)cc3)[C@@H]2C)ccc1Br
REMARK SMILES IDX 14 1 13 2 12 3 10 4 11 5 9 7 6 8 7 9 83 10 8 12 84 13 5 14
REMARK SMILES IDX 4 15 1 16 2 17 3 18 87 19 86 20 88 21 85 22 15 23 16 24
REMARK SMILES IDX 17 25 18 26 19 28 20 29 21 30 82 31 22 32 81 33 23 34 24 35
REMARK SMILES IDX 25 36 75 37 26 38 80 39 74 40 76 41 27 42 79 43 73 44 72 45
REMARK SMILES IDX 28 47 60 48 40 49 59 50 41 51 44 52 58 53 77 54 42 55 43 56
REMARK SMILES IDX 57 58 78 59 45 60 29 61 30 62 38 63 31 64 32 65 36 66 39 67
REMARK SMILES IDX 33 68 34 69 37 70 35 71 61 72 62 73 70 74 63 75 64 76 68 77
REMARK SMILES IDX 71 78 65 79 66 80 69 81 67 82 46 83 47 84 55 85 48 86 49 87
REMARK SMILES IDX 53 88 56 89 50 90 51 91 54 92 52 93
REMARK H PARENT 12 6 6 11 17 27 76 46 44 57
REMARK Flexibility Score: inf
ROOT
ATOM      1  C   UNL A   1      32.442  30.176  26.946  1.00  0.00     0.023 C 
ENDROOT
BRANCH   1   2
ATOM      2  C   UNL A   1      33.706  28.769  25.839  1.00  0.00     0.116 C 
BRANCH   2   3
ATOM      3  N   UNL A   1      34.196  28.732  24.309  1.00  0.00    -0.356 N 
ATOM      4  C   UNL A   1      33.670  28.350  23.119  1.00  0.00     0.229 C 
ATOM      5  O   UNL A   1      34.400  28.521  22.134  1.00  0.00    -0.275 OA
ATOM      6  H   UNL A   1      35.114  29.075  24.211  1.00  0.00     0.163 HD
BRANCH   4   7
ATOM      7  C   UNL A   1      32.296  27.719  22.913  1.00  0.00     0.142 C 
ATOM      8  N   UNL A   1      31.160  26.280  24.480  1.00  0.00    -0.328 N 
ATOM      9  C   UNL A   1      30.403  27.532  24.422  1.00  0.00     0.263 C 
ATOM     10  C   UNL A   1      32.164  26.282  23.409  1.00  0.00     0.193 C 
ATOM     11  H   UNL A   1      30.508  25.512  24.319  1.00  0.00     0.348 HD
ATOM     12  C   UNL A   1      31.129  28.494  23.493  1.00  0.00     0.081 C 
ATOM     13  C   UNL A   1      31.688  25.323  22.315  1.00  0.00     0.076 C 
BRANCH   8  14
ATOM     14  C   UNL A   1      31.699  25.951  25.799  1.00  0.00     0.299 C 
BRANCH  14  15
ATOM     15  C   UNL A   1      32.626  24.770  25.804  1.00  0.00     0.007 A 
ATOM     16  C   UNL A   1      37.012  23.859  25.564  1.00  0.00     0.045 C 
ATOM     17  C   UNL A   1      35.533  23.629  25.588  1.00  0.00    -0.036 A 
ATOM     18  C   UNL A   1      34.416  25.034  25.760  1.00  0.00     0.014 A 
ATOM     19  C   UNL A   1      34.870  21.958  25.484  1.00  0.00     0.020 A 
ATOM     20  C   UNL A   1      33.099  21.677  25.548  1.00  0.00     0.016 A 
ATOM     21  Br  UNL A   1      35.994  20.511  25.000  1.00  0.00    -0.051 Br
ATOM     22  C   UNL A   1      31.968  23.078  25.756  1.00  0.00     0.011 A 
ENDBRANCH  14  15
ENDBRANCH   8  14
ENDBRANCH   4   7
ENDBRANCH   2   3
ENDBRANCH   1   2
BRANCH   1  23
ATOM     23  C   UNL A   1      32.044  31.851  26.872  1.00  0.00     0.023 C 
BRANCH  23  24
ATOM     24  C   UNL A   1      33.005  32.804  27.570  1.00  0.00     0.116 C 
BRANCH  24  25
ATOM     25  N   UNL A   1      32.490  34.149  27.776  1.00  0.00    -0.352 N 
ATOM     26  C   UNL A   1      32.998  35.097  28.633  1.00  0.00     0.251 C 
ATOM     27  H   UNL A   1      31.699  34.407  27.250  1.00  0.00     0.163 HD
ATOM     28  O   UNL A   1      32.483  36.198  28.770  1.00  0.00    -0.269 OA
BRANCH  26  29
ATOM     29  C   UNL A   1      34.148  34.692  29.455  1.00  0.00     0.039 A 
ATOM     30  C   UNL A   1      33.895  34.138  30.708  1.00  0.00     0.014 A 
ATOM     31  C   UNL A   1      35.426  34.670  28.896  1.00  0.00     0.014 A 
ATOM     32  C   UNL A   1      34.928  33.498  31.384  1.00  0.00     0.010 A 
ATOM     33  C   UNL A   1      36.428  33.942  29.525  1.00  0.00     0.010 A 
ATOM     34  C   UNL A   1      36.190  33.360  30.780  1.00  0.00    -0.014 A 
BRANCH  34  35
ATOM     35  C   UNL A   1      37.276  32.641  31.487  1.00  0.00     0.031 A 
ATOM     36  C   UNL A   1      37.953  31.482  30.813  1.00  0.00     0.074 A 
ATOM     37  C   UNL A   1      37.643  33.028  32.725  1.00  0.00     0.049 A 
ATOM     38  N   UNL A   1      38.950  30.748  31.236  1.00  0.00    -0.248 NA
ATOM     39  C   UNL A   1      37.426  31.074  29.501  1.00  0.00     0.031 C 
ATOM     40  C   UNL A   1      37.010  34.096  33.503  1.00  0.00     0.029 A 
ATOM     41  N   UNL A   1      38.641  32.571  33.548  1.00  0.00    -0.354 N 
ATOM     42  C   UNL A   1      39.155  29.792  30.251  1.00  0.00     0.074 A 
ATOM     43  C   UNL A   1      38.145  29.994  29.239  1.00  0.00     0.031 C 
ATOM     44  C   UNL A   1      37.655  34.232  34.673  1.00  0.00     0.029 A 
ATOM     45  C   UNL A   1      38.729  33.247  34.741  1.00  0.00     0.049 A 
ATOM     46  H   UNL A   1      39.242  31.829  33.305  1.00  0.00     0.167 HD
ATOM     47  C   UNL A   1      40.122  28.849  30.184  1.00  0.00     0.037 A 
ATOM     48  C   UNL A   1      39.584  33.087  35.770  1.00  0.00     0.037 A 
ATOM     49  C   UNL A   1      41.149  28.686  31.174  1.00  0.00     0.049 A 
ATOM     50  C   UNL A   1      40.669  32.046  35.652  1.00  0.00     0.074 A 
ATOM     51  C   UNL A   1      42.228  27.820  31.161  1.00  0.00     0.029 A 
ATOM     52  N   UNL A   1      41.222  29.405  32.359  1.00  0.00    -0.354 N 
ATOM     53  N   UNL A   1      40.920  31.219  34.666  1.00  0.00    -0.248 NA
ATOM     54  C   UNL A   1      41.600  31.925  36.784  1.00  0.00     0.031 C 
ATOM     55  C   UNL A   1      42.922  27.976  32.365  1.00  0.00     0.029 A 
ATOM     56  C   UNL A   1      42.310  28.980  33.100  1.00  0.00     0.049 A 
ATOM     57  H   UNL A   1      40.592  30.112  32.630  1.00  0.00     0.167 HD
ATOM     58  C   UNL A   1      42.046  30.502  35.043  1.00  0.00     0.074 A 
ATOM     59  C   UNL A   1      42.447  31.008  36.340  1.00  0.00     0.031 C 
ATOM     60  C   UNL A   1      42.692  29.510  34.383  1.00  0.00     0.037 A 
BRANCH  47  61
ATOM     61  C   UNL A   1      40.118  27.925  29.003  1.00  0.00     0.064 A 
ATOM     62  C   UNL A   1      40.796  28.240  27.815  1.00  0.00     0.173 A 
ATOM     63  C   UNL A   1      39.471  26.683  29.080  1.00  0.00     0.173 A 
ATOM     64  F   UNL A   1      41.417  29.422  27.684  1.00  0.00    -0.203 F 
ATOM     65  C   UNL A   1      40.809  27.353  26.741  1.00  0.00     0.198 A 
ATOM     66  C   UNL A   1      39.512  25.787  28.015  1.00  0.00     0.198 A 
ATOM     67  F   UNL A   1      38.807  26.335  30.192  1.00  0.00    -0.203 F 
ATOM     68  F   UNL A   1      41.428  27.693  25.602  1.00  0.00    -0.200 F 
ATOM     69  C   UNL A   1      40.176  26.124  26.847  1.00  0.00     0.200 A 
ATOM     70  F   UNL A   1      38.909  24.594  28.123  1.00  0.00    -0.200 F 
ATOM     71  F   UNL A   1      40.204  25.265  25.818  1.00  0.00    -0.200 F 
ENDBRANCH  47  61
BRANCH  48  72
ATOM     72  C   UNL A   1      39.466  33.928  36.992  1.00  0.00     0.064 A 
ATOM     73  C   UNL A   1      38.755  33.485  38.118  1.00  0.00     0.173 A 
ATOM     74  C   UNL A   1      40.030  35.212  37.047  1.00  0.00     0.173 A 
ATOM     75  F   UNL A   1      38.182  32.272  38.113  1.00  0.00    -0.203 F 
ATOM     76  C   UNL A   1      38.579  34.307  39.231  1.00  0.00     0.198 A 
ATOM     77  C   UNL A   1      39.882  36.019  38.174  1.00  0.00     0.198 A 
ATOM     78  F   UNL A   1      40.726  35.684  36.003  1.00  0.00    -0.203 F 
ATOM     79  F   UNL A   1      37.838  33.881  40.264  1.00  0.00    -0.200 F 
ATOM     80  C   UNL A   1      39.145  35.571  39.259  1.00  0.00     0.200 A 
ATOM     81  F   UNL A   1      40.445  37.235  38.202  1.00  0.00    -0.200 F 
ATOM     82  F   UNL A   1      38.971  36.363  40.326  1.00  0.00    -0.200 F 
ENDBRANCH  48  72
BRANCH  60  83
ATOM     83  C   UNL A   1      43.915  28.931  35.033  1.00  0.00     0.064 A 
ATOM     84  C   UNL A   1      45.188  29.482  34.825  1.00  0.00     0.173 A 
ATOM     85  C   UNL A   1      43.803  27.845  35.915  1.00  0.00     0.173 A 
ATOM     86  F   UNL A   1      45.349  30.513  33.982  1.00  0.00    -0.203 F 
ATOM     87  C   UNL A   1      46.309  28.947  35.454  1.00  0.00     0.198 A 
ATOM     88  C   UNL A   1      44.920  27.336  36.568  1.00  0.00     0.198 A 
ATOM     89  F   UNL A   1      42.605  27.290  36.155  1.00  0.00    -0.203 F 
ATOM     90  F   UNL A   1      47.522  29.456  35.201  1.00  0.00    -0.200 F 
ATOM     91  C   UNL A   1      46.173  27.881  36.332  1.00  0.00     0.200 A 
ATOM     92  F   UNL A   1      44.783  26.319  37.430  1.00  0.00    -0.200 F 
ATOM     93  F   UNL A   1      47.252  27.375  36.944  1.00  0.00    -0.200 F 
ENDBRANCH  60  83
ENDBRANCH  34  35
ENDBRANCH  26  29
ENDBRANCH  24  25
ENDBRANCH  23  24
ENDBRANCH   1  23
TORSDOF 13
ENDMDL
MODEL 2
REMARK VINA RESULT:     -14.1      0.816      7.459
REMARK SMILES Cc1cc(C[N@H+]2CC[C@@H](C(=O)NCCCCNC(=O)c3ccc(-c4c5nc(c(-c6c(F)c(F)c(F)c(F)c6F)c6ccc([nH]6)c(-c6c(F)c(F)c(F)c(F)c6F)c6nc(c(-c7c(F)c(F)c(F)c(F)c7F)c7ccc4[nH]7)C=C6)C=C5)cc3)[C@@H]2C)ccc1Br
REMARK SMILES IDX 14 1 13 2 12 3 10 4 11 5 9 7 6 8 7 9 83 10 8 12 84 13 5 14
REMARK SMILES IDX 4 15 1 16 2 17 3 18 87 19 86 20 88 21 85 22 15 23 16 24
REMARK SMILES IDX 17 25 18 26 19 28 20 29 21 30 82 31 22 32 81 33 23 34 24 35
REMARK SMILES IDX 25 36 75 37 26 38 80 39 74 40 76 41 27 42 79 43 73 44 72 45
REMARK SMILES IDX 28 47 60 48 40 49 59 50 41 51 44 52 58 53 77 54 42 55 43 56
REMARK SMILES IDX 57 58 78 59 45 60 29 61 30 62 38 63 31 64 32 65 36 66 39 67
REMARK SMILES IDX 33 68 34 69 37 70 35 71 61 72 62 73 70 74 63 75 64 76 68 77
REMARK SMILES IDX 71 78 65 79 66 80 69 81 67 82 46 83 47 84 55 85 48 86 49 87
REMARK SMILES IDX 53 88 56 89 50 90 51 91 54 92 52 93
REMARK H PARENT 12 6 6 11 17 27 76 46 44 57
REMARK Flexibility Score: inf
ROOT
ATOM      1  C   UNL A   1      32.380  30.079  26.926  1.00  0.00     0.023 C 
ENDROOT
BRANCH   1   2
ATOM      2  C   UNL A   1      33.777  28.767  25.863  1.00  0.00     0.116 C 
BRANCH   2   3
ATOM      3  N   UNL A   1      34.325  28.772  24.353  1.00  0.00    -0.356 N 
ATOM      4  C   UNL A   1      33.808  28.535  23.121  1.00  0.00     0.229 C 
ATOM      5  O   UNL A   1      34.595  28.681  22.176  1.00  0.00    -0.275 OA
ATOM      6  H   UNL A   1      35.280  29.008  24.310  1.00  0.00     0.163 HD
BRANCH   4   7
ATOM      7  C   UNL A   1      32.380  28.088  22.824  1.00  0.00     0.142 C 
ATOM      8  N   UNL A   1      31.105  26.502  24.118  1.00  0.00    -0.328 N 
ATOM      9  C   UNL A   1      30.474  27.810  24.301  1.00  0.00     0.263 C 
ATOM     10  C   UNL A   1      32.107  26.603  23.050  1.00  0.00     0.193 C 
ATOM     11  H   UNL A   1      30.381  25.843  23.829  1.00  0.00     0.348 HD
ATOM     12  C   UNL A   1      31.293  28.851  23.554  1.00  0.00     0.081 C 
ATOM     13  C   UNL A   1      31.542  25.913  21.806  1.00  0.00     0.076 C 
BRANCH   8  14
ATOM     14  C   UNL A   1      31.606  25.885  25.345  1.00  0.00     0.299 C 
BRANCH  14  15
ATOM     15  C   UNL A   1      32.633  24.815  25.118  1.00  0.00     0.007 A 
ATOM     16  C   UNL A   1      32.864  20.446  24.126  1.00  0.00     0.045 C 
ATOM     17  C   UNL A   1      33.311  21.814  24.535  1.00  0.00    -0.036 A 
ATOM     18  C   UNL A   1      32.105  23.152  24.638  1.00  0.00     0.014 A 
ATOM     19  C   UNL A   1      35.047  22.139  24.885  1.00  0.00     0.020 A 
ATOM     20  C   UNL A   1      35.592  23.787  25.340  1.00  0.00     0.016 A 
ATOM     21  Br  UNL A   1      36.269  20.703  25.079  1.00  0.00    -0.051 Br
ATOM     22  C   UNL A   1      34.394  25.146  25.413  1.00  0.00     0.011 A 
ENDBRANCH  14  15
ENDBRANCH   8  14
ENDBRANCH   4   7
ENDBRANCH   2   3
ENDBRANCH   1   2
BRANCH   1  23
ATOM     23  C   UNL A   1      31.921  31.739  26.887  1.00  0.00     0.023 C 
BRANCH  23  24
ATOM     24  C   UNL A   1      32.946  32.735  27.412  1.00  0.00     0.116 C 
BRANCH  24  25
ATOM     25  N   UNL A   1      32.414  34.054  27.724  1.00  0.00    -0.352 N 
ATOM     26  C   UNL A   1      32.952  34.966  28.600  1.00  0.00     0.251 C 
ATOM     27  H   UNL A   1      31.587  34.318  27.260  1.00  0.00     0.163 HD
ATOM     28  O   UNL A   1      32.421  36.044  28.829  1.00  0.00    -0.269 OA
BRANCH  26  29
ATOM     29  C   UNL A   1      34.159  34.547  29.328  1.00  0.00     0.039 A 
ATOM     30  C   UNL A   1      33.995  33.803  30.495  1.00  0.00     0.014 A 
ATOM     31  C   UNL A   1      35.414  34.711  28.741  1.00  0.00     0.014 A 
ATOM     32  C   UNL A   1      35.099  33.163  31.047  1.00  0.00     0.010 A 
ATOM     33  C   UNL A   1      36.492  33.988  29.235  1.00  0.00     0.010 A 
ATOM     34  C   UNL A   1      36.346  33.217  30.400  1.00  0.00    -0.014 A 
BRANCH  34  35
ATOM     35  C   UNL A   1      37.510  32.500  30.970  1.00  0.00     0.031 A 
ATOM     36  C   UNL A   1      37.995  32.857  32.345  1.00  0.00     0.074 A 
ATOM     37  C   UNL A   1      38.126  31.540  30.250  1.00  0.00     0.049 A 
ATOM     38  N   UNL A   1      38.964  32.325  33.044  1.00  0.00    -0.248 NA
ATOM     39  C   UNL A   1      37.319  33.978  33.020  1.00  0.00     0.031 C 
ATOM     40  C   UNL A   1      37.784  31.158  28.878  1.00  0.00     0.029 A 
ATOM     41  N   UNL A   1      39.166  30.706  30.574  1.00  0.00    -0.354 N 
ATOM     42  C   UNL A   1      39.019  33.054  34.224  1.00  0.00     0.074 A 
ATOM     43  C   UNL A   1      38.032  34.103  34.128  1.00  0.00     0.031 C 
ATOM     44  C   UNL A   1      38.578  30.145  28.491  1.00  0.00     0.029 A 
ATOM     45  C   UNL A   1      39.500  29.823  29.574  1.00  0.00     0.049 A 
ATOM     46  H   UNL A   1      39.630  30.736  31.442  1.00  0.00     0.167 HD
ATOM     47  C   UNL A   1      39.803  32.843  35.306  1.00  0.00     0.037 A 
ATOM     48  C   UNL A   1      40.444  28.862  29.544  1.00  0.00     0.037 A 
ATOM     49  C   UNL A   1      40.750  31.768  35.410  1.00  0.00     0.049 A 
ATOM     50  C   UNL A   1      41.283  28.634  30.776  1.00  0.00     0.074 A 
ATOM     51  C   UNL A   1      41.532  31.412  36.493  1.00  0.00     0.029 A 
ATOM     52  N   UNL A   1      41.044  30.877  34.387  1.00  0.00    -0.354 N 
ATOM     53  N   UNL A   1      41.251  29.261  31.928  1.00  0.00    -0.248 NA
ATOM     54  C   UNL A   1      42.280  27.556  30.711  1.00  0.00     0.031 C 
ATOM     55  C   UNL A   1      42.342  30.339  36.107  1.00  0.00     0.029 A 
ATOM     56  C   UNL A   1      42.021  29.990  34.804  1.00  0.00     0.049 A 
ATOM     57  H   UNL A   1      40.621  30.877  33.498  1.00  0.00     0.167 HD
ATOM     58  C   UNL A   1      42.198  28.638  32.729  1.00  0.00     0.074 A 
ATOM     59  C   UNL A   1      42.772  27.568  31.941  1.00  0.00     0.031 C 
ATOM     60  C   UNL A   1      42.566  28.926  34.002  1.00  0.00     0.037 A 
BRANCH  47  61
ATOM     61  C   UNL A   1      39.669  33.788  36.462  1.00  0.00     0.064 A 
ATOM     62  C   UNL A   1      38.863  33.491  37.572  1.00  0.00     0.173 A 
ATOM     63  C   UNL A   1      40.400  34.985  36.484  1.00  0.00     0.173 A 
ATOM     64  F   UNL A   1      38.131  32.366  37.593  1.00  0.00    -0.203 F 
ATOM     65  C   UNL A   1      38.779  34.366  38.651  1.00  0.00     0.198 A 
ATOM     66  C   UNL A   1      40.337  35.844  37.578  1.00  0.00     0.198 A 
ATOM     67  F   UNL A   1      41.183  35.318  35.448  1.00  0.00    -0.203 F 
ATOM     68  F   UNL A   1      37.970  34.081  39.682  1.00  0.00    -0.200 F 
ATOM     69  C   UNL A   1      39.524  35.535  38.658  1.00  0.00     0.200 A 
ATOM     70  F   UNL A   1      41.065  36.969  37.588  1.00  0.00    -0.200 F 
ATOM     71  F   UNL A   1      39.454  36.369  39.705  1.00  0.00    -0.200 F 
ENDBRANCH  47  61
BRANCH  48  72
ATOM     72  C   UNL A   1      40.647  28.037  28.322  1.00  0.00     0.064 A 
ATOM     73  C   UNL A   1      40.049  26.775  28.186  1.00  0.00     0.173 A 
ATOM     74  C   UNL A   1      41.475  28.477  27.277  1.00  0.00     0.173 A 
ATOM     75  F   UNL A   1      39.262  26.298  29.162  1.00  0.00    -0.203 F 
ATOM     76  C   UNL A   1      40.304  25.970  27.076  1.00  0.00     0.198 A 
ATOM     77  C   UNL A   1      41.701  27.686  26.152  1.00  0.00     0.198 A 
ATOM     78  F   UNL A   1      42.065  29.679  27.351  1.00  0.00    -0.203 F 
ATOM     79  F   UNL A   1      39.772  24.742  27.005  1.00  0.00    -0.200 F 
ATOM     80  C   UNL A   1      41.127  26.428  26.058  1.00  0.00     0.200 A 
ATOM     81  F   UNL A   1      42.484  28.140  25.165  1.00  0.00    -0.200 F 
ATOM     82  F   UNL A   1      41.376  25.653  24.995  1.00  0.00    -0.200 F 
ENDBRANCH  48  72
BRANCH  60  83
ATOM     83  C   UNL A   1      43.613  28.053  34.631  1.00  0.00     0.064 A 
ATOM     84  C   UNL A   1      44.969  28.407  34.619  1.00  0.00     0.173 A 
ATOM     85  C   UNL A   1      43.245  26.874  35.297  1.00  0.00     0.173 A 
ATOM     86  F   UNL A   1      45.373  29.519  33.985  1.00  0.00    -0.203 F 
ATOM     87  C   UNL A   1      45.924  27.598  35.228  1.00  0.00     0.198 A 
ATOM     88  C   UNL A   1      44.197  26.086  35.934  1.00  0.00     0.198 A 
ATOM     89  F   UNL A   1      41.958  26.498  35.346  1.00  0.00    -0.203 F 
ATOM     90  F   UNL A   1      47.220  27.928  35.160  1.00  0.00    -0.200 F 
ATOM     91  C   UNL A   1      45.537  26.442  35.892  1.00  0.00     0.200 A 
ATOM     92  F   UNL A   1      43.818  24.981  36.591  1.00  0.00    -0.200 F 
ATOM     93  F   UNL A   1      46.456  25.670  36.486  1.00  0.00    -0.200 F 
ENDBRANCH  60  83
ENDBRANCH  34  35
ENDBRANCH  26  29
ENDBRANCH  24  25
ENDBRANCH  23  24
ENDBRANCH   1  23
TORSDOF 13
ENDMDL
MODEL 3
REMARK VINA RESULT:     -14.1      1.103      7.568
REMARK SMILES Cc1cc(C[N@H+]2CC[C@@H](C(=O)NCCCCNC(=O)c3ccc(-c4c5nc(c(-c6c(F)c(F)c(F)c(F)c6F)c6ccc([nH]6)c(-c6c(F)c(F)c(F)c(F)c6F)c6nc(c(-c7c(F)c(F)c(F)c(F)c7F)c7ccc4[nH]7)C=C6)C=C5)cc3)[C@@H]2C)ccc1Br
REMARK SMILES IDX 14 1 13 2 12 3 10 4 11 5 9 7 6 8 7 9 83 10 8 12 84 13 5 14
REMARK SMILES IDX 4 15 1 16 2 17 3 18 87 19 86 20 88 21 85 22 15 23 16 24
REMARK SMILES IDX 17 25 18 26 19 28 20 29 21 30 82 31 22 32 81 33 23 34 24 35
REMARK SMILES IDX 25 36 75 37 26 38 80 39 74 40 76 41 27 42 79 43 73 44 72 45
REMARK SMILES IDX 28 47 60 48 40 49 59 50 41 51 44 52 58 53 77 54 42 55 43 56
REMARK SMILES IDX 57 58 78 59 45 60 29 61 30 62 38 63 31 64 32 65 36 66 39 67
REMARK SMILES IDX 33 68 34 69 37 70 35 71 61 72 62 73 70 74 63 75 64 76 68 77
REMARK SMILES IDX 71 78 65 79 66 80 69 81 67 82 46 83 47 84 55 85 48 86 49 87
REMARK SMILES IDX 53 88 56 89 50 90 51 91 54 92 52 93
REMARK H PARENT 12 6 6 11 17 27 76 46 44 57
REMARK Flexibility Score: inf
ROOT
ATOM      1  C   UNL A   1      32.313  30.152  26.733  1.00  0.00     0.023 C 
ENDROOT
BRANCH   1   2
ATOM      2  C   UNL A   1      33.667  28.971  25.478  1.00  0.00     0.116 C 
BRANCH   2   3
ATOM      3  N   UNL A   1      33.420  28.079  24.166  1.00  0.00    -0.356 N 
ATOM      4  C   UNL A   1      32.502  27.168  23.757  1.00  0.00     0.229 C 
ATOM      5  O   UNL A   1      32.667  26.721  22.614  1.00  0.00    -0.275 OA
ATOM      6  H   UNL A   1      34.112  28.234  23.482  1.00  0.00     0.163 HD
BRANCH   4   7
ATOM      7  C   UNL A   1      31.331  26.648  24.586  1.00  0.00     0.142 C 
ATOM      8  N   UNL A   1      30.344  24.455  24.403  1.00  0.00    -0.328 N 
ATOM      9  C   UNL A   1      31.014  24.516  25.704  1.00  0.00     0.263 C 
ATOM     10  C   UNL A   1      30.321  25.801  23.817  1.00  0.00     0.193 C 
ATOM     11  H   UNL A   1      29.384  24.147  24.560  1.00  0.00     0.348 HD
ATOM     12  C   UNL A   1      31.709  25.863  25.827  1.00  0.00     0.081 C 
ATOM     13  C   UNL A   1      28.893  26.340  23.931  1.00  0.00     0.076 C 
BRANCH   8  14
ATOM     14  C   UNL A   1      30.851  23.423  23.501  1.00  0.00     0.299 C 
BRANCH  14  15
ATOM     15  C   UNL A   1      32.128  22.781  23.960  1.00  0.00     0.007 A 
ATOM     16  C   UNL A   1      36.561  23.206  23.420  1.00  0.00     0.045 C 
ATOM     17  C   UNL A   1      35.252  22.615  23.842  1.00  0.00    -0.036 A 
ATOM     18  C   UNL A   1      33.717  23.476  23.445  1.00  0.00     0.014 A 
ATOM     19  C   UNL A   1      35.206  21.075  24.772  1.00  0.00     0.020 A 
ATOM     20  C   UNL A   1      33.640  20.382  25.309  1.00  0.00     0.016 A 
ATOM     21  Br  UNL A   1      36.763  20.006  24.933  1.00  0.00    -0.051 Br
ATOM     22  C   UNL A   1      32.094  21.257  24.947  1.00  0.00     0.011 A 
ENDBRANCH  14  15
ENDBRANCH   8  14
ENDBRANCH   4   7
ENDBRANCH   2   3
ENDBRANCH   1   2
BRANCH   1  23
ATOM     23  C   UNL A   1      31.832  31.800  26.876  1.00  0.00     0.023 C 
BRANCH  23  24
ATOM     24  C   UNL A   1      32.857  32.752  27.479  1.00  0.00     0.116 C 
BRANCH  24  25
ATOM     25  N   UNL A   1      32.360  34.093  27.751  1.00  0.00    -0.352 N 
ATOM     26  C   UNL A   1      32.932  35.023  28.586  1.00  0.00     0.251 C 
ATOM     27  H   UNL A   1      31.531  34.360  27.292  1.00  0.00     0.163 HD
ATOM     28  O   UNL A   1      32.430  36.121  28.784  1.00  0.00    -0.269 OA
BRANCH  26  29
ATOM     29  C   UNL A   1      34.141  34.602  29.310  1.00  0.00     0.039 A 
ATOM     30  C   UNL A   1      33.981  33.858  30.477  1.00  0.00     0.014 A 
ATOM     31  C   UNL A   1      35.394  34.764  28.719  1.00  0.00     0.014 A 
ATOM     32  C   UNL A   1      35.086  33.217  31.025  1.00  0.00     0.010 A 
ATOM     33  C   UNL A   1      36.473  34.039  29.209  1.00  0.00     0.010 A 
ATOM     34  C   UNL A   1      36.330  33.269  30.374  1.00  0.00    -0.014 A 
BRANCH  34  35
ATOM     35  C   UNL A   1      37.495  32.549  30.940  1.00  0.00     0.031 A 
ATOM     36  C   UNL A   1      37.991  32.913  32.310  1.00  0.00     0.074 A 
ATOM     37  C   UNL A   1      38.101  31.583  30.222  1.00  0.00     0.049 A 
ATOM     38  N   UNL A   1      38.964  32.380  33.005  1.00  0.00    -0.248 NA
ATOM     39  C   UNL A   1      37.326  34.041  32.982  1.00  0.00     0.031 C 
ATOM     40  C   UNL A   1      37.747  31.193  28.855  1.00  0.00     0.029 A 
ATOM     41  N   UNL A   1      39.140  30.746  30.543  1.00  0.00    -0.354 N 
ATOM     42  C   UNL A   1      39.030  33.116  34.180  1.00  0.00     0.074 A 
ATOM     43  C   UNL A   1      38.048  34.169  34.084  1.00  0.00     0.031 C 
ATOM     44  C   UNL A   1      38.533  30.174  28.468  1.00  0.00     0.029 A 
ATOM     45  C   UNL A   1      39.462  29.855  29.547  1.00  0.00     0.049 A 
ATOM     46  H   UNL A   1      39.611  30.779  31.408  1.00  0.00     0.167 HD
ATOM     47  C   UNL A   1      39.821  32.908  35.257  1.00  0.00     0.037 A 
ATOM     48  C   UNL A   1      40.402  28.889  29.515  1.00  0.00     0.037 A 
ATOM     49  C   UNL A   1      40.764  31.829  35.360  1.00  0.00     0.049 A 
ATOM     50  C   UNL A   1      41.249  28.665  30.743  1.00  0.00     0.074 A 
ATOM     51  C   UNL A   1      41.552  31.476  36.440  1.00  0.00     0.029 A 
ATOM     52  N   UNL A   1      41.046  30.931  34.341  1.00  0.00    -0.354 N 
ATOM     53  N   UNL A   1      41.227  29.299  31.891  1.00  0.00    -0.248 NA
ATOM     54  C   UNL A   1      42.240  27.581  30.676  1.00  0.00     0.031 C 
ATOM     55  C   UNL A   1      42.354  30.398  36.055  1.00  0.00     0.029 A 
ATOM     56  C   UNL A   1      42.022  30.042  34.757  1.00  0.00     0.049 A 
ATOM     57  H   UNL A   1      40.617  30.928  33.455  1.00  0.00     0.167 HD
ATOM     58  C   UNL A   1      42.177  28.677  32.689  1.00  0.00     0.074 A 
ATOM     59  C   UNL A   1      42.741  27.599  31.903  1.00  0.00     0.031 C 
ATOM     60  C   UNL A   1      42.557  28.971  33.957  1.00  0.00     0.037 A 
BRANCH  47  61
ATOM     61  C   UNL A   1      39.700  33.861  36.409  1.00  0.00     0.064 A 
ATOM     62  C   UNL A   1      38.904  33.572  37.528  1.00  0.00     0.173 A 
ATOM     63  C   UNL A   1      40.433  35.057  36.415  1.00  0.00     0.173 A 
ATOM     64  F   UNL A   1      38.171  32.449  37.564  1.00  0.00    -0.203 F 
ATOM     65  C   UNL A   1      38.832  34.455  38.602  1.00  0.00     0.198 A 
ATOM     66  C   UNL A   1      40.382  35.922  37.505  1.00  0.00     0.198 A 
ATOM     67  F   UNL A   1      41.207  35.382  35.369  1.00  0.00    -0.203 F 
ATOM     68  F   UNL A   1      38.033  34.177  39.642  1.00  0.00    -0.200 F 
ATOM     69  C   UNL A   1      39.579  35.623  38.594  1.00  0.00     0.200 A 
ATOM     70  F   UNL A   1      41.112  37.046  37.500  1.00  0.00    -0.200 F 
ATOM     71  F   UNL A   1      39.521  36.463  39.637  1.00  0.00    -0.200 F 
ENDBRANCH  47  61
BRANCH  48  72
ATOM     72  C   UNL A   1      40.591  28.056  28.297  1.00  0.00     0.064 A 
ATOM     73  C   UNL A   1      40.003  26.787  28.181  1.00  0.00     0.173 A 
ATOM     74  C   UNL A   1      41.398  28.493  27.235  1.00  0.00     0.173 A 
ATOM     75  F   UNL A   1      39.236  26.312  29.174  1.00  0.00    -0.203 F 
ATOM     76  C   UNL A   1      40.246  25.975  27.073  1.00  0.00     0.198 A 
ATOM     77  C   UNL A   1      41.613  27.696  26.113  1.00  0.00     0.198 A 
ATOM     78  F   UNL A   1      41.980  29.701  27.289  1.00  0.00    -0.203 F 
ATOM     79  F   UNL A   1      39.724  24.742  27.022  1.00  0.00    -0.200 F 
ATOM     80  C   UNL A   1      41.048  26.432  26.039  1.00  0.00     0.200 A 
ATOM     81  F   UNL A   1      42.377  28.148  25.109  1.00  0.00    -0.200 F 
ATOM     82  F   UNL A   1      41.287  25.650  24.978  1.00  0.00    -0.200 F 
ENDBRANCH  48  72
BRANCH  60  83
ATOM     83  C   UNL A   1      43.604  28.097  34.584  1.00  0.00     0.064 A 
ATOM     84  C   UNL A   1      43.272  26.886  35.210  1.00  0.00     0.173 A 
ATOM     85  C   UNL A   1      44.959  28.451  34.511  1.00  0.00     0.173 A 
ATOM     86  F   UNL A   1      41.988  26.509  35.315  1.00  0.00    -0.203 F 
ATOM     87  C   UNL A   1      44.258  26.076  35.765  1.00  0.00     0.198 A 
ATOM     88  C   UNL A   1      45.945  27.622  35.036  1.00  0.00     0.198 A 
ATOM     89  F   UNL A   1      45.329  29.594  33.912  1.00  0.00    -0.203 F 
ATOM     90  F   UNL A   1      43.914  24.950  36.404  1.00  0.00    -0.200 F 
ATOM     91  C   UNL A   1      45.594  26.440  35.671  1.00  0.00     0.200 A 
ATOM     92  F   UNL A   1      47.235  27.966  34.926  1.00  0.00    -0.200 F 
ATOM     93  F   UNL A   1      46.542  25.653  36.197  1.00  0.00    -0.200 F 
ENDBRANCH  60  83
ENDBRANCH  34  35
ENDBRANCH  26  29
ENDBRANCH  24  25
ENDBRANCH  23  24
ENDBRANCH   1  23
TORSDOF 13
ENDMDL
