MODEL 1
REMARK VINA RESULT:     -12.4      0.000      0.000
REMARK SMILES O=C(/C=C/c1ccc(C(=O)NC2CC2)cc1)NC1(C(=O)NCCCCNC(=O)c2ccc(-c3c4nc(c(-c5c(F)c(F)c(F)c(F)c5F)c5ccc([nH]5)c(-c5c(F)c(F)c(F)c(F)c5F)c5nc(c(-c6c(F)c(F)c(F)c(F)c6F)c6ccc3[nH]6)C=C5)C=C4)cc2)CCCC1
REMARK SMILES IDX 22 1 21 2 19 3 20 4 18 6 92 7 95 8 93 9 94 10 17 11 1 12
REMARK SMILES IDX 2 13 3 15 4 16 5 17 6 18 16 19 7 20 15 21 8 22 9 23 10 24
REMARK SMILES IDX 11 25 12 27 13 28 14 29 23 30 24 31 25 32 26 33 27 34 28 36
REMARK SMILES IDX 29 37 30 38 91 39 31 40 90 41 32 42 33 43 34 44 84 45 35 46
REMARK SMILES IDX 89 47 83 48 85 49 36 50 88 51 82 52 81 53 37 55 69 56 49 57
REMARK SMILES IDX 68 58 50 59 53 60 67 61 86 62 51 63 52 64 66 66 87 67 54 68
REMARK SMILES IDX 38 69 39 70 47 71 40 72 41 73 45 74 48 75 42 76 43 77 46 78
REMARK SMILES IDX 44 79 70 80 71 81 79 82 72 83 73 84 77 85 80 86 74 87 75 88
REMARK SMILES IDX 78 89 76 90 55 91 56 92 64 93 57 94 58 95 62 96 65 97 59 98
REMARK SMILES IDX 60 99 63 100 61 101
REMARK H PARENT 21 5 17 14 11 26 26 35 85 54 53 65
REMARK Flexibility Score: inf
ROOT
ATOM      1  C   UNL A   1      31.694  29.163  26.688  1.00  0.00     0.116 C 
ENDROOT
BRANCH   1   2
ATOM      2  N   UNL A   1      32.715  28.149  26.618  1.00  0.00    -0.354 N 
ATOM      3  C   UNL A   1      32.976  27.215  25.664  1.00  0.00     0.245 C 
ATOM      4  O   UNL A   1      34.087  26.671  25.764  1.00  0.00    -0.272 OA
ATOM      5  H   UNL A   1      33.326  28.128  27.390  1.00  0.00     0.163 HD
BRANCH   3   6
ATOM      6  C   UNL A   1      32.033  26.915  24.442  1.00  0.00     0.119 C 
ATOM      7  C   UNL A   1      32.503  27.665  23.181  1.00  0.00     0.038 C 
ATOM      8  C   UNL A   1      30.545  27.275  24.603  1.00  0.00     0.038 C 
ATOM      9  C   UNL A   1      31.463  28.720  22.838  1.00  0.00     0.003 C 
ATOM     10  C   UNL A   1      30.197  28.366  23.595  1.00  0.00     0.003 C 
BRANCH   6  11
ATOM     11  N   UNL A   1      32.201  25.464  24.203  1.00  0.00    -0.338 N 
ATOM     12  O   UNL A   1      30.868  24.763  25.938  1.00  0.00    -0.270 OA
ATOM     13  C   UNL A   1      31.646  24.517  25.022  1.00  0.00     0.244 C 
ATOM     14  H   UNL A   1      32.730  25.170  23.429  1.00  0.00     0.164 HD
BRANCH  13  15
ATOM     15  C   UNL A   1      31.980  23.103  24.723  1.00  0.00     0.072 C 
ATOM     16  C   UNL A   1      32.961  22.352  25.250  1.00  0.00     0.014 C 
BRANCH  16  17
ATOM     17  C   UNL A   1      33.251  20.997  24.758  1.00  0.00    -0.025 A 
ATOM     18  C   UNL A   1      32.281  20.261  24.075  1.00  0.00     0.009 A 
ATOM     19  C   UNL A   1      34.479  20.386  25.030  1.00  0.00     0.009 A 
ATOM     20  C   UNL A   1      32.544  18.942  23.674  1.00  0.00     0.014 A 
ATOM     21  C   UNL A   1      34.748  19.083  24.605  1.00  0.00     0.014 A 
ATOM     22  C   UNL A   1      33.778  18.328  23.949  1.00  0.00     0.039 A 
BRANCH  22  23
ATOM     23  C   UNL A   1      33.964  16.913  23.499  1.00  0.00     0.251 C 
ATOM     24  O   UNL A   1      34.377  16.702  22.357  1.00  0.00    -0.269 OA
ATOM     25  N   UNL A   1      33.675  15.816  24.285  1.00  0.00    -0.349 N 
ATOM     26  H   UNL A   1      33.843  14.950  23.849  1.00  0.00     0.164 HD
BRANCH  25  27
ATOM     27  C   UNL A   1      33.177  15.717  25.612  1.00  0.00     0.082 C 
ATOM     28  C   UNL A   1      31.700  15.640  25.896  1.00  0.00     0.027 C 
ATOM     29  C   UNL A   1      32.564  14.434  26.109  1.00  0.00     0.027 C 
ENDBRANCH  25  27
ENDBRANCH  22  23
ENDBRANCH  16  17
ENDBRANCH  13  15
ENDBRANCH   6  11
ENDBRANCH   3   6
ENDBRANCH   1   2
BRANCH   1  30
ATOM     30  C   UNL A   1      32.085  30.455  25.985  1.00  0.00     0.023 C 
BRANCH  30  31
ATOM     31  C   UNL A   1      31.694  31.727  26.733  1.00  0.00     0.023 C 
BRANCH  31  32
ATOM     32  C   UNL A   1      32.858  32.570  27.242  1.00  0.00     0.116 C 
BRANCH  32  33
ATOM     33  N   UNL A   1      32.491  33.936  27.588  1.00  0.00    -0.352 N 
ATOM     34  C   UNL A   1      33.052  34.761  28.538  1.00  0.00     0.251 C 
ATOM     35  H   UNL A   1      31.744  34.321  27.075  1.00  0.00     0.163 HD
ATOM     36  O   UNL A   1      32.588  35.865  28.766  1.00  0.00    -0.269 OA
BRANCH  34  37
ATOM     37  C   UNL A   1      34.206  34.258  29.313  1.00  0.00     0.039 A 
ATOM     38  C   UNL A   1      33.966  33.454  30.429  1.00  0.00     0.014 A 
ATOM     39  C   UNL A   1      35.509  34.515  28.883  1.00  0.00     0.014 A 
ATOM     40  C   UNL A   1      35.041  32.833  31.066  1.00  0.00     0.010 A 
ATOM     41  C   UNL A   1      36.569  33.834  29.471  1.00  0.00     0.010 A 
ATOM     42  C   UNL A   1      36.343  32.982  30.564  1.00  0.00    -0.014 A 
BRANCH  42  43
ATOM     43  C   UNL A   1      37.487  32.247  31.157  1.00  0.00     0.031 A 
ATOM     44  C   UNL A   1      37.985  32.614  32.526  1.00  0.00     0.074 A 
ATOM     45  C   UNL A   1      38.128  31.309  30.431  1.00  0.00     0.049 A 
ATOM     46  N   UNL A   1      39.021  32.153  33.181  1.00  0.00    -0.248 NA
ATOM     47  C   UNL A   1      37.241  33.664  33.239  1.00  0.00     0.031 C 
ATOM     48  C   UNL A   1      37.778  30.909  29.067  1.00  0.00     0.029 A 
ATOM     49  N   UNL A   1      39.217  30.533  30.735  1.00  0.00    -0.354 N 
ATOM     50  C   UNL A   1      39.063  32.870  34.369  1.00  0.00     0.074 A 
ATOM     51  C   UNL A   1      37.983  33.832  34.322  1.00  0.00     0.031 C 
ATOM     52  C   UNL A   1      38.621  29.948  28.660  1.00  0.00     0.029 A 
ATOM     53  C   UNL A   1      39.592  29.686  29.719  1.00  0.00     0.049 A 
ATOM     54  H   UNL A   1      39.687  30.577  31.599  1.00  0.00     0.167 HD
ATOM     55  C   UNL A   1      39.909  32.722  35.415  1.00  0.00     0.037 A 
ATOM     56  C   UNL A   1      40.606  28.803  29.652  1.00  0.00     0.037 A 
ATOM     57  C   UNL A   1      40.957  31.739  35.473  1.00  0.00     0.049 A 
ATOM     58  C   UNL A   1      41.518  28.641  30.837  1.00  0.00     0.074 A 
ATOM     59  C   UNL A   1      41.820  31.457  36.517  1.00  0.00     0.029 A 
ATOM     60  N   UNL A   1      41.282  30.871  34.440  1.00  0.00    -0.354 N 
ATOM     61  N   UNL A   1      41.500  29.272  31.986  1.00  0.00    -0.248 NA
ATOM     62  C   UNL A   1      42.585  27.638  30.719  1.00  0.00     0.031 C 
ATOM     63  C   UNL A   1      42.693  30.445  36.102  1.00  0.00     0.029 A 
ATOM     64  C   UNL A   1      42.344  30.066  34.816  1.00  0.00     0.049 A 
ATOM     65  H   UNL A   1      40.824  30.834  33.569  1.00  0.00     0.167 HD
ATOM     66  C   UNL A   1      42.533  28.726  32.736  1.00  0.00     0.074 A 
ATOM     67  C   UNL A   1      43.148  27.702  31.917  1.00  0.00     0.031 C 
ATOM     68  C   UNL A   1      42.937  29.045  33.990  1.00  0.00     0.037 A 
BRANCH  55  69
ATOM     69  C   UNL A   1      39.729  33.642  36.586  1.00  0.00     0.064 A 
ATOM     70  C   UNL A   1      40.391  34.877  36.659  1.00  0.00     0.173 A 
ATOM     71  C   UNL A   1      38.866  33.298  37.637  1.00  0.00     0.173 A 
ATOM     72  F   UNL A   1      41.239  35.247  35.687  1.00  0.00    -0.203 F 
ATOM     73  C   UNL A   1      40.219  35.719  37.754  1.00  0.00     0.198 A 
ATOM     74  C   UNL A   1      38.673  34.156  38.716  1.00  0.00     0.198 A 
ATOM     75  F   UNL A   1      38.206  32.130  37.615  1.00  0.00    -0.203 F 
ATOM     76  F   UNL A   1      40.902  36.870  37.825  1.00  0.00    -0.200 F 
ATOM     77  C   UNL A   1      39.355  35.362  38.778  1.00  0.00     0.200 A 
ATOM     78  F   UNL A   1      37.829  33.814  39.700  1.00  0.00    -0.200 F 
ATOM     79  F   UNL A   1      39.187  36.176  39.829  1.00  0.00    -0.200 F 
ENDBRANCH  55  69
BRANCH  56  80
ATOM     80  C   UNL A   1      40.792  27.979  28.429  1.00  0.00     0.064 A 
ATOM     81  C   UNL A   1      40.148  26.741  28.294  1.00  0.00     0.173 A 
ATOM     82  C   UNL A   1      41.614  28.406  27.377  1.00  0.00     0.173 A 
ATOM     83  F   UNL A   1      39.369  26.281  29.283  1.00  0.00    -0.203 F 
ATOM     84  C   UNL A   1      40.335  25.952  27.161  1.00  0.00     0.198 A 
ATOM     85  C   UNL A   1      41.779  27.628  26.233  1.00  0.00     0.198 A 
ATOM     86  F   UNL A   1      42.247  29.586  27.456  1.00  0.00    -0.203 F 
ATOM     87  F   UNL A   1      39.743  24.753  27.077  1.00  0.00    -0.200 F 
ATOM     88  C   UNL A   1      41.147  26.399  26.129  1.00  0.00     0.200 A 
ATOM     89  F   UNL A   1      42.554  28.069  25.232  1.00  0.00    -0.200 F 
ATOM     90  F   UNL A   1      41.325  25.641  25.039  1.00  0.00    -0.200 F 
ENDBRANCH  56  80
BRANCH  68  91
ATOM     91  C   UNL A   1      44.075  28.257  34.567  1.00  0.00     0.064 A 
ATOM     92  C   UNL A   1      43.866  27.037  35.225  1.00  0.00     0.173 A 
ATOM     93  C   UNL A   1      45.396  28.708  34.419  1.00  0.00     0.173 A 
ATOM     94  F   UNL A   1      42.620  26.573  35.405  1.00  0.00    -0.203 F 
ATOM     95  C   UNL A   1      44.935  26.307  35.735  1.00  0.00     0.198 A 
ATOM     96  C   UNL A   1      46.466  27.962  34.905  1.00  0.00     0.198 A 
ATOM     97  F   UNL A   1      45.649  29.866  33.790  1.00  0.00    -0.203 F 
ATOM     98  F   UNL A   1      44.710  25.166  36.399  1.00  0.00    -0.200 F 
ATOM     99  C   UNL A   1      46.235  26.766  35.567  1.00  0.00     0.200 A 
ATOM    100  F   UNL A   1      47.720  28.400  34.731  1.00  0.00    -0.200 F 
ATOM    101  F   UNL A   1      47.264  26.058  36.052  1.00  0.00    -0.200 F 
ENDBRANCH  68  91
ENDBRANCH  42  43
ENDBRANCH  34  37
ENDBRANCH  32  33
ENDBRANCH  31  32
ENDBRANCH  30  31
ENDBRANCH   1  30
TORSDOF 16
ENDMDL
MODEL 2
REMARK VINA RESULT:     -12.4      7.751     15.435
REMARK SMILES O=C(/C=C/c1ccc(C(=O)NC2CC2)cc1)NC1(C(=O)NCCCCNC(=O)c2ccc(-c3c4nc(c(-c5c(F)c(F)c(F)c(F)c5F)c5ccc([nH]5)c(-c5c(F)c(F)c(F)c(F)c5F)c5nc(c(-c6c(F)c(F)c(F)c(F)c6F)c6ccc3[nH]6)C=C5)C=C4)cc2)CCCC1
REMARK SMILES IDX 22 1 21 2 19 3 20 4 18 6 92 7 95 8 93 9 94 10 17 11 1 12
REMARK SMILES IDX 2 13 3 15 4 16 5 17 6 18 16 19 7 20 15 21 8 22 9 23 10 24
REMARK SMILES IDX 11 25 12 27 13 28 14 29 23 30 24 31 25 32 26 33 27 34 28 36
REMARK SMILES IDX 29 37 30 38 91 39 31 40 90 41 32 42 33 43 34 44 84 45 35 46
REMARK SMILES IDX 89 47 83 48 85 49 36 50 88 51 82 52 81 53 37 55 69 56 49 57
REMARK SMILES IDX 68 58 50 59 53 60 67 61 86 62 51 63 52 64 66 66 87 67 54 68
REMARK SMILES IDX 38 69 39 70 47 71 40 72 41 73 45 74 48 75 42 76 43 77 46 78
REMARK SMILES IDX 44 79 70 80 71 81 79 82 72 83 73 84 77 85 80 86 74 87 75 88
REMARK SMILES IDX 78 89 76 90 55 91 56 92 64 93 57 94 58 95 62 96 65 97 59 98
REMARK SMILES IDX 60 99 63 100 61 101
REMARK H PARENT 21 5 17 14 11 26 26 35 85 54 53 65
REMARK Flexibility Score: inf
ROOT
ATOM      1  C   UNL A   1      48.929  20.488  35.752  1.00  0.00     0.116 C 
ENDROOT
BRANCH   1   2
ATOM      2  N   UNL A   1      47.637  19.852  35.818  1.00  0.00    -0.354 N 
ATOM      3  C   UNL A   1      46.816  19.616  36.875  1.00  0.00     0.245 C 
ATOM      4  O   UNL A   1      45.656  19.299  36.568  1.00  0.00    -0.272 OA
ATOM      5  H   UNL A   1      47.292  19.536  34.952  1.00  0.00     0.163 HD
BRANCH   3   6
ATOM      6  C   UNL A   1      47.224  19.844  38.378  1.00  0.00     0.119 C 
ATOM      7  C   UNL A   1      46.885  21.275  38.834  1.00  0.00     0.038 C 
ATOM      8  C   UNL A   1      48.707  19.639  38.737  1.00  0.00     0.038 C 
ATOM      9  C   UNL A   1      48.188  22.016  39.088  1.00  0.00     0.003 C 
ATOM     10  C   UNL A   1      49.284  20.973  39.199  1.00  0.00     0.003 C 
BRANCH   6  11
ATOM     11  N   UNL A   1      46.365  18.905  39.132  1.00  0.00    -0.338 N 
ATOM     12  O   UNL A   1      46.640  19.897  41.185  1.00  0.00    -0.270 OA
ATOM     13  C   UNL A   1      46.204  18.986  40.489  1.00  0.00     0.244 C 
ATOM     14  H   UNL A   1      45.891  18.197  38.640  1.00  0.00     0.164 HD
BRANCH  13  15
ATOM     15  C   UNL A   1      45.396  17.919  41.128  1.00  0.00     0.072 C 
ATOM     16  C   UNL A   1      44.600  17.013  40.537  1.00  0.00     0.014 C 
BRANCH  16  17
ATOM     17  C   UNL A   1      43.757  16.094  41.316  1.00  0.00    -0.025 A 
ATOM     18  C   UNL A   1      42.613  15.524  40.755  1.00  0.00     0.009 A 
ATOM     19  C   UNL A   1      44.040  15.831  42.659  1.00  0.00     0.009 A 
ATOM     20  C   UNL A   1      41.776  14.706  41.529  1.00  0.00     0.014 A 
ATOM     21  C   UNL A   1      43.220  14.994  43.420  1.00  0.00     0.014 A 
ATOM     22  C   UNL A   1      42.060  14.442  42.881  1.00  0.00     0.039 A 
BRANCH  22  23
ATOM     23  C   UNL A   1      41.102  13.574  43.634  1.00  0.00     0.251 C 
ATOM     24  O   UNL A   1      40.198  14.108  44.280  1.00  0.00    -0.269 OA
ATOM     25  N   UNL A   1      41.184  12.196  43.671  1.00  0.00    -0.349 N 
ATOM     26  H   UNL A   1      40.486  11.765  44.214  1.00  0.00     0.164 HD
BRANCH  25  27
ATOM     27  C   UNL A   1      42.097  11.294  43.063  1.00  0.00     0.082 C 
ATOM     28  C   UNL A   1      43.350  10.847  43.768  1.00  0.00     0.027 C 
ATOM     29  C   UNL A   1      42.225   9.879  43.562  1.00  0.00     0.027 C 
ENDBRANCH  25  27
ENDBRANCH  22  23
ENDBRANCH  16  17
ENDBRANCH  13  15
ENDBRANCH   6  11
ENDBRANCH   3   6
ENDBRANCH   1   2
BRANCH   1  30
ATOM     30  C   UNL A   1      48.914  21.793  34.968  1.00  0.00     0.023 C 
BRANCH  30  31
ATOM     31  C   UNL A   1      47.806  22.762  35.369  1.00  0.00     0.023 C 
BRANCH  31  32
ATOM     32  C   UNL A   1      48.156  24.241  35.250  1.00  0.00     0.116 C 
BRANCH  32  33
ATOM     33  N   UNL A   1      48.093  24.966  36.512  1.00  0.00    -0.352 N 
ATOM     34  C   UNL A   1      47.241  25.985  36.874  1.00  0.00     0.251 C 
ATOM     35  H   UNL A   1      48.746  24.691  37.196  1.00  0.00     0.163 HD
ATOM     36  O   UNL A   1      47.355  26.548  37.949  1.00  0.00    -0.269 OA
BRANCH  34  37
ATOM     37  C   UNL A   1      46.208  26.416  35.908  1.00  0.00     0.039 A 
ATOM     38  C   UNL A   1      44.992  25.732  35.876  1.00  0.00     0.014 A 
ATOM     39  C   UNL A   1      46.419  27.539  35.106  1.00  0.00     0.014 A 
ATOM     40  C   UNL A   1      43.948  26.232  35.096  1.00  0.00     0.010 A 
ATOM     41  C   UNL A   1      45.356  28.077  34.391  1.00  0.00     0.010 A 
ATOM     42  C   UNL A   1      44.108  27.432  34.386  1.00  0.00    -0.014 A 
BRANCH  42  43
ATOM     43  C   UNL A   1      42.982  28.040  33.636  1.00  0.00     0.031 A 
ATOM     44  C   UNL A   1      42.800  27.735  32.177  1.00  0.00     0.074 A 
ATOM     45  C   UNL A   1      42.176  28.930  34.249  1.00  0.00     0.049 A 
ATOM     46  N   UNL A   1      41.935  28.231  31.329  1.00  0.00    -0.248 NA
ATOM     47  C   UNL A   1      43.739  26.770  31.584  1.00  0.00     0.031 C 
ATOM     48  C   UNL A   1      42.290  29.356  35.645  1.00  0.00     0.029 A 
ATOM     49  N   UNL A   1      41.109  29.648  33.770  1.00  0.00    -0.354 N 
ATOM     50  C   UNL A   1      42.239  27.655  30.103  1.00  0.00     0.074 A 
ATOM     51  C   UNL A   1      43.400  26.815  30.304  1.00  0.00     0.031 C 
ATOM     52  C   UNL A   1      41.320  30.243  35.915  1.00  0.00     0.029 A 
ATOM     53  C   UNL A   1      40.535  30.475  34.705  1.00  0.00     0.049 A 
ATOM     54  H   UNL A   1      40.783  29.577  32.843  1.00  0.00     0.167 HD
ATOM     55  C   UNL A   1      41.593  27.794  28.922  1.00  0.00     0.037 A 
ATOM     56  C   UNL A   1      39.497  31.325  34.596  1.00  0.00     0.037 A 
ATOM     57  C   UNL A   1      40.417  28.601  28.734  1.00  0.00     0.049 A 
ATOM     58  C   UNL A   1      38.782  31.443  33.278  1.00  0.00     0.074 A 
ATOM     59  C   UNL A   1      39.644  28.749  27.597  1.00  0.00     0.029 A 
ATOM     60  N   UNL A   1      39.841  29.395  29.716  1.00  0.00    -0.354 N 
ATOM     61  N   UNL A   1      39.031  30.835  32.144  1.00  0.00    -0.248 NA
ATOM     62  C   UNL A   1      37.634  32.360  33.228  1.00  0.00     0.031 C 
ATOM     63  C   UNL A   1      38.622  29.662  27.878  1.00  0.00     0.029 A 
ATOM     64  C   UNL A   1      38.732  30.049  29.204  1.00  0.00     0.049 A 
ATOM     65  H   UNL A   1      40.172  29.479  30.640  1.00  0.00     0.167 HD
ATOM     66  C   UNL A   1      38.060  31.274  31.255  1.00  0.00     0.074 A 
ATOM     67  C   UNL A   1      37.207  32.189  31.985  1.00  0.00     0.031 C 
ATOM     68  C   UNL A   1      37.890  30.948  29.950  1.00  0.00     0.037 A 
BRANCH  55  69
ATOM     69  C   UNL A   1      42.142  27.050  27.741  1.00  0.00     0.064 A 
ATOM     70  C   UNL A   1      43.086  27.631  26.880  1.00  0.00     0.173 A 
ATOM     71  C   UNL A   1      41.741  25.732  27.479  1.00  0.00     0.173 A 
ATOM     72  F   UNL A   1      43.492  28.895  27.078  1.00  0.00    -0.203 F 
ATOM     73  C   UNL A   1      43.584  26.931  25.785  1.00  0.00     0.198 A 
ATOM     74  C   UNL A   1      42.264  25.024  26.400  1.00  0.00     0.198 A 
ATOM     75  F   UNL A   1      40.844  25.127  28.273  1.00  0.00    -0.203 F 
ATOM     76  F   UNL A   1      44.445  27.526  24.947  1.00  0.00    -0.200 F 
ATOM     77  C   UNL A   1      43.178  25.626  25.550  1.00  0.00     0.200 A 
ATOM     78  F   UNL A   1      41.879  23.759  26.180  1.00  0.00    -0.200 F 
ATOM     79  F   UNL A   1      43.662  24.952  24.497  1.00  0.00    -0.200 F 
ENDBRANCH  55  69
BRANCH  56  80
ATOM     80  C   UNL A   1      39.051  32.106  35.779  1.00  0.00     0.064 A 
ATOM     81  C   UNL A   1      39.453  33.438  35.951  1.00  0.00     0.173 A 
ATOM     82  C   UNL A   1      38.221  31.543  36.759  1.00  0.00     0.173 A 
ATOM     83  F   UNL A   1      40.263  34.013  35.051  1.00  0.00    -0.203 F 
ATOM     84  C   UNL A   1      39.058  34.171  37.068  1.00  0.00     0.198 A 
ATOM     85  C   UNL A   1      37.806  32.285  37.862  1.00  0.00     0.198 A 
ATOM     86  F   UNL A   1      37.805  30.274  36.637  1.00  0.00    -0.203 F 
ATOM     87  F   UNL A   1      39.492  35.428  37.229  1.00  0.00    -0.200 F 
ATOM     88  C   UNL A   1      38.230  33.596  38.020  1.00  0.00     0.200 A 
ATOM     89  F   UNL A   1      36.995  31.730  38.773  1.00  0.00    -0.200 F 
ATOM     90  F   UNL A   1      37.849  34.301  39.093  1.00  0.00    -0.200 F 
ENDBRANCH  56  80
BRANCH  68  91
ATOM     91  C   UNL A   1      36.720  31.559  29.236  1.00  0.00     0.064 A 
ATOM     92  C   UNL A   1      35.599  30.798  28.878  1.00  0.00     0.173 A 
ATOM     93  C   UNL A   1      36.705  32.932  28.947  1.00  0.00     0.173 A 
ATOM     94  F   UNL A   1      35.573  29.478  29.120  1.00  0.00    -0.203 F 
ATOM     95  C   UNL A   1      34.512  31.385  28.237  1.00  0.00     0.198 A 
ATOM     96  C   UNL A   1      35.605  33.521  28.330  1.00  0.00     0.198 A 
ATOM     97  F   UNL A   1      37.752  33.704  29.276  1.00  0.00    -0.203 F 
ATOM     98  F   UNL A   1      33.469  30.631  27.865  1.00  0.00    -0.200 F 
ATOM     99  C   UNL A   1      34.512  32.747  27.970  1.00  0.00     0.200 A 
ATOM    100  F   UNL A   1      35.602  34.839  28.085  1.00  0.00    -0.200 F 
ATOM    101  F   UNL A   1      33.462  33.312  27.360  1.00  0.00    -0.200 F 
ENDBRANCH  68  91
ENDBRANCH  42  43
ENDBRANCH  34  37
ENDBRANCH  32  33
ENDBRANCH  31  32
ENDBRANCH  30  31
ENDBRANCH   1  30
TORSDOF 16
ENDMDL
MODEL 3
REMARK VINA RESULT:     -12.2      0.625      7.265
REMARK SMILES O=C(/C=C/c1ccc(C(=O)NC2CC2)cc1)NC1(C(=O)NCCCCNC(=O)c2ccc(-c3c4nc(c(-c5c(F)c(F)c(F)c(F)c5F)c5ccc([nH]5)c(-c5c(F)c(F)c(F)c(F)c5F)c5nc(c(-c6c(F)c(F)c(F)c(F)c6F)c6ccc3[nH]6)C=C5)C=C4)cc2)CCCC1
REMARK SMILES IDX 22 1 21 2 19 3 20 4 18 6 92 7 95 8 93 9 94 10 17 11 1 12
REMARK SMILES IDX 2 13 3 15 4 16 5 17 6 18 16 19 7 20 15 21 8 22 9 23 10 24
REMARK SMILES IDX 11 25 12 27 13 28 14 29 23 30 24 31 25 32 26 33 27 34 28 36
REMARK SMILES IDX 29 37 30 38 91 39 31 40 90 41 32 42 33 43 34 44 84 45 35 46
REMARK SMILES IDX 89 47 83 48 85 49 36 50 88 51 82 52 81 53 37 55 69 56 49 57
REMARK SMILES IDX 68 58 50 59 53 60 67 61 86 62 51 63 52 64 66 66 87 67 54 68
REMARK SMILES IDX 38 69 39 70 47 71 40 72 41 73 45 74 48 75 42 76 43 77 46 78
REMARK SMILES IDX 44 79 70 80 71 81 79 82 72 83 73 84 77 85 80 86 74 87 75 88
REMARK SMILES IDX 78 89 76 90 55 91 56 92 64 93 57 94 58 95 62 96 65 97 59 98
REMARK SMILES IDX 60 99 63 100 61 101
REMARK H PARENT 21 5 17 14 11 26 26 35 85 54 53 65
REMARK Flexibility Score: inf
ROOT
ATOM      1  C   UNL A   1      31.903  28.974  26.184  1.00  0.00     0.116 C 
ENDROOT
BRANCH   1   2
ATOM      2  N   UNL A   1      32.961  28.236  25.544  1.00  0.00    -0.354 N 
ATOM      3  C   UNL A   1      32.940  27.399  24.473  1.00  0.00     0.245 C 
ATOM      4  O   UNL A   1      34.056  27.137  23.998  1.00  0.00    -0.272 OA
ATOM      5  H   UNL A   1      33.850  28.359  25.951  1.00  0.00     0.163 HD
BRANCH   3   6
ATOM      6  C   UNL A   1      31.624  26.887  23.780  1.00  0.00     0.119 C 
ATOM      7  C   UNL A   1      31.500  27.441  22.348  1.00  0.00     0.038 C 
ATOM      8  C   UNL A   1      30.292  27.232  24.470  1.00  0.00     0.038 C 
ATOM      9  C   UNL A   1      30.324  28.403  22.308  1.00  0.00     0.003 C 
ATOM     10  C   UNL A   1      29.487  28.142  23.547  1.00  0.00     0.003 C 
BRANCH   6  11
ATOM     11  N   UNL A   1      31.807  25.422  23.693  1.00  0.00    -0.338 N 
ATOM     12  O   UNL A   1      32.018  25.054  25.950  1.00  0.00    -0.270 OA
ATOM     13  C   UNL A   1      32.052  24.645  24.794  1.00  0.00     0.244 C 
ATOM     14  H   UNL A   1      31.752  24.989  22.811  1.00  0.00     0.164 HD
BRANCH  13  15
ATOM     15  C   UNL A   1      32.317  23.207  24.548  1.00  0.00     0.072 C 
ATOM     16  C   UNL A   1      33.276  22.435  25.083  1.00  0.00     0.014 C 
BRANCH  16  17
ATOM     17  C   UNL A   1      33.495  21.050  24.643  1.00  0.00    -0.025 A 
ATOM     18  C   UNL A   1      32.517  20.366  23.919  1.00  0.00     0.009 A 
ATOM     19  C   UNL A   1      34.657  20.361  25.004  1.00  0.00     0.009 A 
ATOM     20  C   UNL A   1      32.706  19.021  23.566  1.00  0.00     0.014 A 
ATOM     21  C   UNL A   1      34.855  19.031  24.627  1.00  0.00     0.014 A 
ATOM     22  C   UNL A   1      33.874  18.328  23.930  1.00  0.00     0.039 A 
BRANCH  22  23
ATOM     23  C   UNL A   1      33.982  16.892  23.527  1.00  0.00     0.251 C 
ATOM     24  O   UNL A   1      34.339  16.623  22.378  1.00  0.00    -0.269 OA
ATOM     25  N   UNL A   1      33.680  15.836  24.364  1.00  0.00    -0.349 N 
ATOM     26  H   UNL A   1      33.795  14.949  23.953  1.00  0.00     0.164 HD
BRANCH  25  27
ATOM     27  C   UNL A   1      33.234  15.805  25.712  1.00  0.00     0.082 C 
ATOM     28  C   UNL A   1      31.785  16.009  26.067  1.00  0.00     0.027 C 
ATOM     29  C   UNL A   1      32.407  14.655  26.222  1.00  0.00     0.027 C 
ENDBRANCH  25  27
ENDBRANCH  22  23
ENDBRANCH  16  17
ENDBRANCH  13  15
ENDBRANCH   6  11
ENDBRANCH   3   6
ENDBRANCH   1   2
BRANCH   1  30
ATOM     30  C   UNL A   1      31.908  30.455  25.834  1.00  0.00     0.023 C 
BRANCH  30  31
ATOM     31  C   UNL A   1      31.759  31.391  27.030  1.00  0.00     0.023 C 
BRANCH  31  32
ATOM     32  C   UNL A   1      32.920  32.353  27.256  1.00  0.00     0.116 C 
BRANCH  32  33
ATOM     33  N   UNL A   1      32.509  33.733  27.477  1.00  0.00    -0.352 N 
ATOM     34  C   UNL A   1      33.028  34.651  28.363  1.00  0.00     0.251 C 
ATOM     35  H   UNL A   1      31.762  34.051  26.919  1.00  0.00     0.163 HD
ATOM     36  O   UNL A   1      32.529  35.756  28.487  1.00  0.00    -0.269 OA
BRANCH  34  37
ATOM     37  C   UNL A   1      34.178  34.249  29.199  1.00  0.00     0.039 A 
ATOM     38  C   UNL A   1      33.937  33.543  30.379  1.00  0.00     0.014 A 
ATOM     39  C   UNL A   1      35.483  34.499  28.769  1.00  0.00     0.014 A 
ATOM     40  C   UNL A   1      35.013  33.010  31.088  1.00  0.00     0.010 A 
ATOM     41  C   UNL A   1      36.547  33.902  29.434  1.00  0.00     0.010 A 
ATOM     42  C   UNL A   1      36.321  33.145  30.595  1.00  0.00    -0.014 A 
BRANCH  42  43
ATOM     43  C   UNL A   1      37.471  32.496  31.272  1.00  0.00     0.031 A 
ATOM     44  C   UNL A   1      38.179  31.348  30.613  1.00  0.00     0.074 A 
ATOM     45  C   UNL A   1      37.821  32.886  32.514  1.00  0.00     0.049 A 
ATOM     46  N   UNL A   1      39.144  30.594  31.075  1.00  0.00    -0.248 NA
ATOM     47  C   UNL A   1      37.716  30.974  29.267  1.00  0.00     0.031 C 
ATOM     48  C   UNL A   1      37.170  33.947  33.284  1.00  0.00     0.029 A 
ATOM     49  N   UNL A   1      38.804  32.424  33.352  1.00  0.00    -0.354 N 
ATOM     50  C   UNL A   1      39.387  29.648  30.089  1.00  0.00     0.074 A 
ATOM     51  C   UNL A   1      38.435  29.887  29.027  1.00  0.00     0.031 C 
ATOM     52  C   UNL A   1      37.783  34.068  34.472  1.00  0.00     0.029 A 
ATOM     53  C   UNL A   1      38.849  33.074  34.562  1.00  0.00     0.049 A 
ATOM     54  H   UNL A   1      39.421  31.695  33.111  1.00  0.00     0.167 HD
ATOM     55  C   UNL A   1      40.336  28.684  30.061  1.00  0.00     0.037 A 
ATOM     56  C   UNL A   1      39.657  32.886  35.622  1.00  0.00     0.037 A 
ATOM     57  C   UNL A   1      41.306  28.473  31.102  1.00  0.00     0.049 A 
ATOM     58  C   UNL A   1      40.719  31.822  35.556  1.00  0.00     0.074 A 
ATOM     59  C   UNL A   1      42.356  27.572  31.135  1.00  0.00     0.029 A 
ATOM     60  N   UNL A   1      41.345  29.178  32.296  1.00  0.00    -0.354 N 
ATOM     61  N   UNL A   1      40.989  30.984  34.585  1.00  0.00    -0.248 NA
ATOM     62  C   UNL A   1      41.593  31.686  36.729  1.00  0.00     0.031 C 
ATOM     63  C   UNL A   1      43.007  27.706  32.366  1.00  0.00     0.029 A 
ATOM     64  C   UNL A   1      42.391  28.720  33.081  1.00  0.00     0.049 A 
ATOM     65  H   UNL A   1      40.722  29.898  32.548  1.00  0.00     0.167 HD
ATOM     66  C   UNL A   1      42.078  30.239  35.018  1.00  0.00     0.074 A 
ATOM     67  C   UNL A   1      42.427  30.735  36.333  1.00  0.00     0.031 C 
ATOM     68  C   UNL A   1      42.729  29.234  34.383  1.00  0.00     0.037 A 
BRANCH  55  69
ATOM     69  C   UNL A   1      40.376  27.787  28.858  1.00  0.00     0.064 A 
ATOM     70  C   UNL A   1      39.657  26.583  28.815  1.00  0.00     0.173 A 
ATOM     71  C   UNL A   1      41.121  28.146  27.725  1.00  0.00     0.173 A 
ATOM     72  F   UNL A   1      38.940  26.186  29.879  1.00  0.00    -0.203 F 
ATOM     73  C   UNL A   1      39.706  25.757  27.696  1.00  0.00     0.198 A 
ATOM     74  C   UNL A   1      41.144  27.333  26.595  1.00  0.00     0.198 A 
ATOM     75  F   UNL A   1      41.824  29.289  27.712  1.00  0.00    -0.203 F 
ATOM     76  F   UNL A   1      39.052  24.587  27.699  1.00  0.00    -0.200 F 
ATOM     77  C   UNL A   1      40.443  26.136  26.584  1.00  0.00     0.200 A 
ATOM     78  F   UNL A   1      41.848  27.705  25.517  1.00  0.00    -0.200 F 
ATOM     79  F   UNL A   1      40.486  25.343  25.505  1.00  0.00    -0.200 F 
ENDBRANCH  55  69
BRANCH  56  80
ATOM     80  C   UNL A   1      39.514  33.746  36.825  1.00  0.00     0.064 A 
ATOM     81  C   UNL A   1      40.193  34.970  36.916  1.00  0.00     0.173 A 
ATOM     82  C   UNL A   1      38.706  33.366  37.905  1.00  0.00     0.173 A 
ATOM     83  F   UNL A   1      40.995  35.365  35.917  1.00  0.00    -0.203 F 
ATOM     84  C   UNL A   1      40.083  35.772  38.050  1.00  0.00     0.198 A 
ATOM     85  C   UNL A   1      38.576  34.182  39.028  1.00  0.00     0.198 A 
ATOM     86  F   UNL A   1      38.031  32.208  37.864  1.00  0.00    -0.203 F 
ATOM     87  F   UNL A   1      40.777  36.915  38.129  1.00  0.00    -0.200 F 
ATOM     88  C   UNL A   1      39.270  35.380  39.103  1.00  0.00     0.200 A 
ATOM     89  F   UNL A   1      37.779  33.805  40.038  1.00  0.00    -0.200 F 
ATOM     90  F   UNL A   1      39.163  36.151  40.192  1.00  0.00    -0.200 F 
ENDBRANCH  56  80
BRANCH  68  91
ATOM     91  C   UNL A   1      43.906  28.625  35.087  1.00  0.00     0.064 A 
ATOM     92  C   UNL A   1      45.200  29.146  34.940  1.00  0.00     0.173 A 
ATOM     93  C   UNL A   1      43.729  27.536  35.953  1.00  0.00     0.173 A 
ATOM     94  F   UNL A   1      45.422  30.177  34.111  1.00  0.00    -0.203 F 
ATOM     95  C   UNL A   1      46.277  28.584  35.618  1.00  0.00     0.198 A 
ATOM     96  C   UNL A   1      44.803  26.993  36.651  1.00  0.00     0.198 A 
ATOM     97  F   UNL A   1      42.509  27.006  36.133  1.00  0.00    -0.203 F 
ATOM     98  F   UNL A   1      47.512  29.069  35.430  1.00  0.00    -0.200 F 
ATOM     99  C   UNL A   1      46.077  27.514  36.479  1.00  0.00     0.200 A 
ATOM    100  F   UNL A   1      44.607  25.968  37.491  1.00  0.00    -0.200 F 
ATOM    101  F   UNL A   1      47.115  26.978  37.136  1.00  0.00    -0.200 F 
ENDBRANCH  68  91
ENDBRANCH  42  43
ENDBRANCH  34  37
ENDBRANCH  32  33
ENDBRANCH  31  32
ENDBRANCH  30  31
ENDBRANCH   1  30
TORSDOF 16
ENDMDL
