MODEL 1
REMARK VINA RESULT:     -12.0      0.000      0.000
REMARK SMILES CN(C(=O)CC(=O)NCCCCNC(=O)c1ccc(-c2c3nc(c(-c4c(F)c(F)c(F)c(F)c4F)c4ccc([nH]4)c(-c4c(F)c(F)c(F)c(F)c4F)c4nc(c(-c5c(F)c(F)c(F)c(F)c5F)c5ccc2[nH]5)C=C4)C=C3)cc1)C1CCC(C)(C)CC1
REMARK SMILES IDX 10 1 9 2 8 3 6 4 7 5 5 7 3 8 4 9 2 10 1 11 79 12 80 13 86 14
REMARK SMILES IDX 81 15 85 16 82 17 83 18 84 19 11 20 12 21 13 22 14 23 15 25
REMARK SMILES IDX 16 26 17 27 78 28 18 29 77 30 19 31 20 32 21 33 71 34 22 35
REMARK SMILES IDX 76 36 70 37 72 38 23 39 75 40 69 41 68 42 24 44 56 45 36 46
REMARK SMILES IDX 55 47 37 48 40 49 54 50 73 51 38 52 39 53 53 55 74 56 41 57
REMARK SMILES IDX 25 58 26 59 34 60 27 61 28 62 32 63 35 64 29 65 30 66 33 67
REMARK SMILES IDX 31 68 57 69 58 70 66 71 59 72 60 73 64 74 67 75 61 76 62 77
REMARK SMILES IDX 65 78 63 79 42 80 43 81 51 82 44 83 45 84 49 85 52 86 46 87
REMARK SMILES IDX 47 88 50 89 48 90
REMARK H PARENT 8 6 13 24 72 43 40 54
REMARK Flexibility Score: inf
ROOT
ATOM      1  C   UNL A   1      31.799  30.467  26.783  1.00  0.00     0.023 C 
ENDROOT
BRANCH   1   2
ATOM      2  C   UNL A   1      32.819  29.969  25.767  1.00  0.00     0.116 C 
BRANCH   2   3
ATOM      3  N   UNL A   1      32.165  29.715  24.497  1.00  0.00    -0.356 N 
ATOM      4  C   UNL A   1      32.553  28.874  23.494  1.00  0.00     0.229 C 
ATOM      5  O   UNL A   1      31.981  28.977  22.405  1.00  0.00    -0.275 OA
ATOM      6  H   UNL A   1      31.332  30.215  24.338  1.00  0.00     0.163 HD
BRANCH   4   7
ATOM      7  C   UNL A   1      33.591  27.806  23.730  1.00  0.00     0.200 C 
BRANCH   7   8
ATOM      8  C   UNL A   1      33.350  26.467  23.064  1.00  0.00     0.231 C 
ATOM      9  O   UNL A   1      34.022  26.210  22.064  1.00  0.00    -0.274 OA
BRANCH   8  10
ATOM     10  N   UNL A   1      32.426  25.572  23.597  1.00  0.00    -0.342 N 
ATOM     11  C   UNL A   1      31.053  25.501  23.095  1.00  0.00     0.147 C 
BRANCH  10  12
ATOM     12  C   UNL A   1      32.804  24.485  24.553  1.00  0.00     0.084 C 
ATOM     13  C   UNL A   1      32.824  23.104  23.896  1.00  0.00     0.025 C 
ATOM     14  C   UNL A   1      34.043  24.698  25.444  1.00  0.00     0.025 C 
ATOM     15  C   UNL A   1      34.139  22.839  23.187  1.00  0.00     0.008 C 
ATOM     16  C   UNL A   1      35.401  24.190  24.932  1.00  0.00     0.008 C 
ATOM     17  C   UNL A   1      35.389  22.908  24.065  1.00  0.00    -0.035 C 
ATOM     18  C   UNL A   1      36.618  22.932  23.126  1.00  0.00     0.011 C 
ATOM     19  C   UNL A   1      35.474  21.643  24.931  1.00  0.00     0.011 C 
ENDBRANCH  10  12
ENDBRANCH   8  10
ENDBRANCH   7   8
ENDBRANCH   4   7
ENDBRANCH   2   3
ENDBRANCH   1   2
BRANCH   1  20
ATOM     20  C   UNL A   1      31.539  31.962  26.823  1.00  0.00     0.023 C 
BRANCH  20  21
ATOM     21  C   UNL A   1      32.729  32.805  27.239  1.00  0.00     0.116 C 
BRANCH  21  22
ATOM     22  N   UNL A   1      32.394  34.167  27.633  1.00  0.00    -0.352 N 
ATOM     23  C   UNL A   1      32.983  34.976  28.583  1.00  0.00     0.251 C 
ATOM     24  H   UNL A   1      31.635  34.569  27.152  1.00  0.00     0.163 HD
ATOM     25  O   UNL A   1      32.528  36.086  28.822  1.00  0.00    -0.269 OA
BRANCH  23  26
ATOM     26  C   UNL A   1      34.140  34.469  29.357  1.00  0.00     0.039 A 
ATOM     27  C   UNL A   1      33.909  33.791  30.557  1.00  0.00     0.014 A 
ATOM     28  C   UNL A   1      35.438  34.595  28.864  1.00  0.00     0.014 A 
ATOM     29  C   UNL A   1      34.969  33.148  31.201  1.00  0.00     0.010 A 
ATOM     30  C   UNL A   1      36.463  33.853  29.434  1.00  0.00     0.010 A 
ATOM     31  C   UNL A   1      36.243  33.123  30.611  1.00  0.00    -0.014 A 
BRANCH  31  32
ATOM     32  C   UNL A   1      37.371  32.357  31.201  1.00  0.00     0.031 A 
ATOM     33  C   UNL A   1      37.866  32.704  32.578  1.00  0.00     0.074 A 
ATOM     34  C   UNL A   1      38.012  31.427  30.468  1.00  0.00     0.049 A 
ATOM     35  N   UNL A   1      38.915  32.257  33.222  1.00  0.00    -0.248 NA
ATOM     36  C   UNL A   1      37.107  33.731  33.311  1.00  0.00     0.031 C 
ATOM     37  C   UNL A   1      37.674  31.042  29.097  1.00  0.00     0.029 A 
ATOM     38  N   UNL A   1      39.097  30.643  30.774  1.00  0.00    -0.354 N 
ATOM     39  C   UNL A   1      38.959  32.974  34.410  1.00  0.00     0.074 A 
ATOM     40  C   UNL A   1      37.875  33.929  34.369  1.00  0.00     0.031 C 
ATOM     41  C   UNL A   1      38.505  30.066  28.696  1.00  0.00     0.029 A 
ATOM     42  C   UNL A   1      39.460  29.787  29.763  1.00  0.00     0.049 A 
ATOM     43  H   UNL A   1      39.569  30.688  31.636  1.00  0.00     0.167 HD
ATOM     44  C   UNL A   1      39.806  32.829  35.456  1.00  0.00     0.037 A 
ATOM     45  C   UNL A   1      40.452  28.877  29.706  1.00  0.00     0.037 A 
ATOM     46  C   UNL A   1      40.847  31.838  35.517  1.00  0.00     0.049 A 
ATOM     47  C   UNL A   1      41.362  28.711  30.892  1.00  0.00     0.074 A 
ATOM     48  C   UNL A   1      41.708  31.551  36.561  1.00  0.00     0.029 A 
ATOM     49  N   UNL A   1      41.161  30.965  34.485  1.00  0.00    -0.354 N 
ATOM     50  N   UNL A   1      41.357  29.349  32.037  1.00  0.00    -0.248 NA
ATOM     51  C   UNL A   1      42.415  27.692  30.777  1.00  0.00     0.031 C 
ATOM     52  C   UNL A   1      42.565  30.525  36.150  1.00  0.00     0.029 A 
ATOM     53  C   UNL A   1      42.212  30.145  34.864  1.00  0.00     0.049 A 
ATOM     54  H   UNL A   1      40.705  30.931  33.615  1.00  0.00     0.167 HD
ATOM     55  C   UNL A   1      42.383  28.795  32.788  1.00  0.00     0.074 A 
ATOM     56  C   UNL A   1      42.984  27.759  31.973  1.00  0.00     0.031 C 
ATOM     57  C   UNL A   1      42.789  29.113  34.042  1.00  0.00     0.037 A 
BRANCH  44  58
ATOM     58  C   UNL A   1      39.624  33.759  36.620  1.00  0.00     0.064 A 
ATOM     59  C   UNL A   1      40.257  35.012  36.668  1.00  0.00     0.173 A 
ATOM     60  C   UNL A   1      38.818  33.392  37.707  1.00  0.00     0.173 A 
ATOM     61  F   UNL A   1      41.052  35.405  35.660  1.00  0.00    -0.203 F 
ATOM     62  C   UNL A   1      40.129  35.839  37.780  1.00  0.00     0.198 A 
ATOM     63  C   UNL A   1      38.664  34.237  38.803  1.00  0.00     0.198 A 
ATOM     64  F   UNL A   1      38.186  32.209  37.712  1.00  0.00    -0.203 F 
ATOM     65  F   UNL A   1      40.802  36.997  37.832  1.00  0.00    -0.200 F 
ATOM     66  C   UNL A   1      39.329  35.454  38.844  1.00  0.00     0.200 A 
ATOM     67  F   UNL A   1      37.883  33.868  39.827  1.00  0.00    -0.200 F 
ATOM     68  F   UNL A   1      39.211  36.248  39.917  1.00  0.00    -0.200 F 
ENDBRANCH  44  58
BRANCH  45  69
ATOM     69  C   UNL A   1      40.597  28.016  28.506  1.00  0.00     0.064 A 
ATOM     70  C   UNL A   1      41.371  28.442  27.417  1.00  0.00     0.173 A 
ATOM     71  C   UNL A   1      39.991  26.755  28.424  1.00  0.00     0.173 A 
ATOM     72  F   UNL A   1      41.954  29.649  27.443  1.00  0.00    -0.203 F 
ATOM     73  C   UNL A   1      41.524  27.644  26.285  1.00  0.00     0.198 A 
ATOM     74  C   UNL A   1      40.163  25.948  27.301  1.00  0.00     0.198 A 
ATOM     75  F   UNL A   1      39.245  26.301  29.442  1.00  0.00    -0.203 F 
ATOM     76  F   UNL A   1      42.242  28.089  25.246  1.00  0.00    -0.200 F 
ATOM     77  C   UNL A   1      40.924  26.394  26.231  1.00  0.00     0.200 A 
ATOM     78  F   UNL A   1      39.593  24.736  27.256  1.00  0.00    -0.200 F 
ATOM     79  F   UNL A   1      41.078  25.623  25.147  1.00  0.00    -0.200 F 
ENDBRANCH  45  69
BRANCH  57  80
ATOM     80  C   UNL A   1      43.914  28.309  34.623  1.00  0.00     0.064 A 
ATOM     81  C   UNL A   1      45.247  28.725  34.511  1.00  0.00     0.173 A 
ATOM     82  C   UNL A   1      43.647  27.134  35.341  1.00  0.00     0.173 A 
ATOM     83  F   UNL A   1      45.554  29.834  33.821  1.00  0.00    -0.203 F 
ATOM     84  C   UNL A   1      46.278  27.980  35.079  1.00  0.00     0.198 A 
ATOM     85  C   UNL A   1      44.675  26.406  35.930  1.00  0.00     0.198 A 
ATOM     86  F   UNL A   1      42.385  26.699  35.480  1.00  0.00    -0.203 F 
ATOM     87  F   UNL A   1      47.550  28.373  34.926  1.00  0.00    -0.200 F 
ATOM     88  C   UNL A   1      45.990  26.826  35.794  1.00  0.00     0.200 A 
ATOM     89  F   UNL A   1      44.396  25.298  36.631  1.00  0.00    -0.200 F 
ATOM     90  F   UNL A   1      46.982  26.115  36.348  1.00  0.00    -0.200 F 
ENDBRANCH  57  80
ENDBRANCH  31  32
ENDBRANCH  23  26
ENDBRANCH  21  22
ENDBRANCH  20  21
ENDBRANCH   1  20
TORSDOF 14
ENDMDL
MODEL 2
REMARK VINA RESULT:     -12.0      0.114      1.624
REMARK SMILES CN(C(=O)CC(=O)NCCCCNC(=O)c1ccc(-c2c3nc(c(-c4c(F)c(F)c(F)c(F)c4F)c4ccc([nH]4)c(-c4c(F)c(F)c(F)c(F)c4F)c4nc(c(-c5c(F)c(F)c(F)c(F)c5F)c5ccc2[nH]5)C=C4)C=C3)cc1)C1CCC(C)(C)CC1
REMARK SMILES IDX 10 1 9 2 8 3 6 4 7 5 5 7 3 8 4 9 2 10 1 11 79 12 80 13 86 14
REMARK SMILES IDX 81 15 85 16 82 17 83 18 84 19 11 20 12 21 13 22 14 23 15 25
REMARK SMILES IDX 16 26 17 27 78 28 18 29 77 30 19 31 20 32 21 33 71 34 22 35
REMARK SMILES IDX 76 36 70 37 72 38 23 39 75 40 69 41 68 42 24 44 56 45 36 46
REMARK SMILES IDX 55 47 37 48 40 49 54 50 73 51 38 52 39 53 53 55 74 56 41 57
REMARK SMILES IDX 25 58 26 59 34 60 27 61 28 62 32 63 35 64 29 65 30 66 33 67
REMARK SMILES IDX 31 68 57 69 58 70 66 71 59 72 60 73 64 74 67 75 61 76 62 77
REMARK SMILES IDX 65 78 63 79 42 80 43 81 51 82 44 83 45 84 49 85 52 86 46 87
REMARK SMILES IDX 47 88 50 89 48 90
REMARK H PARENT 8 6 13 24 72 43 40 54
REMARK Flexibility Score: inf
ROOT
ATOM      1  C   UNL A   1      31.897  30.452  26.835  1.00  0.00     0.023 C 
ENDROOT
BRANCH   1   2
ATOM      2  C   UNL A   1      32.867  29.880  25.809  1.00  0.00     0.116 C 
BRANCH   2   3
ATOM      3  N   UNL A   1      32.180  29.662  24.550  1.00  0.00    -0.356 N 
ATOM      4  C   UNL A   1      32.544  28.853  23.512  1.00  0.00     0.229 C 
ATOM      5  O   UNL A   1      31.943  28.988  22.443  1.00  0.00    -0.275 OA
ATOM      6  H   UNL A   1      31.342  30.163  24.429  1.00  0.00     0.163 HD
BRANCH   4   7
ATOM      7  C   UNL A   1      33.591  27.783  23.688  1.00  0.00     0.200 C 
BRANCH   7   8
ATOM      8  C   UNL A   1      33.306  26.442  23.043  1.00  0.00     0.231 C 
ATOM      9  O   UNL A   1      33.939  26.165  22.023  1.00  0.00    -0.274 OA
BRANCH   8  10
ATOM     10  N   UNL A   1      32.386  25.568  23.616  1.00  0.00    -0.342 N 
ATOM     11  C   UNL A   1      31.002  25.497  23.144  1.00  0.00     0.147 C 
BRANCH  10  12
ATOM     12  C   UNL A   1      32.775  24.499  24.589  1.00  0.00     0.084 C 
ATOM     13  C   UNL A   1      32.798  23.107  23.956  1.00  0.00     0.025 C 
ATOM     14  C   UNL A   1      34.018  24.734  25.468  1.00  0.00     0.025 C 
ATOM     15  C   UNL A   1      34.108  22.835  23.243  1.00  0.00     0.008 C 
ATOM     16  C   UNL A   1      35.375  24.223  24.956  1.00  0.00     0.008 C 
ATOM     17  C   UNL A   1      35.364  22.926  24.112  1.00  0.00    -0.035 C 
ATOM     18  C   UNL A   1      36.587  22.939  23.165  1.00  0.00     0.011 C 
ATOM     19  C   UNL A   1      35.461  21.677  25.000  1.00  0.00     0.011 C 
ENDBRANCH  10  12
ENDBRANCH   8  10
ENDBRANCH   7   8
ENDBRANCH   4   7
ENDBRANCH   2   3
ENDBRANCH   1   2
BRANCH   1  20
ATOM     20  C   UNL A   1      31.652  31.950  26.792  1.00  0.00     0.023 C 
BRANCH  20  21
ATOM     21  C   UNL A   1      32.828  32.801  27.233  1.00  0.00     0.116 C 
BRANCH  21  22
ATOM     22  N   UNL A   1      32.470  34.148  27.660  1.00  0.00    -0.352 N 
ATOM     23  C   UNL A   1      33.038  34.939  28.637  1.00  0.00     0.251 C 
ATOM     24  H   UNL A   1      31.710  34.552  27.181  1.00  0.00     0.163 HD
ATOM     25  O   UNL A   1      32.565  36.036  28.899  1.00  0.00    -0.269 OA
BRANCH  23  26
ATOM     26  C   UNL A   1      34.194  34.427  29.408  1.00  0.00     0.039 A 
ATOM     27  C   UNL A   1      33.960  33.713  30.586  1.00  0.00     0.014 A 
ATOM     28  C   UNL A   1      35.495  34.587  28.933  1.00  0.00     0.014 A 
ATOM     29  C   UNL A   1      35.022  33.068  31.224  1.00  0.00     0.010 A 
ATOM     30  C   UNL A   1      36.525  33.844  29.494  1.00  0.00     0.010 A 
ATOM     31  C   UNL A   1      36.303  33.078  30.647  1.00  0.00    -0.014 A 
BRANCH  31  32
ATOM     32  C   UNL A   1      37.436  32.313  31.228  1.00  0.00     0.031 A 
ATOM     33  C   UNL A   1      37.934  32.652  32.606  1.00  0.00     0.074 A 
ATOM     34  C   UNL A   1      38.080  31.391  30.487  1.00  0.00     0.049 A 
ATOM     35  N   UNL A   1      38.987  32.205  33.243  1.00  0.00    -0.248 NA
ATOM     36  C   UNL A   1      37.174  33.670  33.349  1.00  0.00     0.031 C 
ATOM     37  C   UNL A   1      37.739  31.014  29.114  1.00  0.00     0.029 A 
ATOM     38  N   UNL A   1      39.168  30.609  30.784  1.00  0.00    -0.354 N 
ATOM     39  C   UNL A   1      39.033  32.913  34.436  1.00  0.00     0.074 A 
ATOM     40  C   UNL A   1      37.944  33.864  34.407  1.00  0.00     0.031 C 
ATOM     41  C   UNL A   1      38.572  30.045  28.703  1.00  0.00     0.029 A 
ATOM     42  C   UNL A   1      39.532  29.762  29.765  1.00  0.00     0.049 A 
ATOM     43  H   UNL A   1      39.643  30.650  31.645  1.00  0.00     0.167 HD
ATOM     44  C   UNL A   1      39.883  32.764  35.479  1.00  0.00     0.037 A 
ATOM     45  C   UNL A   1      40.527  28.857  29.699  1.00  0.00     0.037 A 
ATOM     46  C   UNL A   1      40.929  31.777  35.530  1.00  0.00     0.049 A 
ATOM     47  C   UNL A   1      41.442  28.686  30.881  1.00  0.00     0.074 A 
ATOM     48  C   UNL A   1      41.794  31.487  36.569  1.00  0.00     0.029 A 
ATOM     49  N   UNL A   1      41.243  30.913  34.491  1.00  0.00    -0.354 N 
ATOM     50  N   UNL A   1      41.438  29.316  32.030  1.00  0.00    -0.248 NA
ATOM     51  C   UNL A   1      42.499  27.672  30.755  1.00  0.00     0.031 C 
ATOM     52  C   UNL A   1      42.654  30.467  36.148  1.00  0.00     0.029 A 
ATOM     53  C   UNL A   1      42.298  30.095  34.860  1.00  0.00     0.049 A 
ATOM     54  H   UNL A   1      40.784  30.884  33.621  1.00  0.00     0.167 HD
ATOM     55  C   UNL A   1      42.469  28.760  32.774  1.00  0.00     0.074 A 
ATOM     56  C   UNL A   1      43.072  27.733  31.949  1.00  0.00     0.031 C 
ATOM     57  C   UNL A   1      42.877  29.071  34.029  1.00  0.00     0.037 A 
BRANCH  44  58
ATOM     58  C   UNL A   1      39.701  33.685  36.650  1.00  0.00     0.064 A 
ATOM     59  C   UNL A   1      38.890  33.338  37.742  1.00  0.00     0.173 A 
ATOM     60  C   UNL A   1      40.335  34.936  36.677  1.00  0.00     0.173 A 
ATOM     61  F   UNL A   1      38.249  32.159  37.758  1.00  0.00    -0.203 F 
ATOM     62  C   UNL A   1      38.682  34.226  38.793  1.00  0.00     0.198 A 
ATOM     63  C   UNL A   1      40.151  35.809  37.747  1.00  0.00     0.198 A 
ATOM     64  F   UNL A   1      41.124  35.318  35.663  1.00  0.00    -0.203 F 
ATOM     65  F   UNL A   1      37.846  33.900  39.788  1.00  0.00    -0.200 F 
ATOM     66  C   UNL A   1      39.315  35.459  38.797  1.00  0.00     0.200 A 
ATOM     67  F   UNL A   1      40.773  36.996  37.756  1.00  0.00    -0.200 F 
ATOM     68  F   UNL A   1      39.110  36.316  39.807  1.00  0.00    -0.200 F 
ENDBRANCH  44  58
BRANCH  45  69
ATOM     69  C   UNL A   1      40.672  28.006  28.492  1.00  0.00     0.064 A 
ATOM     70  C   UNL A   1      41.453  28.435  27.409  1.00  0.00     0.173 A 
ATOM     71  C   UNL A   1      40.059  26.749  28.397  1.00  0.00     0.173 A 
ATOM     72  F   UNL A   1      42.044  29.639  27.448  1.00  0.00    -0.203 F 
ATOM     73  C   UNL A   1      41.606  27.646  26.272  1.00  0.00     0.198 A 
ATOM     74  C   UNL A   1      40.231  25.950  27.267  1.00  0.00     0.198 A 
ATOM     75  F   UNL A   1      39.306  26.291  29.407  1.00  0.00    -0.203 F 
ATOM     76  F   UNL A   1      42.331  28.096  25.239  1.00  0.00    -0.200 F 
ATOM     77  C   UNL A   1      40.999  26.401  26.204  1.00  0.00     0.200 A 
ATOM     78  F   UNL A   1      39.653  24.742  27.209  1.00  0.00    -0.200 F 
ATOM     79  F   UNL A   1      41.153  25.638  25.114  1.00  0.00    -0.200 F 
ENDBRANCH  45  69
BRANCH  57  80
ATOM     80  C   UNL A   1      44.007  28.268  34.601  1.00  0.00     0.064 A 
ATOM     81  C   UNL A   1      43.784  27.047  35.251  1.00  0.00     0.173 A 
ATOM     82  C   UNL A   1      45.332  28.704  34.454  1.00  0.00     0.173 A 
ATOM     83  F   UNL A   1      42.532  26.595  35.430  1.00  0.00    -0.203 F 
ATOM     84  C   UNL A   1      44.846  26.300  35.753  1.00  0.00     0.198 A 
ATOM     85  C   UNL A   1      46.393  27.944  34.933  1.00  0.00     0.198 A 
ATOM     86  F   UNL A   1      45.597  29.864  33.833  1.00  0.00    -0.203 F 
ATOM     87  F   UNL A   1      44.608  25.155  36.408  1.00  0.00    -0.200 F 
ATOM     88  C   UNL A   1      46.150  26.745  35.588  1.00  0.00     0.200 A 
ATOM     89  F   UNL A   1      47.653  28.369  34.761  1.00  0.00    -0.200 F 
ATOM     90  F   UNL A   1      47.172  26.022  36.063  1.00  0.00    -0.200 F 
ENDBRANCH  57  80
ENDBRANCH  31  32
ENDBRANCH  23  26
ENDBRANCH  21  22
ENDBRANCH  20  21
ENDBRANCH   1  20
TORSDOF 14
ENDMDL
MODEL 3
REMARK VINA RESULT:     -11.9      0.593      7.459
REMARK SMILES CN(C(=O)CC(=O)NCCCCNC(=O)c1ccc(-c2c3nc(c(-c4c(F)c(F)c(F)c(F)c4F)c4ccc([nH]4)c(-c4c(F)c(F)c(F)c(F)c4F)c4nc(c(-c5c(F)c(F)c(F)c(F)c5F)c5ccc2[nH]5)C=C4)C=C3)cc1)C1CCC(C)(C)CC1
REMARK SMILES IDX 10 1 9 2 8 3 6 4 7 5 5 7 3 8 4 9 2 10 1 11 79 12 80 13 86 14
REMARK SMILES IDX 81 15 85 16 82 17 83 18 84 19 11 20 12 21 13 22 14 23 15 25
REMARK SMILES IDX 16 26 17 27 78 28 18 29 77 30 19 31 20 32 21 33 71 34 22 35
REMARK SMILES IDX 76 36 70 37 72 38 23 39 75 40 69 41 68 42 24 44 56 45 36 46
REMARK SMILES IDX 55 47 37 48 40 49 54 50 73 51 38 52 39 53 53 55 74 56 41 57
REMARK SMILES IDX 25 58 26 59 34 60 27 61 28 62 32 63 35 64 29 65 30 66 33 67
REMARK SMILES IDX 31 68 57 69 58 70 66 71 59 72 60 73 64 74 67 75 61 76 62 77
REMARK SMILES IDX 65 78 63 79 42 80 43 81 51 82 44 83 45 84 49 85 52 86 46 87
REMARK SMILES IDX 47 88 50 89 48 90
REMARK H PARENT 8 6 13 24 72 43 40 54
REMARK Flexibility Score: inf
ROOT
ATOM      1  C   UNL A   1      32.140  30.120  26.881  1.00  0.00     0.023 C 
ENDROOT
BRANCH   1   2
ATOM      2  C   UNL A   1      33.281  29.648  25.989  1.00  0.00     0.116 C 
BRANCH   2   3
ATOM      3  N   UNL A   1      32.873  29.703  24.598  1.00  0.00    -0.356 N 
ATOM      4  C   UNL A   1      33.277  28.912  23.562  1.00  0.00     0.229 C 
ATOM      5  O   UNL A   1      32.986  29.272  22.418  1.00  0.00    -0.275 OA
ATOM      6  H   UNL A   1      32.219  30.403  24.372  1.00  0.00     0.163 HD
BRANCH   4   7
ATOM      7  C   UNL A   1      33.989  27.606  23.810  1.00  0.00     0.200 C 
BRANCH   7   8
ATOM      8  C   UNL A   1      33.456  26.393  23.076  1.00  0.00     0.231 C 
ATOM      9  O   UNL A   1      33.955  26.138  21.979  1.00  0.00    -0.274 OA
BRANCH   8  10
ATOM     10  N   UNL A   1      32.467  25.601  23.653  1.00  0.00    -0.342 N 
ATOM     11  C   UNL A   1      31.058  25.746  23.282  1.00  0.00     0.147 C 
BRANCH  10  12
ATOM     12  C   UNL A   1      32.772  24.416  24.516  1.00  0.00     0.084 C 
ATOM     13  C   UNL A   1      32.819  23.108  23.724  1.00  0.00     0.025 C 
ATOM     14  C   UNL A   1      33.954  24.518  25.498  1.00  0.00     0.025 C 
ATOM     15  C   UNL A   1      34.172  22.893  23.075  1.00  0.00     0.008 C 
ATOM     16  C   UNL A   1      35.336  24.041  25.022  1.00  0.00     0.008 C 
ATOM     17  C   UNL A   1      35.365  22.852  24.031  1.00  0.00    -0.035 C 
ATOM     18  C   UNL A   1      36.652  22.950  23.178  1.00  0.00     0.011 C 
ATOM     19  C   UNL A   1      35.382  21.506  24.769  1.00  0.00     0.011 C 
ENDBRANCH  10  12
ENDBRANCH   8  10
ENDBRANCH   7   8
ENDBRANCH   4   7
ENDBRANCH   2   3
ENDBRANCH   1   2
BRANCH   1  20
ATOM     20  C   UNL A   1      31.818  31.604  26.862  1.00  0.00     0.023 C 
BRANCH  20  21
ATOM     21  C   UNL A   1      32.921  32.501  27.389  1.00  0.00     0.116 C 
BRANCH  21  22
ATOM     22  N   UNL A   1      32.514  33.881  27.627  1.00  0.00    -0.352 N 
ATOM     23  C   UNL A   1      33.039  34.814  28.496  1.00  0.00     0.251 C 
ATOM     24  H   UNL A   1      31.750  34.192  27.089  1.00  0.00     0.163 HD
ATOM     25  O   UNL A   1      32.528  35.919  28.603  1.00  0.00    -0.269 OA
BRANCH  23  26
ATOM     26  C   UNL A   1      34.198  34.449  29.344  1.00  0.00     0.039 A 
ATOM     27  C   UNL A   1      33.966  33.903  30.609  1.00  0.00     0.014 A 
ATOM     28  C   UNL A   1      35.501  34.576  28.865  1.00  0.00     0.014 A 
ATOM     29  C   UNL A   1      35.036  33.384  31.343  1.00  0.00     0.010 A 
ATOM     30  C   UNL A   1      36.541  33.948  29.535  1.00  0.00     0.010 A 
ATOM     31  C   UNL A   1      36.324  33.348  30.784  1.00  0.00    -0.014 A 
BRANCH  31  32
ATOM     32  C   UNL A   1      37.468  32.705  31.479  1.00  0.00     0.031 A 
ATOM     33  C   UNL A   1      38.203  31.573  30.814  1.00  0.00     0.074 A 
ATOM     34  C   UNL A   1      37.781  33.063  32.739  1.00  0.00     0.049 A 
ATOM     35  N   UNL A   1      39.134  30.790  31.295  1.00  0.00    -0.248 NA
ATOM     36  C   UNL A   1      37.799  31.246  29.437  1.00  0.00     0.031 C 
ATOM     37  C   UNL A   1      37.106  34.100  33.521  1.00  0.00     0.029 A 
ATOM     38  N   UNL A   1      38.745  32.582  33.590  1.00  0.00    -0.354 N 
ATOM     39  C   UNL A   1      39.396  29.860  30.298  1.00  0.00     0.074 A 
ATOM     40  C   UNL A   1      38.481  30.135  29.213  1.00  0.00     0.031 C 
ATOM     41  C   UNL A   1      37.702  34.207  34.720  1.00  0.00     0.029 A 
ATOM     42  C   UNL A   1      38.772  33.219  34.807  1.00  0.00     0.049 A 
ATOM     43  H   UNL A   1      39.359  31.852  33.351  1.00  0.00     0.167 HD
ATOM     44  C   UNL A   1      40.336  28.886  30.272  1.00  0.00     0.037 A 
ATOM     45  C   UNL A   1      39.574  33.027  35.872  1.00  0.00     0.037 A 
ATOM     46  C   UNL A   1      41.283  28.654  31.329  1.00  0.00     0.049 A 
ATOM     47  C   UNL A   1      40.632  31.960  35.810  1.00  0.00     0.074 A 
ATOM     48  C   UNL A   1      42.327  27.748  31.370  1.00  0.00     0.029 A 
ATOM     49  N   UNL A   1      41.301  29.345  32.532  1.00  0.00    -0.354 N 
ATOM     50  N   UNL A   1      40.914  31.128  34.837  1.00  0.00    -0.248 NA
ATOM     51  C   UNL A   1      41.486  31.809  36.996  1.00  0.00     0.031 C 
ATOM     52  C   UNL A   1      42.959  27.868  32.613  1.00  0.00     0.029 A 
ATOM     53  C   UNL A   1      42.333  28.876  33.329  1.00  0.00     0.049 A 
ATOM     54  H   UNL A   1      40.675  30.061  32.783  1.00  0.00     0.167 HD
ATOM     55  C   UNL A   1      41.991  30.374  35.279  1.00  0.00     0.074 A 
ATOM     56  C   UNL A   1      42.320  30.855  36.606  1.00  0.00     0.031 C 
ATOM     57  C   UNL A   1      42.651  29.375  34.643  1.00  0.00     0.037 A 
BRANCH  44  58
ATOM     58  C   UNL A   1      40.385  28.013  29.052  1.00  0.00     0.064 A 
ATOM     59  C   UNL A   1      41.150  28.361  27.927  1.00  0.00     0.173 A 
ATOM     60  C   UNL A   1      39.650  26.820  29.000  1.00  0.00     0.173 A 
ATOM     61  F   UNL A   1      41.858  29.501  27.919  1.00  0.00    -0.203 F 
ATOM     62  C   UNL A   1      41.139  27.573  26.779  1.00  0.00     0.198 A 
ATOM     63  C   UNL A   1      39.668  26.016  27.863  1.00  0.00     0.198 A 
ATOM     64  F   UNL A   1      38.906  26.436  30.048  1.00  0.00    -0.203 F 
ATOM     65  F   UNL A   1      41.818  27.965  25.694  1.00  0.00    -0.200 F 
ATOM     66  C   UNL A   1      40.402  26.400  26.749  1.00  0.00     0.200 A 
ATOM     67  F   UNL A   1      38.965  24.876  27.838  1.00  0.00    -0.200 F 
ATOM     68  F   UNL A   1      40.387  25.645  25.642  1.00  0.00    -0.200 F 
ENDBRANCH  44  58
BRANCH  45  69
ATOM     69  C   UNL A   1      39.443  33.904  37.063  1.00  0.00     0.064 A 
ATOM     70  C   UNL A   1      40.068  35.159  37.093  1.00  0.00     0.173 A 
ATOM     71  C   UNL A   1      38.684  33.525  38.179  1.00  0.00     0.173 A 
ATOM     72  F   UNL A   1      40.820  35.555  36.055  1.00  0.00    -0.203 F 
ATOM     73  C   UNL A   1      39.950  35.997  38.199  1.00  0.00     0.198 A 
ATOM     74  C   UNL A   1      38.548  34.374  39.276  1.00  0.00     0.198 A 
ATOM     75  F   UNL A   1      38.063  32.337  38.196  1.00  0.00    -0.203 F 
ATOM     76  F   UNL A   1      40.584  37.177  38.214  1.00  0.00    -0.200 F 
ATOM     77  C   UNL A   1      39.184  35.606  39.287  1.00  0.00     0.200 A 
ATOM     78  F   UNL A   1      37.798  33.999  40.321  1.00  0.00    -0.200 F 
ATOM     79  F   UNL A   1      39.063  36.416  40.347  1.00  0.00    -0.200 F 
ENDBRANCH  45  69
BRANCH  57  80
ATOM     80  C   UNL A   1      43.817  28.759  35.357  1.00  0.00     0.064 A 
ATOM     81  C   UNL A   1      43.661  27.642  36.189  1.00  0.00     0.173 A 
ATOM     82  C   UNL A   1      45.111  29.266  35.168  1.00  0.00     0.173 A 
ATOM     83  F   UNL A   1      42.441  27.131  36.413  1.00  0.00    -0.203 F 
ATOM     84  C   UNL A   1      44.759  27.066  36.824  1.00  0.00     0.198 A 
ATOM     85  C   UNL A   1      46.208  28.673  35.782  1.00  0.00     0.198 A 
ATOM     86  F   UNL A   1      45.311  30.331  34.376  1.00  0.00    -0.203 F 
ATOM     87  F   UNL A   1      44.583  26.024  37.647  1.00  0.00    -0.200 F 
ATOM     88  C   UNL A   1      46.032  27.577  36.614  1.00  0.00     0.200 A 
ATOM     89  F   UNL A   1      47.440  29.159  35.569  1.00  0.00    -0.200 F 
ATOM     90  F   UNL A   1      47.088  27.017  37.219  1.00  0.00    -0.200 F 
ENDBRANCH  57  80
ENDBRANCH  31  32
ENDBRANCH  23  26
ENDBRANCH  21  22
ENDBRANCH  20  21
ENDBRANCH   1  20
TORSDOF 14
ENDMDL
