MODEL 1
REMARK VINA RESULT:     -14.8      0.000      0.000
REMARK SMILES Cc1ccccc1S(=O)(=O)Nc1ccc(N2CCOCC2)cc1C(=O)NCCCCNC(=O)c1ccc(-c2c3nc(c(-c4c(F)c(F)c(F)c(F)c4F)c4ccc([nH]4)c(-c4c(F)c(F)c(F)c(F)c4F)c4nc(c(-c5c(F)c(F)c(F)c(F)c5F)c5ccc2[nH]5)C=C4)C=C3)cc1
REMARK SMILES IDX 28 1 27 2 26 3 24 4 25 5 23 7 12 8 13 9 14 10 22 11 15 12
REMARK SMILES IDX 11 13 8 15 9 16 10 17 7 18 1 19 2 20 3 21 4 22 6 23 5 24
REMARK SMILES IDX 16 25 17 26 21 27 18 28 20 29 19 30 29 31 30 32 31 33 32 34
REMARK SMILES IDX 33 36 34 37 35 38 96 39 36 40 95 41 37 42 38 43 39 44 89 45
REMARK SMILES IDX 40 46 94 47 88 48 90 49 41 50 93 51 87 52 86 53 42 55 74 56
REMARK SMILES IDX 54 57 73 58 55 59 58 60 72 61 91 62 56 63 57 64 71 66 92 67
REMARK SMILES IDX 59 68 43 69 44 70 52 71 45 72 46 73 50 74 53 75 47 76 48 77
REMARK SMILES IDX 51 78 49 79 75 80 76 81 84 82 77 83 78 84 82 85 85 86 79 87
REMARK SMILES IDX 80 88 83 89 81 90 60 91 61 92 69 93 62 94 63 95 67 96 70 97
REMARK SMILES IDX 64 98 65 99 68 100 66 101
REMARK H PARENT 26 6 11 14 31 35 90 54 58 65
REMARK Flexibility Score: inf
ROOT
ATOM      1  C   UNL A   1      37.356  21.205  25.217  1.00  0.00     0.023 C 
ENDROOT
BRANCH   1   2
ATOM      2  C   UNL A   1      36.459  22.429  25.408  1.00  0.00     0.116 C 
BRANCH   2   3
ATOM      3  N   UNL A   1      35.632  22.438  26.612  1.00  0.00    -0.352 N 
ATOM      4  C   UNL A   1      34.355  21.983  26.881  1.00  0.00     0.253 C 
ATOM      5  O   UNL A   1      33.959  22.025  28.044  1.00  0.00    -0.269 OA
ATOM      6  H   UNL A   1      36.073  22.852  27.388  1.00  0.00     0.163 HD
BRANCH   4   7
ATOM      7  C   UNL A   1      33.456  21.479  25.809  1.00  0.00     0.066 A 
ATOM      8  C   UNL A   1      32.890  22.347  24.861  1.00  0.00     0.062 A 
ATOM      9  C   UNL A   1      32.135  21.814  23.819  1.00  0.00     0.030 A 
ATOM     10  C   UNL A   1      32.057  20.428  23.652  1.00  0.00     0.028 A 
ATOM     11  C   UNL A   1      33.207  20.103  25.712  1.00  0.00     0.042 A 
ATOM     12  C   UNL A   1      32.630  19.539  24.572  1.00  0.00     0.038 A 
BRANCH   8  13
ATOM     13  N   UNL A   1      33.019  23.754  24.951  1.00  0.00    -0.279 N 
ATOM     14  H   UNL A   1      32.886  24.183  25.828  1.00  0.00     0.180 HD
BRANCH  13  15
ATOM     15  S   UNL A   1      33.386  24.718  23.641  1.00  0.00     0.262 S 
ATOM     16  O   UNL A   1      32.167  24.789  22.859  1.00  0.00    -0.201 OA
ATOM     17  O   UNL A   1      34.596  24.232  23.014  1.00  0.00    -0.201 OA
BRANCH  15  18
ATOM     18  C   UNL A   1      33.686  26.348  24.328  1.00  0.00     0.090 A 
ATOM     19  C   UNL A   1      33.709  27.596  22.050  1.00  0.00     0.046 C 
ATOM     20  C   UNL A   1      33.702  27.525  23.550  1.00  0.00    -0.031 A 
ATOM     21  C   UNL A   1      33.802  28.763  24.217  1.00  0.00     0.005 A 
ATOM     22  C   UNL A   1      33.876  28.842  25.605  1.00  0.00     0.000 A 
ATOM     23  C   UNL A   1      33.776  26.439  25.731  1.00  0.00     0.022 A 
ATOM     24  C   UNL A   1      33.873  27.680  26.364  1.00  0.00     0.001 A 
ENDBRANCH  15  18
ENDBRANCH  13  15
ENDBRANCH   8  13
BRANCH  12  25
ATOM     25  N   UNL A   1      32.679  18.183  24.333  1.00  0.00    -0.367 N 
ATOM     26  C   UNL A   1      32.662  17.157  25.388  1.00  0.00     0.145 C 
ATOM     27  C   UNL A   1      33.020  17.666  22.992  1.00  0.00     0.145 C 
ATOM     28  C   UNL A   1      33.956  16.332  25.349  1.00  0.00     0.181 C 
ATOM     29  C   UNL A   1      34.278  16.777  23.060  1.00  0.00     0.181 C 
ATOM     30  O   UNL A   1      34.160  15.747  24.053  1.00  0.00    -0.378 OA
ENDBRANCH  12  25
ENDBRANCH   4   7
ENDBRANCH   2   3
ENDBRANCH   1   2
BRANCH   1  31
ATOM     31  C   UNL A   1      38.798  21.336  25.681  1.00  0.00     0.023 C 
BRANCH  31  32
ATOM     32  C   UNL A   1      39.191  22.740  26.109  1.00  0.00     0.116 C 
BRANCH  32  33
ATOM     33  N   UNL A   1      40.626  22.938  26.294  1.00  0.00    -0.352 N 
ATOM     34  C   UNL A   1      41.284  24.104  26.662  1.00  0.00     0.251 C 
ATOM     35  H   UNL A   1      41.195  22.150  26.140  1.00  0.00     0.163 HD
ATOM     36  O   UNL A   1      42.493  24.136  26.809  1.00  0.00    -0.269 OA
BRANCH  34  37
ATOM     37  C   UNL A   1      40.454  25.288  26.986  1.00  0.00     0.039 A 
ATOM     38  C   UNL A   1      40.731  26.488  26.328  1.00  0.00     0.014 A 
ATOM     39  C   UNL A   1      39.629  25.262  28.109  1.00  0.00     0.014 A 
ATOM     40  C   UNL A   1      40.394  27.688  26.949  1.00  0.00     0.010 A 
ATOM     41  C   UNL A   1      39.389  26.449  28.775  1.00  0.00     0.010 A 
ATOM     42  C   UNL A   1      39.838  27.657  28.229  1.00  0.00    -0.014 A 
BRANCH  42  43
ATOM     43  C   UNL A   1      39.823  28.820  29.113  1.00  0.00     0.031 A 
ATOM     44  C   UNL A   1      38.786  29.863  28.979  1.00  0.00     0.074 A 
ATOM     45  C   UNL A   1      40.737  28.919  30.106  1.00  0.00     0.049 A 
ATOM     46  N   UNL A   1      38.927  31.080  29.391  1.00  0.00    -0.248 NA
ATOM     47  C   UNL A   1      37.504  29.618  28.335  1.00  0.00     0.031 C 
ATOM     48  C   UNL A   1      40.747  29.878  31.210  1.00  0.00     0.029 A 
ATOM     49  N   UNL A   1      41.994  28.291  30.185  1.00  0.00    -0.354 N 
ATOM     50  C   UNL A   1      37.705  31.701  29.299  1.00  0.00     0.074 A 
ATOM     51  C   UNL A   1      36.861  30.760  28.596  1.00  0.00     0.031 C 
ATOM     52  C   UNL A   1      42.013  30.033  31.629  1.00  0.00     0.029 A 
ATOM     53  C   UNL A   1      42.858  29.275  30.728  1.00  0.00     0.049 A 
ATOM     54  H   UNL A   1      42.222  27.370  29.922  1.00  0.00     0.167 HD
ATOM     55  C   UNL A   1      37.512  32.900  29.922  1.00  0.00     0.037 A 
ATOM     56  C   UNL A   1      43.897  29.778  29.999  1.00  0.00     0.037 A 
ATOM     57  C   UNL A   1      38.735  33.390  30.554  1.00  0.00     0.049 A 
ATOM     58  C   UNL A   1      43.849  31.275  29.767  1.00  0.00     0.074 A 
ATOM     59  C   UNL A   1      39.226  33.392  31.849  1.00  0.00     0.029 A 
ATOM     60  N   UNL A   1      39.798  33.749  29.746  1.00  0.00    -0.354 N 
ATOM     61  N   UNL A   1      42.865  32.048  30.133  1.00  0.00    -0.248 NA
ATOM     62  C   UNL A   1      44.864  31.995  28.995  1.00  0.00     0.031 C 
ATOM     63  C   UNL A   1      40.599  33.768  31.807  1.00  0.00     0.029 A 
ATOM     64  C   UNL A   1      40.939  33.987  30.486  1.00  0.00     0.049 A 
ATOM     65  H   UNL A   1      39.747  33.826  28.766  1.00  0.00     0.167 HD
ATOM     66  C   UNL A   1      43.066  33.305  29.631  1.00  0.00     0.074 A 
ATOM     67  C   UNL A   1      44.328  33.224  28.921  1.00  0.00     0.031 C 
ATOM     68  C   UNL A   1      42.167  34.317  29.789  1.00  0.00     0.037 A 
BRANCH  55  69
ATOM     69  C   UNL A   1      36.155  33.527  30.146  1.00  0.00     0.064 A 
ATOM     70  C   UNL A   1      35.404  34.036  29.064  1.00  0.00     0.173 A 
ATOM     71  C   UNL A   1      35.556  33.693  31.408  1.00  0.00     0.173 A 
ATOM     72  F   UNL A   1      35.783  33.846  27.795  1.00  0.00    -0.203 F 
ATOM     73  C   UNL A   1      34.227  34.768  29.247  1.00  0.00     0.198 A 
ATOM     74  C   UNL A   1      34.414  34.479  31.598  1.00  0.00     0.198 A 
ATOM     75  F   UNL A   1      36.024  33.054  32.488  1.00  0.00    -0.203 F 
ATOM     76  F   UNL A   1      33.561  35.230  28.179  1.00  0.00    -0.200 F 
ATOM     77  C   UNL A   1      33.757  35.029  30.517  1.00  0.00     0.200 A 
ATOM     78  F   UNL A   1      33.955  34.696  32.839  1.00  0.00    -0.200 F 
ATOM     79  F   UNL A   1      32.661  35.778  30.695  1.00  0.00    -0.200 F 
ENDBRANCH  55  69
BRANCH  56  80
ATOM     80  C   UNL A   1      44.472  28.789  29.049  1.00  0.00     0.064 A 
ATOM     81  C   UNL A   1      45.308  27.773  29.555  1.00  0.00     0.173 A 
ATOM     82  C   UNL A   1      43.952  28.615  27.761  1.00  0.00     0.173 A 
ATOM     83  F   UNL A   1      45.838  27.882  30.785  1.00  0.00    -0.203 F 
ATOM     84  C   UNL A   1      45.504  26.585  28.858  1.00  0.00     0.198 A 
ATOM     85  C   UNL A   1      44.179  27.435  27.053  1.00  0.00     0.198 A 
ATOM     86  F   UNL A   1      43.127  29.529  27.231  1.00  0.00    -0.203 F 
ATOM     87  F   UNL A   1      46.186  25.583  29.429  1.00  0.00    -0.200 F 
ATOM     88  C   UNL A   1      44.922  26.408  27.615  1.00  0.00     0.200 A 
ATOM     89  F   UNL A   1      43.588  27.251  25.864  1.00  0.00    -0.200 F 
ATOM     90  F   UNL A   1      45.036  25.232  26.984  1.00  0.00    -0.200 F 
ENDBRANCH  56  80
BRANCH  68  91
ATOM     91  C   UNL A   1      42.387  35.709  29.275  1.00  0.00     0.064 A 
ATOM     92  C   UNL A   1      41.828  36.159  28.069  1.00  0.00     0.173 A 
ATOM     93  C   UNL A   1      43.266  36.600  29.926  1.00  0.00     0.173 A 
ATOM     94  F   UNL A   1      41.033  35.360  27.342  1.00  0.00    -0.203 F 
ATOM     95  C   UNL A   1      42.089  37.439  27.575  1.00  0.00     0.198 A 
ATOM     96  C   UNL A   1      43.564  37.857  29.404  1.00  0.00     0.198 A 
ATOM     97  F   UNL A   1      43.839  36.285  31.097  1.00  0.00    -0.203 F 
ATOM     98  F   UNL A   1      41.491  37.850  26.448  1.00  0.00    -0.200 F 
ATOM     99  C   UNL A   1      42.965  38.282  28.236  1.00  0.00     0.200 A 
ATOM    100  F   UNL A   1      44.431  38.654  30.045  1.00  0.00    -0.200 F 
ATOM    101  F   UNL A   1      43.227  39.502  27.749  1.00  0.00    -0.200 F 
ENDBRANCH  68  91
ENDBRANCH  42  43
ENDBRANCH  34  37
ENDBRANCH  32  33
ENDBRANCH  31  32
ENDBRANCH   1  31
TORSDOF 15
ENDMDL
MODEL 2
REMARK VINA RESULT:     -14.8      4.107     10.632
REMARK SMILES Cc1ccccc1S(=O)(=O)Nc1ccc(N2CCOCC2)cc1C(=O)NCCCCNC(=O)c1ccc(-c2c3nc(c(-c4c(F)c(F)c(F)c(F)c4F)c4ccc([nH]4)c(-c4c(F)c(F)c(F)c(F)c4F)c4nc(c(-c5c(F)c(F)c(F)c(F)c5F)c5ccc2[nH]5)C=C4)C=C3)cc1
REMARK SMILES IDX 28 1 27 2 26 3 24 4 25 5 23 7 12 8 13 9 14 10 22 11 15 12
REMARK SMILES IDX 11 13 8 15 9 16 10 17 7 18 1 19 2 20 3 21 4 22 6 23 5 24
REMARK SMILES IDX 16 25 17 26 21 27 18 28 20 29 19 30 29 31 30 32 31 33 32 34
REMARK SMILES IDX 33 36 34 37 35 38 96 39 36 40 95 41 37 42 38 43 39 44 89 45
REMARK SMILES IDX 40 46 94 47 88 48 90 49 41 50 93 51 87 52 86 53 42 55 74 56
REMARK SMILES IDX 54 57 73 58 55 59 58 60 72 61 91 62 56 63 57 64 71 66 92 67
REMARK SMILES IDX 59 68 43 69 44 70 52 71 45 72 46 73 50 74 53 75 47 76 48 77
REMARK SMILES IDX 51 78 49 79 75 80 76 81 84 82 77 83 78 84 82 85 85 86 79 87
REMARK SMILES IDX 80 88 83 89 81 90 60 91 61 92 69 93 62 94 63 95 67 96 70 97
REMARK SMILES IDX 64 98 65 99 68 100 66 101
REMARK H PARENT 26 6 11 14 31 35 90 54 58 65
REMARK Flexibility Score: inf
ROOT
ATOM      1  C   UNL A   1      33.731  29.893  26.931  1.00  0.00     0.023 C 
ENDROOT
BRANCH   1   2
ATOM      2  C   UNL A   1      32.853  29.857  25.679  1.00  0.00     0.116 C 
BRANCH   2   3
ATOM      3  N   UNL A   1      33.478  29.323  24.471  1.00  0.00    -0.352 N 
ATOM      4  C   UNL A   1      32.968  28.769  23.312  1.00  0.00     0.253 C 
ATOM      5  O   UNL A   1      33.752  28.511  22.401  1.00  0.00    -0.269 OA
ATOM      6  H   UNL A   1      34.461  29.367  24.486  1.00  0.00     0.163 HD
BRANCH   4   7
ATOM      7  C   UNL A   1      31.523  28.457  23.158  1.00  0.00     0.066 A 
ATOM      8  C   UNL A   1      30.991  27.226  23.577  1.00  0.00     0.062 A 
ATOM      9  C   UNL A   1      29.616  27.020  23.502  1.00  0.00     0.030 A 
ATOM     10  C   UNL A   1      28.772  28.074  23.139  1.00  0.00     0.028 A 
ATOM     11  C   UNL A   1      30.663  29.428  22.629  1.00  0.00     0.042 A 
ATOM     12  C   UNL A   1      29.275  29.319  22.736  1.00  0.00     0.038 A 
BRANCH   8  13
ATOM     13  N   UNL A   1      31.810  26.164  24.032  1.00  0.00    -0.279 N 
ATOM     14  H   UNL A   1      32.514  25.824  23.433  1.00  0.00     0.180 HD
BRANCH  13  15
ATOM     15  S   UNL A   1      31.636  25.462  25.534  1.00  0.00     0.262 S 
ATOM     16  O   UNL A   1      30.632  24.429  25.366  1.00  0.00    -0.201 OA
ATOM     17  O   UNL A   1      31.422  26.496  26.523  1.00  0.00    -0.201 OA
BRANCH  15  18
ATOM     18  C   UNL A   1      33.203  24.647  25.855  1.00  0.00     0.090 A 
ATOM     19  C   UNL A   1      32.269  22.950  27.586  1.00  0.00     0.046 C 
ATOM     20  C   UNL A   1      33.329  23.510  26.681  1.00  0.00    -0.031 A 
ATOM     21  C   UNL A   1      34.582  22.869  26.744  1.00  0.00     0.005 A 
ATOM     22  C   UNL A   1      35.676  23.326  26.012  1.00  0.00     0.000 A 
ATOM     23  C   UNL A   1      34.318  25.109  25.130  1.00  0.00     0.022 A 
ATOM     24  C   UNL A   1      35.547  24.452  25.211  1.00  0.00     0.001 A 
ENDBRANCH  15  18
ENDBRANCH  13  15
ENDBRANCH   8  13
BRANCH  12  25
ATOM     25  N   UNL A   1      28.445  30.397  22.518  1.00  0.00    -0.367 N 
ATOM     26  C   UNL A   1      27.775  30.679  21.239  1.00  0.00     0.145 C 
ATOM     27  C   UNL A   1      28.380  31.506  23.493  1.00  0.00     0.145 C 
ATOM     28  C   UNL A   1      28.243  32.029  20.679  1.00  0.00     0.181 C 
ATOM     29  C   UNL A   1      28.779  32.837  22.823  1.00  0.00     0.181 C 
ATOM     30  O   UNL A   1      28.028  33.087  21.626  1.00  0.00    -0.378 OA
ENDBRANCH  12  25
ENDBRANCH   4   7
ENDBRANCH   2   3
ENDBRANCH   1   2
BRANCH   1  31
ATOM     31  C   UNL A   1      33.763  31.203  27.703  1.00  0.00     0.023 C 
BRANCH  31  32
ATOM     32  C   UNL A   1      35.159  31.756  27.938  1.00  0.00     0.116 C 
BRANCH  32  33
ATOM     33  N   UNL A   1      35.462  32.067  29.332  1.00  0.00    -0.352 N 
ATOM     34  C   UNL A   1      36.239  31.333  30.218  1.00  0.00     0.251 C 
ATOM     35  H   UNL A   1      35.068  32.896  29.686  1.00  0.00     0.163 HD
ATOM     36  O   UNL A   1      36.439  31.713  31.358  1.00  0.00    -0.269 OA
BRANCH  34  37
ATOM     37  C   UNL A   1      36.918  30.124  29.697  1.00  0.00     0.039 A 
ATOM     38  C   UNL A   1      37.162  29.071  30.582  1.00  0.00     0.014 A 
ATOM     39  C   UNL A   1      37.538  30.167  28.450  1.00  0.00     0.014 A 
ATOM     40  C   UNL A   1      38.222  28.206  30.321  1.00  0.00     0.010 A 
ATOM     41  C   UNL A   1      38.653  29.378  28.242  1.00  0.00     0.010 A 
ATOM     42  C   UNL A   1      39.038  28.448  29.214  1.00  0.00    -0.014 A 
BRANCH  42  43
ATOM     43  C   UNL A   1      40.374  27.871  29.076  1.00  0.00     0.031 A 
ATOM     44  C   UNL A   1      40.555  26.455  28.700  1.00  0.00     0.074 A 
ATOM     45  C   UNL A   1      41.463  28.657  29.238  1.00  0.00     0.049 A 
ATOM     46  N   UNL A   1      41.616  25.766  28.965  1.00  0.00    -0.248 NA
ATOM     47  C   UNL A   1      39.526  25.686  28.013  1.00  0.00     0.031 C 
ATOM     48  C   UNL A   1      42.852  28.323  28.929  1.00  0.00     0.029 A 
ATOM     49  N   UNL A   1      41.551  29.871  29.945  1.00  0.00    -0.354 N 
ATOM     50  C   UNL A   1      41.525  24.573  28.289  1.00  0.00     0.074 A 
ATOM     51  C   UNL A   1      40.185  24.555  27.745  1.00  0.00     0.031 C 
ATOM     52  C   UNL A   1      43.654  29.072  29.701  1.00  0.00     0.029 A 
ATOM     53  C   UNL A   1      42.802  29.814  30.610  1.00  0.00     0.049 A 
ATOM     54  H   UNL A   1      40.889  30.599  29.971  1.00  0.00     0.167 HD
ATOM     55  C   UNL A   1      42.630  23.779  28.175  1.00  0.00     0.037 A 
ATOM     56  C   UNL A   1      42.873  29.784  31.973  1.00  0.00     0.037 A 
ATOM     57  C   UNL A   1      43.773  24.327  28.903  1.00  0.00     0.049 A 
ATOM     58  C   UNL A   1      43.556  28.559  32.548  1.00  0.00     0.074 A 
ATOM     59  C   UNL A   1      44.900  25.048  28.542  1.00  0.00     0.029 A 
ATOM     60  N   UNL A   1      43.709  24.390  30.283  1.00  0.00    -0.354 N 
ATOM     61  N   UNL A   1      43.971  27.544  31.843  1.00  0.00    -0.248 NA
ATOM     62  C   UNL A   1      43.714  28.337  33.987  1.00  0.00     0.031 C 
ATOM     63  C   UNL A   1      45.518  25.536  29.728  1.00  0.00     0.029 A 
ATOM     64  C   UNL A   1      44.761  25.116  30.805  1.00  0.00     0.049 A 
ATOM     65  H   UNL A   1      43.003  23.970  30.824  1.00  0.00     0.167 HD
ATOM     66  C   UNL A   1      44.389  26.549  32.685  1.00  0.00     0.074 A 
ATOM     67  C   UNL A   1      44.206  27.088  34.018  1.00  0.00     0.031 C 
ATOM     68  C   UNL A   1      44.815  25.334  32.238  1.00  0.00     0.037 A 
BRANCH  55  69
ATOM     69  C   UNL A   1      42.737  22.613  27.220  1.00  0.00     0.064 A 
ATOM     70  C   UNL A   1      41.983  21.437  27.424  1.00  0.00     0.173 A 
ATOM     71  C   UNL A   1      43.596  22.575  26.107  1.00  0.00     0.173 A 
ATOM     72  F   UNL A   1      41.036  21.365  28.367  1.00  0.00    -0.203 F 
ATOM     73  C   UNL A   1      42.175  20.281  26.663  1.00  0.00     0.198 A 
ATOM     74  C   UNL A   1      43.837  21.400  25.386  1.00  0.00     0.198 A 
ATOM     75  F   UNL A   1      44.185  23.686  25.646  1.00  0.00    -0.203 F 
ATOM     76  F   UNL A   1      41.432  19.193  26.909  1.00  0.00    -0.200 F 
ATOM     77  C   UNL A   1      43.136  20.248  25.674  1.00  0.00     0.200 A 
ATOM     78  F   UNL A   1      44.753  21.397  24.407  1.00  0.00    -0.200 F 
ATOM     79  F   UNL A   1      43.361  19.123  24.983  1.00  0.00    -0.200 F 
ENDBRANCH  55  69
BRANCH  56  80
ATOM     80  C   UNL A   1      41.766  30.527  32.630  1.00  0.00     0.064 A 
ATOM     81  C   UNL A   1      41.819  31.935  32.655  1.00  0.00     0.173 A 
ATOM     82  C   UNL A   1      40.534  29.922  32.904  1.00  0.00     0.173 A 
ATOM     83  F   UNL A   1      42.973  32.574  32.399  1.00  0.00    -0.203 F 
ATOM     84  C   UNL A   1      40.667  32.699  32.817  1.00  0.00     0.198 A 
ATOM     85  C   UNL A   1      39.387  30.694  33.098  1.00  0.00     0.198 A 
ATOM     86  F   UNL A   1      40.407  28.588  32.867  1.00  0.00    -0.203 F 
ATOM     87  F   UNL A   1      40.729  34.031  32.693  1.00  0.00    -0.200 F 
ATOM     88  C   UNL A   1      39.447  32.077  33.018  1.00  0.00     0.200 A 
ATOM     89  F   UNL A   1      38.202  30.090  33.260  1.00  0.00    -0.200 F 
ATOM     90  F   UNL A   1      38.326  32.807  33.084  1.00  0.00    -0.200 F 
ENDBRANCH  56  80
BRANCH  68  91
ATOM     91  C   UNL A   1      45.309  24.245  33.144  1.00  0.00     0.064 A 
ATOM     92  C   UNL A   1      44.492  23.177  33.545  1.00  0.00     0.173 A 
ATOM     93  C   UNL A   1      46.590  24.304  33.730  1.00  0.00     0.173 A 
ATOM     94  F   UNL A   1      43.233  23.070  33.095  1.00  0.00    -0.203 F 
ATOM     95  C   UNL A   1      44.947  22.201  34.435  1.00  0.00     0.198 A 
ATOM     96  C   UNL A   1      47.024  23.357  34.656  1.00  0.00     0.198 A 
ATOM     97  F   UNL A   1      47.465  25.266  33.402  1.00  0.00    -0.203 F 
ATOM     98  F   UNL A   1      44.154  21.167  34.750  1.00  0.00    -0.200 F 
ATOM     99  C   UNL A   1      46.207  22.298  34.998  1.00  0.00     0.200 A 
ATOM    100  F   UNL A   1      48.239  23.476  35.209  1.00  0.00    -0.200 F 
ATOM    101  F   UNL A   1      46.634  21.370  35.865  1.00  0.00    -0.200 F 
ENDBRANCH  68  91
ENDBRANCH  42  43
ENDBRANCH  34  37
ENDBRANCH  32  33
ENDBRANCH  31  32
ENDBRANCH   1  31
TORSDOF 15
ENDMDL
MODEL 3
REMARK VINA RESULT:     -14.6      4.358     10.641
REMARK SMILES Cc1ccccc1S(=O)(=O)Nc1ccc(N2CCOCC2)cc1C(=O)NCCCCNC(=O)c1ccc(-c2c3nc(c(-c4c(F)c(F)c(F)c(F)c4F)c4ccc([nH]4)c(-c4c(F)c(F)c(F)c(F)c4F)c4nc(c(-c5c(F)c(F)c(F)c(F)c5F)c5ccc2[nH]5)C=C4)C=C3)cc1
REMARK SMILES IDX 28 1 27 2 26 3 24 4 25 5 23 7 12 8 13 9 14 10 22 11 15 12
REMARK SMILES IDX 11 13 8 15 9 16 10 17 7 18 1 19 2 20 3 21 4 22 6 23 5 24
REMARK SMILES IDX 16 25 17 26 21 27 18 28 20 29 19 30 29 31 30 32 31 33 32 34
REMARK SMILES IDX 33 36 34 37 35 38 96 39 36 40 95 41 37 42 38 43 39 44 89 45
REMARK SMILES IDX 40 46 94 47 88 48 90 49 41 50 93 51 87 52 86 53 42 55 74 56
REMARK SMILES IDX 54 57 73 58 55 59 58 60 72 61 91 62 56 63 57 64 71 66 92 67
REMARK SMILES IDX 59 68 43 69 44 70 52 71 45 72 46 73 50 74 53 75 47 76 48 77
REMARK SMILES IDX 51 78 49 79 75 80 76 81 84 82 77 83 78 84 82 85 85 86 79 87
REMARK SMILES IDX 80 88 83 89 81 90 60 91 61 92 69 93 62 94 63 95 67 96 70 97
REMARK SMILES IDX 64 98 65 99 68 100 66 101
REMARK H PARENT 26 6 11 14 31 35 90 54 58 65
REMARK Flexibility Score: inf
ROOT
ATOM      1  C   UNL A   1      32.935  29.015  26.579  1.00  0.00     0.023 C 
ENDROOT
BRANCH   1   2
ATOM      2  C   UNL A   1      33.034  29.941  25.366  1.00  0.00     0.116 C 
BRANCH   2   3
ATOM      3  N   UNL A   1      33.578  29.349  24.147  1.00  0.00    -0.352 N 
ATOM      4  C   UNL A   1      32.992  28.752  23.046  1.00  0.00     0.253 C 
ATOM      5  O   UNL A   1      33.716  28.446  22.101  1.00  0.00    -0.269 OA
ATOM      6  H   UNL A   1      34.560  29.380  24.100  1.00  0.00     0.163 HD
BRANCH   4   7
ATOM      7  C   UNL A   1      31.536  28.453  22.994  1.00  0.00     0.066 A 
ATOM      8  C   UNL A   1      31.024  27.230  23.456  1.00  0.00     0.062 A 
ATOM      9  C   UNL A   1      29.645  27.037  23.477  1.00  0.00     0.030 A 
ATOM     10  C   UNL A   1      28.788  28.097  23.167  1.00  0.00     0.028 A 
ATOM     11  C   UNL A   1      30.651  29.431  22.521  1.00  0.00     0.042 A 
ATOM     12  C   UNL A   1      29.273  29.335  22.724  1.00  0.00     0.038 A 
BRANCH   8  13
ATOM     13  N   UNL A   1      31.862  26.162  23.859  1.00  0.00    -0.279 N 
ATOM     14  H   UNL A   1      32.676  25.979  23.334  1.00  0.00     0.180 HD
BRANCH  13  15
ATOM     15  S   UNL A   1      31.536  25.201  25.181  1.00  0.00     0.262 S 
ATOM     16  O   UNL A   1      30.738  24.101  24.673  1.00  0.00    -0.201 OA
ATOM     17  O   UNL A   1      31.005  26.019  26.249  1.00  0.00    -0.201 OA
BRANCH  15  18
ATOM     18  C   UNL A   1      33.126  24.532  25.679  1.00  0.00     0.090 A 
ATOM     19  C   UNL A   1      32.181  22.912  27.477  1.00  0.00     0.046 C 
ATOM     20  C   UNL A   1      33.266  23.477  26.605  1.00  0.00    -0.031 A 
ATOM     21  C   UNL A   1      34.552  22.937  26.809  1.00  0.00     0.005 A 
ATOM     22  C   UNL A   1      35.664  23.414  26.119  1.00  0.00     0.000 A 
ATOM     23  C   UNL A   1      34.259  25.017  24.997  1.00  0.00     0.022 A 
ATOM     24  C   UNL A   1      35.520  24.462  25.219  1.00  0.00     0.001 A 
ENDBRANCH  15  18
ENDBRANCH  13  15
ENDBRANCH   8  13
BRANCH  12  25
ATOM     25  N   UNL A   1      28.440  30.420  22.558  1.00  0.00    -0.367 N 
ATOM     26  C   UNL A   1      27.773  30.763  21.292  1.00  0.00     0.145 C 
ATOM     27  C   UNL A   1      28.367  31.478  23.586  1.00  0.00     0.145 C 
ATOM     28  C   UNL A   1      28.237  32.141  20.801  1.00  0.00     0.181 C 
ATOM     29  C   UNL A   1      28.763  32.842  22.986  1.00  0.00     0.181 C 
ATOM     30  O   UNL A   1      28.015  33.150  21.800  1.00  0.00    -0.378 OA
ENDBRANCH  12  25
ENDBRANCH   4   7
ENDBRANCH   2   3
ENDBRANCH   1   2
BRANCH   1  31
ATOM     31  C   UNL A   1      33.849  29.328  27.754  1.00  0.00     0.023 C 
BRANCH  31  32
ATOM     32  C   UNL A   1      34.688  30.582  27.575  1.00  0.00     0.116 C 
BRANCH  32  33
ATOM     33  N   UNL A   1      35.064  31.243  28.822  1.00  0.00    -0.352 N 
ATOM     34  C   UNL A   1      36.086  30.895  29.695  1.00  0.00     0.251 C 
ATOM     35  H   UNL A   1      34.529  32.029  29.074  1.00  0.00     0.163 HD
ATOM     36  O   UNL A   1      36.317  31.546  30.699  1.00  0.00    -0.269 OA
BRANCH  34  37
ATOM     37  C   UNL A   1      36.968  29.769  29.307  1.00  0.00     0.039 A 
ATOM     38  C   UNL A   1      37.263  28.801  30.269  1.00  0.00     0.014 A 
ATOM     39  C   UNL A   1      37.693  29.843  28.120  1.00  0.00     0.014 A 
ATOM     40  C   UNL A   1      38.450  28.081  30.154  1.00  0.00     0.010 A 
ATOM     41  C   UNL A   1      38.918  29.207  28.058  1.00  0.00     0.010 A 
ATOM     42  C   UNL A   1      39.329  28.383  29.112  1.00  0.00    -0.014 A 
BRANCH  42  43
ATOM     43  C   UNL A   1      40.737  27.991  29.127  1.00  0.00     0.031 A 
ATOM     44  C   UNL A   1      41.171  26.695  28.569  1.00  0.00     0.074 A 
ATOM     45  C   UNL A   1      41.666  28.850  29.607  1.00  0.00     0.049 A 
ATOM     46  N   UNL A   1      42.262  26.090  28.908  1.00  0.00    -0.248 NA
ATOM     47  C   UNL A   1      40.382  25.955  27.595  1.00  0.00     0.031 C 
ATOM     48  C   UNL A   1      43.119  28.732  29.504  1.00  0.00     0.029 A 
ATOM     49  N   UNL A   1      41.471  29.918  30.502  1.00  0.00    -0.354 N 
ATOM     50  C   UNL A   1      42.447  25.037  28.046  1.00  0.00     0.074 A 
ATOM     51  C   UNL A   1      41.226  24.970  27.273  1.00  0.00     0.031 C 
ATOM     52  C   UNL A   1      43.677  29.413  30.517  1.00  0.00     0.029 A 
ATOM     53  C   UNL A   1      42.596  29.880  31.364  1.00  0.00     0.049 A 
ATOM     54  H   UNL A   1      40.718  30.553  30.524  1.00  0.00     0.167 HD
ATOM     55  C   UNL A   1      43.655  24.403  28.008  1.00  0.00     0.037 A 
ATOM     56  C   UNL A   1      42.454  29.611  32.695  1.00  0.00     0.037 A 
ATOM     57  C   UNL A   1      44.580  24.932  29.008  1.00  0.00     0.049 A 
ATOM     58  C   UNL A   1      43.199  28.385  33.182  1.00  0.00     0.074 A 
ATOM     59  C   UNL A   1      45.639  25.826  28.976  1.00  0.00     0.029 A 
ATOM     60  N   UNL A   1      44.290  24.738  30.346  1.00  0.00    -0.354 N 
ATOM     61  N   UNL A   1      43.859  27.567  32.410  1.00  0.00    -0.248 NA
ATOM     62  C   UNL A   1      43.157  27.926  34.572  1.00  0.00     0.031 C 
ATOM     63  C   UNL A   1      45.987  26.156  30.317  1.00  0.00     0.029 A 
ATOM     64  C   UNL A   1      45.134  25.468  31.159  1.00  0.00     0.049 A 
ATOM     65  H   UNL A   1      43.572  24.151  30.677  1.00  0.00     0.167 HD
ATOM     66  C   UNL A   1      44.272  26.488  33.144  1.00  0.00     0.074 A 
ATOM     67  C   UNL A   1      43.807  26.753  34.491  1.00  0.00     0.031 C 
ATOM     68  C   UNL A   1      44.929  25.428  32.594  1.00  0.00     0.037 A 
BRANCH  55  69
ATOM     69  C   UNL A   1      44.073  23.447  26.915  1.00  0.00     0.064 A 
ATOM     70  C   UNL A   1      45.006  23.836  25.929  1.00  0.00     0.173 A 
ATOM     71  C   UNL A   1      43.560  22.147  26.758  1.00  0.00     0.173 A 
ATOM     72  F   UNL A   1      45.671  24.994  26.010  1.00  0.00    -0.203 F 
ATOM     73  C   UNL A   1      45.291  23.045  24.813  1.00  0.00     0.198 A 
ATOM     74  C   UNL A   1      43.794  21.382  25.611  1.00  0.00     0.198 A 
ATOM     75  F   UNL A   1      42.862  21.553  27.736  1.00  0.00    -0.203 F 
ATOM     76  F   UNL A   1      46.183  23.472  23.908  1.00  0.00    -0.200 F 
ATOM     77  C   UNL A   1      44.650  21.838  24.630  1.00  0.00     0.200 A 
ATOM     78  F   UNL A   1      43.185  20.196  25.466  1.00  0.00    -0.200 F 
ATOM     79  F   UNL A   1      44.880  21.105  23.532  1.00  0.00    -0.200 F 
ENDBRANCH  55  69
BRANCH  56  80
ATOM     80  C   UNL A   1      41.163  30.097  33.251  1.00  0.00     0.064 A 
ATOM     81  C   UNL A   1      40.983  31.484  33.425  1.00  0.00     0.173 A 
ATOM     82  C   UNL A   1      40.021  29.289  33.276  1.00  0.00     0.173 A 
ATOM     83  F   UNL A   1      42.040  32.313  33.409  1.00  0.00    -0.203 F 
ATOM     84  C   UNL A   1      39.710  32.044  33.490  1.00  0.00     0.198 A 
ATOM     85  C   UNL A   1      38.749  29.853  33.374  1.00  0.00     0.198 A 
ATOM     86  F   UNL A   1      40.119  27.965  33.088  1.00  0.00    -0.203 F 
ATOM     87  F   UNL A   1      39.570  33.376  33.511  1.00  0.00    -0.200 F 
ATOM     88  C   UNL A   1      38.592  31.230  33.443  1.00  0.00     0.200 A 
ATOM     89  F   UNL A   1      37.666  29.066  33.297  1.00  0.00    -0.200 F 
ATOM     90  F   UNL A   1      37.368  31.773  33.415  1.00  0.00    -0.200 F 
ENDBRANCH  56  80
BRANCH  68  91
ATOM     91  C   UNL A   1      45.419  24.253  33.388  1.00  0.00     0.064 A 
ATOM     92  C   UNL A   1      44.601  23.151  33.678  1.00  0.00     0.173 A 
ATOM     93  C   UNL A   1      46.698  24.254  33.983  1.00  0.00     0.173 A 
ATOM     94  F   UNL A   1      43.344  23.090  33.213  1.00  0.00    -0.203 F 
ATOM     95  C   UNL A   1      45.053  22.091  34.467  1.00  0.00     0.198 A 
ATOM     96  C   UNL A   1      47.128  23.220  34.812  1.00  0.00     0.198 A 
ATOM     97  F   UNL A   1      47.574  25.245  33.757  1.00  0.00    -0.203 F 
ATOM     98  F   UNL A   1      44.259  21.031  34.674  1.00  0.00    -0.200 F 
ATOM     99  C   UNL A   1      46.311  22.132  35.043  1.00  0.00     0.200 A 
ATOM    100  F   UNL A   1      48.341  23.283  35.380  1.00  0.00    -0.200 F 
ATOM    101  F   UNL A   1      46.735  21.122  35.815  1.00  0.00    -0.200 F 
ENDBRANCH  68  91
ENDBRANCH  42  43
ENDBRANCH  34  37
ENDBRANCH  32  33
ENDBRANCH  31  32
ENDBRANCH   1  31
TORSDOF 15
ENDMDL
