MODEL 1
REMARK VINA RESULT:     -14.5      0.000      0.000
REMARK SMILES Cc1cccc(S(=O)(=O)Nc2cnc(N(C)Cc3ccccc3)c(C(=O)NCCCCNC(=O)c3ccc(-c4c5nc(c(-c6c(F)c(F)c(F)c(F)c6F)c6ccc([nH]6)c(-c6c(F)c(F)c(F)c(F)c6F)c6nc(c(-c7c(F)c(F)c(F)c(F)c7F)c7ccc4[nH]7)C=C6)C=C5)cc3)c2)c1
REMARK SMILES IDX 29 1 28 2 27 3 25 4 26 5 24 7 11 8 12 9 98 10 13 11 14 12
REMARK SMILES IDX 10 13 7 15 8 16 9 17 6 18 1 19 2 20 3 21 99 22 4 23 5 24
REMARK SMILES IDX 15 25 16 26 17 27 18 28 19 29 23 30 20 31 22 32 21 33 30 34
REMARK SMILES IDX 31 35 32 36 33 37 34 39 35 40 36 41 97 42 37 43 96 44 38 45
REMARK SMILES IDX 39 46 40 47 90 48 41 49 95 50 89 51 91 52 42 53 94 54 88 55
REMARK SMILES IDX 87 56 43 58 75 59 55 60 74 61 56 62 59 63 73 64 92 65 57 66
REMARK SMILES IDX 58 67 72 69 93 70 60 71 44 72 45 73 53 74 46 75 47 76 51 77
REMARK SMILES IDX 54 78 48 79 49 80 52 81 50 82 76 83 77 84 85 85 78 86 79 87
REMARK SMILES IDX 83 88 86 89 80 90 81 91 84 92 82 93 61 94 62 95 70 96 63 97
REMARK SMILES IDX 64 98 68 99 71 100 65 101 66 102 69 103 67 104
REMARK H PARENT 27 6 10 14 32 38 91 57 59 68
REMARK Flexibility Score: inf
ROOT
ATOM      1  C   UNL A   1      31.999  29.129  27.111  1.00  0.00     0.023 C 
ENDROOT
BRANCH   1   2
ATOM      2  C   UNL A   1      33.028  28.138  26.536  1.00  0.00     0.116 C 
BRANCH   2   3
ATOM      3  N   UNL A   1      33.060  28.213  25.079  1.00  0.00    -0.352 N 
ATOM      4  C   UNL A   1      33.069  27.237  24.104  1.00  0.00     0.255 C 
ATOM      5  O   UNL A   1      33.723  27.469  23.089  1.00  0.00    -0.269 OA
ATOM      6  H   UNL A   1      33.079  29.132  24.726  1.00  0.00     0.163 HD
BRANCH   4   7
ATOM      7  C   UNL A   1      32.331  25.959  24.238  1.00  0.00     0.084 A 
ATOM      8  C   UNL A   1      32.433  23.642  24.950  1.00  0.00     0.068 A 
ATOM      9  C   UNL A   1      31.129  23.523  24.534  1.00  0.00     0.140 A 
ATOM     10  C   UNL A   1      33.078  24.833  24.664  1.00  0.00     0.046 A 
ATOM     11  N   UNL A   1      30.424  24.550  24.025  1.00  0.00    -0.236 NA
ATOM     12  C   UNL A   1      30.963  25.800  23.909  1.00  0.00     0.141 A 
BRANCH   8  13
ATOM     13  N   UNL A   1      32.995  22.544  25.666  1.00  0.00    -0.278 N 
ATOM     14  H   UNL A   1      32.681  22.354  26.579  1.00  0.00     0.180 HD
BRANCH  13  15
ATOM     15  S   UNL A   1      34.190  21.560  24.978  1.00  0.00     0.261 S 
ATOM     16  O   UNL A   1      35.124  21.257  26.047  1.00  0.00    -0.201 OA
ATOM     17  O   UNL A   1      34.633  22.264  23.796  1.00  0.00    -0.201 OA
BRANCH  15  18
ATOM     18  C   UNL A   1      33.541  19.990  24.438  1.00  0.00     0.088 A 
ATOM     19  C   UNL A   1      34.635  16.380  24.173  1.00  0.00     0.044 C 
ATOM     20  C   UNL A   1      33.818  17.621  24.007  1.00  0.00    -0.050 A 
ATOM     21  C   UNL A   1      32.838  17.680  23.025  1.00  0.00     0.003 A 
ATOM     22  C   UNL A   1      34.094  18.759  24.775  1.00  0.00     0.025 A 
ATOM     23  C   UNL A   1      32.162  18.872  22.798  1.00  0.00     0.002 A 
ATOM     24  C   UNL A   1      32.539  20.037  23.465  1.00  0.00     0.022 A 
ENDBRANCH  15  18
ENDBRANCH  13  15
ENDBRANCH   8  13
BRANCH  12  25
ATOM     25  N   UNL A   1      30.037  26.739  23.506  1.00  0.00    -0.355 N 
ATOM     26  C   UNL A   1      28.660  26.573  23.994  1.00  0.00     0.145 C 
BRANCH  25  27
ATOM     27  C   UNL A   1      30.197  27.838  22.556  1.00  0.00     0.153 C 
BRANCH  27  28
ATOM     28  C   UNL A   1      29.430  29.096  22.911  1.00  0.00    -0.029 A 
ATOM     29  C   UNL A   1      30.011  30.028  23.788  1.00  0.00     0.005 A 
ATOM     30  C   UNL A   1      28.217  29.432  22.291  1.00  0.00     0.005 A 
ATOM     31  C   UNL A   1      29.384  31.247  24.057  1.00  0.00     0.000 A 
ATOM     32  C   UNL A   1      27.589  30.651  22.561  1.00  0.00     0.000 A 
ATOM     33  C   UNL A   1      28.171  31.558  23.445  1.00  0.00     0.000 A 
ENDBRANCH  27  28
ENDBRANCH  25  27
ENDBRANCH  12  25
ENDBRANCH   4   7
ENDBRANCH   2   3
ENDBRANCH   1   2
BRANCH   1  34
ATOM     34  C   UNL A   1      32.543  30.549  27.311  1.00  0.00     0.023 C 
BRANCH  34  35
ATOM     35  C   UNL A   1      34.055  30.652  27.171  1.00  0.00     0.116 C 
BRANCH  35  36
ATOM     36  N   UNL A   1      34.675  31.548  28.137  1.00  0.00    -0.352 N 
ATOM     37  C   UNL A   1      35.751  31.340  28.988  1.00  0.00     0.251 C 
ATOM     38  H   UNL A   1      34.266  32.441  28.196  1.00  0.00     0.163 HD
ATOM     39  O   UNL A   1      36.079  32.191  29.785  1.00  0.00    -0.269 OA
BRANCH  37  40
ATOM     40  C   UNL A   1      36.589  30.125  28.811  1.00  0.00     0.039 A 
ATOM     41  C   UNL A   1      36.737  29.278  29.918  1.00  0.00     0.014 A 
ATOM     42  C   UNL A   1      37.372  29.941  27.677  1.00  0.00     0.014 A 
ATOM     43  C   UNL A   1      37.842  28.437  29.989  1.00  0.00     0.010 A 
ATOM     44  C   UNL A   1      38.519  29.185  27.783  1.00  0.00     0.010 A 
ATOM     45  C   UNL A   1      38.791  28.502  28.973  1.00  0.00    -0.014 A 
BRANCH  45  46
ATOM     46  C   UNL A   1      40.156  28.022  29.123  1.00  0.00     0.031 A 
ATOM     47  C   UNL A   1      40.536  26.673  28.668  1.00  0.00     0.074 A 
ATOM     48  C   UNL A   1      41.097  28.896  29.541  1.00  0.00     0.049 A 
ATOM     49  N   UNL A   1      41.637  26.081  28.982  1.00  0.00    -0.248 NA
ATOM     50  C   UNL A   1      39.657  25.851  27.849  1.00  0.00     0.031 C 
ATOM     51  C   UNL A   1      42.546  28.753  29.439  1.00  0.00     0.029 A 
ATOM     52  N   UNL A   1      40.912  30.021  30.367  1.00  0.00    -0.354 N 
ATOM     53  C   UNL A   1      41.753  24.956  28.197  1.00  0.00     0.074 A 
ATOM     54  C   UNL A   1      40.453  24.812  27.585  1.00  0.00     0.031 C 
ATOM     55  C   UNL A   1      43.118  29.507  30.388  1.00  0.00     0.029 A 
ATOM     56  C   UNL A   1      42.044  30.046  31.206  1.00  0.00     0.049 A 
ATOM     57  H   UNL A   1      40.156  30.652  30.359  1.00  0.00     0.167 HD
ATOM     58  C   UNL A   1      42.987  24.383  28.064  1.00  0.00     0.037 A 
ATOM     59  C   UNL A   1      41.960  29.920  32.560  1.00  0.00     0.037 A 
ATOM     60  C   UNL A   1      43.940  24.985  29.006  1.00  0.00     0.049 A 
ATOM     61  C   UNL A   1      42.803  28.786  33.076  1.00  0.00     0.074 A 
ATOM     62  C   UNL A   1      44.952  25.922  28.859  1.00  0.00     0.029 A 
ATOM     63  N   UNL A   1      43.719  24.865  30.379  1.00  0.00    -0.354 N 
ATOM     64  N   UNL A   1      43.113  27.742  32.357  1.00  0.00    -0.248 NA
ATOM     65  C   UNL A   1      43.401  28.758  34.405  1.00  0.00     0.031 C 
ATOM     66  C   UNL A   1      45.300  26.404  30.148  1.00  0.00     0.029 A 
ATOM     67  C   UNL A   1      44.518  25.744  31.084  1.00  0.00     0.049 A 
ATOM     68  H   UNL A   1      43.080  24.238  30.789  1.00  0.00     0.167 HD
ATOM     69  C   UNL A   1      43.962  26.940  33.070  1.00  0.00     0.074 A 
ATOM     70  C   UNL A   1      44.103  27.612  34.350  1.00  0.00     0.031 C 
ATOM     71  C   UNL A   1      44.497  25.801  32.541  1.00  0.00     0.037 A 
BRANCH  58  72
ATOM     72  C   UNL A   1      43.409  23.499  26.894  1.00  0.00     0.064 A 
ATOM     73  C   UNL A   1      43.007  22.144  26.831  1.00  0.00     0.173 A 
ATOM     74  C   UNL A   1      44.272  23.884  25.850  1.00  0.00     0.173 A 
ATOM     75  F   UNL A   1      42.105  21.638  27.683  1.00  0.00    -0.203 F 
ATOM     76  C   UNL A   1      43.515  21.241  25.887  1.00  0.00     0.198 A 
ATOM     77  C   UNL A   1      44.815  22.976  24.932  1.00  0.00     0.198 A 
ATOM     78  F   UNL A   1      44.583  25.161  25.626  1.00  0.00    -0.203 F 
ATOM     79  F   UNL A   1      43.104  19.966  25.896  1.00  0.00    -0.200 F 
ATOM     80  C   UNL A   1      44.446  21.650  24.957  1.00  0.00     0.200 A 
ATOM     81  F   UNL A   1      45.697  23.407  24.018  1.00  0.00    -0.200 F 
ATOM     82  F   UNL A   1      44.961  20.784  24.075  1.00  0.00    -0.200 F 
ENDBRANCH  58  72
BRANCH  59  83
ATOM     83  C   UNL A   1      40.677  30.408  33.127  1.00  0.00     0.064 A 
ATOM     84  C   UNL A   1      40.473  31.800  33.185  1.00  0.00     0.173 A 
ATOM     85  C   UNL A   1      39.543  29.593  33.195  1.00  0.00     0.173 A 
ATOM     86  F   UNL A   1      41.527  32.629  33.192  1.00  0.00    -0.203 F 
ATOM     87  C   UNL A   1      39.198  32.356  33.137  1.00  0.00     0.198 A 
ATOM     88  C   UNL A   1      38.260  30.154  33.187  1.00  0.00     0.198 A 
ATOM     89  F   UNL A   1      39.663  28.260  33.149  1.00  0.00    -0.203 F 
ATOM     90  F   UNL A   1      39.052  33.685  33.042  1.00  0.00    -0.200 F 
ATOM     91  C   UNL A   1      38.091  31.529  33.106  1.00  0.00     0.200 A 
ATOM     92  F   UNL A   1      37.186  29.354  33.151  1.00  0.00    -0.200 F 
ATOM     93  F   UNL A   1      36.864  32.052  32.965  1.00  0.00    -0.200 F 
ENDBRANCH  59  83
BRANCH  71  94
ATOM     94  C   UNL A   1      45.158  24.694  33.328  1.00  0.00     0.064 A 
ATOM     95  C   UNL A   1      44.540  23.463  33.610  1.00  0.00     0.173 A 
ATOM     96  C   UNL A   1      46.525  24.781  33.685  1.00  0.00     0.173 A 
ATOM     97  F   UNL A   1      43.287  23.202  33.216  1.00  0.00    -0.203 F 
ATOM     98  C   UNL A   1      45.217  22.424  34.254  1.00  0.00     0.198 A 
ATOM     99  C   UNL A   1      47.213  23.720  34.273  1.00  0.00     0.198 A 
ATOM    100  F   UNL A   1      47.249  25.884  33.442  1.00  0.00    -0.203 F 
ATOM    101  F   UNL A   1      44.567  21.286  34.534  1.00  0.00    -0.200 F 
ATOM    102  C   UNL A   1      46.555  22.547  34.572  1.00  0.00     0.200 A 
ATOM    103  F   UNL A   1      48.526  23.836  34.522  1.00  0.00    -0.200 F 
ATOM    104  F   UNL A   1      47.213  21.527  35.138  1.00  0.00    -0.200 F 
ENDBRANCH  71  94
ENDBRANCH  45  46
ENDBRANCH  37  40
ENDBRANCH  35  36
ENDBRANCH  34  35
ENDBRANCH   1  34
TORSDOF 17
ENDMDL
MODEL 2
REMARK VINA RESULT:     -14.5      3.631     10.584
REMARK SMILES Cc1cccc(S(=O)(=O)Nc2cnc(N(C)Cc3ccccc3)c(C(=O)NCCCCNC(=O)c3ccc(-c4c5nc(c(-c6c(F)c(F)c(F)c(F)c6F)c6ccc([nH]6)c(-c6c(F)c(F)c(F)c(F)c6F)c6nc(c(-c7c(F)c(F)c(F)c(F)c7F)c7ccc4[nH]7)C=C6)C=C5)cc3)c2)c1
REMARK SMILES IDX 29 1 28 2 27 3 25 4 26 5 24 7 11 8 12 9 98 10 13 11 14 12
REMARK SMILES IDX 10 13 7 15 8 16 9 17 6 18 1 19 2 20 3 21 99 22 4 23 5 24
REMARK SMILES IDX 15 25 16 26 17 27 18 28 19 29 23 30 20 31 22 32 21 33 30 34
REMARK SMILES IDX 31 35 32 36 33 37 34 39 35 40 36 41 97 42 37 43 96 44 38 45
REMARK SMILES IDX 39 46 40 47 90 48 41 49 95 50 89 51 91 52 42 53 94 54 88 55
REMARK SMILES IDX 87 56 43 58 75 59 55 60 74 61 56 62 59 63 73 64 92 65 57 66
REMARK SMILES IDX 58 67 72 69 93 70 60 71 44 72 45 73 53 74 46 75 47 76 51 77
REMARK SMILES IDX 54 78 48 79 49 80 52 81 50 82 76 83 77 84 85 85 78 86 79 87
REMARK SMILES IDX 83 88 86 89 80 90 81 91 84 92 82 93 61 94 62 95 70 96 63 97
REMARK SMILES IDX 64 98 68 99 71 100 65 101 66 102 69 103 67 104
REMARK H PARENT 27 6 10 14 32 38 91 57 59 68
REMARK Flexibility Score: inf
ROOT
ATOM      1  C   UNL A   1      36.579  21.490  25.072  1.00  0.00     0.023 C 
ENDROOT
BRANCH   1   2
ATOM      2  C   UNL A   1      35.720  22.651  25.611  1.00  0.00     0.116 C 
BRANCH   2   3
ATOM      3  N   UNL A   1      34.808  22.181  26.648  1.00  0.00    -0.352 N 
ATOM      4  C   UNL A   1      33.608  22.675  27.116  1.00  0.00     0.255 C 
ATOM      5  O   UNL A   1      33.380  22.540  28.316  1.00  0.00    -0.269 OA
ATOM      6  H   UNL A   1      35.104  21.356  27.098  1.00  0.00     0.163 HD
BRANCH   4   7
ATOM      7  C   UNL A   1      32.615  23.339  26.239  1.00  0.00     0.084 A 
ATOM      8  C   UNL A   1      31.367  25.370  25.790  1.00  0.00     0.068 A 
ATOM      9  C   UNL A   1      30.784  24.704  24.739  1.00  0.00     0.140 A 
ATOM     10  C   UNL A   1      32.182  24.630  26.629  1.00  0.00     0.046 A 
ATOM     11  N   UNL A   1      31.098  23.438  24.407  1.00  0.00    -0.236 NA
ATOM     12  C   UNL A   1      32.047  22.733  25.092  1.00  0.00     0.141 A 
BRANCH   8  13
ATOM     13  N   UNL A   1      31.110  26.769  25.903  1.00  0.00    -0.278 N 
ATOM     14  H   UNL A   1      30.634  27.108  26.694  1.00  0.00     0.180 HD
BRANCH  13  15
ATOM     15  S   UNL A   1      31.608  27.858  24.704  1.00  0.00     0.261 S 
ATOM     16  O   UNL A   1      32.320  27.069  23.716  1.00  0.00    -0.201 OA
ATOM     17  O   UNL A   1      32.279  28.925  25.411  1.00  0.00    -0.201 OA
BRANCH  15  18
ATOM     18  C   UNL A   1      30.229  28.589  23.843  1.00  0.00     0.088 A 
ATOM     19  C   UNL A   1      28.525  31.946  23.499  1.00  0.00     0.044 C 
ATOM     20  C   UNL A   1      28.785  30.479  23.380  1.00  0.00    -0.050 A 
ATOM     21  C   UNL A   1      27.745  29.614  23.064  1.00  0.00     0.003 A 
ATOM     22  C   UNL A   1      30.050  29.957  23.674  1.00  0.00     0.025 A 
ATOM     23  C   UNL A   1      27.965  28.243  23.069  1.00  0.00     0.002 A 
ATOM     24  C   UNL A   1      29.186  27.724  23.501  1.00  0.00     0.022 A 
ENDBRANCH  15  18
ENDBRANCH  13  15
ENDBRANCH   8  13
BRANCH  12  25
ATOM     25  N   UNL A   1      32.325  21.516  24.506  1.00  0.00    -0.355 N 
ATOM     26  C   UNL A   1      32.745  21.532  23.097  1.00  0.00     0.145 C 
BRANCH  25  27
ATOM     27  C   UNL A   1      32.155  20.172  25.056  1.00  0.00     0.153 C 
BRANCH  27  28
ATOM     28  C   UNL A   1      32.947  19.095  24.344  1.00  0.00    -0.029 A 
ATOM     29  C   UNL A   1      34.227  18.760  24.817  1.00  0.00     0.005 A 
ATOM     30  C   UNL A   1      32.396  18.321  23.311  1.00  0.00     0.005 A 
ATOM     31  C   UNL A   1      34.945  17.702  24.255  1.00  0.00     0.000 A 
ATOM     32  C   UNL A   1      33.115  17.262  22.748  1.00  0.00     0.000 A 
ATOM     33  C   UNL A   1      34.390  16.954  23.219  1.00  0.00     0.000 A 
ENDBRANCH  27  28
ENDBRANCH  25  27
ENDBRANCH  12  25
ENDBRANCH   4   7
ENDBRANCH   2   3
ENDBRANCH   1   2
BRANCH   1  34
ATOM     34  C   UNL A   1      38.024  21.491  25.586  1.00  0.00     0.023 C 
BRANCH  34  35
ATOM     35  C   UNL A   1      38.512  22.859  26.042  1.00  0.00     0.116 C 
BRANCH  35  36
ATOM     36  N   UNL A   1      39.905  22.874  26.466  1.00  0.00    -0.352 N 
ATOM     37  C   UNL A   1      40.697  23.927  26.903  1.00  0.00     0.251 C 
ATOM     38  H   UNL A   1      40.357  21.999  26.439  1.00  0.00     0.163 HD
ATOM     39  O   UNL A   1      41.871  23.755  27.144  1.00  0.00    -0.269 OA
BRANCH  37  40
ATOM     40  C   UNL A   1      40.056  25.232  27.213  1.00  0.00     0.039 A 
ATOM     41  C   UNL A   1      40.401  26.325  26.406  1.00  0.00     0.014 A 
ATOM     42  C   UNL A   1      39.323  25.422  28.378  1.00  0.00     0.014 A 
ATOM     43  C   UNL A   1      40.247  27.614  26.906  1.00  0.00     0.010 A 
ATOM     44  C   UNL A   1      39.259  26.689  28.918  1.00  0.00     0.010 A 
ATOM     45  C   UNL A   1      39.799  27.770  28.214  1.00  0.00    -0.014 A 
BRANCH  45  46
ATOM     46  C   UNL A   1      39.997  28.986  28.987  1.00  0.00     0.031 A 
ATOM     47  C   UNL A   1      38.949  30.019  29.050  1.00  0.00     0.074 A 
ATOM     48  C   UNL A   1      41.094  29.072  29.770  1.00  0.00     0.049 A 
ATOM     49  N   UNL A   1      39.130  31.216  29.494  1.00  0.00    -0.248 NA
ATOM     50  C   UNL A   1      37.599  29.791  28.556  1.00  0.00     0.031 C 
ATOM     51  C   UNL A   1      41.329  30.007  30.866  1.00  0.00     0.029 A 
ATOM     52  N   UNL A   1      42.339  28.448  29.567  1.00  0.00    -0.354 N 
ATOM     53  C   UNL A   1      37.897  31.814  29.623  1.00  0.00     0.074 A 
ATOM     54  C   UNL A   1      36.994  30.919  28.936  1.00  0.00     0.031 C 
ATOM     55  C   UNL A   1      42.651  30.146  31.033  1.00  0.00     0.029 A 
ATOM     56  C   UNL A   1      43.295  29.407  29.960  1.00  0.00     0.049 A 
ATOM     57  H   UNL A   1      42.506  27.540  29.226  1.00  0.00     0.167 HD
ATOM     58  C   UNL A   1      37.791  32.917  30.422  1.00  0.00     0.037 A 
ATOM     59  C   UNL A   1      44.212  29.927  29.098  1.00  0.00     0.037 A 
ATOM     60  C   UNL A   1      39.121  33.391  30.826  1.00  0.00     0.049 A 
ATOM     61  C   UNL A   1      44.150  31.430  29.045  1.00  0.00     0.074 A 
ATOM     62  C   UNL A   1      39.851  33.274  31.999  1.00  0.00     0.029 A 
ATOM     63  N   UNL A   1      40.019  33.833  29.853  1.00  0.00    -0.354 N 
ATOM     64  N   UNL A   1      43.067  32.109  29.310  1.00  0.00    -0.248 NA
ATOM     65  C   UNL A   1      45.293  32.280  28.744  1.00  0.00     0.031 C 
ATOM     66  C   UNL A   1      41.204  33.595  31.713  1.00  0.00     0.029 A 
ATOM     67  C   UNL A   1      41.295  33.931  30.371  1.00  0.00     0.049 A 
ATOM     68  H   UNL A   1      39.774  34.045  28.922  1.00  0.00     0.167 HD
ATOM     69  C   UNL A   1      43.353  33.446  29.268  1.00  0.00     0.074 A 
ATOM     70  C   UNL A   1      44.756  33.504  28.898  1.00  0.00     0.031 C 
ATOM     71  C   UNL A   1      42.417  34.396  29.563  1.00  0.00     0.037 A 
BRANCH  58  72
ATOM     72  C   UNL A   1      36.497  33.388  31.080  1.00  0.00     0.064 A 
ATOM     73  C   UNL A   1      35.518  34.084  30.330  1.00  0.00     0.173 A 
ATOM     74  C   UNL A   1      36.187  33.271  32.448  1.00  0.00     0.173 A 
ATOM     75  F   UNL A   1      35.601  34.196  28.999  1.00  0.00    -0.203 F 
ATOM     76  C   UNL A   1      34.405  34.701  30.919  1.00  0.00     0.198 A 
ATOM     77  C   UNL A   1      35.099  33.921  33.045  1.00  0.00     0.198 A 
ATOM     78  F   UNL A   1      36.878  32.473  33.263  1.00  0.00    -0.203 F 
ATOM     79  F   UNL A   1      33.526  35.360  30.151  1.00  0.00    -0.200 F 
ATOM     80  C   UNL A   1      34.213  34.648  32.282  1.00  0.00     0.200 A 
ATOM     81  F   UNL A   1      34.920  33.829  34.370  1.00  0.00    -0.200 F 
ATOM     82  F   UNL A   1      33.171  35.265  32.853  1.00  0.00    -0.200 F 
ENDBRANCH  58  72
BRANCH  59  83
ATOM     83  C   UNL A   1      44.580  29.009  27.989  1.00  0.00     0.064 A 
ATOM     84  C   UNL A   1      45.401  27.907  28.296  1.00  0.00     0.173 A 
ATOM     85  C   UNL A   1      43.832  28.941  26.810  1.00  0.00     0.173 A 
ATOM     86  F   UNL A   1      46.192  27.945  29.378  1.00  0.00    -0.203 F 
ATOM     87  C   UNL A   1      45.348  26.728  27.559  1.00  0.00     0.198 A 
ATOM     88  C   UNL A   1      43.810  27.768  26.047  1.00  0.00     0.198 A 
ATOM     89  F   UNL A   1      43.032  29.955  26.455  1.00  0.00    -0.203 F 
ATOM     90  F   UNL A   1      46.033  25.652  27.971  1.00  0.00    -0.200 F 
ATOM     91  C   UNL A   1      44.526  26.649  26.450  1.00  0.00     0.200 A 
ATOM     92  F   UNL A   1      43.009  27.686  24.976  1.00  0.00    -0.200 F 
ATOM     93  F   UNL A   1      44.397  25.489  25.791  1.00  0.00    -0.200 F 
ENDBRANCH  59  83
BRANCH  71  94
ATOM     94  C   UNL A   1      42.524  35.865  29.231  1.00  0.00     0.064 A 
ATOM     95  C   UNL A   1      43.359  36.761  29.922  1.00  0.00     0.173 A 
ATOM     96  C   UNL A   1      41.902  36.389  28.071  1.00  0.00     0.173 A 
ATOM     97  F   UNL A   1      44.103  36.364  30.963  1.00  0.00    -0.203 F 
ATOM     98  C   UNL A   1      43.510  38.091  29.523  1.00  0.00     0.198 A 
ATOM     99  C   UNL A   1      42.104  37.701  27.643  1.00  0.00     0.198 A 
ATOM    100  F   UNL A   1      41.108  35.637  27.296  1.00  0.00    -0.203 F 
ATOM    101  F   UNL A   1      44.288  38.912  30.243  1.00  0.00    -0.200 F 
ATOM    102  C   UNL A   1      42.895  38.557  28.378  1.00  0.00     0.200 A 
ATOM    103  F   UNL A   1      41.545  38.119  26.498  1.00  0.00    -0.200 F 
ATOM    104  F   UNL A   1      43.088  39.818  27.970  1.00  0.00    -0.200 F 
ENDBRANCH  71  94
ENDBRANCH  45  46
ENDBRANCH  37  40
ENDBRANCH  35  36
ENDBRANCH  34  35
ENDBRANCH   1  34
TORSDOF 17
ENDMDL
MODEL 3
REMARK VINA RESULT:     -14.2      3.733     10.595
REMARK SMILES Cc1cccc(S(=O)(=O)Nc2cnc(N(C)Cc3ccccc3)c(C(=O)NCCCCNC(=O)c3ccc(-c4c5nc(c(-c6c(F)c(F)c(F)c(F)c6F)c6ccc([nH]6)c(-c6c(F)c(F)c(F)c(F)c6F)c6nc(c(-c7c(F)c(F)c(F)c(F)c7F)c7ccc4[nH]7)C=C6)C=C5)cc3)c2)c1
REMARK SMILES IDX 29 1 28 2 27 3 25 4 26 5 24 7 11 8 12 9 98 10 13 11 14 12
REMARK SMILES IDX 10 13 7 15 8 16 9 17 6 18 1 19 2 20 3 21 99 22 4 23 5 24
REMARK SMILES IDX 15 25 16 26 17 27 18 28 19 29 23 30 20 31 22 32 21 33 30 34
REMARK SMILES IDX 31 35 32 36 33 37 34 39 35 40 36 41 97 42 37 43 96 44 38 45
REMARK SMILES IDX 39 46 40 47 90 48 41 49 95 50 89 51 91 52 42 53 94 54 88 55
REMARK SMILES IDX 87 56 43 58 75 59 55 60 74 61 56 62 59 63 73 64 92 65 57 66
REMARK SMILES IDX 58 67 72 69 93 70 60 71 44 72 45 73 53 74 46 75 47 76 51 77
REMARK SMILES IDX 54 78 48 79 49 80 52 81 50 82 76 83 77 84 85 85 78 86 79 87
REMARK SMILES IDX 83 88 86 89 80 90 81 91 84 92 82 93 61 94 62 95 70 96 63 97
REMARK SMILES IDX 64 98 68 99 71 100 65 101 66 102 69 103 67 104
REMARK H PARENT 27 6 10 14 32 38 91 57 59 68
REMARK Flexibility Score: inf
ROOT
ATOM      1  C   UNL A   1      36.718  21.572  25.304  1.00  0.00     0.023 C 
ENDROOT
BRANCH   1   2
ATOM      2  C   UNL A   1      35.955  22.712  26.003  1.00  0.00     0.116 C 
BRANCH   2   3
ATOM      3  N   UNL A   1      34.677  22.237  26.522  1.00  0.00    -0.352 N 
ATOM      4  C   UNL A   1      33.400  22.753  26.447  1.00  0.00     0.255 C 
ATOM      5  O   UNL A   1      32.672  22.586  27.423  1.00  0.00    -0.269 OA
ATOM      6  H   UNL A   1      34.737  21.389  27.019  1.00  0.00     0.163 HD
BRANCH   4   7
ATOM      7  C   UNL A   1      32.895  23.478  25.257  1.00  0.00     0.084 A 
ATOM      8  C   UNL A   1      32.589  25.638  24.195  1.00  0.00     0.068 A 
ATOM      9  C   UNL A   1      31.994  24.970  23.152  1.00  0.00     0.140 A 
ATOM     10  C   UNL A   1      32.910  24.893  25.317  1.00  0.00     0.046 A 
ATOM     11  N   UNL A   1      31.869  23.631  23.114  1.00  0.00    -0.236 NA
ATOM     12  C   UNL A   1      32.353  22.838  24.115  1.00  0.00     0.141 A 
BRANCH   8  13
ATOM     13  N   UNL A   1      32.852  27.028  24.018  1.00  0.00    -0.278 N 
ATOM     14  H   UNL A   1      33.710  27.309  23.627  1.00  0.00     0.180 HD
BRANCH  13  15
ATOM     15  S   UNL A   1      31.719  28.206  24.466  1.00  0.00     0.261 S 
ATOM     16  O   UNL A   1      30.564  27.482  24.963  1.00  0.00    -0.201 OA
ATOM     17  O   UNL A   1      31.599  29.078  23.319  1.00  0.00    -0.201 OA
BRANCH  15  18
ATOM     18  C   UNL A   1      32.291  29.207  25.825  1.00  0.00     0.088 A 
ATOM     19  C   UNL A   1      32.015  32.766  27.071  1.00  0.00     0.044 C 
ATOM     20  C   UNL A   1      32.468  31.347  26.949  1.00  0.00    -0.050 A 
ATOM     21  C   UNL A   1      33.666  30.949  27.529  1.00  0.00     0.003 A 
ATOM     22  C   UNL A   1      31.739  30.434  26.177  1.00  0.00     0.025 A 
ATOM     23  C   UNL A   1      34.139  29.661  27.315  1.00  0.00     0.002 A 
ATOM     24  C   UNL A   1      33.484  28.804  26.430  1.00  0.00     0.022 A 
ENDBRANCH  15  18
ENDBRANCH  13  15
ENDBRANCH   8  13
BRANCH  12  25
ATOM     25  N   UNL A   1      32.258  21.494  23.817  1.00  0.00    -0.355 N 
ATOM     26  C   UNL A   1      32.144  21.130  22.398  1.00  0.00     0.145 C 
BRANCH  25  27
ATOM     27  C   UNL A   1      32.141  20.358  24.730  1.00  0.00     0.153 C 
BRANCH  27  28
ATOM     28  C   UNL A   1      32.957  19.144  24.333  1.00  0.00    -0.029 A 
ATOM     29  C   UNL A   1      34.322  19.099  24.663  1.00  0.00     0.005 A 
ATOM     30  C   UNL A   1      32.370  18.001  23.767  1.00  0.00     0.005 A 
ATOM     31  C   UNL A   1      35.083  17.955  24.410  1.00  0.00     0.000 A 
ATOM     32  C   UNL A   1      33.132  16.857  23.513  1.00  0.00     0.000 A 
ATOM     33  C   UNL A   1      34.489  16.835  23.833  1.00  0.00     0.000 A 
ENDBRANCH  27  28
ENDBRANCH  25  27
ENDBRANCH  12  25
ENDBRANCH   4   7
ENDBRANCH   2   3
ENDBRANCH   1   2
BRANCH   1  34
ATOM     34  C   UNL A   1      38.244  21.677  25.420  1.00  0.00     0.023 C 
BRANCH  34  35
ATOM     35  C   UNL A   1      38.727  23.017  25.957  1.00  0.00     0.116 C 
BRANCH  35  36
ATOM     36  N   UNL A   1      40.072  22.976  26.516  1.00  0.00    -0.352 N 
ATOM     37  C   UNL A   1      40.841  23.988  27.072  1.00  0.00     0.251 C 
ATOM     38  H   UNL A   1      40.503  22.091  26.495  1.00  0.00     0.163 HD
ATOM     39  O   UNL A   1      41.981  23.775  27.418  1.00  0.00    -0.269 OA
BRANCH  37  40
ATOM     40  C   UNL A   1      40.204  25.297  27.373  1.00  0.00     0.039 A 
ATOM     41  C   UNL A   1      40.505  26.370  26.522  1.00  0.00     0.014 A 
ATOM     42  C   UNL A   1      39.521  25.515  28.563  1.00  0.00     0.014 A 
ATOM     43  C   UNL A   1      40.363  27.672  26.992  1.00  0.00     0.010 A 
ATOM     44  C   UNL A   1      39.470  26.796  29.070  1.00  0.00     0.010 A 
ATOM     45  C   UNL A   1      39.971  27.861  28.313  1.00  0.00    -0.014 A 
BRANCH  45  46
ATOM     46  C   UNL A   1      40.192  29.099  29.043  1.00  0.00     0.031 A 
ATOM     47  C   UNL A   1      39.150  30.138  29.102  1.00  0.00     0.074 A 
ATOM     48  C   UNL A   1      41.311  29.205  29.794  1.00  0.00     0.049 A 
ATOM     49  N   UNL A   1      39.346  31.347  29.504  1.00  0.00    -0.248 NA
ATOM     50  C   UNL A   1      37.787  29.900  28.650  1.00  0.00     0.031 C 
ATOM     51  C   UNL A   1      41.576  30.173  30.854  1.00  0.00     0.029 A 
ATOM     52  N   UNL A   1      42.548  28.570  29.579  1.00  0.00    -0.354 N 
ATOM     53  C   UNL A   1      38.118  31.953  29.645  1.00  0.00     0.074 A 
ATOM     54  C   UNL A   1      37.195  31.042  29.010  1.00  0.00     0.031 C 
ATOM     55  C   UNL A   1      42.903  30.312  30.982  1.00  0.00     0.029 A 
ATOM     56  C   UNL A   1      43.516  29.537  29.916  1.00  0.00     0.049 A 
ATOM     57  H   UNL A   1      42.703  27.651  29.262  1.00  0.00     0.167 HD
ATOM     58  C   UNL A   1      38.037  33.081  30.413  1.00  0.00     0.037 A 
ATOM     59  C   UNL A   1      44.412  30.027  29.015  1.00  0.00     0.037 A 
ATOM     60  C   UNL A   1      39.379  33.563  30.767  1.00  0.00     0.049 A 
ATOM     61  C   UNL A   1      44.353  31.527  28.917  1.00  0.00     0.074 A 
ATOM     62  C   UNL A   1      40.139  33.479  31.924  1.00  0.00     0.029 A 
ATOM     63  N   UNL A   1      40.252  33.970  29.758  1.00  0.00    -0.354 N 
ATOM     64  N   UNL A   1      43.279  32.219  29.189  1.00  0.00    -0.248 NA
ATOM     65  C   UNL A   1      45.491  32.364  28.560  1.00  0.00     0.031 C 
ATOM     66  C   UNL A   1      41.484  33.785  31.593  1.00  0.00     0.029 A 
ATOM     67  C   UNL A   1      41.542  34.080  30.239  1.00  0.00     0.049 A 
ATOM     68  H   UNL A   1      39.984  34.154  28.828  1.00  0.00     0.167 HD
ATOM     69  C   UNL A   1      43.568  33.553  29.099  1.00  0.00     0.074 A 
ATOM     70  C   UNL A   1      44.962  33.593  28.690  1.00  0.00     0.031 C 
ATOM     71  C   UNL A   1      42.644  34.515  29.389  1.00  0.00     0.037 A 
BRANCH  58  72
ATOM     72  C   UNL A   1      36.762  33.577  31.089  1.00  0.00     0.064 A 
ATOM     73  C   UNL A   1      36.583  33.433  32.486  1.00  0.00     0.173 A 
ATOM     74  C   UNL A   1      35.645  34.121  30.427  1.00  0.00     0.173 A 
ATOM     75  F   UNL A   1      37.580  33.031  33.284  1.00  0.00    -0.203 F 
ATOM     76  C   UNL A   1      35.365  33.696  33.129  1.00  0.00     0.198 A 
ATOM     77  C   UNL A   1      34.415  34.344  31.058  1.00  0.00     0.198 A 
ATOM     78  F   UNL A   1      35.704  34.524  29.157  1.00  0.00    -0.203 F 
ATOM     79  F   UNL A   1      35.260  33.520  34.453  1.00  0.00    -0.200 F 
ATOM     80  C   UNL A   1      34.270  34.120  32.409  1.00  0.00     0.200 A 
ATOM     81  F   UNL A   1      33.373  34.785  30.339  1.00  0.00    -0.200 F 
ATOM     82  F   UNL A   1      33.094  34.338  33.013  1.00  0.00    -0.200 F 
ENDBRANCH  58  72
BRANCH  59  83
ATOM     83  C   UNL A   1      44.748  29.074  27.926  1.00  0.00     0.064 A 
ATOM     84  C   UNL A   1      45.568  27.975  28.247  1.00  0.00     0.173 A 
ATOM     85  C   UNL A   1      43.974  28.977  26.767  1.00  0.00     0.173 A 
ATOM     86  F   UNL A   1      46.383  28.038  29.310  1.00  0.00    -0.203 F 
ATOM     87  C   UNL A   1      45.489  26.775  27.547  1.00  0.00     0.198 A 
ATOM     88  C   UNL A   1      43.925  27.782  26.040  1.00  0.00     0.198 A 
ATOM     89  F   UNL A   1      43.173  29.987  26.400  1.00  0.00    -0.203 F 
ATOM     90  F   UNL A   1      46.175  25.706  27.975  1.00  0.00    -0.200 F 
ATOM     91  C   UNL A   1      44.642  26.670  26.460  1.00  0.00     0.200 A 
ATOM     92  F   UNL A   1      43.100  27.675  24.989  1.00  0.00    -0.200 F 
ATOM     93  F   UNL A   1      44.489  25.492  25.838  1.00  0.00    -0.200 F 
ENDBRANCH  59  83
BRANCH  71  94
ATOM     94  C   UNL A   1      42.747  35.973  29.008  1.00  0.00     0.064 A 
ATOM     95  C   UNL A   1      42.049  36.548  27.932  1.00  0.00     0.173 A 
ATOM     96  C   UNL A   1      43.437  36.888  29.840  1.00  0.00     0.173 A 
ATOM     97  F   UNL A   1      41.255  35.814  27.140  1.00  0.00    -0.203 F 
ATOM     98  C   UNL A   1      42.089  37.920  27.670  1.00  0.00     0.198 A 
ATOM     99  C   UNL A   1      43.425  38.263  29.610  1.00  0.00     0.198 A 
ATOM    100  F   UNL A   1      44.116  36.482  30.923  1.00  0.00    -0.203 F 
ATOM    101  F   UNL A   1      41.436  38.409  26.606  1.00  0.00    -0.200 F 
ATOM    102  C   UNL A   1      42.763  38.778  28.516  1.00  0.00     0.200 A 
ATOM    103  F   UNL A   1      44.037  39.086  30.473  1.00  0.00    -0.200 F 
ATOM    104  F   UNL A   1      42.752  40.098  28.292  1.00  0.00    -0.200 F 
ENDBRANCH  71  94
ENDBRANCH  45  46
ENDBRANCH  37  40
ENDBRANCH  35  36
ENDBRANCH  34  35
ENDBRANCH   1  34
TORSDOF 17
ENDMDL
