MODEL 1
REMARK VINA RESULT:      -9.7      0.000      0.000
REMARK SMILES COC[C@@H](C)N(C)c1nc(C(C)C)c(C(=O)NCCCCNC(=O)c2ccc(-c3c4nc(c(-c5c(F)c(F)c(F)c(F)c5F)c5ccc([nH]5)c(-c5c(F)c(F)c(F)c(F)c5F)c5nc(c(-c6c(F)c(F)c(F)c(F)c6F)c6ccc3[nH]6)C=C5)C=C4)cc2)s1
REMARK SMILES IDX 18 1 17 2 15 3 16 4 14 6 8 7 9 8 88 9 10 10 6 11 7 12 4 13
REMARK SMILES IDX 5 14 3 15 2 16 1 17 11 18 12 19 13 20 19 21 20 22 21 23
REMARK SMILES IDX 22 24 23 25 24 27 25 28 26 29 87 30 27 31 86 32 28 33 29 34
REMARK SMILES IDX 30 35 80 36 31 37 85 38 79 39 81 40 32 41 84 42 78 43 77 44
REMARK SMILES IDX 33 46 65 47 45 48 64 49 46 50 49 51 63 52 82 53 47 54 48 55
REMARK SMILES IDX 62 57 83 58 50 59 34 60 35 61 43 62 36 63 37 64 41 65 44 66
REMARK SMILES IDX 38 67 39 68 42 69 40 70 66 71 67 72 75 73 68 74 69 75 73 76
REMARK SMILES IDX 76 77 70 78 71 79 74 80 72 81 51 82 52 83 60 84 53 85 54 86
REMARK SMILES IDX 58 87 61 88 55 89 56 90 59 91 57 92
REMARK H PARENT 17 5 22 26 81 45 49 56
REMARK Flexibility Score: inf
ROOT
ATOM      1  C   UNL A   1      34.090  35.220  29.748  1.00  0.00     0.116 C 
ENDROOT
BRANCH   1   2
ATOM      2  N   UNL A   1      33.884  34.164  30.696  1.00  0.00    -0.351 N 
ATOM      3  C   UNL A   1      34.626  33.541  31.662  1.00  0.00     0.263 C 
ATOM      4  O   UNL A   1      33.951  32.664  32.222  1.00  0.00    -0.268 OA
ATOM      5  H   UNL A   1      32.975  33.789  30.636  1.00  0.00     0.163 HD
BRANCH   3   6
ATOM      6  C   UNL A   1      36.009  33.823  32.060  1.00  0.00     0.117 A 
ATOM      7  C   UNL A   1      37.876  34.130  33.696  1.00  0.00     0.186 A 
ATOM      8  N   UNL A   1      38.226  34.443  32.481  1.00  0.00    -0.224 NA
ATOM      9  S   UNL A   1      36.246  33.647  33.802  1.00  0.00    -0.091 S 
ATOM     10  C   UNL A   1      37.260  34.147  31.527  1.00  0.00     0.069 A 
BRANCH   7  11
ATOM     11  N   UNL A   1      38.742  34.205  34.744  1.00  0.00    -0.346 N 
ATOM     12  C   UNL A   1      39.852  35.140  34.730  1.00  0.00     0.146 C 
BRANCH  11  13
ATOM     13  C   UNL A   1      38.593  33.293  35.898  1.00  0.00     0.107 C 
ATOM     14  C   UNL A   1      38.538  34.111  37.193  1.00  0.00     0.033 C 
BRANCH  13  15
ATOM     15  C   UNL A   1      39.656  32.167  35.918  1.00  0.00     0.184 C 
BRANCH  15  16
ATOM     16  O   UNL A   1      39.774  31.470  34.669  1.00  0.00    -0.383 OA
ATOM     17  C   UNL A   1      38.773  30.475  34.479  1.00  0.00     0.194 C 
ENDBRANCH  15  16
ENDBRANCH  13  15
ENDBRANCH  11  13
ENDBRANCH   7  11
BRANCH  10  18
ATOM     18  C   UNL A   1      37.866  34.220  30.150  1.00  0.00     0.034 C 
ATOM     19  C   UNL A   1      39.322  34.680  30.180  1.00  0.00     0.014 C 
ATOM     20  C   UNL A   1      37.503  33.053  29.232  1.00  0.00     0.014 C 
ENDBRANCH  10  18
ENDBRANCH   3   6
ENDBRANCH   1   2
BRANCH   1  21
ATOM     21  C   UNL A   1      33.832  34.764  28.313  1.00  0.00     0.023 C 
BRANCH  21  22
ATOM     22  C   UNL A   1      33.312  33.340  28.189  1.00  0.00     0.023 C 
BRANCH  22  23
ATOM     23  C   UNL A   1      34.389  32.275  28.014  1.00  0.00     0.116 C 
BRANCH  23  24
ATOM     24  N   UNL A   1      33.888  30.947  27.675  1.00  0.00    -0.352 N 
ATOM     25  C   UNL A   1      34.556  29.746  27.778  1.00  0.00     0.251 C 
ATOM     26  H   UNL A   1      32.966  30.905  27.333  1.00  0.00     0.163 HD
ATOM     27  O   UNL A   1      34.035  28.696  27.425  1.00  0.00    -0.269 OA
BRANCH  25  28
ATOM     28  C   UNL A   1      35.948  29.766  28.270  1.00  0.00     0.039 A 
ATOM     29  C   UNL A   1      36.201  29.375  29.585  1.00  0.00     0.014 A 
ATOM     30  C   UNL A   1      36.996  30.016  27.381  1.00  0.00     0.014 A 
ATOM     31  C   UNL A   1      37.516  29.125  29.981  1.00  0.00     0.010 A 
ATOM     32  C   UNL A   1      38.293  29.683  27.752  1.00  0.00     0.010 A 
ATOM     33  C   UNL A   1      38.564  29.218  29.049  1.00  0.00    -0.014 A 
BRANCH  33  34
ATOM     34  C   UNL A   1      39.950  28.818  29.398  1.00  0.00     0.031 A 
ATOM     35  C   UNL A   1      40.795  29.721  30.249  1.00  0.00     0.074 A 
ATOM     36  C   UNL A   1      40.476  27.691  28.877  1.00  0.00     0.049 A 
ATOM     37  N   UNL A   1      42.061  29.618  30.564  1.00  0.00    -0.248 NA
ATOM     38  C   UNL A   1      40.137  30.923  30.787  1.00  0.00     0.031 C 
ATOM     39  C   UNL A   1      39.780  26.759  27.987  1.00  0.00     0.029 A 
ATOM     40  N   UNL A   1      41.728  27.143  29.011  1.00  0.00    -0.354 N 
ATOM     41  C   UNL A   1      42.354  30.747  31.315  1.00  0.00     0.074 A 
ATOM     42  C   UNL A   1      41.152  31.552  31.360  1.00  0.00     0.031 C 
ATOM     43  C   UNL A   1      40.604  25.743  27.679  1.00  0.00     0.029 A 
ATOM     44  C   UNL A   1      41.896  25.969  28.319  1.00  0.00     0.049 A 
ATOM     45  H   UNL A   1      42.439  27.554  29.555  1.00  0.00     0.167 HD
ATOM     46  C   UNL A   1      43.511  31.073  31.938  1.00  0.00     0.037 A 
ATOM     47  C   UNL A   1      42.973  25.168  28.211  1.00  0.00     0.037 A 
ATOM     48  C   UNL A   1      44.693  30.254  31.928  1.00  0.00     0.049 A 
ATOM     49  C   UNL A   1      44.238  25.538  28.936  1.00  0.00     0.074 A 
ATOM     50  C   UNL A   1      45.904  30.476  32.560  1.00  0.00     0.029 A 
ATOM     51  N   UNL A   1      44.805  29.045  31.258  1.00  0.00    -0.354 N 
ATOM     52  N   UNL A   1      44.487  26.586  29.683  1.00  0.00    -0.248 NA
ATOM     53  C   UNL A   1      45.371  24.610  28.809  1.00  0.00     0.031 C 
ATOM     54  C   UNL A   1      46.756  29.408  32.257  1.00  0.00     0.029 A 
ATOM     55  C   UNL A   1      46.065  28.508  31.463  1.00  0.00     0.049 A 
ATOM     56  H   UNL A   1      44.095  28.630  30.717  1.00  0.00     0.167 HD
ATOM     57  C   UNL A   1      45.789  26.429  30.137  1.00  0.00     0.074 A 
ATOM     58  C   UNL A   1      46.276  25.180  29.593  1.00  0.00     0.031 C 
ATOM     59  C   UNL A   1      46.519  27.250  30.932  1.00  0.00     0.037 A 
BRANCH  46  60
ATOM     60  C   UNL A   1      43.540  32.361  32.704  1.00  0.00     0.064 A 
ATOM     61  C   UNL A   1      43.841  33.578  32.073  1.00  0.00     0.173 A 
ATOM     62  C   UNL A   1      43.247  32.386  34.075  1.00  0.00     0.173 A 
ATOM     63  F   UNL A   1      44.145  33.601  30.766  1.00  0.00    -0.203 F 
ATOM     64  C   UNL A   1      43.877  34.768  32.792  1.00  0.00     0.198 A 
ATOM     65  C   UNL A   1      43.256  33.584  34.786  1.00  0.00     0.198 A 
ATOM     66  F   UNL A   1      42.952  31.251  34.726  1.00  0.00    -0.203 F 
ATOM     67  F   UNL A   1      44.217  35.910  32.177  1.00  0.00    -0.200 F 
ATOM     68  C   UNL A   1      43.577  34.772  34.145  1.00  0.00     0.200 A 
ATOM     69  F   UNL A   1      42.958  33.589  36.092  1.00  0.00    -0.200 F 
ATOM     70  F   UNL A   1      43.610  35.920  34.836  1.00  0.00    -0.200 F 
ENDBRANCH  46  60
BRANCH  47  71
ATOM     71  C   UNL A   1      42.899  23.915  27.415  1.00  0.00     0.064 A 
ATOM     72  C   UNL A   1      42.502  22.710  28.012  1.00  0.00     0.173 A 
ATOM     73  C   UNL A   1      43.244  23.888  26.057  1.00  0.00     0.173 A 
ATOM     74  F   UNL A   1      42.182  22.683  29.315  1.00  0.00    -0.203 F 
ATOM     75  C   UNL A   1      42.479  21.520  27.288  1.00  0.00     0.198 A 
ATOM     76  C   UNL A   1      43.197  22.701  25.327  1.00  0.00     0.198 A 
ATOM     77  F   UNL A   1      43.627  25.015  25.438  1.00  0.00    -0.203 F 
ATOM     78  F   UNL A   1      42.144  20.374  27.897  1.00  0.00    -0.200 F 
ATOM     79  C   UNL A   1      42.824  21.517  25.946  1.00  0.00     0.200 A 
ATOM     80  F   UNL A   1      43.521  22.704  24.027  1.00  0.00    -0.200 F 
ATOM     81  F   UNL A   1      42.806  20.372  25.251  1.00  0.00    -0.200 F 
ENDBRANCH  47  71
BRANCH  59  82
ATOM     82  C   UNL A   1      47.901  26.799  31.296  1.00  0.00     0.064 A 
ATOM     83  C   UNL A   1      48.131  25.943  32.383  1.00  0.00     0.173 A 
ATOM     84  C   UNL A   1      49.001  27.194  30.521  1.00  0.00     0.173 A 
ATOM     85  F   UNL A   1      47.112  25.553  33.161  1.00  0.00    -0.203 F 
ATOM     86  C   UNL A   1      49.418  25.515  32.693  1.00  0.00     0.198 A 
ATOM     87  C   UNL A   1      50.283  26.744  30.820  1.00  0.00     0.198 A 
ATOM     88  F   UNL A   1      48.829  28.009  29.469  1.00  0.00    -0.203 F 
ATOM     89  F   UNL A   1      49.623  24.729  33.759  1.00  0.00    -0.200 F 
ATOM     90  C   UNL A   1      50.492  25.910  31.907  1.00  0.00     0.200 A 
ATOM     91  F   UNL A   1      51.318  27.119  30.054  1.00  0.00    -0.200 F 
ATOM     92  F   UNL A   1      51.730  25.491  32.204  1.00  0.00    -0.200 F 
ENDBRANCH  59  82
ENDBRANCH  33  34
ENDBRANCH  25  28
ENDBRANCH  23  24
ENDBRANCH  22  23
ENDBRANCH  21  22
ENDBRANCH   1  21
TORSDOF 16
ENDMDL
MODEL 2
REMARK VINA RESULT:      -9.7      3.939      7.611
REMARK SMILES COC[C@@H](C)N(C)c1nc(C(C)C)c(C(=O)NCCCCNC(=O)c2ccc(-c3c4nc(c(-c5c(F)c(F)c(F)c(F)c5F)c5ccc([nH]5)c(-c5c(F)c(F)c(F)c(F)c5F)c5nc(c(-c6c(F)c(F)c(F)c(F)c6F)c6ccc3[nH]6)C=C5)C=C4)cc2)s1
REMARK SMILES IDX 18 1 17 2 15 3 16 4 14 6 8 7 9 8 88 9 10 10 6 11 7 12 4 13
REMARK SMILES IDX 5 14 3 15 2 16 1 17 11 18 12 19 13 20 19 21 20 22 21 23
REMARK SMILES IDX 22 24 23 25 24 27 25 28 26 29 87 30 27 31 86 32 28 33 29 34
REMARK SMILES IDX 30 35 80 36 31 37 85 38 79 39 81 40 32 41 84 42 78 43 77 44
REMARK SMILES IDX 33 46 65 47 45 48 64 49 46 50 49 51 63 52 82 53 47 54 48 55
REMARK SMILES IDX 62 57 83 58 50 59 34 60 35 61 43 62 36 63 37 64 41 65 44 66
REMARK SMILES IDX 38 67 39 68 42 69 40 70 66 71 67 72 75 73 68 74 69 75 73 76
REMARK SMILES IDX 76 77 70 78 71 79 74 80 72 81 51 82 52 83 60 84 53 85 54 86
REMARK SMILES IDX 58 87 61 88 55 89 56 90 59 91 57 92
REMARK H PARENT 17 5 22 26 81 45 49 56
REMARK Flexibility Score: inf
ROOT
ATOM      1  C   UNL A   1      32.729  29.104  27.152  1.00  0.00     0.116 C 
ENDROOT
BRANCH   1   2
ATOM      2  N   UNL A   1      31.728  28.076  27.114  1.00  0.00    -0.351 N 
ATOM      3  C   UNL A   1      31.571  26.870  26.486  1.00  0.00     0.263 C 
ATOM      4  O   UNL A   1      30.489  26.357  26.810  1.00  0.00    -0.268 OA
ATOM      5  H   UNL A   1      30.956  28.293  27.685  1.00  0.00     0.163 HD
BRANCH   3   6
ATOM      6  C   UNL A   1      32.502  26.200  25.572  1.00  0.00     0.117 A 
ATOM      7  C   UNL A   1      34.003  24.340  24.833  1.00  0.00     0.186 A 
ATOM      8  N   UNL A   1      34.079  25.378  24.051  1.00  0.00    -0.224 NA
ATOM      9  S   UNL A   1      32.936  24.583  26.140  1.00  0.00    -0.091 S 
ATOM     10  C   UNL A   1      33.154  26.371  24.348  1.00  0.00     0.069 A 
BRANCH   7  11
ATOM     11  N   UNL A   1      34.721  23.205  24.609  1.00  0.00    -0.346 N 
ATOM     12  C   UNL A   1      34.063  21.918  24.485  1.00  0.00     0.146 C 
BRANCH  11  13
ATOM     13  C   UNL A   1      36.197  23.261  24.540  1.00  0.00     0.107 C 
ATOM     14  C   UNL A   1      36.653  22.954  23.109  1.00  0.00     0.033 C 
BRANCH  13  15
ATOM     15  C   UNL A   1      36.884  22.383  25.615  1.00  0.00     0.184 C 
BRANCH  15  16
ATOM     16  O   UNL A   1      37.884  21.503  25.082  1.00  0.00    -0.383 OA
ATOM     17  C   UNL A   1      37.459  20.147  25.000  1.00  0.00     0.194 C 
ENDBRANCH  15  16
ENDBRANCH  13  15
ENDBRANCH  11  13
ENDBRANCH   7  11
BRANCH  10  18
ATOM     18  C   UNL A   1      33.084  27.358  23.212  1.00  0.00     0.034 C 
ATOM     19  C   UNL A   1      31.648  27.627  22.766  1.00  0.00     0.014 C 
ATOM     20  C   UNL A   1      34.028  28.553  23.347  1.00  0.00     0.014 C 
ENDBRANCH  10  18
ENDBRANCH   3   6
ENDBRANCH   1   2
BRANCH   1  21
ATOM     21  C   UNL A   1      32.408  30.254  26.199  1.00  0.00     0.023 C 
BRANCH  21  22
ATOM     22  C   UNL A   1      31.889  31.510  26.881  1.00  0.00     0.023 C 
BRANCH  22  23
ATOM     23  C   UNL A   1      32.967  32.471  27.369  1.00  0.00     0.116 C 
BRANCH  23  24
ATOM     24  N   UNL A   1      32.507  33.831  27.624  1.00  0.00    -0.352 N 
ATOM     25  C   UNL A   1      33.034  34.743  28.512  1.00  0.00     0.251 C 
ATOM     26  H   UNL A   1      31.729  34.132  27.101  1.00  0.00     0.163 HD
ATOM     27  O   UNL A   1      32.532  35.851  28.661  1.00  0.00    -0.269 OA
BRANCH  25  28
ATOM     28  C   UNL A   1      34.190  34.327  29.331  1.00  0.00     0.039 A 
ATOM     29  C   UNL A   1      33.956  33.653  30.530  1.00  0.00     0.014 A 
ATOM     30  C   UNL A   1      35.485  34.466  28.827  1.00  0.00     0.014 A 
ATOM     31  C   UNL A   1      35.019  33.017  31.173  1.00  0.00     0.010 A 
ATOM     32  C   UNL A   1      36.523  33.759  29.422  1.00  0.00     0.010 A 
ATOM     33  C   UNL A   1      36.298  33.014  30.590  1.00  0.00    -0.014 A 
BRANCH  33  34
ATOM     34  C   UNL A   1      37.413  32.225  31.170  1.00  0.00     0.031 A 
ATOM     35  C   UNL A   1      37.908  32.539  32.553  1.00  0.00     0.074 A 
ATOM     36  C   UNL A   1      38.037  31.292  30.423  1.00  0.00     0.049 A 
ATOM     37  N   UNL A   1      38.942  32.057  33.193  1.00  0.00    -0.248 NA
ATOM     38  C   UNL A   1      37.160  33.561  33.303  1.00  0.00     0.031 C 
ATOM     39  C   UNL A   1      37.694  30.936  29.045  1.00  0.00     0.029 A 
ATOM     40  N   UNL A   1      39.105  30.480  30.716  1.00  0.00    -0.354 N 
ATOM     41  C   UNL A   1      38.981  32.730  34.406  1.00  0.00     0.074 A 
ATOM     42  C   UNL A   1      37.903  33.696  34.390  1.00  0.00     0.031 C 
ATOM     43  C   UNL A   1      38.515  29.959  28.624  1.00  0.00     0.029 A 
ATOM     44  C   UNL A   1      39.464  29.646  29.686  1.00  0.00     0.049 A 
ATOM     45  H   UNL A   1      39.569  30.494  31.585  1.00  0.00     0.167 HD
ATOM     46  C   UNL A   1      39.819  32.541  35.452  1.00  0.00     0.037 A 
ATOM     47  C   UNL A   1      40.452  28.733  29.608  1.00  0.00     0.037 A 
ATOM     48  C   UNL A   1      40.864  31.554  35.484  1.00  0.00     0.049 A 
ATOM     49  C   UNL A   1      41.352  28.524  30.796  1.00  0.00     0.074 A 
ATOM     50  C   UNL A   1      41.742  31.257  36.511  1.00  0.00     0.029 A 
ATOM     51  N   UNL A   1      41.161  30.691  34.439  1.00  0.00    -0.354 N 
ATOM     52  N   UNL A   1      41.348  29.134  31.956  1.00  0.00    -0.248 NA
ATOM     53  C   UNL A   1      42.392  27.492  30.666  1.00  0.00     0.031 C 
ATOM     54  C   UNL A   1      42.585  30.226  36.081  1.00  0.00     0.029 A 
ATOM     55  C   UNL A   1      42.209  29.861  34.798  1.00  0.00     0.049 A 
ATOM     56  H   UNL A   1      40.697  30.673  33.571  1.00  0.00     0.167 HD
ATOM     57  C   UNL A   1      42.358  28.544  32.701  1.00  0.00     0.074 A 
ATOM     58  C   UNL A   1      42.949  27.518  31.869  1.00  0.00     0.031 C 
ATOM     59  C   UNL A   1      42.764  28.829  33.963  1.00  0.00     0.037 A 
BRANCH  46  60
ATOM     60  C   UNL A   1      39.618  33.409  36.658  1.00  0.00     0.064 A 
ATOM     61  C   UNL A   1      40.277  34.642  36.787  1.00  0.00     0.173 A 
ATOM     62  C   UNL A   1      38.747  33.018  37.685  1.00  0.00     0.173 A 
ATOM     63  F   UNL A   1      41.134  35.050  35.839  1.00  0.00    -0.203 F 
ATOM     64  C   UNL A   1      40.094  35.436  37.914  1.00  0.00     0.198 A 
ATOM     65  C   UNL A   1      38.545  33.829  38.798  1.00  0.00     0.198 A 
ATOM     66  F   UNL A   1      38.093  31.849  37.610  1.00  0.00    -0.203 F 
ATOM     67  F   UNL A   1      40.774  36.585  38.038  1.00  0.00    -0.200 F 
ATOM     68  C   UNL A   1      39.224  35.034  38.915  1.00  0.00     0.200 A 
ATOM     69  F   UNL A   1      37.697  33.445  39.762  1.00  0.00    -0.200 F 
ATOM     70  F   UNL A   1      39.046  35.802  39.999  1.00  0.00    -0.200 F 
ENDBRANCH  46  60
BRANCH  47  71
ATOM     71  C   UNL A   1      40.626  27.919  28.377  1.00  0.00     0.064 A 
ATOM     72  C   UNL A   1      40.027  26.655  28.265  1.00  0.00     0.173 A 
ATOM     73  C   UNL A   1      41.407  28.369  27.305  1.00  0.00     0.173 A 
ATOM     74  F   UNL A   1      39.288  26.174  29.276  1.00  0.00    -0.203 F 
ATOM     75  C   UNL A   1      40.225  25.862  27.137  1.00  0.00     0.198 A 
ATOM     76  C   UNL A   1      41.585  27.585  26.166  1.00  0.00     0.198 A 
ATOM     77  F   UNL A   1      41.997  29.572  27.361  1.00  0.00    -0.203 F 
ATOM     78  F   UNL A   1      39.683  24.638  27.078  1.00  0.00    -0.200 F 
ATOM     79  C   UNL A   1      41.001  26.328  26.088  1.00  0.00     0.200 A 
ATOM     80  F   UNL A   1      42.327  28.042  25.149  1.00  0.00    -0.200 F 
ATOM     81  F   UNL A   1      41.196  25.563  25.006  1.00  0.00    -0.200 F 
ENDBRANCH  47  71
BRANCH  59  82
ATOM     82  C   UNL A   1      43.867  27.990  34.533  1.00  0.00     0.064 A 
ATOM     83  C   UNL A   1      45.207  28.398  34.471  1.00  0.00     0.173 A 
ATOM     84  C   UNL A   1      43.573  26.786  35.189  1.00  0.00     0.173 A 
ATOM     85  F   UNL A   1      45.537  29.534  33.840  1.00  0.00    -0.203 F 
ATOM     86  C   UNL A   1      46.216  27.618  35.027  1.00  0.00     0.198 A 
ATOM     87  C   UNL A   1      44.582  26.021  35.765  1.00  0.00     0.198 A 
ATOM     88  F   UNL A   1      42.304  26.357  35.278  1.00  0.00    -0.203 F 
ATOM     89  F   UNL A   1      47.495  28.006  34.923  1.00  0.00    -0.200 F 
ATOM     90  C   UNL A   1      45.902  26.435  35.680  1.00  0.00     0.200 A 
ATOM     91  F   UNL A   1      44.276  24.883  36.404  1.00  0.00    -0.200 F 
ATOM     92  F   UNL A   1      46.876  25.689  36.220  1.00  0.00    -0.200 F 
ENDBRANCH  59  82
ENDBRANCH  33  34
ENDBRANCH  25  28
ENDBRANCH  23  24
ENDBRANCH  22  23
ENDBRANCH  21  22
ENDBRANCH   1  21
TORSDOF 16
ENDMDL
MODEL 3
REMARK VINA RESULT:      -9.7      4.306      8.209
REMARK SMILES COC[C@@H](C)N(C)c1nc(C(C)C)c(C(=O)NCCCCNC(=O)c2ccc(-c3c4nc(c(-c5c(F)c(F)c(F)c(F)c5F)c5ccc([nH]5)c(-c5c(F)c(F)c(F)c(F)c5F)c5nc(c(-c6c(F)c(F)c(F)c(F)c6F)c6ccc3[nH]6)C=C5)C=C4)cc2)s1
REMARK SMILES IDX 18 1 17 2 15 3 16 4 14 6 8 7 9 8 88 9 10 10 6 11 7 12 4 13
REMARK SMILES IDX 5 14 3 15 2 16 1 17 11 18 12 19 13 20 19 21 20 22 21 23
REMARK SMILES IDX 22 24 23 25 24 27 25 28 26 29 87 30 27 31 86 32 28 33 29 34
REMARK SMILES IDX 30 35 80 36 31 37 85 38 79 39 81 40 32 41 84 42 78 43 77 44
REMARK SMILES IDX 33 46 65 47 45 48 64 49 46 50 49 51 63 52 82 53 47 54 48 55
REMARK SMILES IDX 62 57 83 58 50 59 34 60 35 61 43 62 36 63 37 64 41 65 44 66
REMARK SMILES IDX 38 67 39 68 42 69 40 70 66 71 67 72 75 73 68 74 69 75 73 76
REMARK SMILES IDX 76 77 70 78 71 79 74 80 72 81 51 82 52 83 60 84 53 85 54 86
REMARK SMILES IDX 58 87 61 88 55 89 56 90 59 91 57 92
REMARK H PARENT 17 5 22 26 81 45 49 56
REMARK Flexibility Score: inf
ROOT
ATOM      1  C   UNL A   1      31.692  29.728  25.666  1.00  0.00     0.116 C 
ENDROOT
BRANCH   1   2
ATOM      2  N   UNL A   1      32.650  29.628  24.603  1.00  0.00    -0.351 N 
ATOM      3  C   UNL A   1      33.026  28.675  23.695  1.00  0.00     0.263 C 
ATOM      4  O   UNL A   1      33.931  29.111  22.967  1.00  0.00    -0.268 OA
ATOM      5  H   UNL A   1      33.173  30.456  24.501  1.00  0.00     0.163 HD
BRANCH   3   6
ATOM      6  C   UNL A   1      32.477  27.326  23.522  1.00  0.00     0.117 A 
ATOM      7  C   UNL A   1      32.591  24.829  23.445  1.00  0.00     0.186 A 
ATOM      8  N   UNL A   1      31.433  25.284  23.062  1.00  0.00    -0.224 NA
ATOM      9  S   UNL A   1      33.683  26.075  23.842  1.00  0.00    -0.091 S 
ATOM     10  C   UNL A   1      31.286  26.655  23.230  1.00  0.00     0.069 A 
BRANCH   7  11
ATOM     11  N   UNL A   1      32.869  23.497  23.498  1.00  0.00    -0.346 N 
ATOM     12  C   UNL A   1      32.752  22.663  22.315  1.00  0.00     0.146 C 
BRANCH  11  13
ATOM     13  C   UNL A   1      33.246  22.866  24.780  1.00  0.00     0.107 C 
ATOM     14  C   UNL A   1      34.367  21.849  24.539  1.00  0.00     0.033 C 
BRANCH  13  15
ATOM     15  C   UNL A   1      32.032  22.286  25.547  1.00  0.00     0.184 C 
BRANCH  15  16
ATOM     16  O   UNL A   1      30.995  23.247  25.788  1.00  0.00    -0.383 OA
ATOM     17  C   UNL A   1      30.109  22.873  26.838  1.00  0.00     0.194 C 
ENDBRANCH  15  16
ENDBRANCH  13  15
ENDBRANCH  11  13
ENDBRANCH   7  11
BRANCH  10  18
ATOM     18  C   UNL A   1      29.835  27.033  23.088  1.00  0.00     0.034 C 
ATOM     19  C   UNL A   1      28.959  26.382  24.157  1.00  0.00     0.014 C 
ATOM     20  C   UNL A   1      29.591  28.506  22.761  1.00  0.00     0.014 C 
ENDBRANCH  10  18
ENDBRANCH   3   6
ENDBRANCH   1   2
BRANCH   1  21
ATOM     21  C   UNL A   1      32.238  30.506  26.861  1.00  0.00     0.023 C 
BRANCH  21  22
ATOM     22  C   UNL A   1      31.859  31.980  26.880  1.00  0.00     0.023 C 
BRANCH  22  23
ATOM     23  C   UNL A   1      32.904  32.905  27.493  1.00  0.00     0.116 C 
BRANCH  23  24
ATOM     24  N   UNL A   1      32.437  34.258  27.771  1.00  0.00    -0.352 N 
ATOM     25  C   UNL A   1      32.967  35.163  28.665  1.00  0.00     0.251 C 
ATOM     26  H   UNL A   1      31.651  34.560  27.260  1.00  0.00     0.163 HD
ATOM     27  O   UNL A   1      32.459  36.264  28.834  1.00  0.00    -0.269 OA
BRANCH  25  28
ATOM     28  C   UNL A   1      34.135  34.745  29.465  1.00  0.00     0.039 A 
ATOM     29  C   UNL A   1      33.920  34.181  30.723  1.00  0.00     0.014 A 
ATOM     30  C   UNL A   1      35.411  34.769  28.898  1.00  0.00     0.014 A 
ATOM     31  C   UNL A   1      34.975  33.536  31.370  1.00  0.00     0.010 A 
ATOM     32  C   UNL A   1      36.435  34.051  29.503  1.00  0.00     0.010 A 
ATOM     33  C   UNL A   1      36.224  33.414  30.736  1.00  0.00    -0.014 A 
BRANCH  33  34
ATOM     34  C   UNL A   1      37.320  32.608  31.331  1.00  0.00     0.031 A 
ATOM     35  C   UNL A   1      37.825  32.937  32.706  1.00  0.00     0.074 A 
ATOM     36  C   UNL A   1      37.919  31.646  30.601  1.00  0.00     0.049 A 
ATOM     37  N   UNL A   1      38.848  32.442  33.354  1.00  0.00    -0.248 NA
ATOM     38  C   UNL A   1      37.104  33.993  33.437  1.00  0.00     0.031 C 
ATOM     39  C   UNL A   1      37.564  31.270  29.231  1.00  0.00     0.029 A 
ATOM     40  N   UNL A   1      38.967  30.812  30.909  1.00  0.00    -0.354 N 
ATOM     41  C   UNL A   1      38.906  33.138  34.553  1.00  0.00     0.074 A 
ATOM     42  C   UNL A   1      37.853  34.130  34.520  1.00  0.00     0.031 C 
ATOM     43  C   UNL A   1      38.359  30.265  28.828  1.00  0.00     0.029 A 
ATOM     44  C   UNL A   1      39.303  29.949  29.896  1.00  0.00     0.049 A 
ATOM     45  H   UNL A   1      39.433  30.832  31.777  1.00  0.00     0.167 HD
ATOM     46  C   UNL A   1      39.741  32.949  35.602  1.00  0.00     0.037 A 
ATOM     47  C   UNL A   1      40.267  29.011  29.835  1.00  0.00     0.037 A 
ATOM     48  C   UNL A   1      40.761  31.937  35.652  1.00  0.00     0.049 A 
ATOM     49  C   UNL A   1      41.164  28.802  31.025  1.00  0.00     0.074 A 
ATOM     50  C   UNL A   1      41.633  31.638  36.684  1.00  0.00     0.029 A 
ATOM     51  N   UNL A   1      41.034  31.046  34.624  1.00  0.00    -0.354 N 
ATOM     52  N   UNL A   1      41.177  29.436  32.172  1.00  0.00    -0.248 NA
ATOM     53  C   UNL A   1      42.177  27.743  30.915  1.00  0.00     0.031 C 
ATOM     54  C   UNL A   1      42.449  30.578  36.274  1.00  0.00     0.029 A 
ATOM     55  C   UNL A   1      42.062  30.197  34.998  1.00  0.00     0.049 A 
ATOM     56  H   UNL A   1      40.568  31.022  33.758  1.00  0.00     0.167 HD
ATOM     57  C   UNL A   1      42.173  28.835  32.928  1.00  0.00     0.074 A 
ATOM     58  C   UNL A   1      42.737  27.778  32.116  1.00  0.00     0.031 C 
ATOM     59  C   UNL A   1      42.589  29.135  34.183  1.00  0.00     0.037 A 
BRANCH  46  60
ATOM     60  C   UNL A   1      39.564  33.845  36.791  1.00  0.00     0.064 A 
ATOM     61  C   UNL A   1      38.783  33.453  37.889  1.00  0.00     0.173 A 
ATOM     62  C   UNL A   1      40.194  35.097  36.844  1.00  0.00     0.173 A 
ATOM     63  F   UNL A   1      38.147  32.272  37.876  1.00  0.00    -0.203 F 
ATOM     64  C   UNL A   1      38.614  34.295  38.984  1.00  0.00     0.198 A 
ATOM     65  C   UNL A   1      40.045  35.924  37.955  1.00  0.00     0.198 A 
ATOM     66  F   UNL A   1      40.952  35.518  35.821  1.00  0.00    -0.203 F 
ATOM     67  F   UNL A   1      37.821  33.920  39.998  1.00  0.00    -0.200 F 
ATOM     68  C   UNL A   1      39.250  35.526  39.019  1.00  0.00     0.200 A 
ATOM     69  F   UNL A   1      40.667  37.111  37.993  1.00  0.00    -0.200 F 
ATOM     70  F   UNL A   1      39.089  36.334  40.076  1.00  0.00    -0.200 F 
ENDBRANCH  46  60
BRANCH  47  71
ATOM     71  C   UNL A   1      40.418  28.168  28.620  1.00  0.00     0.064 A 
ATOM     72  C   UNL A   1      39.778  26.923  28.529  1.00  0.00     0.173 A 
ATOM     73  C   UNL A   1      41.218  28.571  27.542  1.00  0.00     0.173 A 
ATOM     74  F   UNL A   1      39.019  26.486  29.545  1.00  0.00    -0.203 F 
ATOM     75  C   UNL A   1      39.954  26.102  27.417  1.00  0.00     0.198 A 
ATOM     76  C   UNL A   1      41.373  27.760  26.419  1.00  0.00     0.198 A 
ATOM     77  F   UNL A   1      41.848  29.754  27.579  1.00  0.00    -0.203 F 
ATOM     78  F   UNL A   1      39.371  24.896  27.379  1.00  0.00    -0.200 F 
ATOM     79  C   UNL A   1      40.749  26.522  26.362  1.00  0.00     0.200 A 
ATOM     80  F   UNL A   1      42.134  28.173  25.397  1.00  0.00    -0.200 F 
ATOM     81  F   UNL A   1      40.922  25.730  25.295  1.00  0.00    -0.200 F 
ENDBRANCH  47  71
BRANCH  59  82
ATOM     82  C   UNL A   1      43.671  28.280  34.769  1.00  0.00     0.064 A 
ATOM     83  C   UNL A   1      45.026  28.617  34.635  1.00  0.00     0.173 A 
ATOM     84  C   UNL A   1      43.345  27.135  35.510  1.00  0.00     0.173 A 
ATOM     85  F   UNL A   1      45.386  29.694  33.922  1.00  0.00    -0.203 F 
ATOM     86  C   UNL A   1      46.017  27.824  35.206  1.00  0.00     0.198 A 
ATOM     87  C   UNL A   1      44.338  26.359  36.100  1.00  0.00     0.198 A 
ATOM     88  F   UNL A   1      42.062  26.776  35.669  1.00  0.00    -0.203 F 
ATOM     89  F   UNL A   1      47.308  28.141  35.034  1.00  0.00    -0.200 F 
ATOM     90  C   UNL A   1      45.672  26.701  35.944  1.00  0.00     0.200 A 
ATOM     91  F   UNL A   1      44.003  25.279  36.820  1.00  0.00    -0.200 F 
ATOM     92  F   UNL A   1      46.629  25.943  36.498  1.00  0.00    -0.200 F 
ENDBRANCH  59  82
ENDBRANCH  33  34
ENDBRANCH  25  28
ENDBRANCH  23  24
ENDBRANCH  22  23
ENDBRANCH  21  22
ENDBRANCH   1  21
TORSDOF 16
ENDMDL
