MODEL 1
REMARK VINA RESULT:     -12.3      0.000      0.000
REMARK SMILES Cc1cc2c(c(C)c1Cl)C=C(C(=O)NCCCCNC(=O)c1ccc(-c3c4nc(c(-c5c(F)c(F)c(F)c(F)c5F)c5ccc([nH]5)c(-c5c(F)c(F)c(F)c(F)c5F)c5nc(c(-c6c(F)c(F)c(F)c(F)c6F)c6ccc3[nH]6)C=C5)C=C4)cc1)[C@@H](C(F)(F)F)O2
REMARK SMILES IDX 17 1 16 2 15 3 14 4 12 5 13 6 11 8 1 9 2 10 3 11 8 12 4 13
REMARK SMILES IDX 6 14 9 15 5 16 90 17 7 18 10 19 85 20 86 21 87 22 88 23
REMARK SMILES IDX 89 24 18 25 19 26 20 27 21 29 22 30 23 31 84 32 24 33 83 34
REMARK SMILES IDX 25 35 26 36 27 37 77 38 28 39 82 40 76 41 78 42 29 43 81 44
REMARK SMILES IDX 75 45 74 46 30 48 62 49 42 50 61 51 43 52 46 53 60 54 79 55
REMARK SMILES IDX 44 56 45 57 59 59 80 60 47 61 31 62 32 63 40 64 33 65 34 66
REMARK SMILES IDX 38 67 41 68 35 69 36 70 39 71 37 72 63 73 64 74 72 75 65 76
REMARK SMILES IDX 66 77 70 78 73 79 67 80 68 81 71 82 69 83 48 84 49 85 57 86
REMARK SMILES IDX 50 87 51 88 55 89 58 90 52 91 53 92 56 93 54 94
REMARK H PARENT 14 7 19 28 78 47 46 58
REMARK Flexibility Score: inf
ROOT
ATOM      1  C   UNL A   1      33.533  28.475  25.402  1.00  0.00     0.023 C 
ENDROOT
BRANCH   1   2
ATOM      2  C   UNL A   1      33.672  27.102  24.740  1.00  0.00     0.023 C 
BRANCH   2   3
ATOM      3  C   UNL A   1      32.342  26.417  24.441  1.00  0.00     0.116 C 
BRANCH   3   4
ATOM      4  N   UNL A   1      31.794  25.766  25.617  1.00  0.00    -0.352 N 
ATOM      5  C   UNL A   1      31.932  24.571  26.239  1.00  0.00     0.251 C 
ATOM      6  O   UNL A   1      31.236  24.428  27.250  1.00  0.00    -0.270 OA
ATOM      7  H   UNL A   1      31.152  26.345  26.086  1.00  0.00     0.163 HD
BRANCH   5   8
ATOM      8  C   UNL A   1      32.837  23.467  25.802  1.00  0.00     0.067 C 
ATOM      9  C   UNL A   1      37.715  19.305  24.647  1.00  0.00     0.046 C 
ATOM     10  C   UNL A   1      36.850  20.486  25.001  1.00  0.00    -0.028 A 
ATOM     11  C   UNL A   1      35.465  20.347  24.874  1.00  0.00     0.052 A 
ATOM     12  C   UNL A   1      37.367  21.693  25.514  1.00  0.00     0.047 A 
ATOM     13  C   UNL A   1      34.614  21.391  25.221  1.00  0.00     0.128 A 
ATOM     14  C   UNL A   1      36.511  22.770  25.856  1.00  0.00    -0.021 A 
ATOM     15  Cl  UNL A   1      39.085  21.825  25.751  1.00  0.00    -0.084 Cl
ATOM     16  C   UNL A   1      35.112  22.597  25.720  1.00  0.00     0.022 A 
ATOM     17  O   UNL A   1      33.281  21.126  25.089  1.00  0.00    -0.475 OA
ATOM     18  C   UNL A   1      37.053  24.078  26.384  1.00  0.00     0.047 C 
ATOM     19  C   UNL A   1      34.135  23.611  26.131  1.00  0.00     0.026 C 
ATOM     20  C   UNL A   1      32.394  22.271  25.013  1.00  0.00     0.314 C 
BRANCH  20  21
ATOM     21  C   UNL A   1      32.113  22.602  23.536  1.00  0.00     0.429 C 
ATOM     22  F   UNL A   1      33.071  23.429  23.046  1.00  0.00    -0.167 F 
ATOM     23  F   UNL A   1      32.123  21.500  22.747  1.00  0.00    -0.167 F 
ATOM     24  F   UNL A   1      30.920  23.207  23.353  1.00  0.00    -0.167 F 
ENDBRANCH  20  21
ENDBRANCH   5   8
ENDBRANCH   3   4
ENDBRANCH   2   3
ENDBRANCH   1   2
BRANCH   1  25
ATOM     25  C   UNL A   1      33.814  28.509  26.902  1.00  0.00     0.116 C 
BRANCH  25  26
ATOM     26  N   UNL A   1      33.685  29.833  27.497  1.00  0.00    -0.352 N 
ATOM     27  C   UNL A   1      34.634  30.546  28.188  1.00  0.00     0.251 C 
ATOM     28  H   UNL A   1      32.810  30.270  27.392  1.00  0.00     0.163 HD
ATOM     29  O   UNL A   1      34.369  31.630  28.694  1.00  0.00    -0.269 OA
BRANCH  27  30
ATOM     30  C   UNL A   1      35.974  29.955  28.352  1.00  0.00     0.039 A 
ATOM     31  C   UNL A   1      36.904  30.106  27.322  1.00  0.00     0.014 A 
ATOM     32  C   UNL A   1      36.328  29.337  29.555  1.00  0.00     0.014 A 
ATOM     33  C   UNL A   1      38.221  29.703  27.528  1.00  0.00     0.010 A 
ATOM     34  C   UNL A   1      37.655  28.992  29.781  1.00  0.00     0.010 A 
ATOM     35  C   UNL A   1      38.612  29.180  28.772  1.00  0.00    -0.014 A 
BRANCH  35  36
ATOM     36  C   UNL A   1      40.027  28.831  29.034  1.00  0.00     0.031 A 
ATOM     37  C   UNL A   1      40.903  29.779  29.796  1.00  0.00     0.074 A 
ATOM     38  C   UNL A   1      40.528  27.680  28.547  1.00  0.00     0.049 A 
ATOM     39  N   UNL A   1      42.169  29.666  30.105  1.00  0.00    -0.248 NA
ATOM     40  C   UNL A   1      40.281  31.034  30.250  1.00  0.00     0.031 C 
ATOM     41  C   UNL A   1      39.782  26.701  27.754  1.00  0.00     0.029 A 
ATOM     42  N   UNL A   1      41.783  27.135  28.650  1.00  0.00    -0.354 N 
ATOM     43  C   UNL A   1      42.493  30.831  30.784  1.00  0.00     0.074 A 
ATOM     44  C   UNL A   1      41.311  31.664  30.794  1.00  0.00     0.031 C 
ATOM     45  C   UNL A   1      40.583  25.660  27.474  1.00  0.00     0.029 A 
ATOM     46  C   UNL A   1      41.904  25.910  28.045  1.00  0.00     0.049 A 
ATOM     47  H   UNL A   1      42.528  27.583  29.115  1.00  0.00     0.167 HD
ATOM     48  C   UNL A   1      43.665  31.162  31.375  1.00  0.00     0.037 A 
ATOM     49  C   UNL A   1      42.960  25.077  27.970  1.00  0.00     0.037 A 
ATOM     50  C   UNL A   1      44.829  30.319  31.390  1.00  0.00     0.049 A 
ATOM     51  C   UNL A   1      44.254  25.474  28.624  1.00  0.00     0.074 A 
ATOM     52  C   UNL A   1      46.045  30.538  32.012  1.00  0.00     0.029 A 
ATOM     53  N   UNL A   1      44.916  29.089  30.756  1.00  0.00    -0.354 N 
ATOM     54  N   UNL A   1      44.533  26.552  29.314  1.00  0.00    -0.248 NA
ATOM     55  C   UNL A   1      45.381  24.539  28.488  1.00  0.00     0.031 C 
ATOM     56  C   UNL A   1      46.879  29.452  31.730  1.00  0.00     0.029 A 
ATOM     57  C   UNL A   1      46.173  28.544  30.957  1.00  0.00     0.049 A 
ATOM     58  H   UNL A   1      44.192  28.665  30.239  1.00  0.00     0.167 HD
ATOM     59  C   UNL A   1      45.856  26.421  29.709  1.00  0.00     0.074 A 
ATOM     60  C   UNL A   1      46.325  25.152  29.191  1.00  0.00     0.031 C 
ATOM     61  C   UNL A   1      46.615  27.277  30.435  1.00  0.00     0.037 A 
BRANCH  48  62
ATOM     62  C   UNL A   1      43.734  32.484  32.075  1.00  0.00     0.064 A 
ATOM     63  C   UNL A   1      43.412  32.603  33.436  1.00  0.00     0.173 A 
ATOM     64  C   UNL A   1      44.156  33.635  31.394  1.00  0.00     0.173 A 
ATOM     65  F   UNL A   1      42.989  31.533  34.125  1.00  0.00    -0.203 F 
ATOM     66  C   UNL A   1      43.489  33.833  34.083  1.00  0.00     0.198 A 
ATOM     67  C   UNL A   1      44.255  34.857  32.051  1.00  0.00     0.198 A 
ATOM     68  F   UNL A   1      44.477  33.572  30.092  1.00  0.00    -0.203 F 
ATOM     69  F   UNL A   1      43.137  33.931  35.373  1.00  0.00    -0.200 F 
ATOM     70  C   UNL A   1      43.916  34.957  33.393  1.00  0.00     0.200 A 
ATOM     71  F   UNL A   1      44.674  35.942  31.386  1.00  0.00    -0.200 F 
ATOM     72  F   UNL A   1      43.995  36.138  34.020  1.00  0.00    -0.200 F 
ENDBRANCH  48  62
BRANCH  49  73
ATOM     73  C   UNL A   1      42.818  23.765  27.291  1.00  0.00     0.064 A 
ATOM     74  C   UNL A   1      43.198  23.614  25.950  1.00  0.00     0.173 A 
ATOM     75  C   UNL A   1      42.325  22.639  27.963  1.00  0.00     0.173 A 
ATOM     76  F   UNL A   1      43.658  24.670  25.263  1.00  0.00    -0.203 F 
ATOM     77  C   UNL A   1      43.086  22.385  25.306  1.00  0.00     0.198 A 
ATOM     78  C   UNL A   1      42.230  21.405  27.323  1.00  0.00     0.198 A 
ATOM     79  F   UNL A   1      41.952  22.734  29.248  1.00  0.00    -0.203 F 
ATOM     80  F   UNL A   1      43.433  22.272  24.017  1.00  0.00    -0.200 F 
ATOM     81  C   UNL A   1      42.607  21.280  25.993  1.00  0.00     0.200 A 
ATOM     82  F   UNL A   1      41.778  20.337  27.994  1.00  0.00    -0.200 F 
ATOM     83  F   UNL A   1      42.506  20.095  25.376  1.00  0.00    -0.200 F 
ENDBRANCH  49  73
BRANCH  61  84
ATOM     84  C   UNL A   1      48.028  26.874  30.724  1.00  0.00     0.064 A 
ATOM     85  C   UNL A   1      48.331  25.999  31.776  1.00  0.00     0.173 A 
ATOM     86  C   UNL A   1      49.074  27.295  29.889  1.00  0.00     0.173 A 
ATOM     87  F   UNL A   1      47.365  25.583  32.607  1.00  0.00    -0.203 F 
ATOM     88  C   UNL A   1      49.635  25.559  31.982  1.00  0.00     0.198 A 
ATOM     89  C   UNL A   1      50.372  26.837  30.086  1.00  0.00     0.198 A 
ATOM     90  F   UNL A   1      48.828  28.128  28.866  1.00  0.00    -0.203 F 
ATOM     91  F   UNL A   1      49.909  24.735  33.003  1.00  0.00    -0.200 F 
ATOM     92  C   UNL A   1      50.652  25.969  31.131  1.00  0.00     0.200 A 
ATOM     93  F   UNL A   1      51.352  27.224  29.257  1.00  0.00    -0.200 F 
ATOM     94  F   UNL A   1      51.904  25.529  31.321  1.00  0.00    -0.200 F 
ENDBRANCH  61  84
ENDBRANCH  35  36
ENDBRANCH  27  30
ENDBRANCH  25  26
ENDBRANCH   1  25
TORSDOF 12
ENDMDL
MODEL 2
REMARK VINA RESULT:     -12.3      3.779      5.616
REMARK SMILES Cc1cc2c(c(C)c1Cl)C=C(C(=O)NCCCCNC(=O)c1ccc(-c3c4nc(c(-c5c(F)c(F)c(F)c(F)c5F)c5ccc([nH]5)c(-c5c(F)c(F)c(F)c(F)c5F)c5nc(c(-c6c(F)c(F)c(F)c(F)c6F)c6ccc3[nH]6)C=C5)C=C4)cc1)[C@@H](C(F)(F)F)O2
REMARK SMILES IDX 17 1 16 2 15 3 14 4 12 5 13 6 11 8 1 9 2 10 3 11 8 12 4 13
REMARK SMILES IDX 6 14 9 15 5 16 90 17 7 18 10 19 85 20 86 21 87 22 88 23
REMARK SMILES IDX 89 24 18 25 19 26 20 27 21 29 22 30 23 31 84 32 24 33 83 34
REMARK SMILES IDX 25 35 26 36 27 37 77 38 28 39 82 40 76 41 78 42 29 43 81 44
REMARK SMILES IDX 75 45 74 46 30 48 62 49 42 50 61 51 43 52 46 53 60 54 79 55
REMARK SMILES IDX 44 56 45 57 59 59 80 60 47 61 31 62 32 63 40 64 33 65 34 66
REMARK SMILES IDX 38 67 41 68 35 69 36 70 39 71 37 72 63 73 64 74 72 75 65 76
REMARK SMILES IDX 66 77 70 78 73 79 67 80 68 81 71 82 69 83 48 84 49 85 57 86
REMARK SMILES IDX 50 87 51 88 55 89 58 90 52 91 53 92 56 93 54 94
REMARK H PARENT 14 7 19 28 78 47 46 58
REMARK Flexibility Score: inf
ROOT
ATOM      1  C   UNL A   1      31.578  31.901  26.811  1.00  0.00     0.023 C 
ENDROOT
BRANCH   1   2
ATOM      2  C   UNL A   1      31.883  30.412  26.629  1.00  0.00     0.023 C 
BRANCH   2   3
ATOM      3  C   UNL A   1      33.282  30.123  26.094  1.00  0.00     0.116 C 
BRANCH   3   4
ATOM      4  N   UNL A   1      33.248  29.641  24.726  1.00  0.00    -0.352 N 
ATOM      5  C   UNL A   1      33.129  28.444  24.104  1.00  0.00     0.251 C 
ATOM      6  O   UNL A   1      33.162  28.494  22.870  1.00  0.00    -0.270 OA
ATOM      7  H   UNL A   1      33.334  30.377  24.080  1.00  0.00     0.163 HD
BRANCH   5   8
ATOM      8  C   UNL A   1      32.966  27.125  24.785  1.00  0.00     0.067 C 
ATOM      9  C   UNL A   1      33.497  21.119  27.251  1.00  0.00     0.046 C 
ATOM     10  C   UNL A   1      33.628  22.395  26.463  1.00  0.00    -0.028 A 
ATOM     11  C   UNL A   1      32.799  23.466  26.807  1.00  0.00     0.052 A 
ATOM     12  C   UNL A   1      34.587  22.577  25.446  1.00  0.00     0.047 A 
ATOM     13  C   UNL A   1      32.900  24.682  26.138  1.00  0.00     0.128 A 
ATOM     14  C   UNL A   1      34.688  23.805  24.746  1.00  0.00    -0.021 A 
ATOM     15  Cl  UNL A   1      35.672  21.267  25.085  1.00  0.00    -0.084 Cl
ATOM     16  C   UNL A   1      33.837  24.874  25.121  1.00  0.00     0.022 A 
ATOM     17  O   UNL A   1      32.064  25.665  26.585  1.00  0.00    -0.475 OA
ATOM     18  C   UNL A   1      35.695  24.007  23.637  1.00  0.00     0.047 C 
ATOM     19  C   UNL A   1      33.921  26.213  24.526  1.00  0.00     0.026 C 
ATOM     20  C   UNL A   1      31.816  26.770  25.679  1.00  0.00     0.314 C 
BRANCH  20  21
ATOM     21  C   UNL A   1      30.514  26.509  24.901  1.00  0.00     0.429 C 
ATOM     22  F   UNL A   1      30.003  27.674  24.429  1.00  0.00    -0.167 F 
ATOM     23  F   UNL A   1      30.707  25.714  23.820  1.00  0.00    -0.167 F 
ATOM     24  F   UNL A   1      29.561  25.922  25.656  1.00  0.00    -0.167 F 
ENDBRANCH  20  21
ENDBRANCH   5   8
ENDBRANCH   3   4
ENDBRANCH   2   3
ENDBRANCH   1   2
BRANCH   1  25
ATOM     25  C   UNL A   1      32.746  32.753  27.303  1.00  0.00     0.116 C 
BRANCH  25  26
ATOM     26  N   UNL A   1      32.376  34.120  27.644  1.00  0.00    -0.352 N 
ATOM     27  C   UNL A   1      32.970  34.953  28.561  1.00  0.00     0.251 C 
ATOM     28  H   UNL A   1      31.605  34.493  27.160  1.00  0.00     0.163 HD
ATOM     29  O   UNL A   1      32.513  36.066  28.797  1.00  0.00    -0.269 OA
BRANCH  27  30
ATOM     30  C   UNL A   1      34.148  34.460  29.297  1.00  0.00     0.039 A 
ATOM     31  C   UNL A   1      33.947  33.743  30.478  1.00  0.00     0.014 A 
ATOM     32  C   UNL A   1      35.430  34.632  28.769  1.00  0.00     0.014 A 
ATOM     33  C   UNL A   1      35.035  33.127  31.094  1.00  0.00     0.010 A 
ATOM     34  C   UNL A   1      36.503  33.967  29.350  1.00  0.00     0.010 A 
ATOM     35  C   UNL A   1      36.311  33.203  30.512  1.00  0.00    -0.014 A 
BRANCH  35  36
ATOM     36  C   UNL A   1      37.458  32.481  31.108  1.00  0.00     0.031 A 
ATOM     37  C   UNL A   1      37.941  32.845  32.480  1.00  0.00     0.074 A 
ATOM     38  C   UNL A   1      38.088  31.529  30.393  1.00  0.00     0.049 A 
ATOM     39  N   UNL A   1      38.940  32.349  33.162  1.00  0.00    -0.248 NA
ATOM     40  C   UNL A   1      37.220  33.929  33.168  1.00  0.00     0.031 C 
ATOM     41  C   UNL A   1      37.735  31.122  29.031  1.00  0.00     0.029 A 
ATOM     42  N   UNL A   1      39.155  30.729  30.713  1.00  0.00    -0.354 N 
ATOM     43  C   UNL A   1      38.969  33.059  34.353  1.00  0.00     0.074 A 
ATOM     44  C   UNL A   1      37.927  34.059  34.280  1.00  0.00     0.031 C 
ATOM     45  C   UNL A   1      38.546  30.123  28.648  1.00  0.00     0.029 A 
ATOM     46  C   UNL A   1      39.491  29.838  29.724  1.00  0.00     0.049 A 
ATOM     47  H   UNL A   1      39.635  30.788  31.571  1.00  0.00     0.167 HD
ATOM     48  C   UNL A   1      39.774  32.872  35.424  1.00  0.00     0.037 A 
ATOM     49  C   UNL A   1      40.449  28.892  29.696  1.00  0.00     0.037 A 
ATOM     50  C   UNL A   1      40.789  31.857  35.505  1.00  0.00     0.049 A 
ATOM     51  C   UNL A   1      41.338  28.712  30.894  1.00  0.00     0.074 A 
ATOM     52  C   UNL A   1      41.617  31.548  36.570  1.00  0.00     0.029 A 
ATOM     53  N   UNL A   1      41.108  30.982  34.479  1.00  0.00    -0.354 N 
ATOM     54  N   UNL A   1      41.320  29.351  32.039  1.00  0.00    -0.248 NA
ATOM     55  C   UNL A   1      42.383  27.682  30.798  1.00  0.00     0.031 C 
ATOM     56  C   UNL A   1      42.458  30.503  36.177  1.00  0.00     0.029 A 
ATOM     57  C   UNL A   1      42.134  30.143  34.878  1.00  0.00     0.049 A 
ATOM     58  H   UNL A   1      40.671  30.960  33.596  1.00  0.00     0.167 HD
ATOM     59  C   UNL A   1      42.332  28.792  32.804  1.00  0.00     0.074 A 
ATOM     60  C   UNL A   1      42.943  27.754  31.999  1.00  0.00     0.031 C 
ATOM     61  C   UNL A   1      42.722  29.114  34.061  1.00  0.00     0.037 A 
BRANCH  48  62
ATOM     62  C   UNL A   1      39.569  33.770  36.605  1.00  0.00     0.064 A 
ATOM     63  C   UNL A   1      38.772  33.374  37.689  1.00  0.00     0.173 A 
ATOM     64  C   UNL A   1      40.198  35.022  36.671  1.00  0.00     0.173 A 
ATOM     65  F   UNL A   1      38.138  32.192  37.664  1.00  0.00    -0.203 F 
ATOM     66  C   UNL A   1      38.595  34.209  38.789  1.00  0.00     0.198 A 
ATOM     67  C   UNL A   1      40.038  35.844  37.782  1.00  0.00     0.198 A 
ATOM     68  F   UNL A   1      40.972  35.445  35.660  1.00  0.00    -0.203 F 
ATOM     69  F   UNL A   1      37.795  33.828  39.795  1.00  0.00    -0.200 F 
ATOM     70  C   UNL A   1      39.232  35.440  38.837  1.00  0.00     0.200 A 
ATOM     71  F   UNL A   1      40.659  37.030  37.833  1.00  0.00    -0.200 F 
ATOM     72  F   UNL A   1      39.064  36.240  39.899  1.00  0.00    -0.200 F 
ENDBRANCH  48  62
BRANCH  49  73
ATOM     73  C   UNL A   1      40.580  28.010  28.509  1.00  0.00     0.064 A 
ATOM     74  C   UNL A   1      39.918  26.775  28.465  1.00  0.00     0.173 A 
ATOM     75  C   UNL A   1      41.340  28.386  27.394  1.00  0.00     0.173 A 
ATOM     76  F   UNL A   1      39.193  26.368  29.517  1.00  0.00    -0.203 F 
ATOM     77  C   UNL A   1      40.019  25.946  27.351  1.00  0.00     0.198 A 
ATOM     78  C   UNL A   1      41.426  27.564  26.272  1.00  0.00     0.198 A 
ATOM     79  F   UNL A   1      41.988  29.561  27.388  1.00  0.00    -0.203 F 
ATOM     80  F   UNL A   1      39.398  24.759  27.344  1.00  0.00    -0.200 F 
ATOM     81  C   UNL A   1      40.768  26.342  26.254  1.00  0.00     0.200 A 
ATOM     82  F   UNL A   1      42.141  27.955  25.210  1.00  0.00    -0.200 F 
ATOM     83  F   UNL A   1      40.858  25.547  25.179  1.00  0.00    -0.200 F 
ENDBRANCH  49  73
BRANCH  61  84
ATOM     84  C   UNL A   1      43.855  28.333  34.655  1.00  0.00     0.064 A 
ATOM     85  C   UNL A   1      45.170  28.816  34.608  1.00  0.00     0.173 A 
ATOM     86  C   UNL A   1      43.610  27.141  35.351  1.00  0.00     0.173 A 
ATOM     87  F   UNL A   1      45.451  29.945  33.942  1.00  0.00    -0.203 F 
ATOM     88  C   UNL A   1      46.202  28.129  35.240  1.00  0.00     0.198 A 
ATOM     89  C   UNL A   1      44.642  26.468  35.998  1.00  0.00     0.198 A 
ATOM     90  F   UNL A   1      42.366  26.645  35.426  1.00  0.00    -0.203 F 
ATOM     91  F   UNL A   1      47.456  28.597  35.172  1.00  0.00    -0.200 F 
ATOM     92  C   UNL A   1      45.936  26.963  35.943  1.00  0.00     0.200 A 
ATOM     93  F   UNL A   1      44.382  25.347  36.686  1.00  0.00    -0.200 F 
ATOM     94  F   UNL A   1      46.930  26.314  36.566  1.00  0.00    -0.200 F 
ENDBRANCH  61  84
ENDBRANCH  35  36
ENDBRANCH  27  30
ENDBRANCH  25  26
ENDBRANCH   1  25
TORSDOF 12
ENDMDL
MODEL 3
REMARK VINA RESULT:     -12.3      4.183      6.001
REMARK SMILES Cc1cc2c(c(C)c1Cl)C=C(C(=O)NCCCCNC(=O)c1ccc(-c3c4nc(c(-c5c(F)c(F)c(F)c(F)c5F)c5ccc([nH]5)c(-c5c(F)c(F)c(F)c(F)c5F)c5nc(c(-c6c(F)c(F)c(F)c(F)c6F)c6ccc3[nH]6)C=C5)C=C4)cc1)[C@@H](C(F)(F)F)O2
REMARK SMILES IDX 17 1 16 2 15 3 14 4 12 5 13 6 11 8 1 9 2 10 3 11 8 12 4 13
REMARK SMILES IDX 6 14 9 15 5 16 90 17 7 18 10 19 85 20 86 21 87 22 88 23
REMARK SMILES IDX 89 24 18 25 19 26 20 27 21 29 22 30 23 31 84 32 24 33 83 34
REMARK SMILES IDX 25 35 26 36 27 37 77 38 28 39 82 40 76 41 78 42 29 43 81 44
REMARK SMILES IDX 75 45 74 46 30 48 62 49 42 50 61 51 43 52 46 53 60 54 79 55
REMARK SMILES IDX 44 56 45 57 59 59 80 60 47 61 31 62 32 63 40 64 33 65 34 66
REMARK SMILES IDX 38 67 41 68 35 69 36 70 39 71 37 72 63 73 64 74 72 75 65 76
REMARK SMILES IDX 66 77 70 78 73 79 67 80 68 81 71 82 69 83 48 84 49 85 57 86
REMARK SMILES IDX 50 87 51 88 55 89 58 90 52 91 53 92 56 93 54 94
REMARK H PARENT 14 7 19 28 78 47 46 58
REMARK Flexibility Score: inf
ROOT
ATOM      1  C   UNL A   1      31.601  32.135  26.919  1.00  0.00     0.023 C 
ENDROOT
BRANCH   1   2
ATOM      2  C   UNL A   1      31.860  30.627  26.880  1.00  0.00     0.023 C 
BRANCH   2   3
ATOM      3  C   UNL A   1      32.174  30.085  25.489  1.00  0.00     0.116 C 
BRANCH   3   4
ATOM      4  N   UNL A   1      30.992  30.042  24.646  1.00  0.00    -0.352 N 
ATOM      5  C   UNL A   1      30.422  29.163  23.789  1.00  0.00     0.251 C 
ATOM      6  O   UNL A   1      29.379  29.558  23.257  1.00  0.00    -0.270 OA
ATOM      7  H   UNL A   1      30.467  30.871  24.717  1.00  0.00     0.163 HD
BRANCH   5   8
ATOM      8  C   UNL A   1      30.949  27.804  23.464  1.00  0.00     0.067 C 
ATOM      9  C   UNL A   1      32.417  21.470  23.048  1.00  0.00     0.046 C 
ATOM     10  C   UNL A   1      31.964  22.844  23.465  1.00  0.00    -0.028 A 
ATOM     11  C   UNL A   1      32.132  23.894  22.559  1.00  0.00     0.052 A 
ATOM     12  C   UNL A   1      31.323  23.103  24.694  1.00  0.00     0.047 A 
ATOM     13  C   UNL A   1      31.699  25.178  22.875  1.00  0.00     0.128 A 
ATOM     14  C   UNL A   1      30.893  24.410  25.034  1.00  0.00    -0.021 A 
ATOM     15  Cl  UNL A   1      31.041  21.773  25.778  1.00  0.00    -0.084 Cl
ATOM     16  C   UNL A   1      31.073  25.453  24.092  1.00  0.00     0.022 A 
ATOM     17  O   UNL A   1      31.884  26.113  21.897  1.00  0.00    -0.475 OA
ATOM     18  C   UNL A   1      30.226  24.708  26.357  1.00  0.00     0.047 C 
ATOM     19  C   UNL A   1      30.582  26.819  24.305  1.00  0.00     0.026 C 
ATOM     20  C   UNL A   1      31.862  27.503  22.313  1.00  0.00     0.314 C 
BRANCH  20  21
ATOM     21  C   UNL A   1      33.304  27.985  22.553  1.00  0.00     0.429 C 
ATOM     22  F   UNL A   1      34.131  27.501  21.592  1.00  0.00    -0.167 F 
ATOM     23  F   UNL A   1      33.414  29.335  22.504  1.00  0.00    -0.167 F 
ATOM     24  F   UNL A   1      33.795  27.593  23.749  1.00  0.00    -0.167 F 
ENDBRANCH  20  21
ENDBRANCH   5   8
ENDBRANCH   3   4
ENDBRANCH   2   3
ENDBRANCH   1   2
BRANCH   1  25
ATOM     25  C   UNL A   1      32.773  32.989  27.396  1.00  0.00     0.116 C 
BRANCH  25  26
ATOM     26  N   UNL A   1      32.399  34.341  27.786  1.00  0.00    -0.352 N 
ATOM     27  C   UNL A   1      32.994  35.146  28.727  1.00  0.00     0.251 C 
ATOM     28  H   UNL A   1      31.622  34.726  27.319  1.00  0.00     0.163 HD
ATOM     29  O   UNL A   1      32.533  36.247  29.003  1.00  0.00    -0.269 OA
BRANCH  27  30
ATOM     30  C   UNL A   1      34.180  34.635  29.437  1.00  0.00     0.039 A 
ATOM     31  C   UNL A   1      34.000  33.992  30.663  1.00  0.00     0.014 A 
ATOM     32  C   UNL A   1      35.444  34.716  28.846  1.00  0.00     0.014 A 
ATOM     33  C   UNL A   1      35.084  33.357  31.264  1.00  0.00     0.010 A 
ATOM     34  C   UNL A   1      36.509  34.030  29.417  1.00  0.00     0.010 A 
ATOM     35  C   UNL A   1      36.335  33.339  30.626  1.00  0.00    -0.014 A 
BRANCH  35  36
ATOM     36  C   UNL A   1      37.473  32.594  31.210  1.00  0.00     0.031 A 
ATOM     37  C   UNL A   1      37.974  32.946  32.579  1.00  0.00     0.074 A 
ATOM     38  C   UNL A   1      38.077  31.631  30.489  1.00  0.00     0.049 A 
ATOM     39  N   UNL A   1      38.969  32.430  33.252  1.00  0.00    -0.248 NA
ATOM     40  C   UNL A   1      37.280  34.043  33.274  1.00  0.00     0.031 C 
ATOM     41  C   UNL A   1      37.705  31.232  29.130  1.00  0.00     0.029 A 
ATOM     42  N   UNL A   1      39.131  30.809  30.799  1.00  0.00    -0.354 N 
ATOM     43  C   UNL A   1      39.022  33.138  34.443  1.00  0.00     0.074 A 
ATOM     44  C   UNL A   1      37.999  34.158  34.381  1.00  0.00     0.031 C 
ATOM     45  C   UNL A   1      38.493  30.219  28.738  1.00  0.00     0.029 A 
ATOM     46  C   UNL A   1      39.442  29.914  29.806  1.00  0.00     0.049 A 
ATOM     47  H   UNL A   1      39.620  30.858  31.653  1.00  0.00     0.167 HD
ATOM     48  C   UNL A   1      39.832  32.933  35.507  1.00  0.00     0.037 A 
ATOM     49  C   UNL A   1      40.381  28.949  29.768  1.00  0.00     0.037 A 
ATOM     50  C   UNL A   1      40.828  31.899  35.579  1.00  0.00     0.049 A 
ATOM     51  C   UNL A   1      41.276  28.750  30.959  1.00  0.00     0.074 A 
ATOM     52  C   UNL A   1      41.659  31.572  36.636  1.00  0.00     0.029 A 
ATOM     53  N   UNL A   1      41.121  31.019  34.548  1.00  0.00    -0.354 N 
ATOM     54  N   UNL A   1      41.280  29.387  32.104  1.00  0.00    -0.248 NA
ATOM     55  C   UNL A   1      42.300  27.700  30.852  1.00  0.00     0.031 C 
ATOM     56  C   UNL A   1      42.476  30.511  36.234  1.00  0.00     0.029 A 
ATOM     57  C   UNL A   1      42.134  30.159  34.938  1.00  0.00     0.049 A 
ATOM     58  H   UNL A   1      40.676  31.007  33.669  1.00  0.00     0.167 HD
ATOM     59  C   UNL A   1      42.288  28.808  32.860  1.00  0.00     0.074 A 
ATOM     60  C   UNL A   1      42.871  27.759  32.048  1.00  0.00     0.031 C 
ATOM     61  C   UNL A   1      42.695  29.120  34.114  1.00  0.00     0.037 A 
BRANCH  48  62
ATOM     62  C   UNL A   1      39.655  33.833  36.691  1.00  0.00     0.064 A 
ATOM     63  C   UNL A   1      40.277  35.090  36.748  1.00  0.00     0.173 A 
ATOM     64  C   UNL A   1      38.833  33.456  37.762  1.00  0.00     0.173 A 
ATOM     65  F   UNL A   1      41.085  35.488  35.754  1.00  0.00    -0.203 F 
ATOM     66  C   UNL A   1      40.099  35.926  37.846  1.00  0.00     0.198 A 
ATOM     67  C   UNL A   1      38.639  34.304  38.847  1.00  0.00     0.198 A 
ATOM     68  F   UNL A   1      38.215  32.264  37.753  1.00  0.00    -0.203 F 
ATOM     69  F   UNL A   1      40.737  37.104  37.898  1.00  0.00    -0.200 F 
ATOM     70  C   UNL A   1      39.276  35.536  38.892  1.00  0.00     0.200 A 
ATOM     71  F   UNL A   1      37.837  33.930  39.854  1.00  0.00    -0.200 F 
ATOM     72  F   UNL A   1      39.103  36.345  39.945  1.00  0.00    -0.200 F 
ENDBRANCH  48  62
BRANCH  49  73
ATOM     73  C   UNL A   1      40.484  28.067  28.579  1.00  0.00     0.064 A 
ATOM     74  C   UNL A   1      41.259  28.448  27.476  1.00  0.00     0.173 A 
ATOM     75  C   UNL A   1      39.836  26.826  28.527  1.00  0.00     0.173 A 
ATOM     76  F   UNL A   1      41.882  29.636  27.476  1.00  0.00    -0.203 F 
ATOM     77  C   UNL A   1      41.378  27.623  26.360  1.00  0.00     0.198 A 
ATOM     78  C   UNL A   1      39.970  25.992  27.418  1.00  0.00     0.198 A 
ATOM     79  F   UNL A   1      39.086  26.415  29.560  1.00  0.00    -0.203 F 
ATOM     80  F   UNL A   1      42.105  28.022  25.309  1.00  0.00    -0.200 F 
ATOM     81  C   UNL A   1      40.738  26.394  26.334  1.00  0.00     0.200 A 
ATOM     82  F   UNL A   1      39.359  24.800  27.401  1.00  0.00    -0.200 F 
ATOM     83  F   UNL A   1      40.858  25.595  25.264  1.00  0.00    -0.200 F 
ENDBRANCH  49  73
BRANCH  61  84
ATOM     84  C   UNL A   1      43.817  28.316  34.697  1.00  0.00     0.064 A 
ATOM     85  C   UNL A   1      45.143  28.765  34.624  1.00  0.00     0.173 A 
ATOM     86  C   UNL A   1      43.554  27.138  35.409  1.00  0.00     0.173 A 
ATOM     87  F   UNL A   1      45.442  29.880  33.942  1.00  0.00    -0.203 F 
ATOM     88  C   UNL A   1      46.168  28.058  35.246  1.00  0.00     0.198 A 
ATOM     89  C   UNL A   1      44.579  26.445  36.046  1.00  0.00     0.198 A 
ATOM     90  F   UNL A   1      42.299  26.675  35.509  1.00  0.00    -0.203 F 
ATOM     91  F   UNL A   1      47.432  28.494  35.152  1.00  0.00    -0.200 F 
ATOM     92  C   UNL A   1      45.884  26.906  35.964  1.00  0.00     0.200 A 
ATOM     93  F   UNL A   1      44.302  25.338  36.750  1.00  0.00    -0.200 F 
ATOM     94  F   UNL A   1      46.871  26.238  36.578  1.00  0.00    -0.200 F 
ENDBRANCH  61  84
ENDBRANCH  35  36
ENDBRANCH  27  30
ENDBRANCH  25  26
ENDBRANCH   1  25
TORSDOF 12
ENDMDL
