MODEL 1
REMARK VINA RESULT:     -10.6      0.000      0.000
REMARK SMILES CCOC(=O)c1cnc(S[C@H](CC)C(=O)NCCCCNC(=O)c2ccc(-c3c4nc(c(-c5c(F)c(F)c(F)c(F)c5F)c5ccc([nH]5)c(-c5c(F)c(F)c(F)c(F)c5F)c5nc(c(-c6c(F)c(F)c(F)c(F)c6F)c6ccc3[nH]6)C=C5)C=C4)cc2)nc1N
REMARK SMILES IDX 17 1 16 2 14 3 15 4 11 6 10 7 9 8 6 9 7 10 88 11 8 12 87 13
REMARK SMILES IDX 4 14 5 15 3 16 2 17 1 18 89 19 12 22 13 23 18 24 19 25 20 26
REMARK SMILES IDX 21 27 22 28 23 30 24 31 25 32 86 33 26 34 85 35 27 36 28 37
REMARK SMILES IDX 29 38 79 39 30 40 84 41 78 42 80 43 31 44 83 45 77 46 76 47
REMARK SMILES IDX 32 49 64 50 44 51 63 52 45 53 48 54 62 55 81 56 46 57 47 58
REMARK SMILES IDX 61 60 82 61 49 62 33 63 34 64 42 65 35 66 36 67 40 68 43 69
REMARK SMILES IDX 37 70 38 71 41 72 39 73 65 74 66 75 74 76 67 77 68 78 72 79
REMARK SMILES IDX 75 80 69 81 70 82 73 83 71 84 50 85 51 86 59 87 52 88 53 89
REMARK SMILES IDX 57 90 60 91 54 92 55 93 58 94 56 95
REMARK H PARENT 16 5 89 20 89 21 21 29 80 48 48 59
REMARK Flexibility Score: inf
ROOT
ATOM      1  C   UNL A   1      35.735  21.456  25.088  1.00  0.00     0.116 C 
ENDROOT
BRANCH   1   2
ATOM      2  N   UNL A   1      35.134  21.465  26.411  1.00  0.00    -0.355 N 
ATOM      3  C   UNL A   1      33.877  21.832  26.809  1.00  0.00     0.233 C 
ATOM      4  O   UNL A   1      33.605  21.702  28.007  1.00  0.00    -0.274 OA
ATOM      5  H   UNL A   1      35.724  21.157  27.136  1.00  0.00     0.163 HD
BRANCH   3   6
ATOM      6  C   UNL A   1      32.842  22.402  25.822  1.00  0.00     0.143 C 
BRANCH   6   7
ATOM      7  S   UNL A   1      31.672  23.415  26.823  1.00  0.00    -0.073 SA
BRANCH   7   8
ATOM      8  C   UNL A   1      31.792  25.023  26.117  1.00  0.00     0.190 A 
ATOM      9  C   UNL A   1      32.135  27.427  24.950  1.00  0.00     0.120 A 
ATOM     10  C   UNL A   1      31.472  27.278  26.149  1.00  0.00     0.133 A 
ATOM     11  C   UNL A   1      32.610  26.272  24.364  1.00  0.00     0.142 A 
ATOM     12  N   UNL A   1      31.267  26.083  26.743  1.00  0.00    -0.230 NA
ATOM     13  N   UNL A   1      32.456  25.075  24.949  1.00  0.00    -0.205 NA
BRANCH   9  14
ATOM     14  C   UNL A   1      32.341  28.767  24.413  1.00  0.00     0.343 C 
ATOM     15  O   UNL A   1      32.937  29.645  25.021  1.00  0.00    -0.246 OA
BRANCH  14  16
ATOM     16  O   UNL A   1      31.713  28.883  23.218  1.00  0.00    -0.462 OA
BRANCH  16  17
ATOM     17  C   UNL A   1      30.364  29.376  23.263  1.00  0.00     0.230 C 
ATOM     18  C   UNL A   1      29.353  28.284  22.962  1.00  0.00     0.049 C 
ENDBRANCH  16  17
ENDBRANCH  14  16
ENDBRANCH   9  14
BRANCH  11  19
ATOM     19  N   UNL A   1      33.356  26.251  23.200  1.00  0.00    -0.383 N 
ATOM     20  H   UNL A   1      34.220  25.780  23.178  1.00  0.00     0.158 HD
ATOM     21  H   UNL A   1      33.023  26.707  22.394  1.00  0.00     0.158 HD
ENDBRANCH  11  19
ENDBRANCH   7   8
ENDBRANCH   6   7
BRANCH   6  22
ATOM     22  C   UNL A   1      32.216  21.261  24.996  1.00  0.00     0.021 C 
ATOM     23  C   UNL A   1      32.382  21.407  23.491  1.00  0.00     0.005 C 
ENDBRANCH   6  22
ENDBRANCH   3   6
ENDBRANCH   1   2
BRANCH   1  24
ATOM     24  C   UNL A   1      37.210  21.843  25.131  1.00  0.00     0.023 C 
BRANCH  24  25
ATOM     25  C   UNL A   1      38.172  20.660  25.043  1.00  0.00     0.023 C 
BRANCH  25  26
ATOM     26  C   UNL A   1      39.338  20.707  26.023  1.00  0.00     0.116 C 
BRANCH  26  27
ATOM     27  N   UNL A   1      40.208  19.540  25.944  1.00  0.00    -0.352 N 
ATOM     28  C   UNL A   1      41.570  19.485  26.132  1.00  0.00     0.251 C 
ATOM     29  H   UNL A   1      39.767  18.687  25.728  1.00  0.00     0.163 HD
ATOM     30  O   UNL A   1      42.198  18.452  25.931  1.00  0.00    -0.269 OA
BRANCH  28  31
ATOM     31  C   UNL A   1      42.271  20.714  26.547  1.00  0.00     0.039 A 
ATOM     32  C   UNL A   1      42.651  21.642  25.574  1.00  0.00     0.014 A 
ATOM     33  C   UNL A   1      42.466  20.980  27.905  1.00  0.00     0.014 A 
ATOM     34  C   UNL A   1      43.152  22.883  25.970  1.00  0.00     0.010 A 
ATOM     35  C   UNL A   1      42.896  22.241  28.296  1.00  0.00     0.010 A 
ATOM     36  C   UNL A   1      43.234  23.209  27.333  1.00  0.00    -0.014 A 
BRANCH  36  37
ATOM     37  C   UNL A   1      43.662  24.551  27.798  1.00  0.00     0.031 A 
ATOM     38  C   UNL A   1      42.622  25.580  28.137  1.00  0.00     0.074 A 
ATOM     39  C   UNL A   1      44.969  24.877  27.805  1.00  0.00     0.049 A 
ATOM     40  N   UNL A   1      42.766  26.858  28.379  1.00  0.00    -0.248 NA
ATOM     41  C   UNL A   1      41.227  25.114  28.174  1.00  0.00     0.031 C 
ATOM     42  C   UNL A   1      46.070  23.976  27.466  1.00  0.00     0.029 A 
ATOM     43  N   UNL A   1      45.590  26.071  28.080  1.00  0.00    -0.354 N 
ATOM     44  C   UNL A   1      41.483  27.351  28.565  1.00  0.00     0.074 A 
ATOM     45  C   UNL A   1      40.569  26.246  28.368  1.00  0.00     0.031 C 
ATOM     46  C   UNL A   1      47.231  24.645  27.558  1.00  0.00     0.029 A 
ATOM     47  C   UNL A   1      46.953  26.033  27.915  1.00  0.00     0.049 A 
ATOM     48  H   UNL A   1      45.104  26.877  28.369  1.00  0.00     0.167 HD
ATOM     49  C   UNL A   1      41.104  28.610  28.886  1.00  0.00     0.037 A 
ATOM     50  C   UNL A   1      47.871  27.014  28.015  1.00  0.00     0.037 A 
ATOM     51  C   UNL A   1      42.019  29.694  29.116  1.00  0.00     0.049 A 
ATOM     52  C   UNL A   1      47.422  28.407  28.366  1.00  0.00     0.074 A 
ATOM     53  C   UNL A   1      41.738  30.991  29.508  1.00  0.00     0.029 A 
ATOM     54  N   UNL A   1      43.396  29.607  28.975  1.00  0.00    -0.354 N 
ATOM     55  N   UNL A   1      46.210  28.853  28.591  1.00  0.00    -0.248 NA
ATOM     56  C   UNL A   1      48.468  29.435  28.476  1.00  0.00     0.031 C 
ATOM     57  C   UNL A   1      42.942  31.700  29.564  1.00  0.00     0.029 A 
ATOM     58  C   UNL A   1      43.977  30.832  29.256  1.00  0.00     0.049 A 
ATOM     59  H   UNL A   1      43.887  28.794  28.714  1.00  0.00     0.167 HD
ATOM     60  C   UNL A   1      46.350  30.199  28.902  1.00  0.00     0.074 A 
ATOM     61  C   UNL A   1      47.765  30.499  28.840  1.00  0.00     0.031 C 
ATOM     62  C   UNL A   1      45.391  31.104  29.213  1.00  0.00     0.037 A 
BRANCH  49  63
ATOM     63  C   UNL A   1      39.633  28.882  29.009  1.00  0.00     0.064 A 
ATOM     64  C   UNL A   1      38.964  28.773  30.237  1.00  0.00     0.173 A 
ATOM     65  C   UNL A   1      38.890  29.288  27.890  1.00  0.00     0.173 A 
ATOM     66  F   UNL A   1      39.627  28.375  31.334  1.00  0.00    -0.203 F 
ATOM     67  C   UNL A   1      37.599  29.033  30.336  1.00  0.00     0.198 A 
ATOM     68  C   UNL A   1      37.533  29.578  27.998  1.00  0.00     0.198 A 
ATOM     69  F   UNL A   1      39.482  29.413  26.693  1.00  0.00    -0.203 F 
ATOM     70  F   UNL A   1      36.972  28.873  31.509  1.00  0.00    -0.200 F 
ATOM     71  C   UNL A   1      36.888  29.442  29.218  1.00  0.00     0.200 A 
ATOM     72  F   UNL A   1      36.848  29.986  26.921  1.00  0.00    -0.200 F 
ATOM     73  F   UNL A   1      35.576  29.699  29.317  1.00  0.00    -0.200 F 
ENDBRANCH  49  63
BRANCH  50  74
ATOM     74  C   UNL A   1      49.309  26.712  27.792  1.00  0.00     0.064 A 
ATOM     75  C   UNL A   1      50.157  26.419  28.869  1.00  0.00     0.173 A 
ATOM     76  C   UNL A   1      49.867  26.714  26.504  1.00  0.00     0.173 A 
ATOM     77  F   UNL A   1      49.674  26.427  30.120  1.00  0.00    -0.203 F 
ATOM     78  C   UNL A   1      51.511  26.159  28.670  1.00  0.00     0.198 A 
ATOM     79  C   UNL A   1      51.216  26.426  26.305  1.00  0.00     0.198 A 
ATOM     80  F   UNL A   1      49.098  26.983  25.439  1.00  0.00    -0.203 F 
ATOM     81  F   UNL A   1      52.307  25.925  29.722  1.00  0.00    -0.200 F 
ATOM     82  C   UNL A   1      52.038  26.157  27.389  1.00  0.00     0.200 A 
ATOM     83  F   UNL A   1      51.719  26.412  25.063  1.00  0.00    -0.200 F 
ATOM     84  F   UNL A   1      53.340  25.903  27.198  1.00  0.00    -0.200 F 
ENDBRANCH  50  74
BRANCH  62  85
ATOM     85  C   UNL A   1      45.833  32.493  29.566  1.00  0.00     0.064 A 
ATOM     86  C   UNL A   1      45.918  33.506  28.602  1.00  0.00     0.173 A 
ATOM     87  C   UNL A   1      46.096  32.830  30.903  1.00  0.00     0.173 A 
ATOM     88  F   UNL A   1      45.689  33.230  27.309  1.00  0.00    -0.203 F 
ATOM     89  C   UNL A   1      46.259  34.807  28.963  1.00  0.00     0.198 A 
ATOM     90  C   UNL A   1      46.410  34.136  31.264  1.00  0.00     0.198 A 
ATOM     91  F   UNL A   1      46.022  31.895  31.863  1.00  0.00    -0.203 F 
ATOM     92  F   UNL A   1      46.362  35.756  28.022  1.00  0.00    -0.200 F 
ATOM     93  C   UNL A   1      46.493  35.123  30.293  1.00  0.00     0.200 A 
ATOM     94  F   UNL A   1      46.623  34.442  32.551  1.00  0.00    -0.200 F 
ATOM     95  F   UNL A   1      46.802  36.381  30.640  1.00  0.00    -0.200 F 
ENDBRANCH  62  85
ENDBRANCH  36  37
ENDBRANCH  28  31
ENDBRANCH  26  27
ENDBRANCH  25  26
ENDBRANCH  24  25
ENDBRANCH   1  24
TORSDOF 18
ENDMDL
MODEL 2
REMARK VINA RESULT:     -10.6      4.740     10.069
REMARK SMILES CCOC(=O)c1cnc(S[C@H](CC)C(=O)NCCCCNC(=O)c2ccc(-c3c4nc(c(-c5c(F)c(F)c(F)c(F)c5F)c5ccc([nH]5)c(-c5c(F)c(F)c(F)c(F)c5F)c5nc(c(-c6c(F)c(F)c(F)c(F)c6F)c6ccc3[nH]6)C=C5)C=C4)cc2)nc1N
REMARK SMILES IDX 17 1 16 2 14 3 15 4 11 6 10 7 9 8 6 9 7 10 88 11 8 12 87 13
REMARK SMILES IDX 4 14 5 15 3 16 2 17 1 18 89 19 12 22 13 23 18 24 19 25 20 26
REMARK SMILES IDX 21 27 22 28 23 30 24 31 25 32 86 33 26 34 85 35 27 36 28 37
REMARK SMILES IDX 29 38 79 39 30 40 84 41 78 42 80 43 31 44 83 45 77 46 76 47
REMARK SMILES IDX 32 49 64 50 44 51 63 52 45 53 48 54 62 55 81 56 46 57 47 58
REMARK SMILES IDX 61 60 82 61 49 62 33 63 34 64 42 65 35 66 36 67 40 68 43 69
REMARK SMILES IDX 37 70 38 71 41 72 39 73 65 74 66 75 74 76 67 77 68 78 72 79
REMARK SMILES IDX 75 80 69 81 70 82 73 83 71 84 50 85 51 86 59 87 52 88 53 89
REMARK SMILES IDX 57 90 60 91 54 92 55 93 58 94 56 95
REMARK H PARENT 16 5 89 20 89 21 21 29 80 48 48 59
REMARK Flexibility Score: inf
ROOT
ATOM      1  C   UNL A   1      35.844  32.028  31.954  1.00  0.00     0.116 C 
ENDROOT
BRANCH   1   2
ATOM      2  N   UNL A   1      35.576  32.666  33.232  1.00  0.00    -0.355 N 
ATOM      3  C   UNL A   1      36.416  32.943  34.275  1.00  0.00     0.233 C 
ATOM      4  O   UNL A   1      35.935  33.540  35.243  1.00  0.00    -0.274 OA
ATOM      5  H   UNL A   1      34.642  32.945  33.367  1.00  0.00     0.163 HD
BRANCH   3   6
ATOM      6  C   UNL A   1      37.896  32.519  34.267  1.00  0.00     0.143 C 
BRANCH   6   7
ATOM      7  S   UNL A   1      38.134  31.430  35.735  1.00  0.00    -0.073 SA
BRANCH   7   8
ATOM      8  C   UNL A   1      39.540  30.457  35.319  1.00  0.00     0.190 A 
ATOM      9  C   UNL A   1      41.579  28.859  34.576  1.00  0.00     0.120 A 
ATOM     10  C   UNL A   1      41.578  29.545  35.772  1.00  0.00     0.133 A 
ATOM     11  C   UNL A   1      40.478  29.041  33.764  1.00  0.00     0.142 A 
ATOM     12  N   UNL A   1      40.581  30.369  36.157  1.00  0.00    -0.230 NA
ATOM     13  N   UNL A   1      39.454  29.823  34.136  1.00  0.00    -0.205 NA
BRANCH   9  14
ATOM     14  C   UNL A   1      42.687  27.960  34.273  1.00  0.00     0.343 C 
ATOM     15  O   UNL A   1      42.847  27.446  33.175  1.00  0.00    -0.246 OA
BRANCH  14  16
ATOM     16  O   UNL A   1      43.419  27.743  35.391  1.00  0.00    -0.462 OA
BRANCH  16  17
ATOM     17  C   UNL A   1      44.845  27.791  35.227  1.00  0.00     0.230 C 
ATOM     18  C   UNL A   1      45.340  29.208  34.995  1.00  0.00     0.049 C 
ENDBRANCH  16  17
ENDBRANCH  14  16
ENDBRANCH   9  14
BRANCH  11  19
ATOM     19  N   UNL A   1      40.288  28.375  32.567  1.00  0.00    -0.383 N 
ATOM     20  H   UNL A   1      40.968  27.741  32.244  1.00  0.00     0.158 HD
ATOM     21  H   UNL A   1      39.473  28.533  32.041  1.00  0.00     0.158 HD
ENDBRANCH  11  19
ENDBRANCH   7   8
ENDBRANCH   6   7
BRANCH   6  22
ATOM     22  C   UNL A   1      38.803  33.763  34.192  1.00  0.00     0.021 C 
ATOM     23  C   UNL A   1      38.855  34.423  32.822  1.00  0.00     0.005 C 
ENDBRANCH   6  22
ENDBRANCH   3   6
ENDBRANCH   1   2
BRANCH   1  24
ATOM     24  C   UNL A   1      36.052  33.049  30.841  1.00  0.00     0.023 C 
BRANCH  24  25
ATOM     25  C   UNL A   1      34.802  33.340  30.013  1.00  0.00     0.023 C 
BRANCH  25  26
ATOM     26  C   UNL A   1      34.923  33.010  28.530  1.00  0.00     0.116 C 
BRANCH  26  27
ATOM     27  N   UNL A   1      33.954  32.021  28.076  1.00  0.00    -0.352 N 
ATOM     28  C   UNL A   1      34.162  30.685  27.823  1.00  0.00     0.251 C 
ATOM     29  H   UNL A   1      33.037  32.349  27.932  1.00  0.00     0.163 HD
ATOM     30  O   UNL A   1      33.280  29.984  27.342  1.00  0.00    -0.269 OA
BRANCH  28  31
ATOM     31  C   UNL A   1      35.494  30.116  28.108  1.00  0.00     0.039 A 
ATOM     32  C   UNL A   1      36.483  30.175  27.123  1.00  0.00     0.014 A 
ATOM     33  C   UNL A   1      35.778  29.613  29.379  1.00  0.00     0.014 A 
ATOM     34  C   UNL A   1      37.790  29.805  27.443  1.00  0.00     0.010 A 
ATOM     35  C   UNL A   1      37.092  29.314  29.714  1.00  0.00     0.010 A 
ATOM     36  C   UNL A   1      38.112  29.416  28.753  1.00  0.00    -0.014 A 
BRANCH  36  37
ATOM     37  C   UNL A   1      39.505  29.112  29.164  1.00  0.00     0.031 A 
ATOM     38  C   UNL A   1      40.291  30.143  29.923  1.00  0.00     0.074 A 
ATOM     39  C   UNL A   1      40.094  27.971  28.760  1.00  0.00     0.049 A 
ATOM     40  N   UNL A   1      41.566  30.166  30.215  1.00  0.00    -0.248 NA
ATOM     41  C   UNL A   1      39.546  31.325  30.385  1.00  0.00     0.031 C 
ATOM     42  C   UNL A   1      39.446  26.907  27.992  1.00  0.00     0.029 A 
ATOM     43  N   UNL A   1      41.385  27.528  28.916  1.00  0.00    -0.354 N 
ATOM     44  C   UNL A   1      41.780  31.373  30.865  1.00  0.00     0.074 A 
ATOM     45  C   UNL A   1      40.514  32.074  30.889  1.00  0.00     0.031 C 
ATOM     46  C   UNL A   1      40.339  25.934  27.748  1.00  0.00     0.029 A 
ATOM     47  C   UNL A   1      41.632  26.325  28.300  1.00  0.00     0.049 A 
ATOM     48  H   UNL A   1      42.068  28.025  29.421  1.00  0.00     0.167 HD
ATOM     49  C   UNL A   1      42.927  31.846  31.405  1.00  0.00     0.037 A 
ATOM     50  C   UNL A   1      42.780  25.631  28.172  1.00  0.00     0.037 A 
ATOM     51  C   UNL A   1      44.173  31.128  31.409  1.00  0.00     0.049 A 
ATOM     52  C   UNL A   1      44.044  26.182  28.775  1.00  0.00     0.074 A 
ATOM     53  C   UNL A   1      45.376  31.493  31.987  1.00  0.00     0.029 A 
ATOM     54  N   UNL A   1      44.374  29.896  30.806  1.00  0.00    -0.354 N 
ATOM     55  N   UNL A   1      44.226  27.301  29.433  1.00  0.00    -0.248 NA
ATOM     56  C   UNL A   1      45.263  25.376  28.619  1.00  0.00     0.031 C 
ATOM     57  C   UNL A   1      46.317  30.500  31.698  1.00  0.00     0.029 A 
ATOM     58  C   UNL A   1      45.688  29.493  30.983  1.00  0.00     0.049 A 
ATOM     59  H   UNL A   1      43.686  29.382  30.325  1.00  0.00     0.167 HD
ATOM     60  C   UNL A   1      45.566  27.317  29.798  1.00  0.00     0.074 A 
ATOM     61  C   UNL A   1      46.152  26.095  29.291  1.00  0.00     0.031 C 
ATOM     62  C   UNL A   1      46.246  28.260  30.493  1.00  0.00     0.037 A 
BRANCH  49  63
ATOM     63  C   UNL A   1      42.887  33.206  32.039  1.00  0.00     0.064 A 
ATOM     64  C   UNL A   1      42.489  33.386  33.372  1.00  0.00     0.173 A 
ATOM     65  C   UNL A   1      43.284  34.339  31.313  1.00  0.00     0.173 A 
ATOM     66  F   UNL A   1      42.089  32.335  34.104  1.00  0.00    -0.203 F 
ATOM     67  C   UNL A   1      42.461  34.654  33.947  1.00  0.00     0.198 A 
ATOM     68  C   UNL A   1      43.285  35.602  31.900  1.00  0.00     0.198 A 
ATOM     69  F   UNL A   1      43.679  34.222  30.037  1.00  0.00    -0.203 F 
ATOM     70  F   UNL A   1      42.029  34.806  35.205  1.00  0.00    -0.200 F 
ATOM     71  C   UNL A   1      42.867  35.758  33.213  1.00  0.00     0.200 A 
ATOM     72  F   UNL A   1      43.689  36.667  31.195  1.00  0.00    -0.200 F 
ATOM     73  F   UNL A   1      42.847  36.977  33.771  1.00  0.00    -0.200 F 
ENDBRANCH  49  63
BRANCH  50  74
ATOM     74  C   UNL A   1      42.786  24.330  27.452  1.00  0.00     0.064 A 
ATOM     75  C   UNL A   1      42.479  23.138  28.122  1.00  0.00     0.173 A 
ATOM     76  C   UNL A   1      43.102  24.249  26.087  1.00  0.00     0.173 A 
ATOM     77  F   UNL A   1      42.192  23.163  29.432  1.00  0.00    -0.203 F 
ATOM     78  C   UNL A   1      42.505  21.912  27.460  1.00  0.00     0.198 A 
ATOM     79  C   UNL A   1      43.100  23.025  25.421  1.00  0.00     0.198 A 
ATOM     80  F   UNL A   1      43.398  25.361  25.399  1.00  0.00    -0.203 F 
ATOM     81  F   UNL A   1      42.250  20.784  28.136  1.00  0.00    -0.200 F 
ATOM     82  C   UNL A   1      42.810  21.857  26.109  1.00  0.00     0.200 A 
ATOM     83  F   UNL A   1      43.383  22.978  24.112  1.00  0.00    -0.200 F 
ATOM     84  F   UNL A   1      42.832  20.678  25.473  1.00  0.00    -0.200 F 
ENDBRANCH  50  74
BRANCH  62  85
ATOM     85  C   UNL A   1      47.690  27.991  30.798  1.00  0.00     0.064 A 
ATOM     86  C   UNL A   1      48.084  27.322  31.965  1.00  0.00     0.173 A 
ATOM     87  C   UNL A   1      48.683  28.337  29.868  1.00  0.00     0.173 A 
ATOM     88  F   UNL A   1      47.173  26.983  32.890  1.00  0.00    -0.203 F 
ATOM     89  C   UNL A   1      49.423  27.016  32.194  1.00  0.00     0.198 A 
ATOM     90  C   UNL A   1      50.016  28.005  30.087  1.00  0.00     0.198 A 
ATOM     91  F   UNL A   1      48.354  28.973  28.733  1.00  0.00    -0.203 F 
ATOM     92  F   UNL A   1      49.782  26.400  33.329  1.00  0.00    -0.200 F 
ATOM     93  C   UNL A   1      50.385  27.347  31.251  1.00  0.00     0.200 A 
ATOM     94  F   UNL A   1      50.942  28.314  29.170  1.00  0.00    -0.200 F 
ATOM     95  F   UNL A   1      51.671  27.033  31.465  1.00  0.00    -0.200 F 
ENDBRANCH  62  85
ENDBRANCH  36  37
ENDBRANCH  28  31
ENDBRANCH  26  27
ENDBRANCH  25  26
ENDBRANCH  24  25
ENDBRANCH   1  24
TORSDOF 18
ENDMDL
MODEL 3
REMARK VINA RESULT:     -10.5      0.975      7.426
REMARK SMILES CCOC(=O)c1cnc(S[C@H](CC)C(=O)NCCCCNC(=O)c2ccc(-c3c4nc(c(-c5c(F)c(F)c(F)c(F)c5F)c5ccc([nH]5)c(-c5c(F)c(F)c(F)c(F)c5F)c5nc(c(-c6c(F)c(F)c(F)c(F)c6F)c6ccc3[nH]6)C=C5)C=C4)cc2)nc1N
REMARK SMILES IDX 17 1 16 2 14 3 15 4 11 6 10 7 9 8 6 9 7 10 88 11 8 12 87 13
REMARK SMILES IDX 4 14 5 15 3 16 2 17 1 18 89 19 12 22 13 23 18 24 19 25 20 26
REMARK SMILES IDX 21 27 22 28 23 30 24 31 25 32 86 33 26 34 85 35 27 36 28 37
REMARK SMILES IDX 29 38 79 39 30 40 84 41 78 42 80 43 31 44 83 45 77 46 76 47
REMARK SMILES IDX 32 49 64 50 44 51 63 52 45 53 48 54 62 55 81 56 46 57 47 58
REMARK SMILES IDX 61 60 82 61 49 62 33 63 34 64 42 65 35 66 36 67 40 68 43 69
REMARK SMILES IDX 37 70 38 71 41 72 39 73 65 74 66 75 74 76 67 77 68 78 72 79
REMARK SMILES IDX 75 80 69 81 70 82 73 83 71 84 50 85 51 86 59 87 52 88 53 89
REMARK SMILES IDX 57 90 60 91 54 92 55 93 58 94 56 95
REMARK H PARENT 16 5 89 20 89 21 21 29 80 48 48 59
REMARK Flexibility Score: inf
ROOT
ATOM      1  C   UNL A   1      35.929  21.251  24.783  1.00  0.00     0.116 C 
ENDROOT
BRANCH   1   2
ATOM      2  N   UNL A   1      35.424  21.365  26.141  1.00  0.00    -0.355 N 
ATOM      3  C   UNL A   1      34.162  21.633  26.595  1.00  0.00     0.233 C 
ATOM      4  O   UNL A   1      33.992  21.632  27.819  1.00  0.00    -0.274 OA
ATOM      5  H   UNL A   1      36.098  21.228  26.846  1.00  0.00     0.163 HD
BRANCH   3   6
ATOM      6  C   UNL A   1      32.997  21.942  25.638  1.00  0.00     0.143 C 
BRANCH   6   7
ATOM      7  S   UNL A   1      31.702  22.779  26.647  1.00  0.00    -0.073 SA
BRANCH   7   8
ATOM      8  C   UNL A   1      31.545  24.367  25.904  1.00  0.00     0.190 A 
ATOM      9  C   UNL A   1      31.230  26.859  24.929  1.00  0.00     0.120 A 
ATOM     10  C   UNL A   1      31.236  25.745  24.117  1.00  0.00     0.133 A 
ATOM     11  C   UNL A   1      31.405  26.635  26.279  1.00  0.00     0.142 A 
ATOM     12  N   UNL A   1      31.416  24.489  24.577  1.00  0.00    -0.230 NA
ATOM     13  N   UNL A   1      31.547  25.395  26.771  1.00  0.00    -0.205 NA
BRANCH   9  14
ATOM     14  C   UNL A   1      30.986  28.169  24.337  1.00  0.00     0.343 C 
ATOM     15  O   UNL A   1      30.972  29.204  24.989  1.00  0.00    -0.246 OA
BRANCH  14  16
ATOM     16  O   UNL A   1      30.708  28.031  23.018  1.00  0.00    -0.462 OA
BRANCH  16  17
ATOM     17  C   UNL A   1      30.296  29.226  22.335  1.00  0.00     0.230 C 
ATOM     18  C   UNL A   1      28.793  29.428  22.406  1.00  0.00     0.049 C 
ENDBRANCH  16  17
ENDBRANCH  14  16
ENDBRANCH   9  14
BRANCH  11  19
ATOM     19  N   UNL A   1      31.354  27.631  27.236  1.00  0.00    -0.383 N 
ATOM     20  H   UNL A   1      31.450  28.574  26.971  1.00  0.00     0.158 HD
ATOM     21  H   UNL A   1      31.219  27.397  28.183  1.00  0.00     0.158 HD
ENDBRANCH  11  19
ENDBRANCH   7   8
ENDBRANCH   6   7
BRANCH   6  22
ATOM     22  C   UNL A   1      32.561  20.658  24.904  1.00  0.00     0.021 C 
ATOM     23  C   UNL A   1      32.339  20.831  23.409  1.00  0.00     0.005 C 
ENDBRANCH   6  22
ENDBRANCH   3   6
ENDBRANCH   1   2
BRANCH   1  24
ATOM     24  C   UNL A   1      37.443  21.429  24.722  1.00  0.00     0.023 C 
BRANCH  24  25
ATOM     25  C   UNL A   1      38.237  20.151  24.986  1.00  0.00     0.023 C 
BRANCH  25  26
ATOM     26  C   UNL A   1      39.302  20.270  26.069  1.00  0.00     0.116 C 
BRANCH  26  27
ATOM     27  N   UNL A   1      40.290  19.199  26.030  1.00  0.00    -0.352 N 
ATOM     28  C   UNL A   1      41.659  19.306  26.099  1.00  0.00     0.251 C 
ATOM     29  H   UNL A   1      39.932  18.285  25.943  1.00  0.00     0.163 HD
ATOM     30  O   UNL A   1      42.382  18.328  25.947  1.00  0.00    -0.269 OA
BRANCH  28  31
ATOM     31  C   UNL A   1      42.248  20.640  26.321  1.00  0.00     0.039 A 
ATOM     32  C   UNL A   1      42.588  21.425  25.217  1.00  0.00     0.014 A 
ATOM     33  C   UNL A   1      42.374  21.138  27.619  1.00  0.00     0.014 A 
ATOM     34  C   UNL A   1      42.976  22.752  25.413  1.00  0.00     0.010 A 
ATOM     35  C   UNL A   1      42.691  22.477  27.807  1.00  0.00     0.010 A 
ATOM     36  C   UNL A   1      42.986  23.299  26.706  1.00  0.00    -0.014 A 
BRANCH  36  37
ATOM     37  C   UNL A   1      43.292  24.730  26.953  1.00  0.00     0.031 A 
ATOM     38  C   UNL A   1      44.695  25.227  26.756  1.00  0.00     0.074 A 
ATOM     39  C   UNL A   1      42.347  25.545  27.458  1.00  0.00     0.049 A 
ATOM     40  N   UNL A   1      45.223  26.378  27.089  1.00  0.00    -0.248 NA
ATOM     41  C   UNL A   1      45.641  24.289  26.132  1.00  0.00     0.031 C 
ATOM     42  C   UNL A   1      40.957  25.171  27.723  1.00  0.00     0.029 A 
ATOM     43  N   UNL A   1      42.421  26.854  27.867  1.00  0.00    -0.354 N 
ATOM     44  C   UNL A   1      46.563  26.289  26.743  1.00  0.00     0.074 A 
ATOM     45  C   UNL A   1      46.780  24.959  26.214  1.00  0.00     0.031 C 
ATOM     46  C   UNL A   1      40.309  26.226  28.245  1.00  0.00     0.029 A 
ATOM     47  C   UNL A   1      41.248  27.333  28.396  1.00  0.00     0.049 A 
ATOM     48  H   UNL A   1      43.239  27.397  27.790  1.00  0.00     0.167 HD
ATOM     49  C   UNL A   1      47.523  27.238  26.845  1.00  0.00     0.037 A 
ATOM     50  C   UNL A   1      40.968  28.524  28.962  1.00  0.00     0.037 A 
ATOM     51  C   UNL A   1      47.293  28.568  27.338  1.00  0.00     0.049 A 
ATOM     52  C   UNL A   1      42.056  29.559  29.071  1.00  0.00     0.074 A 
ATOM     53  C   UNL A   1      48.185  29.623  27.423  1.00  0.00     0.029 A 
ATOM     54  N   UNL A   1      46.081  29.027  27.831  1.00  0.00    -0.354 N 
ATOM     55  N   UNL A   1      43.309  29.484  28.695  1.00  0.00    -0.248 NA
ATOM     56  C   UNL A   1      41.691  30.844  29.685  1.00  0.00     0.031 C 
ATOM     57  C   UNL A   1      47.523  30.708  28.004  1.00  0.00     0.029 A 
ATOM     58  C   UNL A   1      46.206  30.346  28.237  1.00  0.00     0.049 A 
ATOM     59  H   UNL A   1      45.254  28.496  27.883  1.00  0.00     0.167 HD
ATOM     60  C   UNL A   1      43.872  30.718  28.992  1.00  0.00     0.074 A 
ATOM     61  C   UNL A   1      42.824  31.526  29.578  1.00  0.00     0.031 C 
ATOM     62  C   UNL A   1      45.143  31.142  28.794  1.00  0.00     0.037 A 
BRANCH  49  63
ATOM     63  C   UNL A   1      48.913  26.869  26.414  1.00  0.00     0.064 A 
ATOM     64  C   UNL A   1      49.847  26.338  27.316  1.00  0.00     0.173 A 
ATOM     65  C   UNL A   1      49.303  27.017  25.075  1.00  0.00     0.173 A 
ATOM     66  F   UNL A   1      49.526  26.188  28.610  1.00  0.00    -0.203 F 
ATOM     67  C   UNL A   1      51.131  25.996  26.899  1.00  0.00     0.198 A 
ATOM     68  C   UNL A   1      50.578  26.645  24.655  1.00  0.00     0.198 A 
ATOM     69  F   UNL A   1      48.447  27.515  24.171  1.00  0.00    -0.203 F 
ATOM     70  F   UNL A   1      52.022  25.539  27.789  1.00  0.00    -0.200 F 
ATOM     71  C   UNL A   1      51.492  26.143  25.568  1.00  0.00     0.200 A 
ATOM     72  F   UNL A   1      50.921  26.775  23.366  1.00  0.00    -0.200 F 
ATOM     73  F   UNL A   1      52.726  25.806  25.168  1.00  0.00    -0.200 F 
ENDBRANCH  49  63
BRANCH  50  74
ATOM     74  C   UNL A   1      39.597  28.807  29.460  1.00  0.00     0.064 A 
ATOM     75  C   UNL A   1      38.636  29.392  28.624  1.00  0.00     0.173 A 
ATOM     76  C   UNL A   1      39.218  28.505  30.778  1.00  0.00     0.173 A 
ATOM     77  F   UNL A   1      38.958  29.718  27.363  1.00  0.00    -0.203 F 
ATOM     78  C   UNL A   1      37.356  29.682  29.090  1.00  0.00     0.198 A 
ATOM     79  C   UNL A   1      37.929  28.771  31.233  1.00  0.00     0.198 A 
ATOM     80  F   UNL A   1      40.099  27.940  31.617  1.00  0.00    -0.203 F 
ATOM     81  F   UNL A   1      36.471  30.281  28.282  1.00  0.00    -0.200 F 
ATOM     82  C   UNL A   1      37.001  29.366  30.392  1.00  0.00     0.200 A 
ATOM     83  F   UNL A   1      37.586  28.452  32.489  1.00  0.00    -0.200 F 
ATOM     84  F   UNL A   1      35.768  29.643  30.839  1.00  0.00    -0.200 F 
ENDBRANCH  50  74
BRANCH  62  85
ATOM     85  C   UNL A   1      45.468  32.560  29.161  1.00  0.00     0.064 A 
ATOM     86  C   UNL A   1      46.010  32.892  30.409  1.00  0.00     0.173 A 
ATOM     87  C   UNL A   1      45.309  33.586  28.216  1.00  0.00     0.173 A 
ATOM     88  F   UNL A   1      46.168  31.949  31.351  1.00  0.00    -0.203 F 
ATOM     89  C   UNL A   1      46.374  34.204  30.703  1.00  0.00     0.198 A 
ATOM     90  C   UNL A   1      45.698  34.890  28.502  1.00  0.00     0.198 A 
ATOM     91  F   UNL A   1      44.800  33.316  27.004  1.00  0.00    -0.203 F 
ATOM     92  F   UNL A   1      46.864  34.506  31.913  1.00  0.00    -0.200 F 
ATOM     93  C   UNL A   1      46.228  35.199  29.746  1.00  0.00     0.200 A 
ATOM     94  F   UNL A   1      45.570  35.846  27.573  1.00  0.00    -0.200 F 
ATOM     95  F   UNL A   1      46.597  36.457  30.025  1.00  0.00    -0.200 F 
ENDBRANCH  62  85
ENDBRANCH  36  37
ENDBRANCH  28  31
ENDBRANCH  26  27
ENDBRANCH  25  26
ENDBRANCH  24  25
ENDBRANCH   1  24
TORSDOF 18
ENDMDL
