MODEL 1
REMARK VINA RESULT:     -12.6      0.000      0.000
REMARK SMILES O=C(NCCCCNC(=O)c1cc(S[C@H]2CCOC3(CCC3)C2)ccn1)c1ccc(-c2c3nc(c(-c4c(F)c(F)c(F)c(F)c4F)c4ccc([nH]4)c(-c4c(F)c(F)c(F)c(F)c4F)c4nc(c(-c5c(F)c(F)c(F)c(F)c5F)c5ccc2[nH]5)C=C4)C=C3)cc1
REMARK SMILES IDX 5 1 4 2 3 3 1 4 2 5 27 7 28 8 89 9 29 10 88 11 30 12 31 13
REMARK SMILES IDX 32 14 82 15 33 16 87 17 81 18 83 19 34 20 86 21 80 22 79 23
REMARK SMILES IDX 35 25 67 26 47 27 66 28 48 29 51 30 65 31 84 32 49 33 50 34
REMARK SMILES IDX 64 36 85 37 52 38 36 39 37 40 45 41 38 42 39 43 43 44 46 45
REMARK SMILES IDX 40 46 41 47 44 48 42 49 68 50 69 51 77 52 70 53 71 54 75 55
REMARK SMILES IDX 78 56 72 57 73 58 76 59 74 60 53 61 54 62 62 63 55 64 56 65
REMARK SMILES IDX 60 66 63 67 57 68 58 69 61 70 59 71 6 72 7 73 8 74 9 75
REMARK SMILES IDX 10 77 11 78 12 79 26 80 13 81 25 82 24 83 14 84 15 85 16 86
REMARK SMILES IDX 23 87 17 88 19 89 18 90 20 91 22 92 21 93
REMARK H PARENT 3 6 83 24 51 35 8 76
REMARK Flexibility Score: inf
ROOT
ATOM      1  C   UNL A   1      31.291  32.339  26.491  1.00  0.00     0.023 C 
ENDROOT
BRANCH   1   2
ATOM      2  C   UNL A   1      32.510  32.872  27.233  1.00  0.00     0.116 C 
BRANCH   2   3
ATOM      3  N   UNL A   1      32.354  34.254  27.659  1.00  0.00    -0.352 N 
ATOM      4  O   UNL A   1      32.661  36.063  28.972  1.00  0.00    -0.269 OA
ATOM      5  C   UNL A   1      33.024  34.937  28.646  1.00  0.00     0.251 C 
ATOM      6  H   UNL A   1      31.672  34.772  27.174  1.00  0.00     0.163 HD
BRANCH   5   7
ATOM      7  C   UNL A   1      34.175  34.305  29.327  1.00  0.00     0.039 A 
ATOM      8  C   UNL A   1      33.978  33.475  30.433  1.00  0.00     0.014 A 
ATOM      9  C   UNL A   1      35.467  34.533  28.842  1.00  0.00     0.014 A 
ATOM     10  C   UNL A   1      35.073  32.979  31.129  1.00  0.00     0.010 A 
ATOM     11  C   UNL A   1      36.565  33.963  29.493  1.00  0.00     0.010 A 
ATOM     12  C   UNL A   1      36.377  33.194  30.651  1.00  0.00    -0.014 A 
BRANCH  12  13
ATOM     13  C   UNL A   1      37.510  32.502  31.313  1.00  0.00     0.031 A 
ATOM     14  C   UNL A   1      38.228  31.359  30.657  1.00  0.00     0.074 A 
ATOM     15  C   UNL A   1      37.890  32.935  32.532  1.00  0.00     0.049 A 
ATOM     16  N   UNL A   1      39.235  30.654  31.108  1.00  0.00    -0.248 NA
ATOM     17  C   UNL A   1      37.758  30.946  29.326  1.00  0.00     0.031 C 
ATOM     18  C   UNL A   1      37.246  34.023  33.274  1.00  0.00     0.029 A 
ATOM     19  N   UNL A   1      38.904  32.527  33.359  1.00  0.00    -0.354 N 
ATOM     20  C   UNL A   1      39.507  29.706  30.131  1.00  0.00     0.074 A 
ATOM     21  C   UNL A   1      38.551  29.913  29.064  1.00  0.00     0.031 C 
ATOM     22  C   UNL A   1      37.897  34.217  34.428  1.00  0.00     0.029 A 
ATOM     23  C   UNL A   1      38.962  33.228  34.539  1.00  0.00     0.049 A 
ATOM     24  H   UNL A   1      39.529  31.803  33.129  1.00  0.00     0.167 HD
ATOM     25  C   UNL A   1      40.474  28.756  30.131  1.00  0.00     0.037 A 
ATOM     26  C   UNL A   1      39.764  33.073  35.608  1.00  0.00     0.037 A 
ATOM     27  C   UNL A   1      41.438  28.576  31.187  1.00  0.00     0.049 A 
ATOM     28  C   UNL A   1      40.808  31.995  35.581  1.00  0.00     0.074 A 
ATOM     29  C   UNL A   1      42.501  27.692  31.241  1.00  0.00     0.029 A 
ATOM     30  N   UNL A   1      41.449  29.285  32.379  1.00  0.00    -0.354 N 
ATOM     31  N   UNL A   1      41.096  31.148  34.622  1.00  0.00    -0.248 NA
ATOM     32  C   UNL A   1      41.634  31.845  36.785  1.00  0.00     0.031 C 
ATOM     33  C   UNL A   1      43.124  27.828  32.486  1.00  0.00     0.029 A 
ATOM     34  C   UNL A   1      42.478  28.831  33.190  1.00  0.00     0.049 A 
ATOM     35  H   UNL A   1      40.820  30.005  32.614  1.00  0.00     0.167 HD
ATOM     36  C   UNL A   1      42.138  30.370  35.105  1.00  0.00     0.074 A 
ATOM     37  C   UNL A   1      42.455  30.867  36.427  1.00  0.00     0.031 C 
ATOM     38  C   UNL A   1      42.770  29.330  34.508  1.00  0.00     0.037 A 
BRANCH  25  39
ATOM     39  C   UNL A   1      40.547  27.815  28.964  1.00  0.00     0.064 A 
ATOM     40  C   UNL A   1      39.750  26.665  28.894  1.00  0.00     0.173 A 
ATOM     41  C   UNL A   1      41.347  28.131  27.854  1.00  0.00     0.173 A 
ATOM     42  F   UNL A   1      38.973  26.317  29.930  1.00  0.00    -0.203 F 
ATOM     43  C   UNL A   1      39.753  25.861  27.755  1.00  0.00     0.198 A 
ATOM     44  C   UNL A   1      41.330  27.337  26.710  1.00  0.00     0.198 A 
ATOM     45  F   UNL A   1      42.120  29.225  27.867  1.00  0.00    -0.203 F 
ATOM     46  F   UNL A   1      38.995  24.756  27.716  1.00  0.00    -0.200 F 
ATOM     47  C   UNL A   1      40.534  26.203  26.661  1.00  0.00     0.200 A 
ATOM     48  F   UNL A   1      42.075  27.678  25.648  1.00  0.00    -0.200 F 
ATOM     49  F   UNL A   1      40.518  25.441  25.559  1.00  0.00    -0.200 F 
ENDBRANCH  25  39
BRANCH  26  50
ATOM     50  C   UNL A   1      39.584  33.937  36.802  1.00  0.00     0.064 A 
ATOM     51  C   UNL A   1      40.207  35.188  36.893  1.00  0.00     0.173 A 
ATOM     52  C   UNL A   1      38.789  33.523  37.881  1.00  0.00     0.173 A 
ATOM     53  F   UNL A   1      40.992  35.619  35.895  1.00  0.00    -0.203 F 
ATOM     54  C   UNL A   1      40.061  35.982  38.029  1.00  0.00     0.198 A 
ATOM     55  C   UNL A   1      38.616  34.332  39.001  1.00  0.00     0.198 A 
ATOM     56  F   UNL A   1      38.166  32.335  37.841  1.00  0.00    -0.203 F 
ATOM     57  F   UNL A   1      40.709  37.151  38.113  1.00  0.00    -0.200 F 
ATOM     58  C   UNL A   1      39.261  35.556  39.079  1.00  0.00     0.200 A 
ATOM     59  F   UNL A   1      37.828  33.923  40.005  1.00  0.00    -0.200 F 
ATOM     60  F   UNL A   1      39.119  36.321  40.169  1.00  0.00    -0.200 F 
ENDBRANCH  26  50
BRANCH  38  61
ATOM     61  C   UNL A   1      43.866  28.667  35.287  1.00  0.00     0.064 A 
ATOM     62  C   UNL A   1      43.594  27.625  36.186  1.00  0.00     0.173 A 
ATOM     63  C   UNL A   1      45.201  29.063  35.121  1.00  0.00     0.173 A 
ATOM     64  F   UNL A   1      42.330  27.226  36.394  1.00  0.00    -0.203 F 
ATOM     65  C   UNL A   1      44.617  27.020  36.909  1.00  0.00     0.198 A 
ATOM     66  C   UNL A   1      46.225  28.435  35.824  1.00  0.00     0.198 A 
ATOM     67  F   UNL A   1      45.513  30.053  34.270  1.00  0.00    -0.203 F 
ATOM     68  F   UNL A   1      44.329  26.062  37.800  1.00  0.00    -0.200 F 
ATOM     69  C   UNL A   1      45.932  27.421  36.723  1.00  0.00     0.200 A 
ATOM     70  F   UNL A   1      47.496  28.816  35.635  1.00  0.00    -0.200 F 
ATOM     71  F   UNL A   1      46.917  26.835  37.418  1.00  0.00    -0.200 F 
ENDBRANCH  38  61
ENDBRANCH  12  13
ENDBRANCH   5   7
ENDBRANCH   2   3
ENDBRANCH   1   2
BRANCH   1  72
ATOM     72  C   UNL A   1      31.386  30.883  26.045  1.00  0.00     0.023 C 
BRANCH  72  73
ATOM     73  C   UNL A   1      32.621  30.133  26.532  1.00  0.00     0.116 C 
BRANCH  73  74
ATOM     74  N   UNL A   1      33.494  29.717  25.445  1.00  0.00    -0.351 N 
ATOM     75  C   UNL A   1      33.366  28.643  24.583  1.00  0.00     0.269 C 
ATOM     76  H   UNL A   1      34.291  30.279  25.303  1.00  0.00     0.163 HD
ATOM     77  O   UNL A   1      34.275  28.393  23.796  1.00  0.00    -0.268 OA
BRANCH  75  78
ATOM     78  C   UNL A   1      32.102  27.850  24.578  1.00  0.00     0.129 A 
ATOM     79  C   UNL A   1      32.024  26.736  25.400  1.00  0.00     0.049 A 
ATOM     80  N   UNL A   1      31.110  28.243  23.752  1.00  0.00    -0.251 NA
ATOM     81  C   UNL A   1      30.912  25.904  25.324  1.00  0.00     0.011 A 
ATOM     82  C   UNL A   1      30.008  27.464  23.739  1.00  0.00     0.113 A 
ATOM     83  C   UNL A   1      29.872  26.295  24.480  1.00  0.00     0.035 A 
BRANCH  81  84
ATOM     84  S   UNL A   1      30.770  24.348  26.217  1.00  0.00    -0.122 SA
BRANCH  84  85
ATOM     85  C   UNL A   1      32.518  23.802  26.355  1.00  0.00     0.057 C 
ATOM     86  C   UNL A   1      32.654  22.696  27.407  1.00  0.00     0.043 C 
ATOM     87  C   UNL A   1      33.115  23.289  25.036  1.00  0.00     0.050 C 
ATOM     88  C   UNL A   1      34.134  22.447  27.639  1.00  0.00     0.162 C 
ATOM     89  C   UNL A   1      34.604  22.995  25.286  1.00  0.00     0.069 C 
ATOM     90  O   UNL A   1      34.755  22.083  26.411  1.00  0.00    -0.375 OA
ATOM     91  C   UNL A   1      35.414  22.545  24.033  1.00  0.00     0.035 C 
ATOM     92  C   UNL A   1      35.530  24.255  25.303  1.00  0.00     0.035 C 
ATOM     93  C   UNL A   1      36.576  23.418  24.549  1.00  0.00     0.006 C 
ENDBRANCH  84  85
ENDBRANCH  81  84
ENDBRANCH  75  78
ENDBRANCH  73  74
ENDBRANCH  72  73
ENDBRANCH   1  72
TORSDOF 13
ENDMDL
MODEL 2
REMARK VINA RESULT:     -12.5      0.099      1.595
REMARK SMILES O=C(NCCCCNC(=O)c1cc(S[C@H]2CCOC3(CCC3)C2)ccn1)c1ccc(-c2c3nc(c(-c4c(F)c(F)c(F)c(F)c4F)c4ccc([nH]4)c(-c4c(F)c(F)c(F)c(F)c4F)c4nc(c(-c5c(F)c(F)c(F)c(F)c5F)c5ccc2[nH]5)C=C4)C=C3)cc1
REMARK SMILES IDX 5 1 4 2 3 3 1 4 2 5 27 7 28 8 89 9 29 10 88 11 30 12 31 13
REMARK SMILES IDX 32 14 82 15 33 16 87 17 81 18 83 19 34 20 86 21 80 22 79 23
REMARK SMILES IDX 35 25 67 26 47 27 66 28 48 29 51 30 65 31 84 32 49 33 50 34
REMARK SMILES IDX 64 36 85 37 52 38 36 39 37 40 45 41 38 42 39 43 43 44 46 45
REMARK SMILES IDX 40 46 41 47 44 48 42 49 68 50 69 51 77 52 70 53 71 54 75 55
REMARK SMILES IDX 78 56 72 57 73 58 76 59 74 60 53 61 54 62 62 63 55 64 56 65
REMARK SMILES IDX 60 66 63 67 57 68 58 69 61 70 59 71 6 72 7 73 8 74 9 75
REMARK SMILES IDX 10 77 11 78 12 79 26 80 13 81 25 82 24 83 14 84 15 85 16 86
REMARK SMILES IDX 23 87 17 88 19 89 18 90 20 91 22 92 21 93
REMARK H PARENT 3 6 83 24 51 35 8 76
REMARK Flexibility Score: inf
ROOT
ATOM      1  C   UNL A   1      31.344  32.174  26.844  1.00  0.00     0.023 C 
ENDROOT
BRANCH   1   2
ATOM      2  C   UNL A   1      32.638  32.932  27.109  1.00  0.00     0.116 C 
BRANCH   2   3
ATOM      3  N   UNL A   1      32.412  34.275  27.622  1.00  0.00    -0.352 N 
ATOM      4  O   UNL A   1      32.603  36.000  29.063  1.00  0.00    -0.269 OA
ATOM      5  C   UNL A   1      33.023  34.914  28.674  1.00  0.00     0.251 C 
ATOM      6  H   UNL A   1      31.724  34.798  27.151  1.00  0.00     0.163 HD
BRANCH   5   7
ATOM      7  C   UNL A   1      34.178  34.283  29.349  1.00  0.00     0.039 A 
ATOM      8  C   UNL A   1      33.983  33.404  30.416  1.00  0.00     0.014 A 
ATOM      9  C   UNL A   1      35.471  34.564  28.897  1.00  0.00     0.014 A 
ATOM     10  C   UNL A   1      35.079  32.906  31.110  1.00  0.00     0.010 A 
ATOM     11  C   UNL A   1      36.572  33.994  29.544  1.00  0.00     0.010 A 
ATOM     12  C   UNL A   1      36.384  33.173  30.665  1.00  0.00    -0.014 A 
BRANCH  12  13
ATOM     13  C   UNL A   1      37.524  32.482  31.319  1.00  0.00     0.031 A 
ATOM     14  C   UNL A   1      38.245  31.348  30.651  1.00  0.00     0.074 A 
ATOM     15  C   UNL A   1      37.905  32.908  32.539  1.00  0.00     0.049 A 
ATOM     16  N   UNL A   1      39.257  30.645  31.094  1.00  0.00    -0.248 NA
ATOM     17  C   UNL A   1      37.772  30.942  29.319  1.00  0.00     0.031 C 
ATOM     18  C   UNL A   1      37.259  33.988  33.290  1.00  0.00     0.029 A 
ATOM     19  N   UNL A   1      38.925  32.500  33.360  1.00  0.00    -0.354 N 
ATOM     20  C   UNL A   1      39.531  29.705  30.110  1.00  0.00     0.074 A 
ATOM     21  C   UNL A   1      38.569  29.915  29.048  1.00  0.00     0.031 C 
ATOM     22  C   UNL A   1      37.913  34.177  34.444  1.00  0.00     0.029 A 
ATOM     23  C   UNL A   1      38.983  33.192  34.544  1.00  0.00     0.049 A 
ATOM     24  H   UNL A   1      39.553  31.780  33.122  1.00  0.00     0.167 HD
ATOM     25  C   UNL A   1      40.502  28.760  30.100  1.00  0.00     0.037 A 
ATOM     26  C   UNL A   1      39.790  33.034  35.609  1.00  0.00     0.037 A 
ATOM     27  C   UNL A   1      41.471  28.577  31.151  1.00  0.00     0.049 A 
ATOM     28  C   UNL A   1      40.839  31.962  35.570  1.00  0.00     0.074 A 
ATOM     29  C   UNL A   1      42.539  27.698  31.194  1.00  0.00     0.029 A 
ATOM     30  N   UNL A   1      41.482  29.278  32.348  1.00  0.00    -0.354 N 
ATOM     31  N   UNL A   1      41.128  31.123  34.605  1.00  0.00    -0.248 NA
ATOM     32  C   UNL A   1      41.670  31.808  36.771  1.00  0.00     0.031 C 
ATOM     33  C   UNL A   1      43.165  27.829  32.438  1.00  0.00     0.029 A 
ATOM     34  C   UNL A   1      42.516  28.823  33.152  1.00  0.00     0.049 A 
ATOM     35  H   UNL A   1      40.851  29.993  32.590  1.00  0.00     0.167 HD
ATOM     36  C   UNL A   1      42.176  30.347  35.078  1.00  0.00     0.074 A 
ATOM     37  C   UNL A   1      42.494  30.836  36.403  1.00  0.00     0.031 C 
ATOM     38  C   UNL A   1      42.811  29.315  34.472  1.00  0.00     0.037 A 
BRANCH  25  39
ATOM     39  C   UNL A   1      40.576  27.828  28.925  1.00  0.00     0.064 A 
ATOM     40  C   UNL A   1      39.772  26.683  28.841  1.00  0.00     0.173 A 
ATOM     41  C   UNL A   1      41.384  28.146  27.822  1.00  0.00     0.173 A 
ATOM     42  F   UNL A   1      38.986  26.333  29.870  1.00  0.00    -0.203 F 
ATOM     43  C   UNL A   1      39.776  25.888  27.696  1.00  0.00     0.198 A 
ATOM     44  C   UNL A   1      41.369  27.362  26.672  1.00  0.00     0.198 A 
ATOM     45  F   UNL A   1      42.165  29.235  27.849  1.00  0.00    -0.203 F 
ATOM     46  F   UNL A   1      39.011  24.789  27.644  1.00  0.00    -0.200 F 
ATOM     47  C   UNL A   1      40.566  26.234  26.610  1.00  0.00     0.200 A 
ATOM     48  F   UNL A   1      42.122  27.706  25.618  1.00  0.00    -0.200 F 
ATOM     49  F   UNL A   1      40.551  25.480  25.502  1.00  0.00    -0.200 F 
ENDBRANCH  25  39
BRANCH  26  50
ATOM     50  C   UNL A   1      39.609  33.889  36.810  1.00  0.00     0.064 A 
ATOM     51  C   UNL A   1      38.815  33.473  37.885  1.00  0.00     0.173 A 
ATOM     52  C   UNL A   1      40.225  35.147  36.901  1.00  0.00     0.173 A 
ATOM     53  F   UNL A   1      38.191  32.286  37.836  1.00  0.00    -0.203 F 
ATOM     54  C   UNL A   1      38.622  34.292  38.996  1.00  0.00     0.198 A 
ATOM     55  C   UNL A   1      40.059  35.950  38.026  1.00  0.00     0.198 A 
ATOM     56  F   UNL A   1      41.001  35.590  35.900  1.00  0.00    -0.203 F 
ATOM     57  F   UNL A   1      37.816  33.892  39.987  1.00  0.00    -0.200 F 
ATOM     58  C   UNL A   1      39.250  35.527  39.067  1.00  0.00     0.200 A 
ATOM     59  F   UNL A   1      40.682  37.135  38.098  1.00  0.00    -0.200 F 
ATOM     60  F   UNL A   1      39.066  36.313  40.137  1.00  0.00    -0.200 F 
ENDBRANCH  26  50
BRANCH  38  61
ATOM     61  C   UNL A   1      43.913  28.652  35.242  1.00  0.00     0.064 A 
ATOM     62  C   UNL A   1      45.241  29.093  35.139  1.00  0.00     0.173 A 
ATOM     63  C   UNL A   1      43.640  27.581  36.104  1.00  0.00     0.173 A 
ATOM     64  F   UNL A   1      45.555  30.100  34.310  1.00  0.00    -0.203 F 
ATOM     65  C   UNL A   1      46.259  28.468  35.852  1.00  0.00     0.198 A 
ATOM     66  C   UNL A   1      44.655  26.978  36.840  1.00  0.00     0.198 A 
ATOM     67  F   UNL A   1      42.384  27.126  36.241  1.00  0.00    -0.203 F 
ATOM     68  F   UNL A   1      47.527  28.871  35.700  1.00  0.00    -0.200 F 
ATOM     69  C   UNL A   1      45.964  27.415  36.707  1.00  0.00     0.200 A 
ATOM     70  F   UNL A   1      44.367  25.968  37.673  1.00  0.00    -0.200 F 
ATOM     71  F   UNL A   1      46.945  26.816  37.397  1.00  0.00    -0.200 F 
ENDBRANCH  38  61
ENDBRANCH  12  13
ENDBRANCH   5   7
ENDBRANCH   2   3
ENDBRANCH   1   2
BRANCH   1  72
ATOM     72  C   UNL A   1      31.493  30.912  25.999  1.00  0.00     0.023 C 
BRANCH  72  73
ATOM     73  C   UNL A   1      32.647  29.997  26.392  1.00  0.00     0.116 C 
BRANCH  73  74
ATOM     74  N   UNL A   1      33.465  29.598  25.256  1.00  0.00    -0.351 N 
ATOM     75  C   UNL A   1      33.293  28.537  24.385  1.00  0.00     0.269 C 
ATOM     76  H   UNL A   1      34.253  30.164  25.083  1.00  0.00     0.163 HD
ATOM     77  O   UNL A   1      34.162  28.301  23.550  1.00  0.00    -0.268 OA
BRANCH  75  78
ATOM     78  C   UNL A   1      32.031  27.744  24.432  1.00  0.00     0.129 A 
ATOM     79  C   UNL A   1      31.976  26.650  25.283  1.00  0.00     0.049 A 
ATOM     80  N   UNL A   1      31.018  28.114  23.621  1.00  0.00    -0.251 NA
ATOM     81  C   UNL A   1      30.865  25.815  25.256  1.00  0.00     0.011 A 
ATOM     82  C   UNL A   1      29.918  27.334  23.656  1.00  0.00     0.113 A 
ATOM     83  C   UNL A   1      29.803  26.183  24.429  1.00  0.00     0.035 A 
BRANCH  81  84
ATOM     84  S   UNL A   1      30.749  24.281  26.191  1.00  0.00    -0.122 SA
BRANCH  84  85
ATOM     85  C   UNL A   1      32.505  23.769  26.344  1.00  0.00     0.057 C 
ATOM     86  C   UNL A   1      32.657  22.685  27.418  1.00  0.00     0.043 C 
ATOM     87  C   UNL A   1      33.115  23.242  25.037  1.00  0.00     0.050 C 
ATOM     88  C   UNL A   1      34.141  22.466  27.657  1.00  0.00     0.162 C 
ATOM     89  C   UNL A   1      34.608  22.978  25.296  1.00  0.00     0.069 C 
ATOM     90  O   UNL A   1      34.771  22.091  26.438  1.00  0.00    -0.375 OA
ATOM     91  C   UNL A   1      35.430  22.520  24.054  1.00  0.00     0.035 C 
ATOM     92  C   UNL A   1      35.512  24.254  25.292  1.00  0.00     0.035 C 
ATOM     93  C   UNL A   1      36.575  23.422  24.556  1.00  0.00     0.006 C 
ENDBRANCH  84  85
ENDBRANCH  81  84
ENDBRANCH  75  78
ENDBRANCH  73  74
ENDBRANCH  72  73
ENDBRANCH   1  72
TORSDOF 13
ENDMDL
MODEL 3
REMARK VINA RESULT:     -12.4      0.571      7.327
REMARK SMILES O=C(NCCCCNC(=O)c1cc(S[C@H]2CCOC3(CCC3)C2)ccn1)c1ccc(-c2c3nc(c(-c4c(F)c(F)c(F)c(F)c4F)c4ccc([nH]4)c(-c4c(F)c(F)c(F)c(F)c4F)c4nc(c(-c5c(F)c(F)c(F)c(F)c5F)c5ccc2[nH]5)C=C4)C=C3)cc1
REMARK SMILES IDX 5 1 4 2 3 3 1 4 2 5 27 7 28 8 89 9 29 10 88 11 30 12 31 13
REMARK SMILES IDX 32 14 82 15 33 16 87 17 81 18 83 19 34 20 86 21 80 22 79 23
REMARK SMILES IDX 35 25 67 26 47 27 66 28 48 29 51 30 65 31 84 32 49 33 50 34
REMARK SMILES IDX 64 36 85 37 52 38 36 39 37 40 45 41 38 42 39 43 43 44 46 45
REMARK SMILES IDX 40 46 41 47 44 48 42 49 68 50 69 51 77 52 70 53 71 54 75 55
REMARK SMILES IDX 78 56 72 57 73 58 76 59 74 60 53 61 54 62 62 63 55 64 56 65
REMARK SMILES IDX 60 66 63 67 57 68 58 69 61 70 59 71 6 72 7 73 8 74 9 75
REMARK SMILES IDX 10 77 11 78 12 79 26 80 13 81 25 82 24 83 14 84 15 85 16 86
REMARK SMILES IDX 23 87 17 88 19 89 18 90 20 91 22 92 21 93
REMARK H PARENT 3 6 83 24 51 35 8 76
REMARK Flexibility Score: inf
ROOT
ATOM      1  C   UNL A   1      31.276  32.235  26.555  1.00  0.00     0.023 C 
ENDROOT
BRANCH   1   2
ATOM      2  C   UNL A   1      32.547  32.799  27.176  1.00  0.00     0.116 C 
BRANCH   2   3
ATOM      3  N   UNL A   1      32.393  34.171  27.633  1.00  0.00    -0.352 N 
ATOM      4  O   UNL A   1      32.712  35.953  28.980  1.00  0.00    -0.269 OA
ATOM      5  C   UNL A   1      33.074  34.835  28.625  1.00  0.00     0.251 C 
ATOM      6  H   UNL A   1      31.703  34.698  27.169  1.00  0.00     0.163 HD
BRANCH   5   7
ATOM      7  C   UNL A   1      34.236  34.193  29.277  1.00  0.00     0.039 A 
ATOM      8  C   UNL A   1      34.052  33.300  30.335  1.00  0.00     0.014 A 
ATOM      9  C   UNL A   1      35.524  34.477  28.813  1.00  0.00     0.014 A 
ATOM     10  C   UNL A   1      35.155  32.791  31.009  1.00  0.00     0.010 A 
ATOM     11  C   UNL A   1      36.632  33.896  29.438  1.00  0.00     0.010 A 
ATOM     12  C   UNL A   1      36.456  33.061  30.552  1.00  0.00    -0.014 A 
BRANCH  12  13
ATOM     13  C   UNL A   1      37.602  32.359  31.182  1.00  0.00     0.031 A 
ATOM     14  C   UNL A   1      38.087  32.718  32.556  1.00  0.00     0.074 A 
ATOM     15  C   UNL A   1      38.200  31.374  30.483  1.00  0.00     0.049 A 
ATOM     16  N   UNL A   1      39.075  32.198  33.240  1.00  0.00    -0.248 NA
ATOM     17  C   UNL A   1      37.380  33.802  33.256  1.00  0.00     0.031 C 
ATOM     18  C   UNL A   1      37.825  30.958  29.129  1.00  0.00     0.029 A 
ATOM     19  N   UNL A   1      39.238  30.539  30.810  1.00  0.00    -0.354 N 
ATOM     20  C   UNL A   1      39.122  32.898  34.437  1.00  0.00     0.074 A 
ATOM     21  C   UNL A   1      38.072  33.894  34.386  1.00  0.00     0.031 C 
ATOM     22  C   UNL A   1      38.598  29.931  28.752  1.00  0.00     0.029 A 
ATOM     23  C   UNL A   1      39.563  29.656  29.810  1.00  0.00     0.049 A 
ATOM     24  H   UNL A   1      39.704  30.570  31.676  1.00  0.00     0.167 HD
ATOM     25  C   UNL A   1      39.966  32.716  35.482  1.00  0.00     0.037 A 
ATOM     26  C   UNL A   1      40.550  28.744  29.737  1.00  0.00     0.037 A 
ATOM     27  C   UNL A   1      40.991  31.704  35.533  1.00  0.00     0.049 A 
ATOM     28  C   UNL A   1      41.479  28.587  30.904  1.00  0.00     0.074 A 
ATOM     29  C   UNL A   1      41.843  31.394  36.579  1.00  0.00     0.029 A 
ATOM     30  N   UNL A   1      41.310  30.847  34.491  1.00  0.00    -0.354 N 
ATOM     31  N   UNL A   1      41.471  29.212  32.056  1.00  0.00    -0.248 NA
ATOM     32  C   UNL A   1      42.559  27.603  30.761  1.00  0.00     0.031 C 
ATOM     33  C   UNL A   1      42.712  30.384  36.153  1.00  0.00     0.029 A 
ATOM     34  C   UNL A   1      42.372  30.033  34.857  1.00  0.00     0.049 A 
ATOM     35  H   UNL A   1      40.850  30.819  33.622  1.00  0.00     0.167 HD
ATOM     36  C   UNL A   1      42.538  28.695  32.776  1.00  0.00     0.074 A 
ATOM     37  C   UNL A   1      43.151  27.681  31.945  1.00  0.00     0.031 C 
ATOM     38  C   UNL A   1      42.976  29.037  34.012  1.00  0.00     0.037 A 
BRANCH  25  39
ATOM     39  C   UNL A   1      39.842  33.632  36.665  1.00  0.00     0.064 A 
ATOM     40  C   UNL A   1      40.490  34.874  36.706  1.00  0.00     0.173 A 
ATOM     41  C   UNL A   1      38.976  33.306  37.721  1.00  0.00     0.173 A 
ATOM     42  F   UNL A   1      41.332  35.230  35.724  1.00  0.00    -0.203 F 
ATOM     43  C   UNL A   1      40.278  35.757  37.764  1.00  0.00     0.198 A 
ATOM     44  C   UNL A   1      38.750  34.200  38.765  1.00  0.00     0.198 A 
ATOM     45  F   UNL A   1      38.326  32.134  37.724  1.00  0.00    -0.203 F 
ATOM     46  F   UNL A   1      40.920  36.933  37.791  1.00  0.00    -0.200 F 
ATOM     47  C   UNL A   1      39.401  35.424  38.786  1.00  0.00     0.200 A 
ATOM     48  F   UNL A   1      37.891  33.882  39.744  1.00  0.00    -0.200 F 
ATOM     49  F   UNL A   1      39.182  36.283  39.790  1.00  0.00    -0.200 F 
ENDBRANCH  25  39
BRANCH  26  50
ATOM     50  C   UNL A   1      40.726  27.940  28.501  1.00  0.00     0.064 A 
ATOM     51  C   UNL A   1      41.496  28.412  27.431  1.00  0.00     0.173 A 
ATOM     52  C   UNL A   1      40.119  26.682  28.364  1.00  0.00     0.173 A 
ATOM     53  F   UNL A   1      42.080  29.617  27.507  1.00  0.00    -0.203 F 
ATOM     54  C   UNL A   1      41.633  27.668  26.260  1.00  0.00     0.198 A 
ATOM     55  C   UNL A   1      40.284  25.925  27.207  1.00  0.00     0.198 A 
ATOM     56  F   UNL A   1      39.376  26.182  29.362  1.00  0.00    -0.203 F 
ATOM     57  F   UNL A   1      42.332  28.166  25.232  1.00  0.00    -0.200 F 
ATOM     58  C   UNL A   1      41.032  26.423  26.153  1.00  0.00     0.200 A 
ATOM     59  F   UNL A   1      39.716  24.714  27.115  1.00  0.00    -0.200 F 
ATOM     60  F   UNL A   1      41.166  25.707  25.028  1.00  0.00    -0.200 F 
ENDBRANCH  26  50
BRANCH  38  61
ATOM     61  C   UNL A   1      44.175  28.302  34.533  1.00  0.00     0.064 A 
ATOM     62  C   UNL A   1      44.043  27.082  35.212  1.00  0.00     0.173 A 
ATOM     63  C   UNL A   1      45.466  28.811  34.336  1.00  0.00     0.173 A 
ATOM     64  F   UNL A   1      42.826  26.567  35.444  1.00  0.00    -0.203 F 
ATOM     65  C   UNL A   1      45.161  26.411  35.698  1.00  0.00     0.198 A 
ATOM     66  C   UNL A   1      46.583  28.122  34.796  1.00  0.00     0.198 A 
ATOM     67  F   UNL A   1      45.644  29.973  33.687  1.00  0.00    -0.203 F 
ATOM     68  F   UNL A   1      45.009  25.273  36.388  1.00  0.00    -0.200 F 
ATOM     69  C   UNL A   1      46.430  26.928  35.483  1.00  0.00     0.200 A 
ATOM     70  F   UNL A   1      47.810  28.616  34.578  1.00  0.00    -0.200 F 
ATOM     71  F   UNL A   1      47.506  26.277  35.949  1.00  0.00    -0.200 F 
ENDBRANCH  38  61
ENDBRANCH  12  13
ENDBRANCH   5   7
ENDBRANCH   2   3
ENDBRANCH   1   2
BRANCH   1  72
ATOM     72  C   UNL A   1      31.421  30.858  25.914  1.00  0.00     0.023 C 
BRANCH  72  73
ATOM     73  C   UNL A   1      32.633  30.053  26.370  1.00  0.00     0.116 C 
BRANCH  73  74
ATOM     74  N   UNL A   1      33.492  29.652  25.266  1.00  0.00    -0.351 N 
ATOM     75  C   UNL A   1      33.359  28.583  24.398  1.00  0.00     0.269 C 
ATOM     76  H   UNL A   1      34.282  30.221  25.116  1.00  0.00     0.163 HD
ATOM     77  O   UNL A   1      34.257  28.347  23.595  1.00  0.00    -0.268 OA
BRANCH  75  78
ATOM     78  C   UNL A   1      32.101  27.781  24.408  1.00  0.00     0.129 A 
ATOM     79  C   UNL A   1      32.017  26.704  25.277  1.00  0.00     0.049 A 
ATOM     80  N   UNL A   1      31.121  28.127  23.547  1.00  0.00    -0.251 NA
ATOM     81  C   UNL A   1      30.914  25.860  25.220  1.00  0.00     0.011 A 
ATOM     82  C   UNL A   1      30.026  27.339  23.550  1.00  0.00     0.113 A 
ATOM     83  C   UNL A   1      29.885  26.203  24.342  1.00  0.00     0.035 A 
BRANCH  81  84
ATOM     84  S   UNL A   1      30.768  24.344  26.180  1.00  0.00    -0.122 SA
BRANCH  84  85
ATOM     85  C   UNL A   1      32.515  23.800  26.339  1.00  0.00     0.057 C 
ATOM     86  C   UNL A   1      32.641  22.707  27.407  1.00  0.00     0.043 C 
ATOM     87  C   UNL A   1      33.122  23.269  25.032  1.00  0.00     0.050 C 
ATOM     88  C   UNL A   1      34.120  22.460  27.653  1.00  0.00     0.162 C 
ATOM     89  C   UNL A   1      34.609  22.977  25.298  1.00  0.00     0.069 C 
ATOM     90  O   UNL A   1      34.750  22.080  26.435  1.00  0.00    -0.375 OA
ATOM     91  C   UNL A   1      35.429  22.511  24.057  1.00  0.00     0.035 C 
ATOM     92  C   UNL A   1      35.535  24.237  25.306  1.00  0.00     0.035 C 
ATOM     93  C   UNL A   1      36.587  23.390  24.571  1.00  0.00     0.006 C 
ENDBRANCH  84  85
ENDBRANCH  81  84
ENDBRANCH  75  78
ENDBRANCH  73  74
ENDBRANCH  72  73
ENDBRANCH   1  72
TORSDOF 13
ENDMDL
