MODEL 1
REMARK VINA RESULT:     -12.4      0.000      0.000
REMARK SMILES CC1(C)CCSC[C@]1(Nc1ccccc1Br)C(=O)NCCCCNC(=O)c1ccc(-c2c3nc(c(-c4c(F)c(F)c(F)c(F)c4F)c4ccc([nH]4)c(-c4c(F)c(F)c(F)c(F)c4F)c4nc(c(-c5c(F)c(F)c(F)c(F)c5F)c5ccc2[nH]5)C=C4)C=C3)cc1
REMARK SMILES IDX 21 1 20 2 19 3 17 4 18 5 8 7 1 8 2 9 3 10 4 11 5 12 7 13
REMARK SMILES IDX 6 14 9 15 10 17 11 18 15 19 12 20 14 21 16 22 13 23 22 24
REMARK SMILES IDX 23 25 24 26 25 27 26 29 27 30 28 31 89 32 29 33 88 34 30 35
REMARK SMILES IDX 31 36 32 37 82 38 33 39 87 40 81 41 83 42 34 43 86 44 80 45
REMARK SMILES IDX 79 46 35 48 67 49 47 50 66 51 48 52 51 53 65 54 84 55 49 56
REMARK SMILES IDX 50 57 64 59 85 60 52 61 36 62 37 63 45 64 38 65 39 66 43 67
REMARK SMILES IDX 46 68 40 69 41 70 44 71 42 72 68 73 69 74 77 75 70 76 71 77
REMARK SMILES IDX 75 78 78 79 72 80 73 81 76 82 74 83 53 84 54 85 62 86 55 87
REMARK SMILES IDX 56 88 60 89 63 90 57 91 58 92 61 93 59 94
REMARK H PARENT 19 6 9 16 24 28 83 47 51 58
REMARK Flexibility Score: inf
ROOT
ATOM      1  C   UNL A   1      31.553  27.971  26.814  1.00  0.00     0.023 C 
ENDROOT
BRANCH   1   2
ATOM      2  C   UNL A   1      32.371  26.758  26.371  1.00  0.00     0.116 C 
BRANCH   2   3
ATOM      3  N   UNL A   1      31.836  25.532  26.913  1.00  0.00    -0.354 N 
ATOM      4  C   UNL A   1      31.851  24.241  26.479  1.00  0.00     0.247 C 
ATOM      5  O   UNL A   1      31.371  23.453  27.304  1.00  0.00    -0.272 OA
ATOM      6  H   UNL A   1      31.366  25.652  27.769  1.00  0.00     0.163 HD
BRANCH   4   7
ATOM      7  C   UNL A   1      32.379  23.748  25.061  1.00  0.00     0.131 C 
ATOM      8  C   UNL A   1      33.423  21.757  23.664  1.00  0.00     0.014 C 
ATOM      9  C   UNL A   1      32.807  22.189  25.031  1.00  0.00    -0.002 C 
ATOM     10  C   UNL A   1      31.669  21.174  25.238  1.00  0.00     0.014 C 
ATOM     11  C   UNL A   1      33.838  21.912  26.164  1.00  0.00     0.020 C 
ATOM     12  C   UNL A   1      35.213  22.525  25.957  1.00  0.00     0.070 C 
ATOM     13  C   UNL A   1      33.683  24.562  24.722  1.00  0.00     0.108 C 
ATOM     14  S   UNL A   1      35.211  24.310  25.714  1.00  0.00    -0.159 SA
BRANCH   7  15
ATOM     15  N   UNL A   1      31.382  24.024  23.963  1.00  0.00    -0.369 N 
ATOM     16  H   UNL A   1      31.061  23.224  23.488  1.00  0.00     0.161 HD
BRANCH  15  17
ATOM     17  C   UNL A   1      30.842  25.224  23.512  1.00  0.00     0.049 A 
ATOM     18  C   UNL A   1      29.640  25.625  24.145  1.00  0.00     0.027 A 
ATOM     19  C   UNL A   1      31.374  26.134  22.580  1.00  0.00     0.041 A 
ATOM     20  C   UNL A   1      29.061  26.885  23.943  1.00  0.00     0.002 A 
ATOM     21  C   UNL A   1      30.790  27.400  22.374  1.00  0.00     0.018 A 
ATOM     22  Br  UNL A   1      32.772  25.747  21.358  1.00  0.00    -0.049 Br
ATOM     23  C   UNL A   1      29.649  27.783  23.069  1.00  0.00     0.001 A 
ENDBRANCH  15  17
ENDBRANCH   7  15
ENDBRANCH   4   7
ENDBRANCH   2   3
ENDBRANCH   1   2
BRANCH   1  24
ATOM     24  C   UNL A   1      31.682  29.186  25.907  1.00  0.00     0.023 C 
BRANCH  24  25
ATOM     25  C   UNL A   1      32.952  29.996  26.107  1.00  0.00     0.116 C 
BRANCH  25  26
ATOM     26  N   UNL A   1      32.710  31.368  26.539  1.00  0.00    -0.352 N 
ATOM     27  C   UNL A   1      33.460  32.143  27.389  1.00  0.00     0.251 C 
ATOM     28  H   UNL A   1      31.901  31.794  26.173  1.00  0.00     0.163 HD
ATOM     29  O   UNL A   1      33.070  33.252  27.738  1.00  0.00    -0.269 OA
BRANCH  27  30
ATOM     30  C   UNL A   1      34.733  31.604  27.906  1.00  0.00     0.039 A 
ATOM     31  C   UNL A   1      35.819  32.465  28.063  1.00  0.00     0.014 A 
ATOM     32  C   UNL A   1      34.819  30.267  28.304  1.00  0.00     0.014 A 
ATOM     33  C   UNL A   1      36.976  31.997  28.689  1.00  0.00     0.010 A 
ATOM     34  C   UNL A   1      35.929  29.834  29.015  1.00  0.00     0.010 A 
ATOM     35  C   UNL A   1      37.023  30.691  29.204  1.00  0.00    -0.014 A 
BRANCH  35  36
ATOM     36  C   UNL A   1      38.220  30.196  29.925  1.00  0.00     0.031 A 
ATOM     37  C   UNL A   1      38.479  30.641  31.338  1.00  0.00     0.074 A 
ATOM     38  C   UNL A   1      39.099  29.397  29.291  1.00  0.00     0.049 A 
ATOM     39  N   UNL A   1      39.479  30.343  32.130  1.00  0.00    -0.248 NA
ATOM     40  C   UNL A   1      37.505  31.572  31.929  1.00  0.00     0.031 C 
ATOM     41  C   UNL A   1      38.996  28.962  27.896  1.00  0.00     0.029 A 
ATOM     42  N   UNL A   1      40.256  28.809  29.736  1.00  0.00    -0.354 N 
ATOM     43  C   UNL A   1      39.261  31.064  33.296  1.00  0.00     0.074 A 
ATOM     44  C   UNL A   1      38.076  31.864  33.087  1.00  0.00     0.031 C 
ATOM     45  C   UNL A   1      40.025  28.147  27.612  1.00  0.00     0.029 A 
ATOM     46  C   UNL A   1      40.872  28.024  28.794  1.00  0.00     0.049 A 
ATOM     47  H   UNL A   1      40.610  28.938  30.646  1.00  0.00     0.167 HD
ATOM     48  C   UNL A   1      39.966  31.035  34.451  1.00  0.00     0.037 A 
ATOM     49  C   UNL A   1      41.991  27.278  28.882  1.00  0.00     0.037 A 
ATOM     50  C   UNL A   1      41.120  30.206  34.667  1.00  0.00     0.049 A 
ATOM     51  C   UNL A   1      42.732  27.229  30.190  1.00  0.00     0.074 A 
ATOM     52  C   UNL A   1      41.868  30.047  35.820  1.00  0.00     0.029 A 
ATOM     53  N   UNL A   1      41.693  29.389  33.702  1.00  0.00    -0.354 N 
ATOM     54  N   UNL A   1      42.468  27.848  31.315  1.00  0.00    -0.248 NA
ATOM     55  C   UNL A   1      43.918  26.364  30.245  1.00  0.00     0.031 C 
ATOM     56  C   UNL A   1      42.914  29.161  35.542  1.00  0.00     0.029 A 
ATOM     57  C   UNL A   1      42.792  28.734  34.230  1.00  0.00     0.049 A 
ATOM     58  H   UNL A   1      41.366  29.291  32.778  1.00  0.00     0.167 HD
ATOM     59  C   UNL A   1      43.437  27.431  32.217  1.00  0.00     0.074 A 
ATOM     60  C   UNL A   1      44.282  26.488  31.512  1.00  0.00     0.031 C 
ATOM     61  C   UNL A   1      43.614  27.794  33.511  1.00  0.00     0.037 A 
BRANCH  48  62
ATOM     62  C   UNL A   1      39.492  31.913  35.573  1.00  0.00     0.064 A 
ATOM     63  C   UNL A   1      38.535  31.469  36.500  1.00  0.00     0.173 A 
ATOM     64  C   UNL A   1      40.009  33.207  35.734  1.00  0.00     0.173 A 
ATOM     65  F   UNL A   1      37.995  30.246  36.380  1.00  0.00    -0.203 F 
ATOM     66  C   UNL A   1      38.091  32.298  37.525  1.00  0.00     0.198 A 
ATOM     67  C   UNL A   1      39.585  34.022  36.781  1.00  0.00     0.198 A 
ATOM     68  F   UNL A   1      40.926  33.680  34.878  1.00  0.00    -0.203 F 
ATOM     69  F   UNL A   1      37.135  31.873  38.362  1.00  0.00    -0.200 F 
ATOM     70  C   UNL A   1      38.621  33.572  37.669  1.00  0.00     0.200 A 
ATOM     71  F   UNL A   1      40.106  35.249  36.925  1.00  0.00    -0.200 F 
ATOM     72  F   UNL A   1      38.196  34.368  38.659  1.00  0.00    -0.200 F 
ENDBRANCH  48  62
BRANCH  49  73
ATOM     73  C   UNL A   1      42.444  26.477  27.716  1.00  0.00     0.064 A 
ATOM     74  C   UNL A   1      43.417  26.975  26.838  1.00  0.00     0.173 A 
ATOM     75  C   UNL A   1      41.918  25.203  27.453  1.00  0.00     0.173 A 
ATOM     76  F   UNL A   1      43.937  28.194  27.038  1.00  0.00    -0.203 F 
ATOM     77  C   UNL A   1      43.831  26.240  25.729  1.00  0.00     0.198 A 
ATOM     78  C   UNL A   1      42.351  24.459  26.358  1.00  0.00     0.198 A 
ATOM     79  F   UNL A   1      40.991  24.679  28.267  1.00  0.00    -0.203 F 
ATOM     80  F   UNL A   1      44.729  26.759  24.881  1.00  0.00    -0.200 F 
ATOM     81  C   UNL A   1      43.302  24.980  25.492  1.00  0.00     0.200 A 
ATOM     82  F   UNL A   1      41.849  23.236  26.141  1.00  0.00    -0.200 F 
ATOM     83  F   UNL A   1      43.701  24.272  24.427  1.00  0.00    -0.200 F 
ENDBRANCH  49  73
BRANCH  61  84
ATOM     84  C   UNL A   1      44.747  27.148  34.253  1.00  0.00     0.064 A 
ATOM     85  C   UNL A   1      44.579  25.941  34.946  1.00  0.00     0.173 A 
ATOM     86  C   UNL A   1      46.022  27.733  34.246  1.00  0.00     0.173 A 
ATOM     87  F   UNL A   1      43.374  25.352  34.993  1.00  0.00    -0.203 F 
ATOM     88  C   UNL A   1      45.639  25.357  35.632  1.00  0.00     0.198 A 
ATOM     89  C   UNL A   1      47.088  27.131  34.908  1.00  0.00     0.198 A 
ATOM     90  F   UNL A   1      46.237  28.883  33.591  1.00  0.00    -0.203 F 
ATOM     91  F   UNL A   1      45.445  24.232  36.332  1.00  0.00    -0.200 F 
ATOM     92  C   UNL A   1      46.894  25.949  35.607  1.00  0.00     0.200 A 
ATOM     93  F   UNL A   1      48.303  27.696  34.873  1.00  0.00    -0.200 F 
ATOM     94  F   UNL A   1      47.915  25.384  36.266  1.00  0.00    -0.200 F 
ENDBRANCH  61  84
ENDBRANCH  35  36
ENDBRANCH  27  30
ENDBRANCH  25  26
ENDBRANCH  24  25
ENDBRANCH   1  24
TORSDOF 13
ENDMDL
MODEL 2
REMARK VINA RESULT:     -12.3      0.601      1.732
REMARK SMILES CC1(C)CCSC[C@]1(Nc1ccccc1Br)C(=O)NCCCCNC(=O)c1ccc(-c2c3nc(c(-c4c(F)c(F)c(F)c(F)c4F)c4ccc([nH]4)c(-c4c(F)c(F)c(F)c(F)c4F)c4nc(c(-c5c(F)c(F)c(F)c(F)c5F)c5ccc2[nH]5)C=C4)C=C3)cc1
REMARK SMILES IDX 21 1 20 2 19 3 17 4 18 5 8 7 1 8 2 9 3 10 4 11 5 12 7 13
REMARK SMILES IDX 6 14 9 15 10 17 11 18 15 19 12 20 14 21 16 22 13 23 22 24
REMARK SMILES IDX 23 25 24 26 25 27 26 29 27 30 28 31 89 32 29 33 88 34 30 35
REMARK SMILES IDX 31 36 32 37 82 38 33 39 87 40 81 41 83 42 34 43 86 44 80 45
REMARK SMILES IDX 79 46 35 48 67 49 47 50 66 51 48 52 51 53 65 54 84 55 49 56
REMARK SMILES IDX 50 57 64 59 85 60 52 61 36 62 37 63 45 64 38 65 39 66 43 67
REMARK SMILES IDX 46 68 40 69 41 70 44 71 42 72 68 73 69 74 77 75 70 76 71 77
REMARK SMILES IDX 75 78 78 79 72 80 73 81 76 82 74 83 53 84 54 85 62 86 55 87
REMARK SMILES IDX 56 88 60 89 63 90 57 91 58 92 61 93 59 94
REMARK H PARENT 19 6 9 16 24 28 83 47 51 58
REMARK Flexibility Score: inf
ROOT
ATOM      1  C   UNL A   1      33.696  28.572  24.985  1.00  0.00     0.023 C 
ENDROOT
BRANCH   1   2
ATOM      2  C   UNL A   1      33.765  27.056  25.163  1.00  0.00     0.116 C 
BRANCH   2   3
ATOM      3  N   UNL A   1      32.770  26.586  26.098  1.00  0.00    -0.354 N 
ATOM      4  C   UNL A   1      32.109  25.403  26.233  1.00  0.00     0.247 C 
ATOM      5  O   UNL A   1      31.406  25.360  27.251  1.00  0.00    -0.272 OA
ATOM      6  H   UNL A   1      32.519  27.255  26.774  1.00  0.00     0.163 HD
BRANCH   4   7
ATOM      7  C   UNL A   1      32.166  24.188  25.205  1.00  0.00     0.131 C 
ATOM      8  C   UNL A   1      31.963  21.571  24.867  1.00  0.00     0.014 C 
ATOM      9  C   UNL A   1      31.794  22.759  25.864  1.00  0.00    -0.002 C 
ATOM     10  C   UNL A   1      30.344  22.601  26.355  1.00  0.00     0.014 C 
ATOM     11  C   UNL A   1      32.697  22.511  27.108  1.00  0.00     0.020 C 
ATOM     12  C   UNL A   1      34.162  22.244  26.806  1.00  0.00     0.070 C 
ATOM     13  C   UNL A   1      33.649  24.058  24.694  1.00  0.00     0.108 C 
ATOM     14  S   UNL A   1      34.980  23.534  25.851  1.00  0.00    -0.159 SA
BRANCH   7  15
ATOM     15  N   UNL A   1      31.297  24.435  23.997  1.00  0.00    -0.369 N 
ATOM     16  H   UNL A   1      31.075  23.627  23.479  1.00  0.00     0.161 HD
BRANCH  15  17
ATOM     17  C   UNL A   1      30.758  25.615  23.494  1.00  0.00     0.049 A 
ATOM     18  C   UNL A   1      29.474  25.953  23.984  1.00  0.00     0.027 A 
ATOM     19  C   UNL A   1      31.354  26.560  22.639  1.00  0.00     0.041 A 
ATOM     20  C   UNL A   1      28.864  27.187  23.725  1.00  0.00     0.002 A 
ATOM     21  C   UNL A   1      30.740  27.801  22.376  1.00  0.00     0.018 A 
ATOM     22  Br  UNL A   1      32.903  26.253  21.589  1.00  0.00    -0.049 Br
ATOM     23  C   UNL A   1      29.508  28.123  22.934  1.00  0.00     0.001 A 
ENDBRANCH  15  17
ENDBRANCH   7  15
ENDBRANCH   4   7
ENDBRANCH   2   3
ENDBRANCH   1   2
BRANCH   1  24
ATOM     24  C   UNL A   1      32.404  29.207  25.478  1.00  0.00     0.023 C 
BRANCH  24  25
ATOM     25  C   UNL A   1      32.478  29.793  26.879  1.00  0.00     0.116 C 
BRANCH  25  26
ATOM     26  N   UNL A   1      32.434  31.250  26.908  1.00  0.00    -0.352 N 
ATOM     27  C   UNL A   1      33.364  32.125  27.413  1.00  0.00     0.251 C 
ATOM     28  H   UNL A   1      31.630  31.660  26.513  1.00  0.00     0.163 HD
ATOM     29  O   UNL A   1      33.136  33.330  27.455  1.00  0.00    -0.269 OA
BRANCH  27  30
ATOM     30  C   UNL A   1      34.633  31.588  27.938  1.00  0.00     0.039 A 
ATOM     31  C   UNL A   1      35.714  32.453  28.115  1.00  0.00     0.014 A 
ATOM     32  C   UNL A   1      34.722  30.248  28.325  1.00  0.00     0.014 A 
ATOM     33  C   UNL A   1      36.866  31.985  28.749  1.00  0.00     0.010 A 
ATOM     34  C   UNL A   1      35.827  29.814  29.044  1.00  0.00     0.010 A 
ATOM     35  C   UNL A   1      36.914  30.675  29.253  1.00  0.00    -0.014 A 
BRANCH  35  36
ATOM     36  C   UNL A   1      38.106  30.179  29.982  1.00  0.00     0.031 A 
ATOM     37  C   UNL A   1      38.357  30.624  31.397  1.00  0.00     0.074 A 
ATOM     38  C   UNL A   1      38.988  29.379  29.355  1.00  0.00     0.049 A 
ATOM     39  N   UNL A   1      39.350  30.327  32.195  1.00  0.00    -0.248 NA
ATOM     40  C   UNL A   1      37.380  31.557  31.980  1.00  0.00     0.031 C 
ATOM     41  C   UNL A   1      38.894  28.942  27.959  1.00  0.00     0.029 A 
ATOM     42  N   UNL A   1      40.141  28.790  29.808  1.00  0.00    -0.354 N 
ATOM     43  C   UNL A   1      39.125  31.049  33.360  1.00  0.00     0.074 A 
ATOM     44  C   UNL A   1      37.942  31.850  33.142  1.00  0.00     0.031 C 
ATOM     45  C   UNL A   1      39.924  28.126  27.683  1.00  0.00     0.029 A 
ATOM     46  C   UNL A   1      40.763  28.003  28.871  1.00  0.00     0.049 A 
ATOM     47  H   UNL A   1      40.490  28.919  30.720  1.00  0.00     0.167 HD
ATOM     48  C   UNL A   1      39.823  31.020  34.519  1.00  0.00     0.037 A 
ATOM     49  C   UNL A   1      41.880  27.256  28.967  1.00  0.00     0.037 A 
ATOM     50  C   UNL A   1      40.975  30.190  34.744  1.00  0.00     0.049 A 
ATOM     51  C   UNL A   1      42.612  27.207  30.279  1.00  0.00     0.074 A 
ATOM     52  C   UNL A   1      41.714  30.031  35.901  1.00  0.00     0.029 A 
ATOM     53  N   UNL A   1      41.553  29.372  33.783  1.00  0.00    -0.354 N 
ATOM     54  N   UNL A   1      42.343  27.828  31.403  1.00  0.00    -0.248 NA
ATOM     55  C   UNL A   1      43.798  26.341  30.343  1.00  0.00     0.031 C 
ATOM     56  C   UNL A   1      42.762  29.144  35.631  1.00  0.00     0.029 A 
ATOM     57  C   UNL A   1      42.648  28.716  34.318  1.00  0.00     0.049 A 
ATOM     58  H   UNL A   1      41.232  29.274  32.856  1.00  0.00     0.167 HD
ATOM     59  C   UNL A   1      43.305  27.410  32.311  1.00  0.00     0.074 A 
ATOM     60  C   UNL A   1      44.153  26.466  31.613  1.00  0.00     0.031 C 
ATOM     61  C   UNL A   1      43.474  27.775  33.606  1.00  0.00     0.037 A 
BRANCH  48  62
ATOM     62  C   UNL A   1      39.342  31.900  35.637  1.00  0.00     0.064 A 
ATOM     63  C   UNL A   1      38.412  31.441  36.584  1.00  0.00     0.173 A 
ATOM     64  C   UNL A   1      39.826  33.209  35.773  1.00  0.00     0.173 A 
ATOM     65  F   UNL A   1      37.904  30.204  36.488  1.00  0.00    -0.203 F 
ATOM     66  C   UNL A   1      37.961  32.272  37.606  1.00  0.00     0.198 A 
ATOM     67  C   UNL A   1      39.397  34.026  36.816  1.00  0.00     0.198 A 
ATOM     68  F   UNL A   1      40.717  33.695  34.897  1.00  0.00    -0.203 F 
ATOM     69  F   UNL A   1      37.030  31.832  38.463  1.00  0.00    -0.200 F 
ATOM     70  C   UNL A   1      38.459  33.561  37.726  1.00  0.00     0.200 A 
ATOM     71  F   UNL A   1      39.886  35.268  36.937  1.00  0.00    -0.200 F 
ATOM     72  F   UNL A   1      38.027  34.359  38.712  1.00  0.00    -0.200 F 
ENDBRANCH  48  62
BRANCH  49  73
ATOM     73  C   UNL A   1      42.341  26.454  27.804  1.00  0.00     0.064 A 
ATOM     74  C   UNL A   1      41.804  25.184  27.551  1.00  0.00     0.173 A 
ATOM     75  C   UNL A   1      43.324  26.934  26.926  1.00  0.00     0.173 A 
ATOM     76  F   UNL A   1      40.875  24.675  28.372  1.00  0.00    -0.203 F 
ATOM     77  C   UNL A   1      42.248  24.415  26.478  1.00  0.00     0.198 A 
ATOM     78  C   UNL A   1      43.749  26.174  25.838  1.00  0.00     0.198 A 
ATOM     79  F   UNL A   1      43.864  28.146  27.121  1.00  0.00    -0.203 F 
ATOM     80  F   UNL A   1      41.751  23.186  26.285  1.00  0.00    -0.200 F 
ATOM     81  C   UNL A   1      43.216  24.912  25.618  1.00  0.00     0.200 A 
ATOM     82  F   UNL A   1      44.673  26.665  25.001  1.00  0.00    -0.200 F 
ATOM     83  F   UNL A   1      43.642  24.173  24.584  1.00  0.00    -0.200 F 
ENDBRANCH  49  73
BRANCH  61  84
ATOM     84  C   UNL A   1      44.601  27.128  34.356  1.00  0.00     0.064 A 
ATOM     85  C   UNL A   1      45.874  27.713  34.421  1.00  0.00     0.173 A 
ATOM     86  C   UNL A   1      44.395  25.920  35.040  1.00  0.00     0.173 A 
ATOM     87  F   UNL A   1      46.122  28.860  33.770  1.00  0.00    -0.203 F 
ATOM     88  C   UNL A   1      46.908  27.098  35.118  1.00  0.00     0.198 A 
ATOM     89  C   UNL A   1      45.424  25.323  35.762  1.00  0.00     0.198 A 
ATOM     90  F   UNL A   1      43.194  25.324  35.016  1.00  0.00    -0.203 F 
ATOM     91  F   UNL A   1      48.130  27.647  35.123  1.00  0.00    -0.200 F 
ATOM     92  C   UNL A   1      46.681  25.907  35.793  1.00  0.00     0.200 A 
ATOM     93  F   UNL A   1      45.200  24.179  36.424  1.00  0.00    -0.200 F 
ATOM     94  F   UNL A   1      47.679  25.317  36.466  1.00  0.00    -0.200 F 
ENDBRANCH  61  84
ENDBRANCH  35  36
ENDBRANCH  27  30
ENDBRANCH  25  26
ENDBRANCH  24  25
ENDBRANCH   1  24
TORSDOF 13
ENDMDL
MODEL 3
REMARK VINA RESULT:     -12.3      2.238      3.237
REMARK SMILES CC1(C)CCSC[C@]1(Nc1ccccc1Br)C(=O)NCCCCNC(=O)c1ccc(-c2c3nc(c(-c4c(F)c(F)c(F)c(F)c4F)c4ccc([nH]4)c(-c4c(F)c(F)c(F)c(F)c4F)c4nc(c(-c5c(F)c(F)c(F)c(F)c5F)c5ccc2[nH]5)C=C4)C=C3)cc1
REMARK SMILES IDX 21 1 20 2 19 3 17 4 18 5 8 7 1 8 2 9 3 10 4 11 5 12 7 13
REMARK SMILES IDX 6 14 9 15 10 17 11 18 15 19 12 20 14 21 16 22 13 23 22 24
REMARK SMILES IDX 23 25 24 26 25 27 26 29 27 30 28 31 89 32 29 33 88 34 30 35
REMARK SMILES IDX 31 36 32 37 82 38 33 39 87 40 81 41 83 42 34 43 86 44 80 45
REMARK SMILES IDX 79 46 35 48 67 49 47 50 66 51 48 52 51 53 65 54 84 55 49 56
REMARK SMILES IDX 50 57 64 59 85 60 52 61 36 62 37 63 45 64 38 65 39 66 43 67
REMARK SMILES IDX 46 68 40 69 41 70 44 71 42 72 68 73 69 74 77 75 70 76 71 77
REMARK SMILES IDX 75 78 78 79 72 80 73 81 76 82 74 83 53 84 54 85 62 86 55 87
REMARK SMILES IDX 56 88 60 89 63 90 57 91 58 92 61 93 59 94
REMARK H PARENT 19 6 9 16 24 28 83 47 51 58
REMARK Flexibility Score: inf
ROOT
ATOM      1  C   UNL A   1      31.685  30.882  25.992  1.00  0.00     0.023 C 
ENDROOT
BRANCH   1   2
ATOM      2  C   UNL A   1      32.920  30.000  26.177  1.00  0.00     0.116 C 
BRANCH   2   3
ATOM      3  N   UNL A   1      33.540  29.686  24.911  1.00  0.00    -0.354 N 
ATOM      4  C   UNL A   1      33.219  28.822  23.909  1.00  0.00     0.247 C 
ATOM      5  O   UNL A   1      33.958  28.936  22.922  1.00  0.00    -0.272 OA
ATOM      6  H   UNL A   1      34.361  30.200  24.738  1.00  0.00     0.163 HD
BRANCH   4   7
ATOM      7  C   UNL A   1      32.056  27.736  23.960  1.00  0.00     0.131 C 
ATOM      8  C   UNL A   1      31.285  25.368  24.855  1.00  0.00     0.014 C 
ATOM      9  C   UNL A   1      32.390  26.468  24.906  1.00  0.00    -0.002 C 
ATOM     10  C   UNL A   1      32.519  26.765  26.411  1.00  0.00     0.014 C 
ATOM     11  C   UNL A   1      33.749  25.843  24.475  1.00  0.00     0.020 C 
ATOM     12  C   UNL A   1      33.741  25.127  23.135  1.00  0.00     0.070 C 
ATOM     13  C   UNL A   1      31.871  27.158  22.508  1.00  0.00     0.108 C 
ATOM     14  S   UNL A   1      33.198  26.138  21.746  1.00  0.00    -0.159 SA
BRANCH   7  15
ATOM     15  N   UNL A   1      30.738  28.346  24.370  1.00  0.00    -0.369 N 
ATOM     16  H   UNL A   1      30.575  28.359  25.341  1.00  0.00     0.161 HD
BRANCH  15  17
ATOM     17  C   UNL A   1      29.715  28.890  23.602  1.00  0.00     0.049 A 
ATOM     18  C   UNL A   1      29.962  30.188  23.093  1.00  0.00     0.027 A 
ATOM     19  C   UNL A   1      28.510  28.292  23.188  1.00  0.00     0.041 A 
ATOM     20  C   UNL A   1      29.124  30.809  22.158  1.00  0.00     0.002 A 
ATOM     21  C   UNL A   1      27.664  28.918  22.251  1.00  0.00     0.018 A 
ATOM     22  Br  UNL A   1      27.761  26.721  23.941  1.00  0.00    -0.049 Br
ATOM     23  C   UNL A   1      27.980  30.163  21.720  1.00  0.00     0.001 A 
ENDBRANCH  15  17
ENDBRANCH   7  15
ENDBRANCH   4   7
ENDBRANCH   2   3
ENDBRANCH   1   2
BRANCH   1  24
ATOM     24  C   UNL A   1      31.519  31.965  27.048  1.00  0.00     0.023 C 
BRANCH  24  25
ATOM     25  C   UNL A   1      32.739  32.849  27.249  1.00  0.00     0.116 C 
BRANCH  25  26
ATOM     26  N   UNL A   1      32.415  34.211  27.654  1.00  0.00    -0.352 N 
ATOM     27  C   UNL A   1      33.006  34.979  28.626  1.00  0.00     0.251 C 
ATOM     28  H   UNL A   1      31.672  34.636  27.166  1.00  0.00     0.163 HD
ATOM     29  O   UNL A   1      32.552  36.080  28.922  1.00  0.00    -0.269 OA
BRANCH  27  30
ATOM     30  C   UNL A   1      34.182  34.443  29.338  1.00  0.00     0.039 A 
ATOM     31  C   UNL A   1      33.989  33.713  30.511  1.00  0.00     0.014 A 
ATOM     32  C   UNL A   1      35.461  34.601  28.799  1.00  0.00     0.014 A 
ATOM     33  C   UNL A   1      35.080  33.078  31.107  1.00  0.00     0.010 A 
ATOM     34  C   UNL A   1      36.524  33.887  29.335  1.00  0.00     0.010 A 
ATOM     35  C   UNL A   1      36.346  33.128  30.501  1.00  0.00    -0.014 A 
BRANCH  35  36
ATOM     36  C   UNL A   1      37.504  32.410  31.087  1.00  0.00     0.031 A 
ATOM     37  C   UNL A   1      37.985  32.768  32.466  1.00  0.00     0.074 A 
ATOM     38  C   UNL A   1      38.153  31.484  30.358  1.00  0.00     0.049 A 
ATOM     39  N   UNL A   1      38.992  32.278  33.144  1.00  0.00    -0.248 NA
ATOM     40  C   UNL A   1      37.262  33.843  33.163  1.00  0.00     0.031 C 
ATOM     41  C   UNL A   1      37.829  31.107  28.980  1.00  0.00     0.029 A 
ATOM     42  N   UNL A   1      39.226  30.689  30.674  1.00  0.00    -0.354 N 
ATOM     43  C   UNL A   1      39.031  32.998  34.331  1.00  0.00     0.074 A 
ATOM     44  C   UNL A   1      37.993  34.001  34.254  1.00  0.00     0.031 C 
ATOM     45  C   UNL A   1      38.659  30.129  28.583  1.00  0.00     0.029 A 
ATOM     46  C   UNL A   1      39.589  29.829  29.666  1.00  0.00     0.049 A 
ATOM     47  H   UNL A   1      39.691  30.730  31.540  1.00  0.00     0.167 HD
ATOM     48  C   UNL A   1      39.836  32.816  35.403  1.00  0.00     0.037 A 
ATOM     49  C   UNL A   1      40.559  28.894  29.630  1.00  0.00     0.037 A 
ATOM     50  C   UNL A   1      40.840  31.790  35.490  1.00  0.00     0.049 A 
ATOM     51  C   UNL A   1      41.412  28.683  30.850  1.00  0.00     0.074 A 
ATOM     52  C   UNL A   1      41.663  31.473  36.555  1.00  0.00     0.029 A 
ATOM     53  N   UNL A   1      41.152  30.908  34.464  1.00  0.00    -0.354 N 
ATOM     54  N   UNL A   1      41.384  29.312  32.001  1.00  0.00    -0.248 NA
ATOM     55  C   UNL A   1      42.423  27.619  30.773  1.00  0.00     0.031 C 
ATOM     56  C   UNL A   1      42.499  30.422  36.162  1.00  0.00     0.029 A 
ATOM     57  C   UNL A   1      42.165  30.055  34.867  1.00  0.00     0.049 A 
ATOM     58  H   UNL A   1      40.718  30.892  33.580  1.00  0.00     0.167 HD
ATOM     59  C   UNL A   1      42.351  28.707  32.791  1.00  0.00     0.074 A 
ATOM     60  C   UNL A   1      42.934  27.646  31.995  1.00  0.00     0.031 C 
ATOM     61  C   UNL A   1      42.725  29.002  34.060  1.00  0.00     0.037 A 
BRANCH  48  62
ATOM     62  C   UNL A   1      39.648  33.737  36.573  1.00  0.00     0.064 A 
ATOM     63  C   UNL A   1      38.832  33.386  37.661  1.00  0.00     0.173 A 
ATOM     64  C   UNL A   1      40.301  34.978  36.617  1.00  0.00     0.173 A 
ATOM     65  F   UNL A   1      38.171  32.218  37.660  1.00  0.00    -0.203 F 
ATOM     66  C   UNL A   1      38.652  34.256  38.732  1.00  0.00     0.198 A 
ATOM     67  C   UNL A   1      40.143  35.832  37.707  1.00  0.00     0.198 A 
ATOM     68  F   UNL A   1      41.093  35.362  35.606  1.00  0.00    -0.203 F 
ATOM     69  F   UNL A   1      37.823  33.923  39.731  1.00  0.00    -0.200 F 
ATOM     70  C   UNL A   1      39.312  35.475  38.758  1.00  0.00     0.200 A 
ATOM     71  F   UNL A   1      40.790  37.005  37.735  1.00  0.00    -0.200 F 
ATOM     72  F   UNL A   1      39.141  36.310  39.792  1.00  0.00    -0.200 F 
ENDBRANCH  48  62
BRANCH  49  73
ATOM     73  C   UNL A   1      40.737  28.054  28.418  1.00  0.00     0.064 A 
ATOM     74  C   UNL A   1      41.542  28.487  27.356  1.00  0.00     0.173 A 
ATOM     75  C   UNL A   1      40.109  26.805  28.294  1.00  0.00     0.173 A 
ATOM     76  F   UNL A   1      42.148  29.681  27.420  1.00  0.00    -0.203 F 
ATOM     77  C   UNL A   1      41.694  27.716  26.206  1.00  0.00     0.198 A 
ATOM     78  C   UNL A   1      40.283  26.023  27.154  1.00  0.00     0.198 A 
ATOM     79  F   UNL A   1      39.334  26.342  29.286  1.00  0.00    -0.203 F 
ATOM     80  F   UNL A   1      42.433  28.175  25.187  1.00  0.00    -0.200 F 
ATOM     81  C   UNL A   1      41.069  26.482  26.108  1.00  0.00     0.200 A 
ATOM     82  F   UNL A   1      39.690  24.824  27.070  1.00  0.00    -0.200 F 
ATOM     83  F   UNL A   1      41.218  25.738  25.002  1.00  0.00    -0.200 F 
ENDBRANCH  49  73
BRANCH  61  84
ATOM     84  C   UNL A   1      43.795  28.147  34.673  1.00  0.00     0.064 A 
ATOM     85  C   UNL A   1      45.147  28.520  34.635  1.00  0.00     0.173 A 
ATOM     86  C   UNL A   1      43.458  26.953  35.328  1.00  0.00     0.173 A 
ATOM     87  F   UNL A   1      45.518  29.645  34.007  1.00  0.00    -0.203 F 
ATOM     88  C   UNL A   1      46.126  27.713  35.206  1.00  0.00     0.198 A 
ATOM     89  C   UNL A   1      44.437  26.164  35.924  1.00  0.00     0.198 A 
ATOM     90  F   UNL A   1      42.179  26.557  35.399  1.00  0.00    -0.203 F 
ATOM     91  F   UNL A   1      47.416  28.061  35.113  1.00  0.00    -0.200 F 
ATOM     92  C   UNL A   1      45.770  26.539  35.855  1.00  0.00     0.200 A 
ATOM     93  F   UNL A   1      44.091  25.037  36.563  1.00  0.00    -0.200 F 
ATOM     94  F   UNL A   1      46.715  25.765  36.406  1.00  0.00    -0.200 F 
ENDBRANCH  61  84
ENDBRANCH  35  36
ENDBRANCH  27  30
ENDBRANCH  25  26
ENDBRANCH  24  25
ENDBRANCH   1  24
TORSDOF 13
ENDMDL
