MODEL 1
REMARK VINA RESULT:     -12.2      0.000      0.000
REMARK SMILES Cc1cc(C)c2c(O[C@@H](C)C(=O)NCCCCNC(=O)c3ccc(-c4c5nc(c(-c6c(F)c(F)c(F)c(F)c6F)c6ccc([nH]6)c(-c6c(F)c(F)c(F)c(F)c6F)c6nc(c(-c7c(F)c(F)c(F)c(F)c7F)c7ccc4[nH]7)C=C6)C=C5)cc3)nsc2n1
REMARK SMILES IDX 15 1 14 2 13 3 11 4 12 5 9 7 10 8 8 9 7 10 1 11 2 12 3 13
REMARK SMILES IDX 87 14 4 15 86 16 5 17 6 18 85 19 84 20 16 21 17 22 18 23
REMARK SMILES IDX 19 24 20 26 21 27 22 28 83 29 23 30 82 31 24 32 25 33 26 34
REMARK SMILES IDX 76 35 27 36 81 37 75 38 77 39 28 40 80 41 74 42 73 43 29 45
REMARK SMILES IDX 61 46 41 47 60 48 42 49 45 50 59 51 78 52 43 53 44 54 58 56
REMARK SMILES IDX 79 57 46 58 30 59 31 60 39 61 32 62 33 63 37 64 40 65 34 66
REMARK SMILES IDX 35 67 38 68 36 69 62 70 63 71 71 72 64 73 65 74 69 75 72 76
REMARK SMILES IDX 66 77 67 78 70 79 68 80 47 81 48 82 56 83 49 84 50 85 54 86
REMARK SMILES IDX 57 87 51 88 52 89 55 90 53 91
REMARK H PARENT 13 6 18 25 77 44 45 55
REMARK Flexibility Score: inf
ROOT
ATOM      1  C   UNL A   1      40.657  21.020  26.724  1.00  0.00     0.023 C 
ENDROOT
BRANCH   1   2
ATOM      2  C   UNL A   1      39.374  21.517  26.047  1.00  0.00     0.116 C 
BRANCH   2   3
ATOM      3  N   UNL A   1      39.211  22.946  25.912  1.00  0.00    -0.353 N 
ATOM      4  C   UNL A   1      38.029  23.638  25.998  1.00  0.00     0.260 C 
ATOM      5  O   UNL A   1      38.040  24.674  26.672  1.00  0.00    -0.271 OA
ATOM      6  H   UNL A   1      40.025  23.473  25.743  1.00  0.00     0.163 HD
BRANCH   4   7
ATOM      7  C   UNL A   1      36.769  23.247  25.162  1.00  0.00     0.260 C 
ATOM      8  C   UNL A   1      36.949  23.167  23.642  1.00  0.00     0.064 C 
BRANCH   7   9
ATOM      9  O   UNL A   1      35.461  23.496  25.570  1.00  0.00    -0.463 OA
BRANCH   9  10
ATOM     10  C   UNL A   1      34.481  22.578  25.701  1.00  0.00     0.235 A 
ATOM     11  C   UNL A   1      32.210  17.644  24.046  1.00  0.00     0.067 C 
ATOM     12  C   UNL A   1      32.961  18.820  24.595  1.00  0.00     0.039 A 
ATOM     13  C   UNL A   1      34.346  18.851  24.573  1.00  0.00     0.027 A 
ATOM     14  N   UNL A   1      32.222  19.845  25.022  1.00  0.00    -0.240 NA
ATOM     15  C   UNL A   1      35.067  20.007  24.960  1.00  0.00    -0.034 A 
ATOM     16  C   UNL A   1      32.913  20.931  25.405  1.00  0.00     0.147 A 
ATOM     17  C   UNL A   1      36.565  19.860  24.869  1.00  0.00     0.045 C 
ATOM     18  C   UNL A   1      34.300  21.151  25.383  1.00  0.00     0.078 A 
ATOM     19  S   UNL A   1      32.078  22.290  25.979  1.00  0.00    -0.012 S 
ATOM     20  N   UNL A   1      33.399  23.244  26.103  1.00  0.00    -0.153 NA
ENDBRANCH   9  10
ENDBRANCH   7   9
ENDBRANCH   4   7
ENDBRANCH   2   3
ENDBRANCH   1   2
BRANCH   1  21
ATOM     21  C   UNL A   1      41.274  19.775  26.056  1.00  0.00     0.023 C 
BRANCH  21  22
ATOM     22  C   UNL A   1      42.726  19.499  26.439  1.00  0.00     0.116 C 
BRANCH  22  23
ATOM     23  N   UNL A   1      43.681  19.364  25.348  1.00  0.00    -0.352 N 
ATOM     24  C   UNL A   1      44.267  20.397  24.622  1.00  0.00     0.251 C 
ATOM     25  H   UNL A   1      43.938  18.447  25.098  1.00  0.00     0.163 HD
ATOM     26  O   UNL A   1      44.850  20.193  23.572  1.00  0.00    -0.269 OA
BRANCH  24  27
ATOM     27  C   UNL A   1      44.184  21.779  25.159  1.00  0.00     0.039 A 
ATOM     28  C   UNL A   1      43.228  22.691  24.709  1.00  0.00     0.014 A 
ATOM     29  C   UNL A   1      45.109  22.164  26.128  1.00  0.00     0.014 A 
ATOM     30  C   UNL A   1      43.150  23.944  25.320  1.00  0.00     0.010 A 
ATOM     31  C   UNL A   1      44.963  23.338  26.814  1.00  0.00     0.010 A 
ATOM     32  C   UNL A   1      44.004  24.245  26.393  1.00  0.00    -0.014 A 
BRANCH  32  33
ATOM     33  C   UNL A   1      43.806  25.434  27.208  1.00  0.00     0.031 A 
ATOM     34  C   UNL A   1      44.721  26.564  26.881  1.00  0.00     0.074 A 
ATOM     35  C   UNL A   1      42.715  25.621  27.980  1.00  0.00     0.049 A 
ATOM     36  N   UNL A   1      45.596  27.119  27.651  1.00  0.00    -0.248 NA
ATOM     37  C   UNL A   1      44.743  27.068  25.497  1.00  0.00     0.031 C 
ATOM     38  C   UNL A   1      41.534  24.766  28.144  1.00  0.00     0.029 A 
ATOM     39  N   UNL A   1      42.391  26.715  28.714  1.00  0.00    -0.354 N 
ATOM     40  C   UNL A   1      46.180  28.143  26.908  1.00  0.00     0.074 A 
ATOM     41  C   UNL A   1      45.723  27.972  25.552  1.00  0.00     0.031 C 
ATOM     42  C   UNL A   1      40.541  25.474  28.729  1.00  0.00     0.029 A 
ATOM     43  C   UNL A   1      41.068  26.767  29.127  1.00  0.00     0.049 A 
ATOM     44  H   UNL A   1      43.044  27.416  28.938  1.00  0.00     0.167 HD
ATOM     45  C   UNL A   1      46.839  29.171  27.510  1.00  0.00     0.037 A 
ATOM     46  C   UNL A   1      40.456  27.831  29.703  1.00  0.00     0.037 A 
ATOM     47  C   UNL A   1      47.149  28.864  28.881  1.00  0.00     0.049 A 
ATOM     48  C   UNL A   1      41.530  28.697  30.262  1.00  0.00     0.074 A 
ATOM     49  C   UNL A   1      47.896  27.879  29.499  1.00  0.00     0.029 A 
ATOM     50  N   UNL A   1      46.332  29.373  29.863  1.00  0.00    -0.354 N 
ATOM     51  N   UNL A   1      42.312  28.335  31.244  1.00  0.00    -0.248 NA
ATOM     52  C   UNL A   1      42.053  29.754  29.405  1.00  0.00     0.031 C 
ATOM     53  C   UNL A   1      47.120  27.495  30.634  1.00  0.00     0.029 A 
ATOM     54  C   UNL A   1      45.997  28.322  30.680  1.00  0.00     0.049 A 
ATOM     55  H   UNL A   1      46.042  30.309  29.961  1.00  0.00     0.167 HD
ATOM     56  C   UNL A   1      43.569  28.800  30.888  1.00  0.00     0.074 A 
ATOM     57  C   UNL A   1      43.336  29.724  29.778  1.00  0.00     0.031 C 
ATOM     58  C   UNL A   1      44.710  28.182  31.318  1.00  0.00     0.037 A 
BRANCH  45  59
ATOM     59  C   UNL A   1      46.920  30.572  26.967  1.00  0.00     0.064 A 
ATOM     60  C   UNL A   1      48.158  31.244  26.956  1.00  0.00     0.173 A 
ATOM     61  C   UNL A   1      45.785  31.377  26.732  1.00  0.00     0.173 A 
ATOM     62  F   UNL A   1      49.298  30.576  27.194  1.00  0.00    -0.203 F 
ATOM     63  C   UNL A   1      48.244  32.628  26.787  1.00  0.00     0.198 A 
ATOM     64  C   UNL A   1      45.879  32.749  26.509  1.00  0.00     0.198 A 
ATOM     65  F   UNL A   1      44.541  30.891  26.824  1.00  0.00    -0.203 F 
ATOM     66  F   UNL A   1      49.430  33.241  26.905  1.00  0.00    -0.200 F 
ATOM     67  C   UNL A   1      47.105  33.380  26.568  1.00  0.00     0.200 A 
ATOM     68  F   UNL A   1      44.761  33.463  26.320  1.00  0.00    -0.200 F 
ATOM     69  F   UNL A   1      47.178  34.713  26.464  1.00  0.00    -0.200 F 
ENDBRANCH  45  59
BRANCH  46  70
ATOM     70  C   UNL A   1      39.075  28.313  29.453  1.00  0.00     0.064 A 
ATOM     71  C   UNL A   1      38.173  28.514  30.511  1.00  0.00     0.173 A 
ATOM     72  C   UNL A   1      38.699  28.849  28.204  1.00  0.00     0.173 A 
ATOM     73  F   UNL A   1      38.472  28.077  31.743  1.00  0.00    -0.203 F 
ATOM     74  C   UNL A   1      36.981  29.227  30.334  1.00  0.00     0.198 A 
ATOM     75  C   UNL A   1      37.508  29.555  28.029  1.00  0.00     0.198 A 
ATOM     76  F   UNL A   1      39.523  28.781  27.148  1.00  0.00    -0.203 F 
ATOM     77  F   UNL A   1      36.173  29.449  31.381  1.00  0.00    -0.200 F 
ATOM     78  C   UNL A   1      36.655  29.756  29.097  1.00  0.00     0.200 A 
ATOM     79  F   UNL A   1      37.225  30.092  26.833  1.00  0.00    -0.200 F 
ATOM     80  F   UNL A   1      35.544  30.491  28.941  1.00  0.00    -0.200 F 
ENDBRANCH  46  70
BRANCH  58  81
ATOM     81  C   UNL A   1      44.592  27.095  32.354  1.00  0.00     0.064 A 
ATOM     82  C   UNL A   1      44.421  27.336  33.729  1.00  0.00     0.173 A 
ATOM     83  C   UNL A   1      44.451  25.772  31.916  1.00  0.00     0.173 A 
ATOM     84  F   UNL A   1      44.438  28.580  34.219  1.00  0.00    -0.203 F 
ATOM     85  C   UNL A   1      44.152  26.301  34.623  1.00  0.00     0.198 A 
ATOM     86  C   UNL A   1      44.148  24.743  32.806  1.00  0.00     0.198 A 
ATOM     87  F   UNL A   1      44.546  25.485  30.608  1.00  0.00    -0.203 F 
ATOM     88  F   UNL A   1      43.990  26.565  35.928  1.00  0.00    -0.200 F 
ATOM     89  C   UNL A   1      44.005  25.007  34.158  1.00  0.00     0.200 A 
ATOM     90  F   UNL A   1      43.955  23.500  32.343  1.00  0.00    -0.200 F 
ATOM     91  F   UNL A   1      43.694  24.018  35.008  1.00  0.00    -0.200 F 
ENDBRANCH  58  81
ENDBRANCH  32  33
ENDBRANCH  24  27
ENDBRANCH  22  23
ENDBRANCH  21  22
ENDBRANCH   1  21
TORSDOF 13
ENDMDL
MODEL 2
REMARK VINA RESULT:     -12.1      2.929      4.350
REMARK SMILES Cc1cc(C)c2c(O[C@@H](C)C(=O)NCCCCNC(=O)c3ccc(-c4c5nc(c(-c6c(F)c(F)c(F)c(F)c6F)c6ccc([nH]6)c(-c6c(F)c(F)c(F)c(F)c6F)c6nc(c(-c7c(F)c(F)c(F)c(F)c7F)c7ccc4[nH]7)C=C6)C=C5)cc3)nsc2n1
REMARK SMILES IDX 15 1 14 2 13 3 11 4 12 5 9 7 10 8 8 9 7 10 1 11 2 12 3 13
REMARK SMILES IDX 87 14 4 15 86 16 5 17 6 18 85 19 84 20 16 21 17 22 18 23
REMARK SMILES IDX 19 24 20 26 21 27 22 28 83 29 23 30 82 31 24 32 25 33 26 34
REMARK SMILES IDX 76 35 27 36 81 37 75 38 77 39 28 40 80 41 74 42 73 43 29 45
REMARK SMILES IDX 61 46 41 47 60 48 42 49 45 50 59 51 78 52 43 53 44 54 58 56
REMARK SMILES IDX 79 57 46 58 30 59 31 60 39 61 32 62 33 63 37 64 40 65 34 66
REMARK SMILES IDX 35 67 38 68 36 69 62 70 63 71 71 72 64 73 65 74 69 75 72 76
REMARK SMILES IDX 66 77 67 78 70 79 68 80 47 81 48 82 56 83 49 84 50 85 54 86
REMARK SMILES IDX 57 87 51 88 52 89 55 90 53 91
REMARK H PARENT 13 6 18 25 77 44 45 55
REMARK Flexibility Score: inf
ROOT
ATOM      1  C   UNL A   1      38.016  21.065  25.173  1.00  0.00     0.023 C 
ENDROOT
BRANCH   1   2
ATOM      2  C   UNL A   1      36.591  21.325  24.669  1.00  0.00     0.116 C 
BRANCH   2   3
ATOM      3  N   UNL A   1      35.526  20.574  25.291  1.00  0.00    -0.353 N 
ATOM      4  C   UNL A   1      34.263  20.390  24.786  1.00  0.00     0.260 C 
ATOM      5  O   UNL A   1      33.803  19.244  24.846  1.00  0.00    -0.271 OA
ATOM      6  H   UNL A   1      35.724  20.154  26.159  1.00  0.00     0.163 HD
BRANCH   4   7
ATOM      7  C   UNL A   1      33.371  21.580  24.309  1.00  0.00     0.260 C 
ATOM      8  C   UNL A   1      31.936  21.621  24.844  1.00  0.00     0.064 C 
BRANCH   7   9
ATOM      9  O   UNL A   1      33.549  22.245  23.098  1.00  0.00    -0.463 OA
BRANCH   9  10
ATOM     10  C   UNL A   1      33.581  23.582  22.923  1.00  0.00     0.235 A 
ATOM     11  C   UNL A   1      33.172  28.775  25.181  1.00  0.00     0.067 C 
ATOM     12  C   UNL A   1      33.487  27.398  24.678  1.00  0.00     0.039 A 
ATOM     13  C   UNL A   1      34.069  26.456  25.509  1.00  0.00     0.027 A 
ATOM     14  N   UNL A   1      33.103  27.124  23.431  1.00  0.00    -0.240 NA
ATOM     15  C   UNL A   1      34.248  25.113  25.094  1.00  0.00    -0.034 A 
ATOM     16  C   UNL A   1      33.293  25.854  23.038  1.00  0.00     0.147 A 
ATOM     17  C   UNL A   1      34.895  24.227  26.130  1.00  0.00     0.045 C 
ATOM     18  C   UNL A   1      33.802  24.768  23.769  1.00  0.00     0.078 A 
ATOM     19  S   UNL A   1      32.855  25.394  21.466  1.00  0.00    -0.012 S 
ATOM     20  N   UNL A   1      33.166  23.804  21.676  1.00  0.00    -0.153 NA
ENDBRANCH   9  10
ENDBRANCH   7   9
ENDBRANCH   4   7
ENDBRANCH   2   3
ENDBRANCH   1   2
BRANCH   1  21
ATOM     21  C   UNL A   1      38.613  22.231  25.989  1.00  0.00     0.023 C 
BRANCH  21  22
ATOM     22  C   UNL A   1      39.887  21.886  26.756  1.00  0.00     0.116 C 
BRANCH  22  23
ATOM     23  N   UNL A   1      41.140  21.966  26.019  1.00  0.00    -0.352 N 
ATOM     24  C   UNL A   1      41.935  23.096  25.848  1.00  0.00     0.251 C 
ATOM     25  H   UNL A   1      41.459  21.134  25.598  1.00  0.00     0.163 HD
ATOM     26  O   UNL A   1      42.822  23.136  25.015  1.00  0.00    -0.269 OA
BRANCH  24  27
ATOM     27  C   UNL A   1      41.692  24.273  26.720  1.00  0.00     0.039 A 
ATOM     28  C   UNL A   1      42.308  24.410  27.966  1.00  0.00     0.014 A 
ATOM     29  C   UNL A   1      40.805  25.251  26.273  1.00  0.00     0.014 A 
ATOM     30  C   UNL A   1      42.103  25.582  28.694  1.00  0.00     0.010 A 
ATOM     31  C   UNL A   1      40.695  26.450  26.921  1.00  0.00     0.010 A 
ATOM     32  C   UNL A   1      41.318  26.609  28.147  1.00  0.00    -0.014 A 
BRANCH  32  33
ATOM     33  C   UNL A   1      41.267  27.930  28.756  1.00  0.00     0.031 A 
ATOM     34  C   UNL A   1      42.257  28.900  28.207  1.00  0.00     0.074 A 
ATOM     35  C   UNL A   1      40.241  28.343  29.528  1.00  0.00     0.049 A 
ATOM     36  N   UNL A   1      43.217  29.490  28.836  1.00  0.00    -0.248 NA
ATOM     37  C   UNL A   1      42.246  29.163  26.757  1.00  0.00     0.031 C 
ATOM     38  C   UNL A   1      39.002  27.642  29.882  1.00  0.00     0.029 A 
ATOM     39  N   UNL A   1      40.053  29.569  30.079  1.00  0.00    -0.354 N 
ATOM     40  C   UNL A   1      43.845  30.317  27.907  1.00  0.00     0.074 A 
ATOM     41  C   UNL A   1      43.302  29.968  26.619  1.00  0.00     0.031 C 
ATOM     42  C   UNL A   1      38.107  28.527  30.378  1.00  0.00     0.029 A 
ATOM     43  C   UNL A   1      38.764  29.812  30.530  1.00  0.00     0.049 A 
ATOM     44  H   UNL A   1      40.775  30.233  30.155  1.00  0.00     0.167 HD
ATOM     45  C   UNL A   1      44.622  31.364  28.300  1.00  0.00     0.037 A 
ATOM     46  C   UNL A   1      38.279  31.010  30.941  1.00  0.00     0.037 A 
ATOM     47  C   UNL A   1      44.979  31.260  29.690  1.00  0.00     0.049 A 
ATOM     48  C   UNL A   1      39.452  31.852  31.302  1.00  0.00     0.074 A 
ATOM     49  C   UNL A   1      45.672  30.324  30.436  1.00  0.00     0.029 A 
ATOM     50  N   UNL A   1      44.264  31.998  30.603  1.00  0.00    -0.354 N 
ATOM     51  N   UNL A   1      40.252  31.585  32.299  1.00  0.00    -0.248 NA
ATOM     52  C   UNL A   1      40.015  32.699  30.258  1.00  0.00     0.031 C 
ATOM     53  C   UNL A   1      44.930  30.208  31.649  1.00  0.00     0.029 A 
ATOM     54  C   UNL A   1      43.887  31.133  31.600  1.00  0.00     0.049 A 
ATOM     55  H   UNL A   1      44.063  32.961  30.552  1.00  0.00     0.167 HD
ATOM     56  C   UNL A   1      41.523  31.865  31.820  1.00  0.00     0.074 A 
ATOM     57  C   UNL A   1      41.310  32.610  30.580  1.00  0.00     0.031 C 
ATOM     58  C   UNL A   1      42.629  31.222  32.302  1.00  0.00     0.037 A 
BRANCH  45  59
ATOM     59  C   UNL A   1      44.793  32.642  27.525  1.00  0.00     0.064 A 
ATOM     60  C   UNL A   1      45.963  32.845  26.767  1.00  0.00     0.173 A 
ATOM     61  C   UNL A   1      43.993  33.785  27.733  1.00  0.00     0.173 A 
ATOM     62  F   UNL A   1      46.808  31.829  26.531  1.00  0.00    -0.203 F 
ATOM     63  C   UNL A   1      46.333  34.112  26.308  1.00  0.00     0.198 A 
ATOM     64  C   UNL A   1      44.338  35.037  27.227  1.00  0.00     0.198 A 
ATOM     65  F   UNL A   1      42.915  33.760  28.526  1.00  0.00    -0.203 F 
ATOM     66  F   UNL A   1      47.514  34.279  25.695  1.00  0.00    -0.200 F 
ATOM     67  C   UNL A   1      45.523  35.207  26.542  1.00  0.00     0.200 A 
ATOM     68  F   UNL A   1      43.550  36.090  27.484  1.00  0.00    -0.200 F 
ATOM     69  F   UNL A   1      45.903  36.431  26.155  1.00  0.00    -0.200 F 
ENDBRANCH  45  59
BRANCH  46  70
ATOM     70  C   UNL A   1      36.932  31.572  30.668  1.00  0.00     0.064 A 
ATOM     71  C   UNL A   1      36.042  31.867  31.714  1.00  0.00     0.173 A 
ATOM     72  C   UNL A   1      36.595  32.089  29.400  1.00  0.00     0.173 A 
ATOM     73  F   UNL A   1      36.309  31.453  32.961  1.00  0.00    -0.203 F 
ATOM     74  C   UNL A   1      34.899  32.649  31.507  1.00  0.00     0.198 A 
ATOM     75  C   UNL A   1      35.453  32.864  29.195  1.00  0.00     0.198 A 
ATOM     76  F   UNL A   1      37.416  31.931  28.351  1.00  0.00    -0.203 F 
ATOM     77  F   UNL A   1      34.105  32.958  32.542  1.00  0.00    -0.200 F 
ATOM     78  C   UNL A   1      34.612  33.155  30.251  1.00  0.00     0.200 A 
ATOM     79  F   UNL A   1      35.208  33.377  27.980  1.00  0.00    -0.200 F 
ATOM     80  F   UNL A   1      33.552  33.955  30.065  1.00  0.00    -0.200 F 
ENDBRANCH  46  70
BRANCH  58  81
ATOM     81  C   UNL A   1      42.475  30.337  33.511  1.00  0.00     0.064 A 
ATOM     82  C   UNL A   1      42.500  30.807  34.836  1.00  0.00     0.173 A 
ATOM     83  C   UNL A   1      42.096  29.003  33.315  1.00  0.00     0.173 A 
ATOM     84  F   UNL A   1      42.751  32.091  35.109  1.00  0.00    -0.203 F 
ATOM     85  C   UNL A   1      42.188  29.975  35.911  1.00  0.00     0.198 A 
ATOM     86  C   UNL A   1      41.752  28.182  34.387  1.00  0.00     0.198 A 
ATOM     87  F   UNL A   1      41.998  28.510  32.070  1.00  0.00    -0.203 F 
ATOM     88  F   UNL A   1      42.216  30.455  37.163  1.00  0.00    -0.200 F 
ATOM     89  C   UNL A   1      41.804  28.666  35.683  1.00  0.00     0.200 A 
ATOM     90  F   UNL A   1      41.331  26.931  34.157  1.00  0.00    -0.200 F 
ATOM     91  F   UNL A   1      41.454  27.879  36.711  1.00  0.00    -0.200 F 
ENDBRANCH  58  81
ENDBRANCH  32  33
ENDBRANCH  24  27
ENDBRANCH  22  23
ENDBRANCH  21  22
ENDBRANCH   1  21
TORSDOF 13
ENDMDL
MODEL 3
REMARK VINA RESULT:     -12.1      4.021      9.204
REMARK SMILES Cc1cc(C)c2c(O[C@@H](C)C(=O)NCCCCNC(=O)c3ccc(-c4c5nc(c(-c6c(F)c(F)c(F)c(F)c6F)c6ccc([nH]6)c(-c6c(F)c(F)c(F)c(F)c6F)c6nc(c(-c7c(F)c(F)c(F)c(F)c7F)c7ccc4[nH]7)C=C6)C=C5)cc3)nsc2n1
REMARK SMILES IDX 15 1 14 2 13 3 11 4 12 5 9 7 10 8 8 9 7 10 1 11 2 12 3 13
REMARK SMILES IDX 87 14 4 15 86 16 5 17 6 18 85 19 84 20 16 21 17 22 18 23
REMARK SMILES IDX 19 24 20 26 21 27 22 28 83 29 23 30 82 31 24 32 25 33 26 34
REMARK SMILES IDX 76 35 27 36 81 37 75 38 77 39 28 40 80 41 74 42 73 43 29 45
REMARK SMILES IDX 61 46 41 47 60 48 42 49 45 50 59 51 78 52 43 53 44 54 58 56
REMARK SMILES IDX 79 57 46 58 30 59 31 60 39 61 32 62 33 63 37 64 40 65 34 66
REMARK SMILES IDX 35 67 38 68 36 69 62 70 63 71 71 72 64 73 65 74 69 75 72 76
REMARK SMILES IDX 66 77 67 78 70 79 68 80 47 81 48 82 56 83 49 84 50 85 54 86
REMARK SMILES IDX 57 87 51 88 52 89 55 90 53 91
REMARK H PARENT 13 6 18 25 77 44 45 55
REMARK Flexibility Score: inf
ROOT
ATOM      1  C   UNL A   1      31.784  29.143  26.981  1.00  0.00     0.023 C 
ENDROOT
BRANCH   1   2
ATOM      2  C   UNL A   1      32.354  27.723  27.084  1.00  0.00     0.116 C 
BRANCH   2   3
ATOM      3  N   UNL A   1      31.433  26.629  26.882  1.00  0.00    -0.353 N 
ATOM      4  C   UNL A   1      31.765  25.346  26.525  1.00  0.00     0.260 C 
ATOM      5  O   UNL A   1      31.206  24.435  27.144  1.00  0.00    -0.271 OA
ATOM      6  H   UNL A   1      30.477  26.821  27.013  1.00  0.00     0.163 HD
BRANCH   4   7
ATOM      7  C   UNL A   1      32.675  25.029  25.295  1.00  0.00     0.260 C 
ATOM      8  C   UNL A   1      34.143  24.704  25.592  1.00  0.00     0.064 C 
BRANCH   7   9
ATOM      9  O   UNL A   1      32.447  25.525  24.014  1.00  0.00    -0.463 OA
BRANCH   9  10
ATOM     10  C   UNL A   1      32.151  26.803  23.698  1.00  0.00     0.235 A 
ATOM     11  C   UNL A   1      28.496  30.511  21.433  1.00  0.00     0.067 C 
ATOM     12  C   UNL A   1      29.322  29.530  22.211  1.00  0.00     0.039 A 
ATOM     13  C   UNL A   1      28.727  28.471  22.876  1.00  0.00     0.027 A 
ATOM     14  N   UNL A   1      30.644  29.697  22.154  1.00  0.00    -0.240 NA
ATOM     15  C   UNL A   1      29.500  27.460  23.499  1.00  0.00    -0.034 A 
ATOM     16  C   UNL A   1      31.369  28.745  22.763  1.00  0.00     0.147 A 
ATOM     17  C   UNL A   1      28.683  26.385  24.171  1.00  0.00     0.045 C 
ATOM     18  C   UNL A   1      30.932  27.581  23.417  1.00  0.00     0.078 A 
ATOM     19  S   UNL A   1      33.061  28.861  22.766  1.00  0.00    -0.012 S 
ATOM     20  N   UNL A   1      33.316  27.409  23.470  1.00  0.00    -0.153 NA
ENDBRANCH   9  10
ENDBRANCH   7   9
ENDBRANCH   4   7
ENDBRANCH   2   3
ENDBRANCH   1   2
BRANCH   1  21
ATOM     21  C   UNL A   1      32.765  30.168  26.377  1.00  0.00     0.023 C 
BRANCH  21  22
ATOM     22  C   UNL A   1      34.005  30.440  27.225  1.00  0.00     0.116 C 
BRANCH  22  23
ATOM     23  N   UNL A   1      33.887  31.466  28.252  1.00  0.00    -0.352 N 
ATOM     24  C   UNL A   1      34.819  31.762  29.244  1.00  0.00     0.251 C 
ATOM     25  H   UNL A   1      33.064  32.006  28.244  1.00  0.00     0.163 HD
ATOM     26  O   UNL A   1      34.534  32.453  30.205  1.00  0.00    -0.269 OA
BRANCH  24  27
ATOM     27  C   UNL A   1      36.197  31.227  29.106  1.00  0.00     0.039 A 
ATOM     28  C   UNL A   1      37.320  32.056  29.143  1.00  0.00     0.014 A 
ATOM     29  C   UNL A   1      36.353  29.855  28.915  1.00  0.00     0.014 A 
ATOM     30  C   UNL A   1      38.588  31.477  29.096  1.00  0.00     0.010 A 
ATOM     31  C   UNL A   1      37.587  29.270  28.991  1.00  0.00     0.010 A 
ATOM     32  C   UNL A   1      38.710  30.079  29.050  1.00  0.00    -0.014 A 
BRANCH  32  33
ATOM     33  C   UNL A   1      39.996  29.424  29.235  1.00  0.00     0.031 A 
ATOM     34  C   UNL A   1      40.309  29.071  30.648  1.00  0.00     0.074 A 
ATOM     35  C   UNL A   1      40.713  28.912  28.213  1.00  0.00     0.049 A 
ATOM     36  N   UNL A   1      41.289  29.499  31.371  1.00  0.00    -0.248 NA
ATOM     37  C   UNL A   1      39.356  28.221  31.384  1.00  0.00     0.031 C 
ATOM     38  C   UNL A   1      40.383  28.851  26.785  1.00  0.00     0.029 A 
ATOM     39  N   UNL A   1      41.877  28.218  28.277  1.00  0.00    -0.354 N 
ATOM     40  C   UNL A   1      41.173  28.864  32.606  1.00  0.00     0.074 A 
ATOM     41  C   UNL A   1      39.892  28.206  32.606  1.00  0.00     0.031 C 
ATOM     42  C   UNL A   1      41.199  27.964  26.170  1.00  0.00     0.029 A 
ATOM     43  C   UNL A   1      42.205  27.526  27.120  1.00  0.00     0.049 A 
ATOM     44  H   UNL A   1      42.445  28.207  29.080  1.00  0.00     0.167 HD
ATOM     45  C   UNL A   1      42.232  28.767  33.457  1.00  0.00     0.037 A 
ATOM     46  C   UNL A   1      43.204  26.618  26.994  1.00  0.00     0.037 A 
ATOM     47  C   UNL A   1      43.285  29.677  33.090  1.00  0.00     0.049 A 
ATOM     48  C   UNL A   1      44.163  26.872  28.104  1.00  0.00     0.074 A 
ATOM     49  C   UNL A   1      43.367  31.052  32.969  1.00  0.00     0.029 A 
ATOM     50  N   UNL A   1      44.354  29.183  32.381  1.00  0.00    -0.354 N 
ATOM     51  N   UNL A   1      44.871  27.965  28.210  1.00  0.00    -0.248 NA
ATOM     52  C   UNL A   1      43.962  26.135  29.345  1.00  0.00     0.031 C 
ATOM     53  C   UNL A   1      44.131  31.265  31.783  1.00  0.00     0.029 A 
ATOM     54  C   UNL A   1      44.531  30.017  31.305  1.00  0.00     0.049 A 
ATOM     55  H   UNL A   1      44.889  28.386  32.602  1.00  0.00     0.167 HD
ATOM     56  C   UNL A   1      44.845  28.275  29.562  1.00  0.00     0.074 A 
ATOM     57  C   UNL A   1      44.326  27.077  30.220  1.00  0.00     0.031 C 
ATOM     58  C   UNL A   1      44.962  29.564  30.003  1.00  0.00     0.037 A 
BRANCH  45  59
ATOM     59  C   UNL A   1      42.455  27.635  34.422  1.00  0.00     0.064 A 
ATOM     60  C   UNL A   1      43.026  26.432  33.963  1.00  0.00     0.173 A 
ATOM     61  C   UNL A   1      41.865  27.583  35.703  1.00  0.00     0.173 A 
ATOM     62  F   UNL A   1      43.591  26.365  32.747  1.00  0.00    -0.203 F 
ATOM     63  C   UNL A   1      42.953  25.251  34.706  1.00  0.00     0.198 A 
ATOM     64  C   UNL A   1      41.842  26.417  36.464  1.00  0.00     0.198 A 
ATOM     65  F   UNL A   1      41.190  28.620  36.214  1.00  0.00    -0.203 F 
ATOM     66  F   UNL A   1      43.403  24.104  34.179  1.00  0.00    -0.200 F 
ATOM     67  C   UNL A   1      42.358  25.243  35.954  1.00  0.00     0.200 A 
ATOM     68  F   UNL A   1      41.241  26.425  37.662  1.00  0.00    -0.200 F 
ATOM     69  F   UNL A   1      42.234  24.102  36.643  1.00  0.00    -0.200 F 
ENDBRANCH  45  59
BRANCH  46  70
ATOM     70  C   UNL A   1      43.166  25.344  26.232  1.00  0.00     0.064 A 
ATOM     71  C   UNL A   1      44.153  25.037  25.281  1.00  0.00     0.173 A 
ATOM     72  C   UNL A   1      42.321  24.284  26.617  1.00  0.00     0.173 A 
ATOM     73  F   UNL A   1      45.028  25.976  24.892  1.00  0.00    -0.203 F 
ATOM     74  C   UNL A   1      44.298  23.744  24.765  1.00  0.00     0.198 A 
ATOM     75  C   UNL A   1      42.464  22.996  26.098  1.00  0.00     0.198 A 
ATOM     76  F   UNL A   1      41.397  24.451  27.575  1.00  0.00    -0.203 F 
ATOM     77  F   UNL A   1      45.289  23.475  23.903  1.00  0.00    -0.200 F 
ATOM     78  C   UNL A   1      43.461  22.722  25.182  1.00  0.00     0.200 A 
ATOM     79  F   UNL A   1      41.669  22.011  26.540  1.00  0.00    -0.200 F 
ATOM     80  F   UNL A   1      43.639  21.471  24.736  1.00  0.00    -0.200 F 
ENDBRANCH  46  70
BRANCH  58  81
ATOM     81  C   UNL A   1      45.320  30.635  29.008  1.00  0.00     0.064 A 
ATOM     82  C   UNL A   1      46.634  30.908  28.587  1.00  0.00     0.173 A 
ATOM     83  C   UNL A   1      44.283  31.272  28.314  1.00  0.00     0.173 A 
ATOM     84  F   UNL A   1      47.678  30.269  29.124  1.00  0.00    -0.203 F 
ATOM     85  C   UNL A   1      46.896  31.795  27.543  1.00  0.00     0.198 A 
ATOM     86  C   UNL A   1      44.545  32.132  27.249  1.00  0.00     0.198 A 
ATOM     87  F   UNL A   1      43.005  31.010  28.631  1.00  0.00    -0.203 F 
ATOM     88  F   UNL A   1      48.161  32.030  27.162  1.00  0.00    -0.200 F 
ATOM     89  C   UNL A   1      45.849  32.397  26.869  1.00  0.00     0.200 A 
ATOM     90  F   UNL A   1      43.526  32.672  26.566  1.00  0.00    -0.200 F 
ATOM     91  F   UNL A   1      46.097  33.210  25.831  1.00  0.00    -0.200 F 
ENDBRANCH  58  81
ENDBRANCH  32  33
ENDBRANCH  24  27
ENDBRANCH  22  23
ENDBRANCH  21  22
ENDBRANCH   1  21
TORSDOF 13
ENDMDL
