MODEL 1
REMARK VINA RESULT:     -13.5      0.000      0.000
REMARK SMILES Cc1cc(C)c(NC(=O)C[C@H](C(=O)NCCCCNC(=O)c2ccc(-c3c4nc(c(-c5c(F)c(F)c(F)c(F)c5F)c5ccc([nH]5)c(-c5c(F)c(F)c(F)c(F)c5F)c5nc(c(-c6c(F)c(F)c(F)c(F)c6F)c6ccc3[nH]6)C=C5)C=C4)cc2)[NH+]2CC[NH+](C)CC2)c(C)c1
REMARK SMILES IDX 16 1 15 2 14 3 12 4 13 5 11 7 10 8 8 9 7 10 9 12 6 13 1 14
REMARK SMILES IDX 2 15 3 16 94 17 4 18 92 19 5 20 93 21 85 22 86 23 91 24
REMARK SMILES IDX 87 26 90 27 88 28 89 29 17 31 18 32 19 33 20 34 21 36 22 37
REMARK SMILES IDX 23 38 84 39 24 40 83 41 25 42 26 43 27 44 77 45 28 46 82 47
REMARK SMILES IDX 76 48 78 49 29 50 81 51 75 52 74 53 30 55 62 56 42 57 61 58
REMARK SMILES IDX 43 59 46 60 60 61 79 62 44 63 45 64 59 66 80 67 47 68 31 69
REMARK SMILES IDX 32 70 40 71 33 72 34 73 38 74 41 75 35 76 36 77 39 78 37 79
REMARK SMILES IDX 63 80 64 81 72 82 65 83 66 84 70 85 73 86 67 87 68 88 71 89
REMARK SMILES IDX 69 90 48 91 49 92 57 93 50 94 51 95 55 96 58 97 52 98 53 99
REMARK SMILES IDX 56 100 54 101
REMARK H PARENT 14 6 7 11 85 25 88 30 19 35 78 54 46 65
REMARK Flexibility Score: inf
ROOT
ATOM      1  C   UNL A   1      32.095  30.306  26.904  1.00  0.00     0.023 C 
ENDROOT
BRANCH   1   2
ATOM      2  C   UNL A   1      32.073  29.637  25.533  1.00  0.00     0.116 C 
BRANCH   2   3
ATOM      3  N   UNL A   1      31.499  28.302  25.558  1.00  0.00    -0.351 N 
ATOM      4  C   UNL A   1      31.169  27.332  24.667  1.00  0.00     0.278 C 
ATOM      5  O   UNL A   1      30.814  26.286  25.242  1.00  0.00    -0.268 OA
ATOM      6  H   UNL A   1      31.289  28.023  26.479  1.00  0.00     0.163 HD
BRANCH   4   7
ATOM      7  C   UNL A   1      31.055  27.425  23.098  1.00  0.00     0.283 C 
BRANCH   7   8
ATOM      8  C   UNL A   1      31.421  26.203  22.252  1.00  0.00     0.175 C 
BRANCH   8   9
ATOM      9  C   UNL A   1      32.801  25.598  21.970  1.00  0.00     0.230 C 
ATOM     10  N   UNL A   1      33.515  24.634  22.591  1.00  0.00    -0.325 N 
ATOM     11  H   UNL A   1      34.286  24.362  22.042  1.00  0.00     0.169 HD
ATOM     12  O   UNL A   1      33.356  26.019  20.934  1.00  0.00    -0.274 OA
BRANCH  10  13
ATOM     13  C   UNL A   1      33.478  23.903  23.794  1.00  0.00     0.047 A 
ATOM     14  C   UNL A   1      33.868  21.714  27.513  1.00  0.00     0.044 C 
ATOM     15  C   UNL A   1      33.657  22.513  26.263  1.00  0.00    -0.050 A 
ATOM     16  C   UNL A   1      33.086  21.916  25.141  1.00  0.00     0.009 A 
ATOM     17  C   UNL A   1      34.036  23.850  26.177  1.00  0.00     0.009 A 
ATOM     18  C   UNL A   1      32.949  22.616  23.926  1.00  0.00    -0.027 A 
ATOM     19  C   UNL A   1      33.922  24.562  24.968  1.00  0.00    -0.027 A 
ATOM     20  C   UNL A   1      32.046  21.989  22.921  1.00  0.00     0.046 C 
ATOM     21  C   UNL A   1      34.325  26.017  24.976  1.00  0.00     0.046 C 
ENDBRANCH  10  13
ENDBRANCH   8   9
ENDBRANCH   7   8
BRANCH   7  22
ATOM     22  N   UNL A   1      29.869  28.153  22.562  1.00  0.00    -0.315 N 
ATOM     23  C   UNL A   1      30.184  29.574  22.279  1.00  0.00     0.325 C 
ATOM     24  C   UNL A   1      28.635  28.133  23.367  1.00  0.00     0.325 C 
ATOM     25  H   UNL A   1      29.669  27.615  21.718  1.00  0.00     0.349 HD
ATOM     26  C   UNL A   1      29.046  30.264  21.498  1.00  0.00     0.324 C 
ATOM     27  C   UNL A   1      27.456  28.876  22.674  1.00  0.00     0.324 C 
ATOM     28  N   UNL A   1      27.726  30.225  22.140  1.00  0.00    -0.328 N 
ATOM     29  C   UNL A   1      27.580  31.263  23.148  1.00  0.00     0.333 C 
ATOM     30  H   UNL A   1      27.018  30.424  21.432  1.00  0.00     0.348 HD
ENDBRANCH   7  22
ENDBRANCH   4   7
ENDBRANCH   2   3
ENDBRANCH   1   2
BRANCH   1  31
ATOM     31  C   UNL A   1      31.788  31.806  26.881  1.00  0.00     0.023 C 
BRANCH  31  32
ATOM     32  C   UNL A   1      32.896  32.730  27.389  1.00  0.00     0.116 C 
BRANCH  32  33
ATOM     33  N   UNL A   1      32.455  34.085  27.688  1.00  0.00    -0.352 N 
ATOM     34  C   UNL A   1      32.981  34.977  28.594  1.00  0.00     0.251 C 
ATOM     35  H   UNL A   1      31.678  34.406  27.175  1.00  0.00     0.163 HD
ATOM     36  O   UNL A   1      32.457  36.071  28.780  1.00  0.00    -0.269 OA
BRANCH  34  37
ATOM     37  C   UNL A   1      34.165  34.581  29.381  1.00  0.00     0.039 A 
ATOM     38  C   UNL A   1      33.979  34.058  30.662  1.00  0.00     0.014 A 
ATOM     39  C   UNL A   1      35.443  34.655  28.821  1.00  0.00     0.014 A 
ATOM     40  C   UNL A   1      35.067  33.522  31.350  1.00  0.00     0.010 A 
ATOM     41  C   UNL A   1      36.514  34.059  29.479  1.00  0.00     0.010 A 
ATOM     42  C   UNL A   1      36.333  33.474  30.744  1.00  0.00    -0.014 A 
BRANCH  42  43
ATOM     43  C   UNL A   1      37.477  32.795  31.403  1.00  0.00     0.031 A 
ATOM     44  C   UNL A   1      38.155  31.636  30.729  1.00  0.00     0.074 A 
ATOM     45  C   UNL A   1      37.849  33.167  32.644  1.00  0.00     0.049 A 
ATOM     46  N   UNL A   1      39.108  30.859  31.177  1.00  0.00    -0.248 NA
ATOM     47  C   UNL A   1      37.675  31.281  29.384  1.00  0.00     0.031 C 
ATOM     48  C   UNL A   1      37.233  34.240  33.428  1.00  0.00     0.029 A 
ATOM     49  N   UNL A   1      38.828  32.676  33.472  1.00  0.00    -0.354 N 
ATOM     50  C   UNL A   1      39.322  29.913  30.185  1.00  0.00     0.074 A 
ATOM     51  C   UNL A   1      38.374  30.184  29.127  1.00  0.00     0.031 C 
ATOM     52  C   UNL A   1      37.862  34.340  34.610  1.00  0.00     0.029 A 
ATOM     53  C   UNL A   1      38.901  33.319  34.685  1.00  0.00     0.049 A 
ATOM     54  H   UNL A   1      39.421  31.931  33.221  1.00  0.00     0.167 HD
ATOM     55  C   UNL A   1      40.242  28.919  30.152  1.00  0.00     0.037 A 
ATOM     56  C   UNL A   1      39.713  33.104  35.737  1.00  0.00     0.037 A 
ATOM     57  C   UNL A   1      41.219  28.685  31.181  1.00  0.00     0.049 A 
ATOM     58  C   UNL A   1      40.741  32.006  35.659  1.00  0.00     0.074 A 
ATOM     59  C   UNL A   1      42.253  27.766  31.193  1.00  0.00     0.029 A 
ATOM     60  N   UNL A   1      41.285  29.380  32.379  1.00  0.00    -0.354 N 
ATOM     61  N   UNL A   1      40.991  31.174  34.678  1.00  0.00    -0.248 NA
ATOM     62  C   UNL A   1      41.602  31.821  36.836  1.00  0.00     0.031 C 
ATOM     63  C   UNL A   1      42.922  27.877  32.418  1.00  0.00     0.029 A 
ATOM     64  C   UNL A   1      42.330  28.894  33.148  1.00  0.00     0.049 A 
ATOM     65  H   UNL A   1      40.680  30.110  32.643  1.00  0.00     0.167 HD
ATOM     66  C   UNL A   1      42.058  30.394  35.102  1.00  0.00     0.074 A 
ATOM     67  C   UNL A   1      42.415  30.858  36.426  1.00  0.00     0.031 C 
ATOM     68  C   UNL A   1      42.685  29.383  34.454  1.00  0.00     0.037 A 
BRANCH  55  69
ATOM     69  C   UNL A   1      40.246  28.012  28.958  1.00  0.00     0.064 A 
ATOM     70  C   UNL A   1      40.973  28.323  27.800  1.00  0.00     0.173 A 
ATOM     71  C   UNL A   1      39.559  26.789  28.995  1.00  0.00     0.173 A 
ATOM     72  F   UNL A   1      41.636  29.486  27.712  1.00  0.00    -0.203 F 
ATOM     73  C   UNL A   1      40.995  27.453  26.713  1.00  0.00     0.198 A 
ATOM     74  C   UNL A   1      39.605  25.909  27.917  1.00  0.00     0.198 A 
ATOM     75  F   UNL A   1      38.853  26.443  30.081  1.00  0.00    -0.203 F 
ATOM     76  F   UNL A   1      41.665  27.788  25.603  1.00  0.00    -0.200 F 
ATOM     77  C   UNL A   1      40.319  26.243  26.776  1.00  0.00     0.200 A 
ATOM     78  F   UNL A   1      38.961  24.735  27.984  1.00  0.00    -0.200 F 
ATOM     79  F   UNL A   1      40.353  25.401  25.734  1.00  0.00    -0.200 F 
ENDBRANCH  55  69
BRANCH  56  80
ATOM     80  C   UNL A   1      39.617  33.960  36.948  1.00  0.00     0.064 A 
ATOM     81  C   UNL A   1      38.835  33.565  38.042  1.00  0.00     0.173 A 
ATOM     82  C   UNL A   1      40.270  35.198  37.027  1.00  0.00     0.173 A 
ATOM     83  F   UNL A   1      38.172  32.399  38.005  1.00  0.00    -0.203 F 
ATOM     84  C   UNL A   1      38.687  34.387  39.157  1.00  0.00     0.198 A 
ATOM     85  C   UNL A   1      40.144  36.007  38.154  1.00  0.00     0.198 A 
ATOM     86  F   UNL A   1      41.033  35.620  36.008  1.00  0.00    -0.203 F 
ATOM     87  F   UNL A   1      37.890  34.008  40.166  1.00  0.00    -0.200 F 
ATOM     88  C   UNL A   1      39.344  35.606  39.213  1.00  0.00     0.200 A 
ATOM     89  F   UNL A   1      40.790  37.180  38.208  1.00  0.00    -0.200 F 
ATOM     90  F   UNL A   1      39.198  36.400  40.283  1.00  0.00    -0.200 F 
ENDBRANCH  56  80
BRANCH  68  91
ATOM     91  C   UNL A   1      43.852  28.742  35.145  1.00  0.00     0.064 A 
ATOM     92  C   UNL A   1      43.687  27.641  35.997  1.00  0.00     0.173 A 
ATOM     93  C   UNL A   1      45.155  29.210  34.915  1.00  0.00     0.173 A 
ATOM     94  F   UNL A   1      42.459  27.169  36.260  1.00  0.00    -0.203 F 
ATOM     95  C   UNL A   1      44.784  27.044  36.612  1.00  0.00     0.198 A 
ATOM     96  C   UNL A   1      46.251  28.593  35.509  1.00  0.00     0.198 A 
ATOM     97  F   UNL A   1      45.363  30.257  34.103  1.00  0.00    -0.203 F 
ATOM     98  F   UNL A   1      44.601  26.020  37.457  1.00  0.00    -0.200 F 
ATOM     99  C   UNL A   1      46.064  27.516  36.362  1.00  0.00     0.200 A 
ATOM    100  F   UNL A   1      47.489  29.042  35.257  1.00  0.00    -0.200 F 
ATOM    101  F   UNL A   1      47.120  26.934  36.949  1.00  0.00    -0.200 F 
ENDBRANCH  68  91
ENDBRANCH  42  43
ENDBRANCH  34  37
ENDBRANCH  32  33
ENDBRANCH  31  32
ENDBRANCH   1  31
TORSDOF 15
ENDMDL
MODEL 2
REMARK VINA RESULT:     -13.4      0.552      7.043
REMARK SMILES Cc1cc(C)c(NC(=O)C[C@H](C(=O)NCCCCNC(=O)c2ccc(-c3c4nc(c(-c5c(F)c(F)c(F)c(F)c5F)c5ccc([nH]5)c(-c5c(F)c(F)c(F)c(F)c5F)c5nc(c(-c6c(F)c(F)c(F)c(F)c6F)c6ccc3[nH]6)C=C5)C=C4)cc2)[NH+]2CC[NH+](C)CC2)c(C)c1
REMARK SMILES IDX 16 1 15 2 14 3 12 4 13 5 11 7 10 8 8 9 7 10 9 12 6 13 1 14
REMARK SMILES IDX 2 15 3 16 94 17 4 18 92 19 5 20 93 21 85 22 86 23 91 24
REMARK SMILES IDX 87 26 90 27 88 28 89 29 17 31 18 32 19 33 20 34 21 36 22 37
REMARK SMILES IDX 23 38 84 39 24 40 83 41 25 42 26 43 27 44 77 45 28 46 82 47
REMARK SMILES IDX 76 48 78 49 29 50 81 51 75 52 74 53 30 55 62 56 42 57 61 58
REMARK SMILES IDX 43 59 46 60 60 61 79 62 44 63 45 64 59 66 80 67 47 68 31 69
REMARK SMILES IDX 32 70 40 71 33 72 34 73 38 74 41 75 35 76 36 77 39 78 37 79
REMARK SMILES IDX 63 80 64 81 72 82 65 83 66 84 70 85 73 86 67 87 68 88 71 89
REMARK SMILES IDX 69 90 48 91 49 92 57 93 50 94 51 95 55 96 58 97 52 98 53 99
REMARK SMILES IDX 56 100 54 101
REMARK H PARENT 14 6 7 11 85 25 88 30 19 35 78 54 46 65
REMARK Flexibility Score: inf
ROOT
ATOM      1  C   UNL A   1      31.840  30.442  26.887  1.00  0.00     0.023 C 
ENDROOT
BRANCH   1   2
ATOM      2  C   UNL A   1      31.960  29.716  25.550  1.00  0.00     0.116 C 
BRANCH   2   3
ATOM      3  N   UNL A   1      31.438  28.360  25.588  1.00  0.00    -0.351 N 
ATOM      4  C   UNL A   1      31.157  27.365  24.707  1.00  0.00     0.278 C 
ATOM      5  O   UNL A   1      30.836  26.315  25.293  1.00  0.00    -0.268 OA
ATOM      6  H   UNL A   1      31.227  28.086  26.510  1.00  0.00     0.163 HD
BRANCH   4   7
ATOM      7  C   UNL A   1      31.060  27.432  23.136  1.00  0.00     0.283 C 
BRANCH   7   8
ATOM      8  C   UNL A   1      31.418  26.190  22.316  1.00  0.00     0.175 C 
BRANCH   8   9
ATOM      9  C   UNL A   1      32.797  25.599  22.002  1.00  0.00     0.230 C 
ATOM     10  N   UNL A   1      33.524  24.624  22.589  1.00  0.00    -0.325 N 
ATOM     11  H   UNL A   1      34.290  24.371  22.024  1.00  0.00     0.169 HD
ATOM     12  O   UNL A   1      33.336  26.050  20.970  1.00  0.00    -0.274 OA
BRANCH  10  13
ATOM     13  C   UNL A   1      33.507  23.864  23.773  1.00  0.00     0.047 A 
ATOM     14  C   UNL A   1      33.955  21.591  27.435  1.00  0.00     0.044 C 
ATOM     15  C   UNL A   1      33.722  22.416  26.206  1.00  0.00    -0.050 A 
ATOM     16  C   UNL A   1      33.161  21.836  25.072  1.00  0.00     0.009 A 
ATOM     17  C   UNL A   1      34.073  23.763  26.153  1.00  0.00     0.009 A 
ATOM     18  C   UNL A   1      33.005  22.563  23.874  1.00  0.00    -0.027 A 
ATOM     19  C   UNL A   1      33.941  24.502  24.962  1.00  0.00    -0.027 A 
ATOM     20  C   UNL A   1      32.112  21.942  22.857  1.00  0.00     0.046 C 
ATOM     21  C   UNL A   1      34.312  25.965  25.006  1.00  0.00     0.046 C 
ENDBRANCH  10  13
ENDBRANCH   8   9
ENDBRANCH   7   8
BRANCH   7  22
ATOM     22  N   UNL A   1      29.889  28.166  22.574  1.00  0.00    -0.315 N 
ATOM     23  C   UNL A   1      30.214  29.588  22.311  1.00  0.00     0.325 C 
ATOM     24  C   UNL A   1      28.635  28.141  23.347  1.00  0.00     0.325 C 
ATOM     25  H   UNL A   1      29.710  27.634  21.722  1.00  0.00     0.349 HD
ATOM     26  C   UNL A   1      29.098  30.286  21.506  1.00  0.00     0.324 C 
ATOM     27  C   UNL A   1      27.475  28.892  22.629  1.00  0.00     0.324 C 
ATOM     28  N   UNL A   1      27.761  30.245  22.113  1.00  0.00    -0.328 N 
ATOM     29  C   UNL A   1      27.592  31.275  23.125  1.00  0.00     0.333 C 
ATOM     30  H   UNL A   1      27.073  30.450  21.388  1.00  0.00     0.348 HD
ENDBRANCH   7  22
ENDBRANCH   4   7
ENDBRANCH   2   3
ENDBRANCH   1   2
BRANCH   1  31
ATOM     31  C   UNL A   1      31.656  31.958  26.768  1.00  0.00     0.023 C 
BRANCH  31  32
ATOM     32  C   UNL A   1      32.825  32.820  27.251  1.00  0.00     0.116 C 
BRANCH  32  33
ATOM     33  N   UNL A   1      32.448  34.168  27.652  1.00  0.00    -0.352 N 
ATOM     34  C   UNL A   1      33.009  34.960  28.627  1.00  0.00     0.251 C 
ATOM     35  H   UNL A   1      31.693  34.566  27.161  1.00  0.00     0.163 HD
ATOM     36  O   UNL A   1      32.538  36.061  28.894  1.00  0.00    -0.269 OA
BRANCH  34  37
ATOM     37  C   UNL A   1      34.165  34.446  29.388  1.00  0.00     0.039 A 
ATOM     38  C   UNL A   1      33.932  33.698  30.544  1.00  0.00     0.014 A 
ATOM     39  C   UNL A   1      35.465  34.637  28.914  1.00  0.00     0.014 A 
ATOM     40  C   UNL A   1      35.000  33.063  31.177  1.00  0.00     0.010 A 
ATOM     41  C   UNL A   1      36.518  33.948  29.507  1.00  0.00     0.010 A 
ATOM     42  C   UNL A   1      36.293  33.143  30.635  1.00  0.00    -0.014 A 
BRANCH  42  43
ATOM     43  C   UNL A   1      37.421  32.372  31.218  1.00  0.00     0.031 A 
ATOM     44  C   UNL A   1      37.942  32.717  32.584  1.00  0.00     0.074 A 
ATOM     45  C   UNL A   1      38.029  31.421  30.482  1.00  0.00     0.049 A 
ATOM     46  N   UNL A   1      38.970  32.223  33.227  1.00  0.00    -0.248 NA
ATOM     47  C   UNL A   1      37.234  33.782  33.312  1.00  0.00     0.031 C 
ATOM     48  C   UNL A   1      37.654  31.033  29.120  1.00  0.00     0.029 A 
ATOM     49  N   UNL A   1      39.102  30.614  30.770  1.00  0.00    -0.354 N 
ATOM     50  C   UNL A   1      39.046  32.932  34.417  1.00  0.00     0.074 A 
ATOM     51  C   UNL A   1      37.988  33.918  34.394  1.00  0.00     0.031 C 
ATOM     52  C   UNL A   1      38.467  30.049  28.702  1.00  0.00     0.029 A 
ATOM     53  C   UNL A   1      39.442  29.760  29.748  1.00  0.00     0.049 A 
ATOM     54  H   UNL A   1      39.584  30.645  31.628  1.00  0.00     0.167 HD
ATOM     55  C   UNL A   1      39.909  32.760  35.447  1.00  0.00     0.037 A 
ATOM     56  C   UNL A   1      40.431  28.851  29.665  1.00  0.00     0.037 A 
ATOM     57  C   UNL A   1      40.926  31.744  35.491  1.00  0.00     0.049 A 
ATOM     58  C   UNL A   1      41.360  28.668  30.837  1.00  0.00     0.074 A 
ATOM     59  C   UNL A   1      41.785  31.429  36.529  1.00  0.00     0.029 A 
ATOM     60  N   UNL A   1      41.217  30.874  34.451  1.00  0.00    -0.354 N 
ATOM     61  N   UNL A   1      41.367  29.286  31.992  1.00  0.00    -0.248 NA
ATOM     62  C   UNL A   1      42.418  27.658  30.691  1.00  0.00     0.031 C 
ATOM     63  C   UNL A   1      42.624  30.394  36.103  1.00  0.00     0.029 A 
ATOM     64  C   UNL A   1      42.259  30.036  34.816  1.00  0.00     0.049 A 
ATOM     65  H   UNL A   1      40.753  30.855  33.583  1.00  0.00     0.167 HD
ATOM     66  C   UNL A   1      42.400  28.716  32.723  1.00  0.00     0.074 A 
ATOM     67  C   UNL A   1      42.994  27.696  31.884  1.00  0.00     0.031 C 
ATOM     68  C   UNL A   1      42.821  29.012  33.976  1.00  0.00     0.037 A 
BRANCH  55  69
ATOM     69  C   UNL A   1      39.789  33.686  36.620  1.00  0.00     0.064 A 
ATOM     70  C   UNL A   1      40.480  34.906  36.670  1.00  0.00     0.173 A 
ATOM     71  C   UNL A   1      38.927  33.376  37.683  1.00  0.00     0.173 A 
ATOM     72  F   UNL A   1      41.325  35.242  35.683  1.00  0.00    -0.203 F 
ATOM     73  C   UNL A   1      40.329  35.771  37.750  1.00  0.00     0.198 A 
ATOM     74  C   UNL A   1      38.758  34.255  38.749  1.00  0.00     0.198 A 
ATOM     75  F   UNL A   1      38.240  32.224  37.681  1.00  0.00    -0.203 F 
ATOM     76  F   UNL A   1      41.029  36.913  37.793  1.00  0.00    -0.200 F 
ATOM     77  C   UNL A   1      39.462  35.449  38.783  1.00  0.00     0.200 A 
ATOM     78  F   UNL A   1      37.911  33.949  39.741  1.00  0.00    -0.200 F 
ATOM     79  F   UNL A   1      39.309  36.289  39.816  1.00  0.00    -0.200 F 
ENDBRANCH  55  69
BRANCH  56  80
ATOM     80  C   UNL A   1      40.586  28.016  28.446  1.00  0.00     0.064 A 
ATOM     81  C   UNL A   1      39.990  26.750  28.365  1.00  0.00     0.173 A 
ATOM     82  C   UNL A   1      41.354  28.446  27.354  1.00  0.00     0.173 A 
ATOM     83  F   UNL A   1      39.265  26.285  29.394  1.00  0.00    -0.203 F 
ATOM     84  C   UNL A   1      40.179  25.933  27.253  1.00  0.00     0.198 A 
ATOM     85  C   UNL A   1      41.520  27.639  26.230  1.00  0.00     0.198 A 
ATOM     86  F   UNL A   1      41.942  29.650  27.379  1.00  0.00    -0.203 F 
ATOM     87  F   UNL A   1      39.642  24.705  27.226  1.00  0.00    -0.200 F 
ATOM     88  C   UNL A   1      40.942  26.379  26.185  1.00  0.00     0.200 A 
ATOM     89  F   UNL A   1      42.249  28.079  25.195  1.00  0.00    -0.200 F 
ATOM     90  F   UNL A   1      41.129  25.592  25.117  1.00  0.00    -0.200 F 
ENDBRANCH  56  80
BRANCH  68  91
ATOM     91  C   UNL A   1      43.946  28.192  34.536  1.00  0.00     0.064 A 
ATOM     92  C   UNL A   1      43.712  26.982  35.203  1.00  0.00     0.173 A 
ATOM     93  C   UNL A   1      45.277  28.604  34.363  1.00  0.00     0.173 A 
ATOM     94  F   UNL A   1      42.456  26.556  35.407  1.00  0.00    -0.203 F 
ATOM     95  C   UNL A   1      44.769  26.223  35.697  1.00  0.00     0.198 A 
ATOM     96  C   UNL A   1      46.331  27.829  34.833  1.00  0.00     0.198 A 
ATOM     97  F   UNL A   1      45.551  29.752  33.725  1.00  0.00    -0.203 F 
ATOM     98  F   UNL A   1      44.521  25.090  36.369  1.00  0.00    -0.200 F 
ATOM     99  C   UNL A   1      46.077  26.643  35.505  1.00  0.00     0.200 A 
ATOM    100  F   UNL A   1      47.596  28.229  34.636  1.00  0.00    -0.200 F 
ATOM    101  F   UNL A   1      47.094  25.906  35.974  1.00  0.00    -0.200 F 
ENDBRANCH  68  91
ENDBRANCH  42  43
ENDBRANCH  34  37
ENDBRANCH  32  33
ENDBRANCH  31  32
ENDBRANCH   1  31
TORSDOF 15
ENDMDL
MODEL 3
REMARK VINA RESULT:     -13.4      5.761     11.358
REMARK SMILES Cc1cc(C)c(NC(=O)C[C@H](C(=O)NCCCCNC(=O)c2ccc(-c3c4nc(c(-c5c(F)c(F)c(F)c(F)c5F)c5ccc([nH]5)c(-c5c(F)c(F)c(F)c(F)c5F)c5nc(c(-c6c(F)c(F)c(F)c(F)c6F)c6ccc3[nH]6)C=C5)C=C4)cc2)[NH+]2CC[NH+](C)CC2)c(C)c1
REMARK SMILES IDX 16 1 15 2 14 3 12 4 13 5 11 7 10 8 8 9 7 10 9 12 6 13 1 14
REMARK SMILES IDX 2 15 3 16 94 17 4 18 92 19 5 20 93 21 85 22 86 23 91 24
REMARK SMILES IDX 87 26 90 27 88 28 89 29 17 31 18 32 19 33 20 34 21 36 22 37
REMARK SMILES IDX 23 38 84 39 24 40 83 41 25 42 26 43 27 44 77 45 28 46 82 47
REMARK SMILES IDX 76 48 78 49 29 50 81 51 75 52 74 53 30 55 62 56 42 57 61 58
REMARK SMILES IDX 43 59 46 60 60 61 79 62 44 63 45 64 59 66 80 67 47 68 31 69
REMARK SMILES IDX 32 70 40 71 33 72 34 73 38 74 41 75 35 76 36 77 39 78 37 79
REMARK SMILES IDX 63 80 64 81 72 82 65 83 66 84 70 85 73 86 67 87 68 88 71 89
REMARK SMILES IDX 69 90 48 91 49 92 57 93 50 94 51 95 55 96 58 97 52 98 53 99
REMARK SMILES IDX 56 100 54 101
REMARK H PARENT 14 6 7 11 85 25 88 30 19 35 78 54 46 65
REMARK Flexibility Score: inf
ROOT
ATOM      1  C   UNL A   1      37.396  21.376  24.608  1.00  0.00     0.023 C 
ENDROOT
BRANCH   1   2
ATOM      2  C   UNL A   1      36.002  21.517  25.214  1.00  0.00     0.116 C 
BRANCH   2   3
ATOM      3  N   UNL A   1      35.046  22.135  24.309  1.00  0.00    -0.351 N 
ATOM      4  C   UNL A   1      33.701  22.296  24.226  1.00  0.00     0.278 C 
ATOM      5  O   UNL A   1      33.389  23.044  23.280  1.00  0.00    -0.268 OA
ATOM      6  H   UNL A   1      35.502  22.552  23.542  1.00  0.00     0.163 HD
BRANCH   4   7
ATOM      7  C   UNL A   1      32.564  21.577  25.045  1.00  0.00     0.283 C 
BRANCH   7   8
ATOM      8  C   UNL A   1      31.307  22.365  25.424  1.00  0.00     0.175 C 
BRANCH   8   9
ATOM      9  C   UNL A   1      31.138  23.478  26.464  1.00  0.00     0.230 C 
ATOM     10  N   UNL A   1      31.252  24.821  26.385  1.00  0.00    -0.325 N 
ATOM     11  H   UNL A   1      30.899  25.250  27.198  1.00  0.00     0.169 HD
ATOM     12  O   UNL A   1      30.757  23.090  27.588  1.00  0.00    -0.274 OA
BRANCH  10  13
ATOM     13  C   UNL A   1      31.728  25.788  25.479  1.00  0.00     0.047 A 
ATOM     14  C   UNL A   1      33.397  28.996  23.091  1.00  0.00     0.044 C 
ATOM     15  C   UNL A   1      32.847  27.826  23.850  1.00  0.00    -0.050 A 
ATOM     16  C   UNL A   1      31.478  27.572  23.844  1.00  0.00     0.009 A 
ATOM     17  C   UNL A   1      33.671  26.982  24.589  1.00  0.00     0.009 A 
ATOM     18  C   UNL A   1      30.920  26.530  24.612  1.00  0.00    -0.027 A 
ATOM     19  C   UNL A   1      33.133  25.945  25.375  1.00  0.00    -0.027 A 
ATOM     20  C   UNL A   1      29.518  26.161  24.273  1.00  0.00     0.046 C 
ATOM     21  C   UNL A   1      34.103  25.057  26.116  1.00  0.00     0.046 C 
ENDBRANCH  10  13
ENDBRANCH   8   9
ENDBRANCH   7   8
BRANCH   7  22
ATOM     22  N   UNL A   1      32.257  20.169  24.659  1.00  0.00    -0.315 N 
ATOM     23  C   UNL A   1      32.981  19.199  25.514  1.00  0.00     0.325 C 
ATOM     24  C   UNL A   1      32.497  19.779  23.258  1.00  0.00     0.325 C 
ATOM     25  H   UNL A   1      31.246  20.141  24.793  1.00  0.00     0.349 HD
ATOM     26  C   UNL A   1      32.481  17.757  25.287  1.00  0.00     0.324 C 
ATOM     27  C   UNL A   1      32.084  18.307  22.968  1.00  0.00     0.324 C 
ATOM     28  N   UNL A   1      32.564  17.271  23.903  1.00  0.00    -0.328 N 
ATOM     29  C   UNL A   1      33.898  16.796  23.573  1.00  0.00     0.333 C 
ATOM     30  H   UNL A   1      31.949  16.462  23.809  1.00  0.00     0.348 HD
ENDBRANCH   7  22
ENDBRANCH   4   7
ENDBRANCH   2   3
ENDBRANCH   1   2
BRANCH   1  31
ATOM     31  C   UNL A   1      38.133  20.095  25.010  1.00  0.00     0.023 C 
BRANCH  31  32
ATOM     32  C   UNL A   1      39.398  20.280  25.851  1.00  0.00     0.116 C 
BRANCH  32  33
ATOM     33  N   UNL A   1      40.288  19.128  25.853  1.00  0.00    -0.352 N 
ATOM     34  C   UNL A   1      41.642  19.093  26.095  1.00  0.00     0.251 C 
ATOM     35  H   UNL A   1      39.867  18.260  25.657  1.00  0.00     0.163 HD
ATOM     36  O   UNL A   1      42.273  18.045  26.000  1.00  0.00    -0.269 OA
BRANCH  34  37
ATOM     37  C   UNL A   1      42.342  20.350  26.427  1.00  0.00     0.039 A 
ATOM     38  C   UNL A   1      42.981  21.055  25.405  1.00  0.00     0.014 A 
ATOM     39  C   UNL A   1      42.296  20.863  27.725  1.00  0.00     0.014 A 
ATOM     40  C   UNL A   1      43.498  22.324  25.666  1.00  0.00     0.010 A 
ATOM     41  C   UNL A   1      42.751  22.155  27.967  1.00  0.00     0.010 A 
ATOM     42  C   UNL A   1      43.343  22.903  26.936  1.00  0.00    -0.014 A 
BRANCH  42  43
ATOM     43  C   UNL A   1      43.770  24.300  27.202  1.00  0.00     0.031 A 
ATOM     44  C   UNL A   1      42.771  25.315  27.682  1.00  0.00     0.074 A 
ATOM     45  C   UNL A   1      45.036  24.673  26.930  1.00  0.00     0.049 A 
ATOM     46  N   UNL A   1      42.927  26.598  27.886  1.00  0.00    -0.248 NA
ATOM     47  C   UNL A   1      41.405  24.829  27.935  1.00  0.00     0.031 C 
ATOM     48  C   UNL A   1      46.086  23.796  26.406  1.00  0.00     0.029 A 
ATOM     49  N   UNL A   1      45.655  25.894  27.044  1.00  0.00    -0.354 N 
ATOM     50  C   UNL A   1      41.681  27.075  28.264  1.00  0.00     0.074 A 
ATOM     51  C   UNL A   1      40.767  25.954  28.223  1.00  0.00     0.031 C 
ATOM     52  C   UNL A   1      47.221  24.500  26.267  1.00  0.00     0.029 A 
ATOM     53  C   UNL A   1      46.974  25.884  26.656  1.00  0.00     0.049 A 
ATOM     54  H   UNL A   1      45.196  26.702  27.372  1.00  0.00     0.167 HD
ATOM     55  C   UNL A   1      41.334  28.331  28.632  1.00  0.00     0.037 A 
ATOM     56  C   UNL A   1      47.878  26.881  26.616  1.00  0.00     0.037 A 
ATOM     57  C   UNL A   1      42.255  29.432  28.724  1.00  0.00     0.049 A 
ATOM     58  C   UNL A   1      47.467  28.262  27.055  1.00  0.00     0.074 A 
ATOM     59  C   UNL A   1      42.020  30.717  29.179  1.00  0.00     0.029 A 
ATOM     60  N   UNL A   1      43.591  29.375  28.356  1.00  0.00    -0.354 N 
ATOM     61  N   UNL A   1      46.305  28.681  27.494  1.00  0.00    -0.248 NA
ATOM     62  C   UNL A   1      48.497  29.309  26.994  1.00  0.00     0.031 C 
ATOM     63  C   UNL A   1      43.204  31.450  29.049  1.00  0.00     0.029 A 
ATOM     64  C   UNL A   1      44.187  30.609  28.554  1.00  0.00     0.049 A 
ATOM     65  H   UNL A   1      44.048  28.576  28.007  1.00  0.00     0.167 HD
ATOM     66  C   UNL A   1      46.473  30.025  27.796  1.00  0.00     0.074 A 
ATOM     67  C   UNL A   1      47.852  30.352  27.499  1.00  0.00     0.031 C 
ATOM     68  C   UNL A   1      45.567  30.910  28.274  1.00  0.00     0.037 A 
BRANCH  55  69
ATOM     69  C   UNL A   1      39.897  28.587  28.975  1.00  0.00     0.064 A 
ATOM     70  C   UNL A   1      39.400  28.373  30.269  1.00  0.00     0.173 A 
ATOM     71  C   UNL A   1      39.019  29.105  28.012  1.00  0.00     0.173 A 
ATOM     72  F   UNL A   1      40.198  27.867  31.223  1.00  0.00    -0.203 F 
ATOM     73  C   UNL A   1      38.072  28.649  30.581  1.00  0.00     0.198 A 
ATOM     74  C   UNL A   1      37.698  29.405  28.334  1.00  0.00     0.198 A 
ATOM     75  F   UNL A   1      39.446  29.332  26.761  1.00  0.00    -0.203 F 
ATOM     76  F   UNL A   1      37.610  28.400  31.814  1.00  0.00    -0.200 F 
ATOM     77  C   UNL A   1      37.225  29.173  29.616  1.00  0.00     0.200 A 
ATOM     78  F   UNL A   1      36.884  29.922  27.403  1.00  0.00    -0.200 F 
ATOM     79  F   UNL A   1      35.950  29.450  29.922  1.00  0.00    -0.200 F 
ENDBRANCH  55  69
BRANCH  56  80
ATOM     80  C   UNL A   1      49.272  26.615  26.175  1.00  0.00     0.064 A 
ATOM     81  C   UNL A   1      50.230  26.139  27.080  1.00  0.00     0.173 A 
ATOM     82  C   UNL A   1      49.684  26.862  24.858  1.00  0.00     0.173 A 
ATOM     83  F   UNL A   1      49.889  25.910  28.357  1.00  0.00    -0.203 F 
ATOM     84  C   UNL A   1      51.554  25.945  26.693  1.00  0.00     0.198 A 
ATOM     85  C   UNL A   1      51.003  26.642  24.465  1.00  0.00     0.198 A 
ATOM     86  F   UNL A   1      48.805  27.315  23.952  1.00  0.00    -0.203 F 
ATOM     87  F   UNL A   1      52.461  25.540  27.593  1.00  0.00    -0.200 F 
ATOM     88  C   UNL A   1      51.939  26.194  25.385  1.00  0.00     0.200 A 
ATOM     89  F   UNL A   1      51.368  26.873  23.196  1.00  0.00    -0.200 F 
ATOM     90  F   UNL A   1      53.213  26.014  25.013  1.00  0.00    -0.200 F 
ENDBRANCH  56  80
BRANCH  68  91
ATOM     91  C   UNL A   1      46.046  32.304  28.554  1.00  0.00     0.064 A 
ATOM     92  C   UNL A   1      45.972  33.315  27.585  1.00  0.00     0.173 A 
ATOM     93  C   UNL A   1      46.546  32.639  29.822  1.00  0.00     0.173 A 
ATOM     94  F   UNL A   1      45.518  33.037  26.354  1.00  0.00    -0.203 F 
ATOM     95  C   UNL A   1      46.402  34.608  27.869  1.00  0.00     0.198 A 
ATOM     96  C   UNL A   1      46.948  33.939  30.110  1.00  0.00     0.198 A 
ATOM     97  F   UNL A   1      46.630  31.708  30.783  1.00  0.00    -0.203 F 
ATOM     98  F   UNL A   1      46.363  35.549  26.916  1.00  0.00    -0.200 F 
ATOM     99  C   UNL A   1      46.882  34.920  29.133  1.00  0.00     0.200 A 
ATOM    100  F   UNL A   1      47.399  34.243  31.335  1.00  0.00    -0.200 F 
ATOM    101  F   UNL A   1      47.287  36.169  29.406  1.00  0.00    -0.200 F 
ENDBRANCH  68  91
ENDBRANCH  42  43
ENDBRANCH  34  37
ENDBRANCH  32  33
ENDBRANCH  31  32
ENDBRANCH   1  31
TORSDOF 15
ENDMDL
