MODEL 1
REMARK VINA RESULT:     -12.0      0.000      0.000
REMARK SMILES C[C@@H]1C[C@@H](C)C[NH+](C(C)(C)C(=O)NCCCCNC(=O)c2ccc(-c3c4nc(c(-c5c(F)c(F)c(F)c(F)c5F)c5ccc([nH]5)c(-c5c(F)c(F)c(F)c(F)c5F)c5nc(c(-c6c(F)c(F)c(F)c(F)c6F)c6ccc3[nH]6)C=C5)C=C4)cc2)C1
REMARK SMILES IDX 16 1 15 2 14 3 13 4 11 5 12 6 8 8 9 9 10 10 7 11 1 12 2 13
REMARK SMILES IDX 3 14 84 15 4 16 6 17 5 18 17 20 18 21 19 22 20 24 21 25
REMARK SMILES IDX 22 26 83 27 23 28 82 29 24 30 25 31 26 32 76 33 27 34 81 35
REMARK SMILES IDX 75 36 77 37 28 38 80 39 74 40 73 41 29 43 61 44 41 45 60 46
REMARK SMILES IDX 42 47 45 48 59 49 78 50 43 51 44 52 58 54 79 55 46 56 30 57
REMARK SMILES IDX 31 58 39 59 32 60 33 61 37 62 40 63 34 64 35 65 38 66 36 67
REMARK SMILES IDX 62 68 63 69 71 70 64 71 65 72 69 73 72 74 66 75 67 76 70 77
REMARK SMILES IDX 68 78 47 79 48 80 56 81 49 82 50 83 54 84 57 85 51 86 52 87
REMARK SMILES IDX 55 88 53 89
REMARK H PARENT 13 7 7 19 18 23 77 42 45 53
REMARK Flexibility Score: inf
ROOT
ATOM      1  C   UNL A   1      31.417  32.027  27.089  1.00  0.00     0.023 C 
ENDROOT
BRANCH   1   2
ATOM      2  C   UNL A   1      31.375  31.132  25.853  1.00  0.00     0.023 C 
BRANCH   2   3
ATOM      3  C   UNL A   1      32.344  29.952  25.884  1.00  0.00     0.116 C 
BRANCH   3   4
ATOM      4  N   UNL A   1      33.005  29.768  24.605  1.00  0.00    -0.351 N 
ATOM      5  C   UNL A   1      32.805  28.887  23.578  1.00  0.00     0.280 C 
ATOM      6  O   UNL A   1      33.709  28.882  22.735  1.00  0.00    -0.268 OA
ATOM      7  H   UNL A   1      33.743  30.400  24.447  1.00  0.00     0.163 HD
BRANCH   5   8
ATOM      8  C   UNL A   1      31.532  27.952  23.501  1.00  0.00     0.171 C 
ATOM      9  C   UNL A   1      31.397  27.115  24.793  1.00  0.00     0.090 C 
ATOM     10  C   UNL A   1      31.735  27.057  22.254  1.00  0.00     0.090 C 
BRANCH   8  11
ATOM     11  N   UNL A   1      30.275  28.775  23.283  1.00  0.00    -0.322 N 
ATOM     12  C   UNL A   1      29.248  31.704  22.917  1.00  0.00     0.013 C 
ATOM     13  C   UNL A   1      29.097  30.541  21.934  1.00  0.00     0.042 C 
ATOM     14  C   UNL A   1      27.772  29.799  22.125  1.00  0.00     0.018 C 
ATOM     15  C   UNL A   1      30.277  29.559  22.032  1.00  0.00     0.266 C 
ATOM     16  C   UNL A   1      27.789  28.928  23.384  1.00  0.00     0.042 C 
ATOM     17  C   UNL A   1      29.019  28.002  23.377  1.00  0.00     0.266 C 
ATOM     18  C   UNL A   1      26.497  28.118  23.487  1.00  0.00     0.013 C 
ATOM     19  H   UNL A   1      30.302  29.428  24.067  1.00  0.00     0.349 HD
ENDBRANCH   8  11
ENDBRANCH   5   8
ENDBRANCH   3   4
ENDBRANCH   2   3
ENDBRANCH   1   2
BRANCH   1  20
ATOM     20  C   UNL A   1      32.681  32.863  27.237  1.00  0.00     0.116 C 
BRANCH  20  21
ATOM     21  N   UNL A   1      32.417  34.238  27.638  1.00  0.00    -0.352 N 
ATOM     22  C   UNL A   1      33.026  34.984  28.617  1.00  0.00     0.251 C 
ATOM     23  H   UNL A   1      31.704  34.696  27.136  1.00  0.00     0.163 HD
ATOM     24  O   UNL A   1      32.602  36.099  28.906  1.00  0.00    -0.269 OA
BRANCH  22  25
ATOM     25  C   UNL A   1      34.176  34.415  29.346  1.00  0.00     0.039 A 
ATOM     26  C   UNL A   1      33.938  33.667  30.501  1.00  0.00     0.014 A 
ATOM     27  C   UNL A   1      35.476  34.581  28.862  1.00  0.00     0.014 A 
ATOM     28  C   UNL A   1      35.002  33.022  31.131  1.00  0.00     0.010 A 
ATOM     29  C   UNL A   1      36.521  33.874  29.446  1.00  0.00     0.010 A 
ATOM     30  C   UNL A   1      36.295  33.087  30.585  1.00  0.00    -0.014 A 
BRANCH  30  31
ATOM     31  C   UNL A   1      37.424  32.337  31.187  1.00  0.00     0.031 A 
ATOM     32  C   UNL A   1      37.918  32.698  32.560  1.00  0.00     0.074 A 
ATOM     33  C   UNL A   1      38.049  31.382  30.471  1.00  0.00     0.049 A 
ATOM     34  N   UNL A   1      38.936  32.216  33.228  1.00  0.00    -0.248 NA
ATOM     35  C   UNL A   1      37.189  33.763  33.267  1.00  0.00     0.031 C 
ATOM     36  C   UNL A   1      37.695  30.976  29.109  1.00  0.00     0.029 A 
ATOM     37  N   UNL A   1      39.122  30.585  30.783  1.00  0.00    -0.354 N 
ATOM     38  C   UNL A   1      38.980  32.932  34.416  1.00  0.00     0.074 A 
ATOM     39  C   UNL A   1      37.919  33.914  34.361  1.00  0.00     0.031 C 
ATOM     40  C   UNL A   1      38.517  29.991  28.714  1.00  0.00     0.029 A 
ATOM     41  C   UNL A   1      39.482  29.722  29.776  1.00  0.00     0.049 A 
ATOM     42  H   UNL A   1      39.590  30.628  31.649  1.00  0.00     0.167 HD
ATOM     43  C   UNL A   1      39.817  32.769  35.468  1.00  0.00     0.037 A 
ATOM     44  C   UNL A   1      40.482  28.822  29.717  1.00  0.00     0.037 A 
ATOM     45  C   UNL A   1      40.845  31.765  35.535  1.00  0.00     0.049 A 
ATOM     46  C   UNL A   1      41.396  28.664  30.903  1.00  0.00     0.074 A 
ATOM     47  C   UNL A   1      41.690  31.466  36.587  1.00  0.00     0.029 A 
ATOM     48  N   UNL A   1      41.165  30.894  34.503  1.00  0.00    -0.354 N 
ATOM     49  N   UNL A   1      41.375  29.289  32.055  1.00  0.00    -0.248 NA
ATOM     50  C   UNL A   1      42.470  27.668  30.782  1.00  0.00     0.031 C 
ATOM     51  C   UNL A   1      42.556  30.447  36.177  1.00  0.00     0.029 A 
ATOM     52  C   UNL A   1      42.214  30.075  34.887  1.00  0.00     0.049 A 
ATOM     53  H   UNL A   1      40.714  30.863  33.628  1.00  0.00     0.167 HD
ATOM     54  C   UNL A   1      42.405  28.740  32.807  1.00  0.00     0.074 A 
ATOM     55  C   UNL A   1      43.023  27.720  31.986  1.00  0.00     0.031 C 
ATOM     56  C   UNL A   1      42.804  29.051  34.064  1.00  0.00     0.037 A 
BRANCH  43  57
ATOM     57  C   UNL A   1      39.657  33.692  36.640  1.00  0.00     0.064 A 
ATOM     58  C   UNL A   1      40.258  34.959  36.667  1.00  0.00     0.173 A 
ATOM     59  C   UNL A   1      38.844  33.328  37.724  1.00  0.00     0.173 A 
ATOM     60  F   UNL A   1      41.054  35.351  35.661  1.00  0.00    -0.203 F 
ATOM     61  C   UNL A   1      40.069  35.819  37.746  1.00  0.00     0.198 A 
ATOM     62  C   UNL A   1      38.633  34.203  38.787  1.00  0.00     0.198 A 
ATOM     63  F   UNL A   1      38.242  32.129  37.746  1.00  0.00    -0.203 F 
ATOM     64  F   UNL A   1      40.686  37.009  37.768  1.00  0.00    -0.200 F 
ATOM     65  C   UNL A   1      39.249  35.444  38.800  1.00  0.00     0.200 A 
ATOM     66  F   UNL A   1      37.830  33.843  39.798  1.00  0.00    -0.200 F 
ATOM     67  F   UNL A   1      39.056  36.279  39.830  1.00  0.00    -0.200 F 
ENDBRANCH  43  57
BRANCH  44  68
ATOM     68  C   UNL A   1      40.666  27.981  28.505  1.00  0.00     0.064 A 
ATOM     69  C   UNL A   1      41.432  28.437  27.424  1.00  0.00     0.173 A 
ATOM     70  C   UNL A   1      40.056  26.723  28.387  1.00  0.00     0.173 A 
ATOM     71  F   UNL A   1      42.018  29.642  27.480  1.00  0.00    -0.203 F 
ATOM     72  C   UNL A   1      41.556  27.683  26.258  1.00  0.00     0.198 A 
ATOM     73  C   UNL A   1      40.207  25.956  27.232  1.00  0.00     0.198 A 
ATOM     74  F   UNL A   1      39.316  26.237  29.393  1.00  0.00    -0.203 F 
ATOM     75  F   UNL A   1      42.246  28.172  25.219  1.00  0.00    -0.200 F 
ATOM     76  C   UNL A   1      40.946  26.442  26.165  1.00  0.00     0.200 A 
ATOM     77  F   UNL A   1      39.626  24.752  27.151  1.00  0.00    -0.200 F 
ATOM     78  F   UNL A   1      41.062  25.719  25.042  1.00  0.00    -0.200 F 
ENDBRANCH  44  68
BRANCH  56  79
ATOM     79  C   UNL A   1      43.931  28.250  34.648  1.00  0.00     0.064 A 
ATOM     80  C   UNL A   1      43.704  27.043  35.325  1.00  0.00     0.173 A 
ATOM     81  C   UNL A   1      45.257  28.678  34.492  1.00  0.00     0.173 A 
ATOM     82  F   UNL A   1      42.452  26.599  35.514  1.00  0.00    -0.203 F 
ATOM     83  C   UNL A   1      44.764  26.306  35.846  1.00  0.00     0.198 A 
ATOM     84  C   UNL A   1      46.317  27.922  34.986  1.00  0.00     0.198 A 
ATOM     85  F   UNL A   1      45.529  29.823  33.846  1.00  0.00    -0.203 F 
ATOM     86  F   UNL A   1      44.522  25.180  36.531  1.00  0.00    -0.200 F 
ATOM     87  C   UNL A   1      46.069  26.742  35.669  1.00  0.00     0.200 A 
ATOM     88  F   UNL A   1      47.578  28.338  34.801  1.00  0.00    -0.200 F 
ATOM     89  F   UNL A   1      47.088  26.027  36.164  1.00  0.00    -0.200 F 
ENDBRANCH  56  79
ENDBRANCH  30  31
ENDBRANCH  22  25
ENDBRANCH  20  21
ENDBRANCH   1  20
TORSDOF 12
ENDMDL
MODEL 2
REMARK VINA RESULT:     -12.0      1.184      7.843
REMARK SMILES C[C@@H]1C[C@@H](C)C[NH+](C(C)(C)C(=O)NCCCCNC(=O)c2ccc(-c3c4nc(c(-c5c(F)c(F)c(F)c(F)c5F)c5ccc([nH]5)c(-c5c(F)c(F)c(F)c(F)c5F)c5nc(c(-c6c(F)c(F)c(F)c(F)c6F)c6ccc3[nH]6)C=C5)C=C4)cc2)C1
REMARK SMILES IDX 16 1 15 2 14 3 13 4 11 5 12 6 8 8 9 9 10 10 7 11 1 12 2 13
REMARK SMILES IDX 3 14 84 15 4 16 6 17 5 18 17 20 18 21 19 22 20 24 21 25
REMARK SMILES IDX 22 26 83 27 23 28 82 29 24 30 25 31 26 32 76 33 27 34 81 35
REMARK SMILES IDX 75 36 77 37 28 38 80 39 74 40 73 41 29 43 61 44 41 45 60 46
REMARK SMILES IDX 42 47 45 48 59 49 78 50 43 51 44 52 58 54 79 55 46 56 30 57
REMARK SMILES IDX 31 58 39 59 32 60 33 61 37 62 40 63 34 64 35 65 38 66 36 67
REMARK SMILES IDX 62 68 63 69 71 70 64 71 65 72 69 73 72 74 66 75 67 76 70 77
REMARK SMILES IDX 68 78 47 79 48 80 56 81 49 82 50 83 54 84 57 85 51 86 52 87
REMARK SMILES IDX 55 88 53 89
REMARK H PARENT 13 7 7 19 18 23 77 42 45 53
REMARK Flexibility Score: inf
ROOT
ATOM      1  C   UNL A   1      31.609  32.061  26.502  1.00  0.00     0.023 C 
ENDROOT
BRANCH   1   2
ATOM      2  C   UNL A   1      31.657  30.535  26.516  1.00  0.00     0.023 C 
BRANCH   2   3
ATOM      3  C   UNL A   1      32.276  29.902  25.272  1.00  0.00     0.116 C 
BRANCH   3   4
ATOM      4  N   UNL A   1      31.292  29.713  24.221  1.00  0.00    -0.351 N 
ATOM      5  C   UNL A   1      31.259  28.902  23.120  1.00  0.00     0.280 C 
ATOM      6  O   UNL A   1      30.353  29.172  22.323  1.00  0.00    -0.268 OA
ATOM      7  H   UNL A   1      30.493  30.279  24.321  1.00  0.00     0.163 HD
BRANCH   5   8
ATOM      8  C   UNL A   1      32.307  27.740  22.892  1.00  0.00     0.171 C 
ATOM      9  C   UNL A   1      33.642  28.312  22.365  1.00  0.00     0.090 C 
ATOM     10  C   UNL A   1      31.655  26.771  21.877  1.00  0.00     0.090 C 
BRANCH   8  11
ATOM     11  N   UNL A   1      32.545  26.974  24.181  1.00  0.00    -0.322 N 
ATOM     12  C   UNL A   1      31.677  26.812  27.179  1.00  0.00     0.013 C 
ATOM     13  C   UNL A   1      31.554  25.715  26.120  1.00  0.00     0.042 C 
ATOM     14  C   UNL A   1      32.762  24.776  26.126  1.00  0.00     0.018 C 
ATOM     15  C   UNL A   1      31.342  26.303  24.715  1.00  0.00     0.266 C 
ATOM     16  C   UNL A   1      33.996  25.441  25.508  1.00  0.00     0.042 C 
ATOM     17  C   UNL A   1      33.658  26.004  24.115  1.00  0.00     0.266 C 
ATOM     18  C   UNL A   1      35.152  24.445  25.427  1.00  0.00     0.013 C 
ATOM     19  H   UNL A   1      32.810  27.714  24.832  1.00  0.00     0.349 HD
ENDBRANCH   8  11
ENDBRANCH   5   8
ENDBRANCH   3   4
ENDBRANCH   2   3
ENDBRANCH   1   2
BRANCH   1  20
ATOM     20  C   UNL A   1      32.683  32.747  27.335  1.00  0.00     0.116 C 
BRANCH  20  21
ATOM     21  N   UNL A   1      32.378  34.141  27.631  1.00  0.00    -0.352 N 
ATOM     22  C   UNL A   1      32.969  34.978  28.544  1.00  0.00     0.251 C 
ATOM     23  H   UNL A   1      31.647  34.536  27.102  1.00  0.00     0.163 HD
ATOM     24  O   UNL A   1      32.512  36.098  28.751  1.00  0.00    -0.269 OA
BRANCH  22  25
ATOM     25  C   UNL A   1      34.140  34.503  29.305  1.00  0.00     0.039 A 
ATOM     26  C   UNL A   1      33.942  33.944  30.569  1.00  0.00     0.014 A 
ATOM     27  C   UNL A   1      35.421  34.567  28.751  1.00  0.00     0.014 A 
ATOM     28  C   UNL A   1      35.022  33.380  31.248  1.00  0.00     0.010 A 
ATOM     29  C   UNL A   1      36.480  33.936  29.393  1.00  0.00     0.010 A 
ATOM     30  C   UNL A   1      36.291  33.335  30.647  1.00  0.00    -0.014 A 
BRANCH  30  31
ATOM     31  C   UNL A   1      37.434  32.662  31.311  1.00  0.00     0.031 A 
ATOM     32  C   UNL A   1      38.130  31.517  30.629  1.00  0.00     0.074 A 
ATOM     33  C   UNL A   1      37.797  33.033  32.555  1.00  0.00     0.049 A 
ATOM     34  N   UNL A   1      39.096  30.752  31.074  1.00  0.00    -0.248 NA
ATOM     35  C   UNL A   1      37.662  31.166  29.279  1.00  0.00     0.031 C 
ATOM     36  C   UNL A   1      37.165  34.096  33.340  1.00  0.00     0.029 A 
ATOM     37  N   UNL A   1      38.779  32.550  33.384  1.00  0.00    -0.354 N 
ATOM     38  C   UNL A   1      39.331  29.822  30.070  1.00  0.00     0.074 A 
ATOM     39  C   UNL A   1      38.378  30.085  29.014  1.00  0.00     0.031 C 
ATOM     40  C   UNL A   1      37.790  34.201  34.523  1.00  0.00     0.029 A 
ATOM     41  C   UNL A   1      38.840  33.190  34.598  1.00  0.00     0.049 A 
ATOM     42  H   UNL A   1      39.383  31.816  33.130  1.00  0.00     0.167 HD
ATOM     43  C   UNL A   1      40.273  28.851  30.026  1.00  0.00     0.037 A 
ATOM     44  C   UNL A   1      39.648  32.976  35.654  1.00  0.00     0.037 A 
ATOM     45  C   UNL A   1      41.245  28.619  31.061  1.00  0.00     0.049 A 
ATOM     46  C   UNL A   1      40.686  31.888  35.574  1.00  0.00     0.074 A 
ATOM     47  C   UNL A   1      42.290  27.714  31.074  1.00  0.00     0.029 A 
ATOM     48  N   UNL A   1      41.290  29.301  32.268  1.00  0.00    -0.354 N 
ATOM     49  N   UNL A   1      40.954  31.069  34.586  1.00  0.00    -0.248 NA
ATOM     50  C   UNL A   1      41.539  31.700  36.756  1.00  0.00     0.031 C 
ATOM     51  C   UNL A   1      42.938  27.813  32.309  1.00  0.00     0.029 A 
ATOM     52  C   UNL A   1      42.330  28.817  33.044  1.00  0.00     0.049 A 
ATOM     53  H   UNL A   1      40.673  30.021  32.534  1.00  0.00     0.167 HD
ATOM     54  C   UNL A   1      42.026  30.296  35.011  1.00  0.00     0.074 A 
ATOM     55  C   UNL A   1      42.368  30.752  36.342  1.00  0.00     0.031 C 
ATOM     56  C   UNL A   1      42.669  29.297  34.359  1.00  0.00     0.037 A 
BRANCH  43  57
ATOM     57  C   UNL A   1      40.308  27.964  28.816  1.00  0.00     0.064 A 
ATOM     58  C   UNL A   1      41.057  28.299  27.678  1.00  0.00     0.173 A 
ATOM     59  C   UNL A   1      39.630  26.735  28.817  1.00  0.00     0.173 A 
ATOM     60  F   UNL A   1      41.713  29.468  27.622  1.00  0.00    -0.203 F 
ATOM     61  C   UNL A   1      41.110  27.447  26.578  1.00  0.00     0.198 A 
ATOM     62  C   UNL A   1      39.710  25.872  27.727  1.00  0.00     0.198 A 
ATOM     63  F   UNL A   1      38.903  26.364  29.881  1.00  0.00    -0.203 F 
ATOM     64  F   UNL A   1      41.799  27.807  25.487  1.00  0.00    -0.200 F 
ATOM     65  C   UNL A   1      40.444  26.231  26.607  1.00  0.00     0.200 A 
ATOM     66  F   UNL A   1      39.077  24.692  27.762  1.00  0.00    -0.200 F 
ATOM     67  F   UNL A   1      40.508  25.405  25.553  1.00  0.00    -0.200 F 
ENDBRANCH  43  57
BRANCH  44  68
ATOM     68  C   UNL A   1      39.531  33.819  36.874  1.00  0.00     0.064 A 
ATOM     69  C   UNL A   1      38.745  33.407  37.959  1.00  0.00     0.173 A 
ATOM     70  C   UNL A   1      40.171  35.064  36.968  1.00  0.00     0.173 A 
ATOM     71  F   UNL A   1      38.097  32.234  37.908  1.00  0.00    -0.203 F 
ATOM     72  C   UNL A   1      38.578  34.220  39.078  1.00  0.00     0.198 A 
ATOM     73  C   UNL A   1      40.027  35.862  38.102  1.00  0.00     0.198 A 
ATOM     74  F   UNL A   1      40.937  35.504  35.960  1.00  0.00    -0.203 F 
ATOM     75  F   UNL A   1      37.774  33.825  40.074  1.00  0.00    -0.200 F 
ATOM     76  C   UNL A   1      39.222  35.445  39.150  1.00  0.00     0.200 A 
ATOM     77  F   UNL A   1      40.662  37.040  38.172  1.00  0.00    -0.200 F 
ATOM     78  F   UNL A   1      39.057  36.228  40.225  1.00  0.00    -0.200 F 
ENDBRANCH  44  68
BRANCH  56  79
ATOM     79  C   UNL A   1      43.838  28.661  35.053  1.00  0.00     0.064 A 
ATOM     80  C   UNL A   1      43.686  27.533  35.871  1.00  0.00     0.173 A 
ATOM     81  C   UNL A   1      45.133  29.166  34.861  1.00  0.00     0.173 A 
ATOM     82  F   UNL A   1      42.467  27.022  36.097  1.00  0.00    -0.203 F 
ATOM     83  C   UNL A   1      44.786  26.948  36.493  1.00  0.00     0.198 A 
ATOM     84  C   UNL A   1      46.234  28.560  35.459  1.00  0.00     0.198 A 
ATOM     85  F   UNL A   1      45.333  30.240  34.081  1.00  0.00    -0.203 F 
ATOM     86  F   UNL A   1      44.612  25.900  37.309  1.00  0.00    -0.200 F 
ATOM     87  C   UNL A   1      46.059  27.457  36.280  1.00  0.00     0.200 A 
ATOM     88  F   UNL A   1      47.464  29.044  35.240  1.00  0.00    -0.200 F 
ATOM     89  F   UNL A   1      47.117  26.887  36.874  1.00  0.00    -0.200 F 
ENDBRANCH  56  79
ENDBRANCH  30  31
ENDBRANCH  22  25
ENDBRANCH  20  21
ENDBRANCH   1  20
TORSDOF 12
ENDMDL
MODEL 3
REMARK VINA RESULT:     -12.0      1.289      7.937
REMARK SMILES C[C@@H]1C[C@@H](C)C[NH+](C(C)(C)C(=O)NCCCCNC(=O)c2ccc(-c3c4nc(c(-c5c(F)c(F)c(F)c(F)c5F)c5ccc([nH]5)c(-c5c(F)c(F)c(F)c(F)c5F)c5nc(c(-c6c(F)c(F)c(F)c(F)c6F)c6ccc3[nH]6)C=C5)C=C4)cc2)C1
REMARK SMILES IDX 16 1 15 2 14 3 13 4 11 5 12 6 8 8 9 9 10 10 7 11 1 12 2 13
REMARK SMILES IDX 3 14 84 15 4 16 6 17 5 18 17 20 18 21 19 22 20 24 21 25
REMARK SMILES IDX 22 26 83 27 23 28 82 29 24 30 25 31 26 32 76 33 27 34 81 35
REMARK SMILES IDX 75 36 77 37 28 38 80 39 74 40 73 41 29 43 61 44 41 45 60 46
REMARK SMILES IDX 42 47 45 48 59 49 78 50 43 51 44 52 58 54 79 55 46 56 30 57
REMARK SMILES IDX 31 58 39 59 32 60 33 61 37 62 40 63 34 64 35 65 38 66 36 67
REMARK SMILES IDX 62 68 63 69 71 70 64 71 65 72 69 73 72 74 66 75 67 76 70 77
REMARK SMILES IDX 68 78 47 79 48 80 56 81 49 82 50 83 54 84 57 85 51 86 52 87
REMARK SMILES IDX 55 88 53 89
REMARK H PARENT 13 7 7 19 18 23 77 42 45 53
REMARK Flexibility Score: inf
ROOT
ATOM      1  C   UNL A   1      31.673  31.940  26.566  1.00  0.00     0.023 C 
ENDROOT
BRANCH   1   2
ATOM      2  C   UNL A   1      31.821  30.421  26.529  1.00  0.00     0.023 C 
BRANCH   2   3
ATOM      3  C   UNL A   1      32.447  29.869  25.250  1.00  0.00     0.116 C 
BRANCH   3   4
ATOM      4  N   UNL A   1      31.470  29.754  24.182  1.00  0.00    -0.351 N 
ATOM      5  C   UNL A   1      31.403  28.958  23.072  1.00  0.00     0.280 C 
ATOM      6  O   UNL A   1      30.530  29.294  22.263  1.00  0.00    -0.268 OA
ATOM      7  H   UNL A   1      30.708  30.369  24.275  1.00  0.00     0.163 HD
BRANCH   5   8
ATOM      8  C   UNL A   1      32.378  27.733  22.848  1.00  0.00     0.171 C 
ATOM      9  C   UNL A   1      33.739  28.218  22.302  1.00  0.00     0.090 C 
ATOM     10  C   UNL A   1      31.659  26.793  21.850  1.00  0.00     0.090 C 
BRANCH   8  11
ATOM     11  N   UNL A   1      32.583  26.969  24.144  1.00  0.00    -0.322 N 
ATOM     12  C   UNL A   1      31.631  26.805  27.116  1.00  0.00     0.013 C 
ATOM     13  C   UNL A   1      31.544  25.706  26.054  1.00  0.00     0.042 C 
ATOM     14  C   UNL A   1      32.756  24.773  26.095  1.00  0.00     0.018 C 
ATOM     15  C   UNL A   1      31.369  26.293  24.643  1.00  0.00     0.266 C 
ATOM     16  C   UNL A   1      34.004  25.444  25.512  1.00  0.00     0.042 C 
ATOM     17  C   UNL A   1      33.703  26.005  24.110  1.00  0.00     0.266 C 
ATOM     18  C   UNL A   1      35.167  24.453  25.465  1.00  0.00     0.013 C 
ATOM     19  H   UNL A   1      32.826  27.711  24.801  1.00  0.00     0.349 HD
ENDBRANCH   8  11
ENDBRANCH   5   8
ENDBRANCH   3   4
ENDBRANCH   2   3
ENDBRANCH   1   2
BRANCH   1  20
ATOM     20  C   UNL A   1      32.752  32.673  27.351  1.00  0.00     0.116 C 
BRANCH  20  21
ATOM     21  N   UNL A   1      32.417  34.064  27.627  1.00  0.00    -0.352 N 
ATOM     22  C   UNL A   1      32.976  34.922  28.542  1.00  0.00     0.251 C 
ATOM     23  H   UNL A   1      31.690  34.441  27.080  1.00  0.00     0.163 HD
ATOM     24  O   UNL A   1      32.495  36.035  28.728  1.00  0.00    -0.269 OA
BRANCH  22  25
ATOM     25  C   UNL A   1      34.141  34.475  29.330  1.00  0.00     0.039 A 
ATOM     26  C   UNL A   1      33.926  33.903  30.585  1.00  0.00     0.014 A 
ATOM     27  C   UNL A   1      35.432  34.579  28.808  1.00  0.00     0.014 A 
ATOM     28  C   UNL A   1      35.005  33.365  31.288  1.00  0.00     0.010 A 
ATOM     29  C   UNL A   1      36.493  33.974  29.473  1.00  0.00     0.010 A 
ATOM     30  C   UNL A   1      36.290  33.360  30.719  1.00  0.00    -0.014 A 
BRANCH  30  31
ATOM     31  C   UNL A   1      37.435  32.715  31.408  1.00  0.00     0.031 A 
ATOM     32  C   UNL A   1      38.145  31.559  30.762  1.00  0.00     0.074 A 
ATOM     33  C   UNL A   1      37.786  33.123  32.643  1.00  0.00     0.049 A 
ATOM     34  N   UNL A   1      39.114  30.815  31.233  1.00  0.00    -0.248 NA
ATOM     35  C   UNL A   1      37.688  31.167  29.419  1.00  0.00     0.031 C 
ATOM     36  C   UNL A   1      37.140  34.201  33.395  1.00  0.00     0.029 A 
ATOM     37  N   UNL A   1      38.767  32.672  33.491  1.00  0.00    -0.354 N 
ATOM     38  C   UNL A   1      39.363  29.860  30.256  1.00  0.00     0.074 A 
ATOM     39  C   UNL A   1      38.415  30.086  29.188  1.00  0.00     0.031 C 
ATOM     40  C   UNL A   1      37.756  34.344  34.579  1.00  0.00     0.029 A 
ATOM     41  C   UNL A   1      38.815  33.345  34.688  1.00  0.00     0.049 A 
ATOM     42  H   UNL A   1      39.379  31.936  33.261  1.00  0.00     0.167 HD
ATOM     43  C   UNL A   1      40.314  28.896  30.244  1.00  0.00     0.037 A 
ATOM     44  C   UNL A   1      39.618  33.167  35.755  1.00  0.00     0.037 A 
ATOM     45  C   UNL A   1      41.282  28.701  31.291  1.00  0.00     0.049 A 
ATOM     46  C   UNL A   1      40.666  32.087  35.710  1.00  0.00     0.074 A 
ATOM     47  C   UNL A   1      42.335  27.806  31.335  1.00  0.00     0.029 A 
ATOM     48  N   UNL A   1      41.313  29.417  32.479  1.00  0.00    -0.354 N 
ATOM     49  N   UNL A   1      40.947  31.244  34.746  1.00  0.00    -0.248 NA
ATOM     50  C   UNL A   1      41.513  31.938  36.902  1.00  0.00     0.031 C 
ATOM     51  C   UNL A   1      42.975  27.945  32.571  1.00  0.00     0.029 A 
ATOM     52  C   UNL A   1      42.353  28.963  33.275  1.00  0.00     0.049 A 
ATOM     53  H   UNL A   1      40.688  30.138  32.722  1.00  0.00     0.167 HD
ATOM     54  C   UNL A   1      42.023  30.492  35.199  1.00  0.00     0.074 A 
ATOM     55  C   UNL A   1      42.353  30.987  36.519  1.00  0.00     0.031 C 
ATOM     56  C   UNL A   1      42.679  29.481  34.578  1.00  0.00     0.037 A 
BRANCH  43  57
ATOM     57  C   UNL A   1      40.365  27.977  29.059  1.00  0.00     0.064 A 
ATOM     58  C   UNL A   1      39.629  26.783  29.022  1.00  0.00     0.173 A 
ATOM     59  C   UNL A   1      41.111  28.324  27.923  1.00  0.00     0.173 A 
ATOM     60  F   UNL A   1      38.909  26.400  30.087  1.00  0.00    -0.203 F 
ATOM     61  C   UNL A   1      39.657  25.959  27.899  1.00  0.00     0.198 A 
ATOM     62  C   UNL A   1      41.112  27.513  26.791  1.00  0.00     0.198 A 
ATOM     63  F   UNL A   1      41.829  29.457  27.904  1.00  0.00    -0.203 F 
ATOM     64  F   UNL A   1      38.979  24.803  27.902  1.00  0.00    -0.200 F 
ATOM     65  C   UNL A   1      40.390  26.330  26.782  1.00  0.00     0.200 A 
ATOM     66  F   UNL A   1      41.811  27.879  25.708  1.00  0.00    -0.200 F 
ATOM     67  F   UNL A   1      40.403  25.543  25.696  1.00  0.00    -0.200 F 
ENDBRANCH  43  57
BRANCH  44  68
ATOM     68  C   UNL A   1      39.486  34.042  36.950  1.00  0.00     0.064 A 
ATOM     69  C   UNL A   1      40.147  35.277  37.011  1.00  0.00     0.173 A 
ATOM     70  C   UNL A   1      38.727  33.652  38.063  1.00  0.00     0.173 A 
ATOM     71  F   UNL A   1      40.901  35.684  35.980  1.00  0.00    -0.203 F 
ATOM     72  C   UNL A   1      40.081  36.073  38.153  1.00  0.00     0.198 A 
ATOM     73  C   UNL A   1      38.638  34.465  39.193  1.00  0.00     0.198 A 
ATOM     74  F   UNL A   1      38.072  32.483  38.055  1.00  0.00    -0.203 F 
ATOM     75  F   UNL A   1      40.771  37.221  38.205  1.00  0.00    -0.200 F 
ATOM     76  C   UNL A   1      39.324  35.668  39.241  1.00  0.00     0.200 A 
ATOM     77  F   UNL A   1      37.894  34.076  40.237  1.00  0.00    -0.200 F 
ATOM     78  F   UNL A   1      39.265  36.433  40.340  1.00  0.00    -0.200 F 
ENDBRANCH  44  68
BRANCH  56  79
ATOM     79  C   UNL A   1      43.850  28.875  35.296  1.00  0.00     0.064 A 
ATOM     80  C   UNL A   1      45.154  29.355  35.115  1.00  0.00     0.173 A 
ATOM     81  C   UNL A   1      43.653  27.827  36.207  1.00  0.00     0.173 A 
ATOM     82  F   UNL A   1      45.396  30.345  34.243  1.00  0.00    -0.203 F 
ATOM     83  C   UNL A   1      46.225  28.789  35.803  1.00  0.00     0.198 A 
ATOM     84  C   UNL A   1      44.721  27.285  36.917  1.00  0.00     0.198 A 
ATOM     85  F   UNL A   1      42.423  27.337  36.422  1.00  0.00    -0.203 F 
ATOM     86  F   UNL A   1      47.470  29.231  35.579  1.00  0.00    -0.200 F 
ATOM     87  C   UNL A   1      46.007  27.761  36.709  1.00  0.00     0.200 A 
ATOM     88  F   UNL A   1      44.506  26.303  37.802  1.00  0.00    -0.200 F 
ATOM     89  F   UNL A   1      47.038  27.224  37.375  1.00  0.00    -0.200 F 
ENDBRANCH  56  79
ENDBRANCH  30  31
ENDBRANCH  22  25
ENDBRANCH  20  21
ENDBRANCH   1  20
TORSDOF 12
ENDMDL
