MODEL 1
REMARK VINA RESULT:      -9.9      0.000      0.000
REMARK SMILES O=C(NCCCCNC(=O)c1ccc(-c2c3nc(c(-c4c(F)c(F)c(F)c(F)c4F)c4ccc([nH]4)c(-c4c(F)c(F)c(F)c(F)c4F)c4nc(c(-c5c(F)c(F)c(F)c(F)c5F)c5ccc2[nH]5)C=C4)C=C3)cc1)c1ccc(/C=C2\SC(=S)N(NC(=O)c3ccc(Cl)cc3)C2=O)cc1
REMARK SMILES IDX 5 1 4 2 3 3 1 4 2 5 74 7 75 8 97 9 76 10 96 11 77 12 78 13
REMARK SMILES IDX 79 14 80 15 94 16 81 17 83 18 95 19 82 20 84 21 85 22 86 24
REMARK SMILES IDX 87 25 88 26 93 27 89 28 92 29 90 30 91 31 6 32 7 33 8 34
REMARK SMILES IDX 9 35 10 37 11 38 12 39 73 40 13 41 72 42 14 43 15 44 16 45
REMARK SMILES IDX 66 46 17 47 71 48 65 49 67 50 18 51 70 52 64 53 63 54 19 56
REMARK SMILES IDX 51 57 31 58 50 59 32 60 35 61 49 62 68 63 33 64 34 65 48 67
REMARK SMILES IDX 69 68 36 69 20 70 21 71 29 72 22 73 23 74 27 75 30 76 24 77
REMARK SMILES IDX 25 78 28 79 26 80 52 81 53 82 61 83 54 84 55 85 59 86 62 87
REMARK SMILES IDX 56 88 57 89 60 90 58 91 37 92 38 93 46 94 39 95 40 96 44 97
REMARK SMILES IDX 47 98 41 99 42 100 45 101 43 102
REMARK H PARENT 3 6 84 23 8 36 67 55 35 66
REMARK Flexibility Score: inf
ROOT
ATOM      1  C   UNL A   1      43.387  23.639  25.101  1.00  0.00     0.023 C 
ENDROOT
BRANCH   1   2
ATOM      2  C   UNL A   1      42.628  24.654  25.950  1.00  0.00     0.116 C 
BRANCH   2   3
ATOM      3  N   UNL A   1      41.237  24.282  26.178  1.00  0.00    -0.352 N 
ATOM      4  O   UNL A   1      39.158  24.469  27.057  1.00  0.00    -0.269 OA
ATOM      5  C   UNL A   1      40.256  24.972  26.852  1.00  0.00     0.251 C 
ATOM      6  H   UNL A   1      40.961  23.417  25.796  1.00  0.00     0.163 HD
BRANCH   5   7
ATOM      7  C   UNL A   1      40.567  26.316  27.375  1.00  0.00     0.039 A 
ATOM      8  C   UNL A   1      40.791  26.509  28.740  1.00  0.00     0.014 A 
ATOM      9  C   UNL A   1      40.540  27.400  26.501  1.00  0.00     0.014 A 
ATOM     10  C   UNL A   1      40.803  27.805  29.250  1.00  0.00     0.009 A 
ATOM     11  C   UNL A   1      40.593  28.696  27.019  1.00  0.00     0.009 A 
ATOM     12  C   UNL A   1      40.628  28.910  28.404  1.00  0.00    -0.024 A 
BRANCH  12  13
ATOM     13  C   UNL A   1      40.475  30.225  29.046  1.00  0.00     0.029 C 
ATOM     14  C   UNL A   1      40.256  30.519  30.337  1.00  0.00     0.082 C 
ATOM     15  S   UNL A   1      39.939  29.481  31.671  1.00  0.00    -0.052 SA
ATOM     16  C   UNL A   1      40.202  31.935  30.790  1.00  0.00     0.285 C 
ATOM     17  C   UNL A   1      39.326  30.797  32.662  1.00  0.00     0.168 C 
ATOM     18  N   UNL A   1      39.499  31.988  31.978  1.00  0.00    -0.198 N 
ATOM     19  O   UNL A   1      40.735  32.862  30.185  1.00  0.00    -0.266 OA
ATOM     20  S   UNL A   1      38.666  30.579  34.176  1.00  0.00    -0.050 S 
BRANCH  18  21
ATOM     21  N   UNL A   1      39.102  33.203  32.555  1.00  0.00    -0.255 N 
ATOM     22  C   UNL A   1      37.923  33.875  32.314  1.00  0.00     0.270 C 
ATOM     23  H   UNL A   1      39.727  33.617  33.194  1.00  0.00     0.192 HD
ATOM     24  O   UNL A   1      37.630  34.872  32.969  1.00  0.00    -0.267 OA
BRANCH  22  25
ATOM     25  C   UNL A   1      37.026  33.464  31.211  1.00  0.00     0.041 A 
ATOM     26  C   UNL A   1      35.877  32.742  31.559  1.00  0.00     0.015 A 
ATOM     27  C   UNL A   1      37.265  33.819  29.878  1.00  0.00     0.015 A 
ATOM     28  C   UNL A   1      34.926  32.437  30.585  1.00  0.00     0.021 A 
ATOM     29  C   UNL A   1      36.306  33.514  28.908  1.00  0.00     0.021 A 
ATOM     30  C   UNL A   1      35.137  32.839  29.267  1.00  0.00     0.041 A 
ATOM     31  Cl  UNL A   1      33.939  32.510  28.076  1.00  0.00    -0.084 Cl
ENDBRANCH  22  25
ENDBRANCH  18  21
ENDBRANCH  12  13
ENDBRANCH   5   7
ENDBRANCH   2   3
ENDBRANCH   1   2
BRANCH   1  32
ATOM     32  C   UNL A   1      44.693  23.131  25.706  1.00  0.00     0.023 C 
BRANCH  32  33
ATOM     33  C   UNL A   1      45.668  24.211  26.161  1.00  0.00     0.116 C 
BRANCH  33  34
ATOM     34  N   UNL A   1      46.383  24.848  25.066  1.00  0.00    -0.352 N 
ATOM     35  C   UNL A   1      46.555  26.191  24.816  1.00  0.00     0.251 C 
ATOM     36  H   UNL A   1      46.801  24.238  24.417  1.00  0.00     0.163 HD
ATOM     37  O   UNL A   1      47.113  26.570  23.793  1.00  0.00    -0.269 OA
BRANCH  35  38
ATOM     38  C   UNL A   1      46.018  27.179  25.775  1.00  0.00     0.039 A 
ATOM     39  C   UNL A   1      44.650  27.466  25.758  1.00  0.00     0.014 A 
ATOM     40  C   UNL A   1      46.853  27.778  26.720  1.00  0.00     0.014 A 
ATOM     41  C   UNL A   1      44.102  28.287  26.746  1.00  0.00     0.010 A 
ATOM     42  C   UNL A   1      46.297  28.543  27.741  1.00  0.00     0.010 A 
ATOM     43  C   UNL A   1      44.916  28.794  27.771  1.00  0.00    -0.014 A 
BRANCH  43  44
ATOM     44  C   UNL A   1      44.358  29.585  28.897  1.00  0.00     0.031 A 
ATOM     45  C   UNL A   1      44.221  31.076  28.763  1.00  0.00     0.074 A 
ATOM     46  C   UNL A   1      44.087  28.985  30.073  1.00  0.00     0.049 A 
ATOM     47  N   UNL A   1      43.941  31.969  29.676  1.00  0.00    -0.248 NA
ATOM     48  C   UNL A   1      44.463  31.640  27.425  1.00  0.00     0.031 C 
ATOM     49  C   UNL A   1      44.217  27.552  30.345  1.00  0.00     0.029 A 
ATOM     50  N   UNL A   1      43.674  29.513  31.273  1.00  0.00    -0.354 N 
ATOM     51  C   UNL A   1      44.017  33.199  29.037  1.00  0.00     0.074 A 
ATOM     52  C   UNL A   1      44.388  32.941  27.662  1.00  0.00     0.031 C 
ATOM     53  C   UNL A   1      43.889  27.316  31.626  1.00  0.00     0.029 A 
ATOM     54  C   UNL A   1      43.569  28.581  32.277  1.00  0.00     0.049 A 
ATOM     55  H   UNL A   1      43.473  30.468  31.400  1.00  0.00     0.167 HD
ATOM     56  C   UNL A   1      43.788  34.429  29.551  1.00  0.00     0.037 A 
ATOM     57  C   UNL A   1      43.271  28.736  33.582  1.00  0.00     0.037 A 
ATOM     58  C   UNL A   1      43.358  34.679  30.900  1.00  0.00     0.049 A 
ATOM     59  C   UNL A   1      42.986  30.115  34.115  1.00  0.00     0.074 A 
ATOM     60  C   UNL A   1      43.019  35.884  31.487  1.00  0.00     0.029 A 
ATOM     61  N   UNL A   1      43.200  33.701  31.870  1.00  0.00    -0.354 N 
ATOM     62  N   UNL A   1      43.004  31.264  33.486  1.00  0.00    -0.248 NA
ATOM     63  C   UNL A   1      42.637  30.218  35.539  1.00  0.00     0.031 C 
ATOM     64  C   UNL A   1      42.681  35.641  32.822  1.00  0.00     0.029 A 
ATOM     65  C   UNL A   1      42.778  34.279  33.055  1.00  0.00     0.049 A 
ATOM     66  H   UNL A   1      43.364  32.739  31.736  1.00  0.00     0.167 HD
ATOM     67  C   UNL A   1      42.638  32.219  34.425  1.00  0.00     0.074 A 
ATOM     68  C   UNL A   1      42.398  31.516  35.667  1.00  0.00     0.031 C 
ATOM     69  C   UNL A   1      42.511  33.559  34.271  1.00  0.00     0.037 A 
BRANCH  56  70
ATOM     70  C   UNL A   1      43.988  35.611  28.652  1.00  0.00     0.064 A 
ATOM     71  C   UNL A   1      42.923  36.183  27.942  1.00  0.00     0.173 A 
ATOM     72  C   UNL A   1      45.248  36.219  28.553  1.00  0.00     0.173 A 
ATOM     73  F   UNL A   1      41.702  35.630  27.996  1.00  0.00    -0.203 F 
ATOM     74  C   UNL A   1      43.116  37.313  27.153  1.00  0.00     0.198 A 
ATOM     75  C   UNL A   1      45.432  37.364  27.782  1.00  0.00     0.198 A 
ATOM     76  F   UNL A   1      46.298  35.712  29.217  1.00  0.00    -0.203 F 
ATOM     77  F   UNL A   1      42.090  37.826  26.458  1.00  0.00    -0.200 F 
ATOM     78  C   UNL A   1      44.367  37.908  27.081  1.00  0.00     0.200 A 
ATOM     79  F   UNL A   1      46.639  37.943  27.722  1.00  0.00    -0.200 F 
ATOM     80  F   UNL A   1      44.547  39.004  26.332  1.00  0.00    -0.200 F 
ENDBRANCH  56  70
BRANCH  57  81
ATOM     81  C   UNL A   1      43.217  27.556  34.483  1.00  0.00     0.064 A 
ATOM     82  C   UNL A   1      44.367  27.107  35.146  1.00  0.00     0.173 A 
ATOM     83  C   UNL A   1      42.029  26.836  34.675  1.00  0.00     0.173 A 
ATOM     84  F   UNL A   1      45.532  27.750  34.975  1.00  0.00    -0.203 F 
ATOM     85  C   UNL A   1      44.338  25.967  35.945  1.00  0.00     0.198 A 
ATOM     86  C   UNL A   1      41.995  25.711  35.496  1.00  0.00     0.198 A 
ATOM     87  F   UNL A   1      40.900  27.227  34.065  1.00  0.00    -0.203 F 
ATOM     88  F   UNL A   1      45.464  25.530  36.526  1.00  0.00    -0.200 F 
ATOM     89  C   UNL A   1      43.152  25.272  36.122  1.00  0.00     0.200 A 
ATOM     90  F   UNL A   1      40.844  25.047  35.672  1.00  0.00    -0.200 F 
ATOM     91  F   UNL A   1      43.125  24.171  36.887  1.00  0.00    -0.200 F 
ENDBRANCH  57  81
BRANCH  69  92
ATOM     92  C   UNL A   1      42.039  34.349  35.453  1.00  0.00     0.064 A 
ATOM     93  C   UNL A   1      42.912  35.155  36.194  1.00  0.00     0.173 A 
ATOM     94  C   UNL A   1      40.680  34.346  35.805  1.00  0.00     0.173 A 
ATOM     95  F   UNL A   1      44.222  35.177  35.903  1.00  0.00    -0.203 F 
ATOM     96  C   UNL A   1      42.445  35.924  37.256  1.00  0.00     0.198 A 
ATOM     97  C   UNL A   1      40.213  35.133  36.853  1.00  0.00     0.198 A 
ATOM     98  F   UNL A   1      39.807  33.594  35.121  1.00  0.00    -0.203 F 
ATOM     99  F   UNL A   1      43.301  36.666  37.972  1.00  0.00    -0.200 F 
ATOM    100  C   UNL A   1      41.095  35.919  37.580  1.00  0.00     0.200 A 
ATOM    101  F   UNL A   1      38.908  35.135  37.157  1.00  0.00    -0.200 F 
ATOM    102  F   UNL A   1      40.646  36.669  38.595  1.00  0.00    -0.200 F 
ENDBRANCH  69  92
ENDBRANCH  43  44
ENDBRANCH  35  38
ENDBRANCH  33  34
ENDBRANCH  32  33
ENDBRANCH   1  32
TORSDOF 14
ENDMDL
MODEL 2
REMARK VINA RESULT:      -9.9      0.212      1.104
REMARK SMILES O=C(NCCCCNC(=O)c1ccc(-c2c3nc(c(-c4c(F)c(F)c(F)c(F)c4F)c4ccc([nH]4)c(-c4c(F)c(F)c(F)c(F)c4F)c4nc(c(-c5c(F)c(F)c(F)c(F)c5F)c5ccc2[nH]5)C=C4)C=C3)cc1)c1ccc(/C=C2\SC(=S)N(NC(=O)c3ccc(Cl)cc3)C2=O)cc1
REMARK SMILES IDX 5 1 4 2 3 3 1 4 2 5 74 7 75 8 97 9 76 10 96 11 77 12 78 13
REMARK SMILES IDX 79 14 80 15 94 16 81 17 83 18 95 19 82 20 84 21 85 22 86 24
REMARK SMILES IDX 87 25 88 26 93 27 89 28 92 29 90 30 91 31 6 32 7 33 8 34
REMARK SMILES IDX 9 35 10 37 11 38 12 39 73 40 13 41 72 42 14 43 15 44 16 45
REMARK SMILES IDX 66 46 17 47 71 48 65 49 67 50 18 51 70 52 64 53 63 54 19 56
REMARK SMILES IDX 51 57 31 58 50 59 32 60 35 61 49 62 68 63 33 64 34 65 48 67
REMARK SMILES IDX 69 68 36 69 20 70 21 71 29 72 22 73 23 74 27 75 30 76 24 77
REMARK SMILES IDX 25 78 28 79 26 80 52 81 53 82 61 83 54 84 55 85 59 86 62 87
REMARK SMILES IDX 56 88 57 89 60 90 58 91 37 92 38 93 46 94 39 95 40 96 44 97
REMARK SMILES IDX 47 98 41 99 42 100 45 101 43 102
REMARK H PARENT 3 6 84 23 8 36 67 55 35 66
REMARK Flexibility Score: inf
ROOT
ATOM      1  C   UNL A   1      43.581  24.020  26.859  1.00  0.00     0.023 C 
ENDROOT
BRANCH   1   2
ATOM      2  C   UNL A   1      42.562  24.579  25.871  1.00  0.00     0.116 C 
BRANCH   2   3
ATOM      3  N   UNL A   1      41.192  24.188  26.181  1.00  0.00    -0.352 N 
ATOM      4  O   UNL A   1      39.166  24.350  27.179  1.00  0.00    -0.269 OA
ATOM      5  C   UNL A   1      40.243  24.867  26.910  1.00  0.00     0.251 C 
ATOM      6  H   UNL A   1      40.906  23.319  25.817  1.00  0.00     0.163 HD
BRANCH   5   7
ATOM      7  C   UNL A   1      40.565  26.216  27.411  1.00  0.00     0.039 A 
ATOM      8  C   UNL A   1      40.824  26.423  28.767  1.00  0.00     0.014 A 
ATOM      9  C   UNL A   1      40.515  27.292  26.527  1.00  0.00     0.014 A 
ATOM     10  C   UNL A   1      40.847  27.724  29.264  1.00  0.00     0.009 A 
ATOM     11  C   UNL A   1      40.580  28.593  27.030  1.00  0.00     0.009 A 
ATOM     12  C   UNL A   1      40.650  28.821  28.411  1.00  0.00    -0.024 A 
BRANCH  12  13
ATOM     13  C   UNL A   1      40.512  30.142  29.044  1.00  0.00     0.029 C 
ATOM     14  C   UNL A   1      40.287  30.448  30.331  1.00  0.00     0.082 C 
ATOM     15  S   UNL A   1      39.945  29.424  31.670  1.00  0.00    -0.052 SA
ATOM     16  C   UNL A   1      40.252  31.867  30.775  1.00  0.00     0.285 C 
ATOM     17  C   UNL A   1      39.344  30.754  32.647  1.00  0.00     0.168 C 
ATOM     18  N   UNL A   1      39.540  31.938  31.957  1.00  0.00    -0.198 N 
ATOM     19  O   UNL A   1      40.803  32.782  30.169  1.00  0.00    -0.266 OA
ATOM     20  S   UNL A   1      38.670  30.556  34.157  1.00  0.00    -0.050 S 
BRANCH  18  21
ATOM     21  N   UNL A   1      39.157  33.163  32.523  1.00  0.00    -0.255 N 
ATOM     22  C   UNL A   1      37.988  33.849  32.273  1.00  0.00     0.270 C 
ATOM     23  H   UNL A   1      39.785  33.574  33.162  1.00  0.00     0.192 HD
ATOM     24  O   UNL A   1      37.706  34.855  32.919  1.00  0.00    -0.267 OA
BRANCH  22  25
ATOM     25  C   UNL A   1      37.090  33.441  31.170  1.00  0.00     0.041 A 
ATOM     26  C   UNL A   1      35.952  32.700  31.515  1.00  0.00     0.015 A 
ATOM     27  C   UNL A   1      37.316  33.817  29.841  1.00  0.00     0.015 A 
ATOM     28  C   UNL A   1      34.999  32.396  30.543  1.00  0.00     0.021 A 
ATOM     29  C   UNL A   1      36.355  33.512  28.872  1.00  0.00     0.021 A 
ATOM     30  C   UNL A   1      35.197  32.818  29.229  1.00  0.00     0.041 A 
ATOM     31  Cl  UNL A   1      33.996  32.489  28.040  1.00  0.00    -0.084 Cl
ENDBRANCH  22  25
ENDBRANCH  18  21
ENDBRANCH  12  13
ENDBRANCH   5   7
ENDBRANCH   2   3
ENDBRANCH   1   2
BRANCH   1  32
ATOM     32  C   UNL A   1      44.818  23.384  26.231  1.00  0.00     0.023 C 
BRANCH  32  33
ATOM     33  C   UNL A   1      46.129  24.123  26.474  1.00  0.00     0.116 C 
BRANCH  33  34
ATOM     34  N   UNL A   1      46.674  24.749  25.279  1.00  0.00    -0.352 N 
ATOM     35  C   UNL A   1      46.681  26.081  24.932  1.00  0.00     0.251 C 
ATOM     36  H   UNL A   1      47.095  24.139  24.631  1.00  0.00     0.163 HD
ATOM     37  O   UNL A   1      47.105  26.440  23.839  1.00  0.00    -0.269 OA
BRANCH  35  38
ATOM     38  C   UNL A   1      46.130  27.076  25.875  1.00  0.00     0.039 A 
ATOM     39  C   UNL A   1      44.763  27.362  25.835  1.00  0.00     0.014 A 
ATOM     40  C   UNL A   1      46.951  27.683  26.828  1.00  0.00     0.014 A 
ATOM     41  C   UNL A   1      44.200  28.191  26.809  1.00  0.00     0.010 A 
ATOM     42  C   UNL A   1      46.380  28.455  27.834  1.00  0.00     0.010 A 
ATOM     43  C   UNL A   1      44.998  28.707  27.842  1.00  0.00    -0.014 A 
BRANCH  43  44
ATOM     44  C   UNL A   1      44.424  29.506  28.953  1.00  0.00     0.031 A 
ATOM     45  C   UNL A   1      44.292  30.996  28.806  1.00  0.00     0.074 A 
ATOM     46  C   UNL A   1      44.133  28.914  30.129  1.00  0.00     0.049 A 
ATOM     47  N   UNL A   1      43.999  31.895  29.709  1.00  0.00    -0.248 NA
ATOM     48  C   UNL A   1      44.557  31.550  27.469  1.00  0.00     0.031 C 
ATOM     49  C   UNL A   1      44.256  27.483  30.412  1.00  0.00     0.029 A 
ATOM     50  N   UNL A   1      43.702  29.451  31.318  1.00  0.00    -0.354 N 
ATOM     51  C   UNL A   1      44.087  33.121  29.063  1.00  0.00     0.074 A 
ATOM     52  C   UNL A   1      44.480  32.854  27.696  1.00  0.00     0.031 C 
ATOM     53  C   UNL A   1      43.908  27.256  31.690  1.00  0.00     0.029 A 
ATOM     54  C   UNL A   1      43.579  28.527  32.327  1.00  0.00     0.049 A 
ATOM     55  H   UNL A   1      43.500  30.407  31.435  1.00  0.00     0.167 HD
ATOM     56  C   UNL A   1      43.852  34.355  29.565  1.00  0.00     0.037 A 
ATOM     57  C   UNL A   1      43.260  28.691  33.625  1.00  0.00     0.037 A 
ATOM     58  C   UNL A   1      43.401  34.615  30.905  1.00  0.00     0.049 A 
ATOM     59  C   UNL A   1      42.969  30.074  34.145  1.00  0.00     0.074 A 
ATOM     60  C   UNL A   1      43.054  35.825  31.479  1.00  0.00     0.029 A 
ATOM     61  N   UNL A   1      43.225  33.644  31.879  1.00  0.00    -0.354 N 
ATOM     62  N   UNL A   1      42.999  31.219  33.508  1.00  0.00    -0.248 NA
ATOM     63  C   UNL A   1      42.597  30.187  35.562  1.00  0.00     0.031 C 
ATOM     64  C   UNL A   1      42.694  35.591  32.809  1.00  0.00     0.029 A 
ATOM     65  C   UNL A   1      42.785  34.231  33.053  1.00  0.00     0.049 A 
ATOM     66  H   UNL A   1      43.390  32.681  31.754  1.00  0.00     0.167 HD
ATOM     67  C   UNL A   1      42.619  32.180  34.434  1.00  0.00     0.074 A 
ATOM     68  C   UNL A   1      42.358  31.486  35.678  1.00  0.00     0.031 C 
ATOM     69  C   UNL A   1      42.498  33.519  34.269  1.00  0.00     0.037 A 
BRANCH  56  70
ATOM     70  C   UNL A   1      44.068  35.531  28.661  1.00  0.00     0.064 A 
ATOM     71  C   UNL A   1      43.014  36.106  27.939  1.00  0.00     0.173 A 
ATOM     72  C   UNL A   1      45.334  36.128  28.569  1.00  0.00     0.173 A 
ATOM     73  F   UNL A   1      41.789  35.563  27.985  1.00  0.00    -0.203 F 
ATOM     74  C   UNL A   1      43.222  37.231  27.146  1.00  0.00     0.198 A 
ATOM     75  C   UNL A   1      45.533  37.268  27.794  1.00  0.00     0.198 A 
ATOM     76  F   UNL A   1      46.374  35.617  29.245  1.00  0.00    -0.203 F 
ATOM     77  F   UNL A   1      42.206  37.748  26.439  1.00  0.00    -0.200 F 
ATOM     78  C   UNL A   1      44.478  37.816  27.081  1.00  0.00     0.200 A 
ATOM     79  F   UNL A   1      46.745  37.837  27.741  1.00  0.00    -0.200 F 
ATOM     80  F   UNL A   1      44.673  38.906  26.327  1.00  0.00    -0.200 F 
ENDBRANCH  56  70
BRANCH  57  81
ATOM     81  C   UNL A   1      43.189  27.518  34.534  1.00  0.00     0.064 A 
ATOM     82  C   UNL A   1      41.987  26.820  34.713  1.00  0.00     0.173 A 
ATOM     83  C   UNL A   1      44.308  27.089  35.263  1.00  0.00     0.173 A 
ATOM     84  F   UNL A   1      40.884  27.208  34.055  1.00  0.00    -0.203 F 
ATOM     85  C   UNL A   1      41.898  25.757  35.608  1.00  0.00     0.198 A 
ATOM     86  C   UNL A   1      44.225  26.008  36.138  1.00  0.00     0.198 A 
ATOM     87  F   UNL A   1      45.483  27.721  35.125  1.00  0.00    -0.203 F 
ATOM     88  F   UNL A   1      40.723  25.141  35.799  1.00  0.00    -0.200 F 
ATOM     89  C   UNL A   1      43.017  25.349  36.317  1.00  0.00     0.200 A 
ATOM     90  F   UNL A   1      45.311  25.611  36.815  1.00  0.00    -0.200 F 
ATOM     91  F   UNL A   1      42.931  24.329  37.183  1.00  0.00    -0.200 F 
ENDBRANCH  57  81
BRANCH  69  92
ATOM     92  C   UNL A   1      42.008  34.318  35.438  1.00  0.00     0.064 A 
ATOM     93  C   UNL A   1      42.869  35.135  36.183  1.00  0.00     0.173 A 
ATOM     94  C   UNL A   1      40.645  34.314  35.773  1.00  0.00     0.173 A 
ATOM     95  F   UNL A   1      44.182  35.158  35.908  1.00  0.00    -0.203 F 
ATOM     96  C   UNL A   1      42.386  35.911  37.232  1.00  0.00     0.198 A 
ATOM     97  C   UNL A   1      40.162  35.109  36.808  1.00  0.00     0.198 A 
ATOM     98  F   UNL A   1      39.782  33.553  35.085  1.00  0.00    -0.203 F 
ATOM     99  F   UNL A   1      43.230  36.662  37.952  1.00  0.00    -0.200 F 
ATOM    100  C   UNL A   1      41.032  35.904  37.539  1.00  0.00     0.200 A 
ATOM    101  F   UNL A   1      38.853  35.109  37.096  1.00  0.00    -0.200 F 
ATOM    102  F   UNL A   1      40.567  36.661  38.541  1.00  0.00    -0.200 F 
ENDBRANCH  69  92
ENDBRANCH  43  44
ENDBRANCH  35  38
ENDBRANCH  33  34
ENDBRANCH  32  33
ENDBRANCH   1  32
TORSDOF 14
ENDMDL
MODEL 3
REMARK VINA RESULT:      -9.8      5.061     10.806
REMARK SMILES O=C(NCCCCNC(=O)c1ccc(-c2c3nc(c(-c4c(F)c(F)c(F)c(F)c4F)c4ccc([nH]4)c(-c4c(F)c(F)c(F)c(F)c4F)c4nc(c(-c5c(F)c(F)c(F)c(F)c5F)c5ccc2[nH]5)C=C4)C=C3)cc1)c1ccc(/C=C2\SC(=S)N(NC(=O)c3ccc(Cl)cc3)C2=O)cc1
REMARK SMILES IDX 5 1 4 2 3 3 1 4 2 5 74 7 75 8 97 9 76 10 96 11 77 12 78 13
REMARK SMILES IDX 79 14 80 15 94 16 81 17 83 18 95 19 82 20 84 21 85 22 86 24
REMARK SMILES IDX 87 25 88 26 93 27 89 28 92 29 90 30 91 31 6 32 7 33 8 34
REMARK SMILES IDX 9 35 10 37 11 38 12 39 73 40 13 41 72 42 14 43 15 44 16 45
REMARK SMILES IDX 66 46 17 47 71 48 65 49 67 50 18 51 70 52 64 53 63 54 19 56
REMARK SMILES IDX 51 57 31 58 50 59 32 60 35 61 49 62 68 63 33 64 34 65 48 67
REMARK SMILES IDX 69 68 36 69 20 70 21 71 29 72 22 73 23 74 27 75 30 76 24 77
REMARK SMILES IDX 25 78 28 79 26 80 52 81 53 82 61 83 54 84 55 85 59 86 62 87
REMARK SMILES IDX 56 88 57 89 60 90 58 91 37 92 38 93 46 94 39 95 40 96 44 97
REMARK SMILES IDX 47 98 41 99 42 100 45 101 43 102
REMARK H PARENT 3 6 84 23 8 36 67 55 35 66
REMARK Flexibility Score: inf
ROOT
ATOM      1  C   UNL A   1      34.489  35.902  28.595  1.00  0.00     0.023 C 
ENDROOT
BRANCH   1   2
ATOM      2  C   UNL A   1      34.641  34.516  27.975  1.00  0.00     0.116 C 
BRANCH   2   3
ATOM      3  N   UNL A   1      36.009  34.017  28.022  1.00  0.00    -0.352 N 
ATOM      4  O   UNL A   1      37.643  32.465  28.252  1.00  0.00    -0.269 OA
ATOM      5  C   UNL A   1      36.454  32.717  28.105  1.00  0.00     0.251 C 
ATOM      6  H   UNL A   1      36.713  34.704  27.990  1.00  0.00     0.163 HD
BRANCH   5   7
ATOM      7  C   UNL A   1      35.462  31.626  28.067  1.00  0.00     0.039 A 
ATOM      8  C   UNL A   1      35.870  30.296  28.184  1.00  0.00     0.014 A 
ATOM      9  C   UNL A   1      34.127  31.938  27.819  1.00  0.00     0.014 A 
ATOM     10  C   UNL A   1      34.972  29.279  27.867  1.00  0.00     0.009 A 
ATOM     11  C   UNL A   1      33.224  30.910  27.543  1.00  0.00     0.009 A 
ATOM     12  C   UNL A   1      33.660  29.579  27.470  1.00  0.00    -0.024 A 
BRANCH  12  13
ATOM     13  C   UNL A   1      32.838  28.460  26.984  1.00  0.00     0.029 C 
ATOM     14  C   UNL A   1      32.948  27.756  25.847  1.00  0.00     0.082 C 
ATOM     15  S   UNL A   1      33.987  27.989  24.496  1.00  0.00    -0.052 SA
ATOM     16  C   UNL A   1      32.044  26.606  25.581  1.00  0.00     0.285 C 
ATOM     17  C   UNL A   1      33.016  26.955  23.460  1.00  0.00     0.168 C 
ATOM     18  N   UNL A   1      32.010  26.382  24.218  1.00  0.00    -0.198 N 
ATOM     19  O   UNL A   1      31.469  25.975  26.464  1.00  0.00    -0.266 OA
ATOM     20  S   UNL A   1      33.320  26.734  21.837  1.00  0.00    -0.050 S 
BRANCH  18  21
ATOM     21  N   UNL A   1      31.093  25.497  23.631  1.00  0.00    -0.255 N 
ATOM     22  C   UNL A   1      31.197  24.123  23.588  1.00  0.00     0.270 C 
ATOM     23  H   UNL A   1      30.298  25.896  23.207  1.00  0.00     0.192 HD
ATOM     24  O   UNL A   1      30.272  23.442  23.152  1.00  0.00    -0.267 OA
BRANCH  22  25
ATOM     25  C   UNL A   1      32.449  23.444  23.986  1.00  0.00     0.041 A 
ATOM     26  C   UNL A   1      32.473  22.838  25.249  1.00  0.00     0.015 A 
ATOM     27  C   UNL A   1      33.554  23.347  23.132  1.00  0.00     0.015 A 
ATOM     28  C   UNL A   1      33.573  22.071  25.633  1.00  0.00     0.021 A 
ATOM     29  C   UNL A   1      34.653  22.574  23.521  1.00  0.00     0.021 A 
ATOM     30  C   UNL A   1      34.651  21.929  24.760  1.00  0.00     0.041 A 
ATOM     31  Cl  UNL A   1      35.986  20.940  25.211  1.00  0.00    -0.084 Cl
ENDBRANCH  22  25
ENDBRANCH  18  21
ENDBRANCH  12  13
ENDBRANCH   5   7
ENDBRANCH   2   3
ENDBRANCH   1   2
BRANCH   1  32
ATOM     32  C   UNL A   1      33.076  36.261  29.048  1.00  0.00     0.023 C 
BRANCH  32  33
ATOM     33  C   UNL A   1      32.541  35.457  30.227  1.00  0.00     0.116 C 
BRANCH  33  34
ATOM     34  N   UNL A   1      32.334  36.252  31.428  1.00  0.00    -0.352 N 
ATOM     35  C   UNL A   1      33.005  36.190  32.628  1.00  0.00     0.251 C 
ATOM     36  H   UNL A   1      31.618  36.926  31.376  1.00  0.00     0.163 HD
ATOM     37  O   UNL A   1      32.648  36.873  33.580  1.00  0.00    -0.269 OA
BRANCH  35  38
ATOM     38  C   UNL A   1      34.139  35.253  32.773  1.00  0.00     0.039 A 
ATOM     39  C   UNL A   1      35.420  35.681  32.416  1.00  0.00     0.014 A 
ATOM     40  C   UNL A   1      33.943  33.978  33.308  1.00  0.00     0.014 A 
ATOM     41  C   UNL A   1      36.521  34.862  32.679  1.00  0.00     0.010 A 
ATOM     42  C   UNL A   1      35.045  33.191  33.627  1.00  0.00     0.010 A 
ATOM     43  C   UNL A   1      36.345  33.630  33.328  1.00  0.00    -0.014 A 
BRANCH  43  44
ATOM     44  C   UNL A   1      37.495  32.776  33.717  1.00  0.00     0.031 A 
ATOM     45  C   UNL A   1      38.228  33.055  34.999  1.00  0.00     0.074 A 
ATOM     46  C   UNL A   1      37.950  31.831  32.870  1.00  0.00     0.049 A 
ATOM     47  N   UNL A   1      39.360  32.562  35.431  1.00  0.00    -0.248 NA
ATOM     48  C   UNL A   1      37.622  34.048  35.900  1.00  0.00     0.031 C 
ATOM     49  C   UNL A   1      37.351  31.490  31.578  1.00  0.00     0.029 A 
ATOM     50  N   UNL A   1      39.043  31.004  32.956  1.00  0.00    -0.354 N 
ATOM     51  C   UNL A   1      39.622  33.213  36.628  1.00  0.00     0.074 A 
ATOM     52  C   UNL A   1      38.543  34.153  36.846  1.00  0.00     0.031 C 
ATOM     53  C   UNL A   1      38.083  30.526  30.995  1.00  0.00     0.029 A 
ATOM     54  C   UNL A   1      39.223  30.211  31.849  1.00  0.00     0.049 A 
ATOM     55  H   UNL A   1      39.641  30.981  33.738  1.00  0.00     0.167 HD
ATOM     56  C   UNL A   1      40.665  33.036  37.472  1.00  0.00     0.037 A 
ATOM     57  C   UNL A   1      40.211  29.346  31.548  1.00  0.00     0.037 A 
ATOM     58  C   UNL A   1      41.703  32.059  37.285  1.00  0.00     0.049 A 
ATOM     59  C   UNL A   1      41.339  29.144  32.524  1.00  0.00     0.074 A 
ATOM     60  C   UNL A   1      42.754  31.746  38.128  1.00  0.00     0.029 A 
ATOM     61  N   UNL A   1      41.814  31.229  36.181  1.00  0.00    -0.354 N 
ATOM     62  N   UNL A   1      41.545  29.725  33.680  1.00  0.00    -0.248 NA
ATOM     63  C   UNL A   1      42.371  28.165  32.154  1.00  0.00     0.031 C 
ATOM     64  C   UNL A   1      43.519  30.745  37.522  1.00  0.00     0.029 A 
ATOM     65  C   UNL A   1      42.923  30.412  36.316  1.00  0.00     0.049 A 
ATOM     66  H   UNL A   1      41.196  31.222  35.414  1.00  0.00     0.167 HD
ATOM     67  C   UNL A   1      42.706  29.160  34.189  1.00  0.00     0.074 A 
ATOM     68  C   UNL A   1      43.160  28.186  33.220  1.00  0.00     0.031 C 
ATOM     69  C   UNL A   1      43.339  29.425  35.357  1.00  0.00     0.037 A 
BRANCH  56  70
ATOM     70  C   UNL A   1      40.739  33.911  38.686  1.00  0.00     0.064 A 
ATOM     71  C   UNL A   1      41.433  35.128  38.674  1.00  0.00     0.173 A 
ATOM     72  C   UNL A   1      40.052  33.555  39.856  1.00  0.00     0.173 A 
ATOM     73  F   UNL A   1      42.115  35.505  37.581  1.00  0.00    -0.203 F 
ATOM     74  C   UNL A   1      41.447  35.954  39.794  1.00  0.00     0.198 A 
ATOM     75  C   UNL A   1      40.048  34.395  40.967  1.00  0.00     0.198 A 
ATOM     76  F   UNL A   1      39.369  32.402  39.917  1.00  0.00    -0.203 F 
ATOM     77  F   UNL A   1      42.142  37.100  39.770  1.00  0.00    -0.200 F 
ATOM     78  C   UNL A   1      40.748  35.591  40.936  1.00  0.00     0.200 A 
ATOM     79  F   UNL A   1      39.364  34.048  42.066  1.00  0.00    -0.200 F 
ATOM     80  F   UNL A   1      40.752  36.394  42.009  1.00  0.00    -0.200 F 
ENDBRANCH  56  70
BRANCH  57  81
ATOM     81  C   UNL A   1      40.182  28.593  30.267  1.00  0.00     0.064 A 
ATOM     82  C   UNL A   1      40.796  29.109  29.117  1.00  0.00     0.173 A 
ATOM     83  C   UNL A   1      39.517  27.363  30.156  1.00  0.00     0.173 A 
ATOM     84  F   UNL A   1      41.424  30.293  29.169  1.00  0.00    -0.203 F 
ATOM     85  C   UNL A   1      40.722  28.438  27.899  1.00  0.00     0.198 A 
ATOM     86  C   UNL A   1      39.466  26.680  28.943  1.00  0.00     0.198 A 
ATOM     87  F   UNL A   1      38.916  26.826  31.228  1.00  0.00    -0.203 F 
ATOM     88  F   UNL A   1      41.273  28.980  26.804  1.00  0.00    -0.200 F 
ATOM     89  C   UNL A   1      40.061  27.223  27.813  1.00  0.00     0.200 A 
ATOM     90  F   UNL A   1      38.834  25.501  28.866  1.00  0.00    -0.200 F 
ATOM     91  F   UNL A   1      39.984  26.579  26.640  1.00  0.00    -0.200 F 
ENDBRANCH  57  81
BRANCH  69  92
ATOM     92  C   UNL A   1      44.556  28.614  35.683  1.00  0.00     0.064 A 
ATOM     93  C   UNL A   1      45.841  29.037  35.317  1.00  0.00     0.173 A 
ATOM     94  C   UNL A   1      44.436  27.430  36.428  1.00  0.00     0.173 A 
ATOM     95  F   UNL A   1      46.002  30.154  34.592  1.00  0.00    -0.203 F 
ATOM     96  C   UNL A   1      46.964  28.297  35.675  1.00  0.00     0.198 A 
ATOM     97  C   UNL A   1      45.562  26.706  36.803  1.00  0.00     0.198 A 
ATOM     98  F   UNL A   1      43.227  26.989  36.804  1.00  0.00    -0.203 F 
ATOM     99  F   UNL A   1      48.182  28.703  35.290  1.00  0.00    -0.200 F 
ATOM    100  C   UNL A   1      46.825  27.137  36.425  1.00  0.00     0.200 A 
ATOM    101  F   UNL A   1      45.427  25.591  37.535  1.00  0.00    -0.200 F 
ATOM    102  F   UNL A   1      47.908  26.433  36.778  1.00  0.00    -0.200 F 
ENDBRANCH  69  92
ENDBRANCH  43  44
ENDBRANCH  35  38
ENDBRANCH  33  34
ENDBRANCH  32  33
ENDBRANCH   1  32
TORSDOF 14
ENDMDL
