MODEL 1
REMARK VINA RESULT:     -12.7      0.000      0.000
REMARK SMILES O=C(NCCCCNC(=O)c1cc(Br)ccc1OCc1ccccc1F)c1ccc(-c2c3nc(c(-c4c(F)c(F)c(F)c(F)c4F)c4ccc([nH]4)c(-c4c(F)c(F)c(F)c(F)c4F)c4nc(c(-c5c(F)c(F)c(F)c(F)c5F)c5ccc2[nH]5)C=C4)C=C3)cc1
REMARK SMILES IDX 6 1 5 2 4 3 3 4 1 5 2 6 27 8 28 9 89 10 29 11 88 12 30 13
REMARK SMILES IDX 31 14 32 15 82 16 33 17 87 18 81 19 83 20 34 21 86 22 80 23
REMARK SMILES IDX 79 24 35 26 67 27 47 28 66 29 48 30 51 31 65 32 84 33 49 34
REMARK SMILES IDX 50 35 64 37 85 38 52 39 36 40 37 41 45 42 38 43 39 44 43 45
REMARK SMILES IDX 46 46 40 47 41 48 44 49 42 50 68 51 69 52 77 53 70 54 71 55
REMARK SMILES IDX 75 56 78 57 72 58 73 59 76 60 74 61 53 62 54 63 62 64 55 65
REMARK SMILES IDX 56 66 60 67 63 68 57 69 58 70 61 71 59 72 7 73 8 74 9 75
REMARK SMILES IDX 10 77 11 78 12 79 17 80 13 81 16 82 14 83 15 84 18 85 19 86
REMARK SMILES IDX 20 87 21 88 25 89 22 90 24 91 26 92 23 93
REMARK H PARENT 3 7 83 25 51 36 8 76
REMARK Flexibility Score: inf
ROOT
ATOM      1  C   UNL A   1      37.238  20.627  24.760  1.00  0.00     0.023 C 
ENDROOT
BRANCH   1   2
ATOM      2  C   UNL A   1      38.252  19.510  25.012  1.00  0.00     0.023 C 
BRANCH   2   3
ATOM      3  C   UNL A   1      39.405  19.861  25.940  1.00  0.00     0.116 C 
BRANCH   3   4
ATOM      4  N   UNL A   1      40.493  18.898  25.892  1.00  0.00    -0.352 N 
ATOM      5  O   UNL A   1      42.634  18.184  25.854  1.00  0.00    -0.269 OA
ATOM      6  C   UNL A   1      41.841  19.110  26.016  1.00  0.00     0.251 C 
ATOM      7  H   UNL A   1      40.224  17.962  25.751  1.00  0.00     0.163 HD
BRANCH   6   8
ATOM      8  C   UNL A   1      42.343  20.466  26.311  1.00  0.00     0.039 A 
ATOM      9  C   UNL A   1      42.462  20.913  27.630  1.00  0.00     0.014 A 
ATOM     10  C   UNL A   1      42.687  21.304  25.246  1.00  0.00     0.014 A 
ATOM     11  C   UNL A   1      42.801  22.237  27.878  1.00  0.00     0.010 A 
ATOM     12  C   UNL A   1      43.098  22.613  25.500  1.00  0.00     0.010 A 
ATOM     13  C   UNL A   1      43.130  23.097  26.816  1.00  0.00    -0.014 A 
BRANCH  13  14
ATOM     14  C   UNL A   1      43.557  24.484  27.114  1.00  0.00     0.031 A 
ATOM     15  C   UNL A   1      44.949  24.951  26.803  1.00  0.00     0.074 A 
ATOM     16  C   UNL A   1      42.653  25.336  27.633  1.00  0.00     0.049 A 
ATOM     17  N   UNL A   1      45.475  26.138  26.971  1.00  0.00    -0.248 NA
ATOM     18  C   UNL A   1      45.874  23.960  26.233  1.00  0.00     0.031 C 
ATOM     19  C   UNL A   1      41.274  24.984  27.974  1.00  0.00     0.029 A 
ATOM     20  N   UNL A   1      42.742  26.669  27.932  1.00  0.00    -0.354 N 
ATOM     21  C   UNL A   1      46.792  26.035  26.544  1.00  0.00     0.074 A 
ATOM     22  C   UNL A   1      46.994  24.663  26.127  1.00  0.00     0.031 C 
ATOM     23  C   UNL A   1      40.627  26.088  28.375  1.00  0.00     0.029 A 
ATOM     24  C   UNL A   1      41.559  27.210  28.372  1.00  0.00     0.049 A 
ATOM     25  H   UNL A   1      43.573  27.190  27.841  1.00  0.00     0.167 HD
ATOM     26  C   UNL A   1      47.738  27.002  26.499  1.00  0.00     0.037 A 
ATOM     27  C   UNL A   1      41.259  28.470  28.732  1.00  0.00     0.037 A 
ATOM     28  C   UNL A   1      47.525  28.368  26.902  1.00  0.00     0.049 A 
ATOM     29  C   UNL A   1      42.329  29.518  28.684  1.00  0.00     0.074 A 
ATOM     30  C   UNL A   1      48.420  29.423  26.890  1.00  0.00     0.029 A 
ATOM     31  N   UNL A   1      46.324  28.869  27.387  1.00  0.00    -0.354 N 
ATOM     32  N   UNL A   1      43.573  29.406  28.288  1.00  0.00    -0.248 NA
ATOM     33  C   UNL A   1      41.960  30.863  29.143  1.00  0.00     0.031 C 
ATOM     34  C   UNL A   1      47.772  30.555  27.396  1.00  0.00     0.029 A 
ATOM     35  C   UNL A   1      46.460  30.215  27.689  1.00  0.00     0.049 A 
ATOM     36  H   UNL A   1      45.498  28.345  27.501  1.00  0.00     0.167 HD
ATOM     37  C   UNL A   1      44.139  30.661  28.447  1.00  0.00     0.074 A 
ATOM     38  C   UNL A   1      43.094  31.528  28.956  1.00  0.00     0.031 C 
ATOM     39  C   UNL A   1      45.411  31.057  28.202  1.00  0.00     0.037 A 
BRANCH  26  40
ATOM     40  C   UNL A   1      49.102  26.620  26.004  1.00  0.00     0.064 A 
ATOM     41  C   UNL A   1      50.037  26.037  26.871  1.00  0.00     0.173 A 
ATOM     42  C   UNL A   1      49.503  26.882  24.685  1.00  0.00     0.173 A 
ATOM     43  F   UNL A   1      49.705  25.770  28.143  1.00  0.00    -0.203 F 
ATOM     44  C   UNL A   1      51.327  25.738  26.440  1.00  0.00     0.198 A 
ATOM     45  C   UNL A   1      50.787  26.562  24.251  1.00  0.00     0.198 A 
ATOM     46  F   UNL A   1      48.641  27.427  23.814  1.00  0.00    -0.203 F 
ATOM     47  F   UNL A   1      52.211  25.203  27.292  1.00  0.00    -0.200 F 
ATOM     48  C   UNL A   1      51.700  25.997  25.130  1.00  0.00     0.200 A 
ATOM     49  F   UNL A   1      51.139  26.793  22.979  1.00  0.00    -0.200 F 
ATOM     50  F   UNL A   1      52.938  25.699  24.712  1.00  0.00    -0.200 F 
ENDBRANCH  26  40
BRANCH  27  51
ATOM     51  C   UNL A   1      39.870  28.792  29.142  1.00  0.00     0.064 A 
ATOM     52  C   UNL A   1      39.449  28.642  30.470  1.00  0.00     0.173 A 
ATOM     53  C   UNL A   1      38.919  29.186  28.192  1.00  0.00     0.173 A 
ATOM     54  F   UNL A   1      40.323  28.259  31.412  1.00  0.00    -0.203 F 
ATOM     55  C   UNL A   1      38.119  28.845  30.829  1.00  0.00     0.198 A 
ATOM     56  C   UNL A   1      37.593  29.411  28.555  1.00  0.00     0.198 A 
ATOM     57  F   UNL A   1      39.281  29.355  26.912  1.00  0.00    -0.203 F 
ATOM     58  F   UNL A   1      37.731  28.651  32.096  1.00  0.00    -0.200 F 
ATOM     59  C   UNL A   1      37.192  29.229  29.872  1.00  0.00     0.200 A 
ATOM     60  F   UNL A   1      36.703  29.797  27.631  1.00  0.00    -0.200 F 
ATOM     61  F   UNL A   1      35.911  29.423  30.215  1.00  0.00    -0.200 F 
ENDBRANCH  27  51
BRANCH  39  62
ATOM     62  C   UNL A   1      45.745  32.490  28.480  1.00  0.00     0.064 A 
ATOM     63  C   UNL A   1      46.212  32.882  29.743  1.00  0.00     0.173 A 
ATOM     64  C   UNL A   1      45.548  33.484  27.509  1.00  0.00     0.173 A 
ATOM     65  F   UNL A   1      46.410  31.967  30.703  1.00  0.00    -0.203 F 
ATOM     66  C   UNL A   1      46.465  34.221  30.026  1.00  0.00     0.198 A 
ATOM     67  C   UNL A   1      45.822  34.819  27.790  1.00  0.00     0.198 A 
ATOM     68  F   UNL A   1      45.116  33.153  26.283  1.00  0.00    -0.203 F 
ATOM     69  F   UNL A   1      46.892  34.577  31.246  1.00  0.00    -0.200 F 
ATOM     70  C   UNL A   1      46.273  35.187  29.049  1.00  0.00     0.200 A 
ATOM     71  F   UNL A   1      45.657  35.749  26.839  1.00  0.00    -0.200 F 
ATOM     72  F   UNL A   1      46.528  36.474  29.320  1.00  0.00    -0.200 F 
ENDBRANCH  39  62
ENDBRANCH  13  14
ENDBRANCH   6   8
ENDBRANCH   3   4
ENDBRANCH   2   3
ENDBRANCH   1   2
BRANCH   1  73
ATOM     73  C   UNL A   1      37.587  21.985  25.372  1.00  0.00     0.116 C 
BRANCH  73  74
ATOM     74  N   UNL A   1      37.308  23.084  24.464  1.00  0.00    -0.352 N 
ATOM     75  C   UNL A   1      36.077  23.262  23.878  1.00  0.00     0.255 C 
ATOM     76  H   UNL A   1      38.027  23.724  24.260  1.00  0.00     0.163 HD
ATOM     77  O   UNL A   1      36.019  23.077  22.666  1.00  0.00    -0.269 OA
BRANCH  75  78
ATOM     78  C   UNL A   1      34.926  23.731  24.709  1.00  0.00     0.082 A 
ATOM     79  C   UNL A   1      34.660  25.113  24.784  1.00  0.00     0.033 A 
ATOM     80  C   UNL A   1      34.107  22.855  25.441  1.00  0.00     0.132 A 
ATOM     81  C   UNL A   1      33.727  25.619  25.687  1.00  0.00     0.019 A 
ATOM     82  C   UNL A   1      33.184  23.384  26.361  1.00  0.00     0.048 A 
ATOM     83  Br  UNL A   1      33.484  27.488  25.832  1.00  0.00    -0.051 Br
ATOM     84  C   UNL A   1      33.006  24.760  26.501  1.00  0.00     0.019 A 
BRANCH  80  85
ATOM     85  O   UNL A   1      34.163  21.493  25.470  1.00  0.00    -0.488 OA
BRANCH  85  86
ATOM     86  C   UNL A   1      33.104  20.699  24.909  1.00  0.00     0.268 C 
BRANCH  86  87
ATOM     87  C   UNL A   1      33.393  19.367  24.252  1.00  0.00     0.025 A 
ATOM     88  C   UNL A   1      34.294  18.452  24.819  1.00  0.00     0.010 A 
ATOM     89  C   UNL A   1      32.685  18.968  23.116  1.00  0.00     0.129 A 
ATOM     90  C   UNL A   1      34.495  17.190  24.253  1.00  0.00     0.001 A 
ATOM     91  C   UNL A   1      32.860  17.701  22.560  1.00  0.00     0.039 A 
ATOM     92  F   UNL A   1      31.778  19.788  22.569  1.00  0.00    -0.207 F 
ATOM     93  C   UNL A   1      33.772  16.811  23.126  1.00  0.00     0.003 A 
ENDBRANCH  86  87
ENDBRANCH  85  86
ENDBRANCH  80  85
ENDBRANCH  75  78
ENDBRANCH  73  74
ENDBRANCH   1  73
TORSDOF 14
ENDMDL
MODEL 2
REMARK VINA RESULT:     -12.6      6.018     11.401
REMARK SMILES O=C(NCCCCNC(=O)c1cc(Br)ccc1OCc1ccccc1F)c1ccc(-c2c3nc(c(-c4c(F)c(F)c(F)c(F)c4F)c4ccc([nH]4)c(-c4c(F)c(F)c(F)c(F)c4F)c4nc(c(-c5c(F)c(F)c(F)c(F)c5F)c5ccc2[nH]5)C=C4)C=C3)cc1
REMARK SMILES IDX 6 1 5 2 4 3 3 4 1 5 2 6 27 8 28 9 89 10 29 11 88 12 30 13
REMARK SMILES IDX 31 14 32 15 82 16 33 17 87 18 81 19 83 20 34 21 86 22 80 23
REMARK SMILES IDX 79 24 35 26 67 27 47 28 66 29 48 30 51 31 65 32 84 33 49 34
REMARK SMILES IDX 50 35 64 37 85 38 52 39 36 40 37 41 45 42 38 43 39 44 43 45
REMARK SMILES IDX 46 46 40 47 41 48 44 49 42 50 68 51 69 52 77 53 70 54 71 55
REMARK SMILES IDX 75 56 78 57 72 58 73 59 76 60 74 61 53 62 54 63 62 64 55 65
REMARK SMILES IDX 56 66 60 67 63 68 57 69 58 70 61 71 59 72 7 73 8 74 9 75
REMARK SMILES IDX 10 77 11 78 12 79 17 80 13 81 16 82 14 83 15 84 18 85 19 86
REMARK SMILES IDX 20 87 21 88 25 89 22 90 24 91 26 92 23 93
REMARK H PARENT 3 7 83 25 51 36 8 76
REMARK Flexibility Score: inf
ROOT
ATOM      1  C   UNL A   1      31.552  30.434  25.806  1.00  0.00     0.023 C 
ENDROOT
BRANCH   1   2
ATOM      2  C   UNL A   1      31.359  31.818  26.430  1.00  0.00     0.023 C 
BRANCH   2   3
ATOM      3  C   UNL A   1      32.608  32.459  27.016  1.00  0.00     0.116 C 
BRANCH   3   4
ATOM      4  N   UNL A   1      32.404  33.837  27.429  1.00  0.00    -0.352 N 
ATOM      5  O   UNL A   1      32.709  35.700  28.667  1.00  0.00    -0.269 OA
ATOM      6  C   UNL A   1      33.079  34.564  28.375  1.00  0.00     0.251 C 
ATOM      7  H   UNL A   1      31.680  34.316  26.965  1.00  0.00     0.163 HD
BRANCH   6   8
ATOM      8  C   UNL A   1      34.233  33.965  29.072  1.00  0.00     0.039 A 
ATOM      9  C   UNL A   1      35.519  34.485  28.901  1.00  0.00     0.014 A 
ATOM     10  C   UNL A   1      34.021  32.856  29.897  1.00  0.00     0.014 A 
ATOM     11  C   UNL A   1      36.607  33.819  29.452  1.00  0.00     0.010 A 
ATOM     12  C   UNL A   1      35.109  32.232  30.509  1.00  0.00     0.010 A 
ATOM     13  C   UNL A   1      36.411  32.691  30.268  1.00  0.00    -0.014 A 
BRANCH  13  14
ATOM     14  C   UNL A   1      37.585  32.044  30.901  1.00  0.00     0.031 A 
ATOM     15  C   UNL A   1      37.960  32.340  32.323  1.00  0.00     0.074 A 
ATOM     16  C   UNL A   1      38.286  31.146  30.183  1.00  0.00     0.049 A 
ATOM     17  N   UNL A   1      38.935  31.838  33.037  1.00  0.00    -0.248 NA
ATOM     18  C   UNL A   1      37.139  33.328  33.039  1.00  0.00     0.031 C 
ATOM     19  C   UNL A   1      38.006  30.786  28.793  1.00  0.00     0.029 A 
ATOM     20  N   UNL A   1      39.347  30.353  30.528  1.00  0.00    -0.354 N 
ATOM     21  C   UNL A   1      38.857  32.457  34.277  1.00  0.00     0.074 A 
ATOM     22  C   UNL A   1      37.751  33.389  34.214  1.00  0.00     0.031 C 
ATOM     23  C   UNL A   1      38.832  29.798  28.422  1.00  0.00     0.029 A 
ATOM     24  C   UNL A   1      39.734  29.495  29.528  1.00  0.00     0.049 A 
ATOM     25  H   UNL A   1      39.791  30.393  31.406  1.00  0.00     0.167 HD
ATOM     26  C   UNL A   1      39.635  32.257  35.367  1.00  0.00     0.037 A 
ATOM     27  C   UNL A   1      40.706  28.566  29.505  1.00  0.00     0.037 A 
ATOM     28  C   UNL A   1      40.725  31.317  35.426  1.00  0.00     0.049 A 
ATOM     29  C   UNL A   1      41.560  28.374  30.722  1.00  0.00     0.074 A 
ATOM     30  C   UNL A   1      41.570  31.038  36.486  1.00  0.00     0.029 A 
ATOM     31  N   UNL A   1      41.117  30.497  34.377  1.00  0.00    -0.354 N 
ATOM     32  N   UNL A   1      41.483  28.973  31.885  1.00  0.00    -0.248 NA
ATOM     33  C   UNL A   1      42.643  27.387  30.621  1.00  0.00     0.031 C 
ATOM     34  C   UNL A   1      42.493  30.073  36.070  1.00  0.00     0.029 A 
ATOM     35  C   UNL A   1      42.199  29.721  34.761  1.00  0.00     0.049 A 
ATOM     36  H   UNL A   1      40.689  30.471  33.490  1.00  0.00     0.167 HD
ATOM     37  C   UNL A   1      42.503  28.439  32.657  1.00  0.00     0.074 A 
ATOM     38  C   UNL A   1      43.173  27.449  31.836  1.00  0.00     0.031 C 
ATOM     39  C   UNL A   1      42.857  28.748  33.927  1.00  0.00     0.037 A 
BRANCH  26  40
ATOM     40  C   UNL A   1      39.346  33.076  36.590  1.00  0.00     0.064 A 
ATOM     41  C   UNL A   1      40.012  34.291  36.807  1.00  0.00     0.173 A 
ATOM     42  C   UNL A   1      38.451  32.632  37.575  1.00  0.00     0.173 A 
ATOM     43  F   UNL A   1      40.882  34.757  35.899  1.00  0.00    -0.203 F 
ATOM     44  C   UNL A   1      39.801  35.027  37.971  1.00  0.00     0.198 A 
ATOM     45  C   UNL A   1      38.225  33.382  38.727  1.00  0.00     0.198 A 
ATOM     46  F   UNL A   1      37.780  31.482  37.408  1.00  0.00    -0.203 F 
ATOM     47  F   UNL A   1      40.465  36.173  38.167  1.00  0.00    -0.200 F 
ATOM     48  C   UNL A   1      38.905  34.574  38.927  1.00  0.00     0.200 A 
ATOM     49  F   UNL A   1      37.343  32.953  39.641  1.00  0.00    -0.200 F 
ATOM     50  F   UNL A   1      38.693  35.289  40.041  1.00  0.00    -0.200 F 
ENDBRANCH  26  40
BRANCH  27  51
ATOM     51  C   UNL A   1      40.888  27.741  28.286  1.00  0.00     0.064 A 
ATOM     52  C   UNL A   1      40.270  26.490  28.155  1.00  0.00     0.173 A 
ATOM     53  C   UNL A   1      41.746  28.160  27.262  1.00  0.00     0.173 A 
ATOM     54  F   UNL A   1      39.446  26.044  29.115  1.00  0.00    -0.203 F 
ATOM     55  C   UNL A   1      40.527  25.674  27.056  1.00  0.00     0.198 A 
ATOM     56  C   UNL A   1      41.986  27.353  26.152  1.00  0.00     0.198 A 
ATOM     57  F   UNL A   1      42.348  29.356  27.340  1.00  0.00    -0.203 F 
ATOM     58  F   UNL A   1      39.960  24.463  26.975  1.00  0.00    -0.200 F 
ATOM     59  C   UNL A   1      41.384  26.106  26.055  1.00  0.00     0.200 A 
ATOM     60  F   UNL A   1      42.802  27.780  25.179  1.00  0.00    -0.200 F 
ATOM     61  F   UNL A   1      41.634  25.321  24.999  1.00  0.00    -0.200 F 
ENDBRANCH  27  51
BRANCH  39  62
ATOM     62  C   UNL A   1      44.021  28.008  34.510  1.00  0.00     0.064 A 
ATOM     63  C   UNL A   1      43.828  26.794  35.185  1.00  0.00     0.173 A 
ATOM     64  C   UNL A   1      45.321  28.531  34.447  1.00  0.00     0.173 A 
ATOM     65  F   UNL A   1      42.601  26.258  35.274  1.00  0.00    -0.203 F 
ATOM     66  C   UNL A   1      44.896  26.132  35.782  1.00  0.00     0.198 A 
ATOM     67  C   UNL A   1      46.390  27.855  35.028  1.00  0.00     0.198 A 
ATOM     68  F   UNL A   1      45.554  29.683  33.800  1.00  0.00    -0.203 F 
ATOM     69  F   UNL A   1      44.688  24.983  36.440  1.00  0.00    -0.200 F 
ATOM     70  C   UNL A   1      46.176  26.661  35.701  1.00  0.00     0.200 A 
ATOM     71  F   UNL A   1      47.629  28.357  34.930  1.00  0.00    -0.200 F 
ATOM     72  F   UNL A   1      47.206  26.017  36.266  1.00  0.00    -0.200 F 
ENDBRANCH  39  62
ENDBRANCH  13  14
ENDBRANCH   6   8
ENDBRANCH   3   4
ENDBRANCH   2   3
ENDBRANCH   1   2
BRANCH   1  73
ATOM     73  C   UNL A   1      32.945  29.824  25.972  1.00  0.00     0.116 C 
BRANCH  73  74
ATOM     74  N   UNL A   1      32.986  28.835  27.036  1.00  0.00    -0.352 N 
ATOM     75  C   UNL A   1      32.113  27.775  27.091  1.00  0.00     0.255 C 
ATOM     76  H   UNL A   1      33.665  28.928  27.743  1.00  0.00     0.163 HD
ATOM     77  O   UNL A   1      31.290  27.795  28.001  1.00  0.00    -0.269 OA
BRANCH  75  78
ATOM     78  C   UNL A   1      32.256  26.650  26.115  1.00  0.00     0.082 A 
ATOM     79  C   UNL A   1      33.464  25.923  26.088  1.00  0.00     0.033 A 
ATOM     80  C   UNL A   1      31.247  26.298  25.204  1.00  0.00     0.132 A 
ATOM     81  C   UNL A   1      33.725  24.997  25.081  1.00  0.00     0.019 A 
ATOM     82  C   UNL A   1      31.535  25.376  24.182  1.00  0.00     0.048 A 
ATOM     83  Br  UNL A   1      35.402  24.127  25.020  1.00  0.00    -0.051 Br
ATOM     84  C   UNL A   1      32.774  24.740  24.106  1.00  0.00     0.019 A 
BRANCH  80  85
ATOM     85  O   UNL A   1      29.999  26.838  25.095  1.00  0.00    -0.488 OA
BRANCH  85  86
ATOM     86  C   UNL A   1      29.339  26.916  23.820  1.00  0.00     0.268 C 
BRANCH  86  87
ATOM     87  C   UNL A   1      29.143  28.245  23.124  1.00  0.00     0.025 A 
ATOM     88  C   UNL A   1      30.205  28.892  22.471  1.00  0.00     0.010 A 
ATOM     89  C   UNL A   1      27.871  28.812  23.021  1.00  0.00     0.129 A 
ATOM     90  C   UNL A   1      30.001  30.078  21.761  1.00  0.00     0.001 A 
ATOM     91  C   UNL A   1      27.654  29.980  22.292  1.00  0.00     0.039 A 
ATOM     92  F   UNL A   1      26.819  28.203  23.584  1.00  0.00    -0.207 F 
ATOM     93  C   UNL A   1      28.722  30.619  21.664  1.00  0.00     0.003 A 
ENDBRANCH  86  87
ENDBRANCH  85  86
ENDBRANCH  80  85
ENDBRANCH  75  78
ENDBRANCH  73  74
ENDBRANCH   1  73
TORSDOF 14
ENDMDL
MODEL 3
REMARK VINA RESULT:     -12.6      6.360     11.738
REMARK SMILES O=C(NCCCCNC(=O)c1cc(Br)ccc1OCc1ccccc1F)c1ccc(-c2c3nc(c(-c4c(F)c(F)c(F)c(F)c4F)c4ccc([nH]4)c(-c4c(F)c(F)c(F)c(F)c4F)c4nc(c(-c5c(F)c(F)c(F)c(F)c5F)c5ccc2[nH]5)C=C4)C=C3)cc1
REMARK SMILES IDX 6 1 5 2 4 3 3 4 1 5 2 6 27 8 28 9 89 10 29 11 88 12 30 13
REMARK SMILES IDX 31 14 32 15 82 16 33 17 87 18 81 19 83 20 34 21 86 22 80 23
REMARK SMILES IDX 79 24 35 26 67 27 47 28 66 29 48 30 51 31 65 32 84 33 49 34
REMARK SMILES IDX 50 35 64 37 85 38 52 39 36 40 37 41 45 42 38 43 39 44 43 45
REMARK SMILES IDX 46 46 40 47 41 48 44 49 42 50 68 51 69 52 77 53 70 54 71 55
REMARK SMILES IDX 75 56 78 57 72 58 73 59 76 60 74 61 53 62 54 63 62 64 55 65
REMARK SMILES IDX 56 66 60 67 63 68 57 69 58 70 61 71 59 72 7 73 8 74 9 75
REMARK SMILES IDX 10 77 11 78 12 79 17 80 13 81 16 82 14 83 15 84 18 85 19 86
REMARK SMILES IDX 20 87 21 88 25 89 22 90 24 91 26 92 23 93
REMARK H PARENT 3 7 83 25 51 36 8 76
REMARK Flexibility Score: inf
ROOT
ATOM      1  C   UNL A   1      31.612  30.667  26.541  1.00  0.00     0.023 C 
ENDROOT
BRANCH   1   2
ATOM      2  C   UNL A   1      31.502  32.188  26.671  1.00  0.00     0.023 C 
BRANCH   2   3
ATOM      3  C   UNL A   1      32.727  32.894  27.233  1.00  0.00     0.116 C 
BRANCH   3   4
ATOM      4  N   UNL A   1      32.439  34.226  27.737  1.00  0.00    -0.352 N 
ATOM      5  O   UNL A   1      32.628  36.015  29.099  1.00  0.00    -0.269 OA
ATOM      6  C   UNL A   1      33.067  34.926  28.734  1.00  0.00     0.251 C 
ATOM      7  H   UNL A   1      31.689  34.690  27.302  1.00  0.00     0.163 HD
BRANCH   6   8
ATOM      8  C   UNL A   1      34.255  34.352  29.395  1.00  0.00     0.039 A 
ATOM      9  C   UNL A   1      35.539  34.619  28.913  1.00  0.00     0.014 A 
ATOM     10  C   UNL A   1      34.073  33.523  30.505  1.00  0.00     0.014 A 
ATOM     11  C   UNL A   1      36.629  33.955  29.463  1.00  0.00     0.010 A 
ATOM     12  C   UNL A   1      35.178  32.915  31.103  1.00  0.00     0.010 A 
ATOM     13  C   UNL A   1      36.459  33.103  30.567  1.00  0.00    -0.014 A 
BRANCH  13  14
ATOM     14  C   UNL A   1      37.649  32.465  31.178  1.00  0.00     0.031 A 
ATOM     15  C   UNL A   1      38.099  32.827  32.563  1.00  0.00     0.074 A 
ATOM     16  C   UNL A   1      38.298  31.516  30.477  1.00  0.00     0.049 A 
ATOM     17  N   UNL A   1      39.098  32.342  33.257  1.00  0.00    -0.248 NA
ATOM     18  C   UNL A   1      37.333  33.869  33.263  1.00  0.00     0.031 C 
ATOM     19  C   UNL A   1      37.945  31.089  29.123  1.00  0.00     0.029 A 
ATOM     20  N   UNL A   1      39.360  30.719  30.813  1.00  0.00    -0.354 N 
ATOM     21  C   UNL A   1      39.091  33.027  34.464  1.00  0.00     0.074 A 
ATOM     22  C   UNL A   1      38.001  33.979  34.403  1.00  0.00     0.031 C 
ATOM     23  C   UNL A   1      38.733  30.066  28.767  1.00  0.00     0.029 A 
ATOM     24  C   UNL A   1      39.681  29.801  29.844  1.00  0.00     0.049 A 
ATOM     25  H   UNL A   1      39.845  30.796  31.666  1.00  0.00     0.167 HD
ATOM     26  C   UNL A   1      39.917  32.868  35.525  1.00  0.00     0.037 A 
ATOM     27  C   UNL A   1      40.633  28.852  29.825  1.00  0.00     0.037 A 
ATOM     28  C   UNL A   1      40.990  31.909  35.583  1.00  0.00     0.049 A 
ATOM     29  C   UNL A   1      41.541  28.705  31.008  1.00  0.00     0.074 A 
ATOM     30  C   UNL A   1      41.880  31.668  36.615  1.00  0.00     0.029 A 
ATOM     31  N   UNL A   1      41.315  31.026  34.561  1.00  0.00    -0.354 N 
ATOM     32  N   UNL A   1      41.532  29.366  32.140  1.00  0.00    -0.248 NA
ATOM     33  C   UNL A   1      42.598  27.691  30.910  1.00  0.00     0.031 C 
ATOM     34  C   UNL A   1      42.763  30.662  36.208  1.00  0.00     0.029 A 
ATOM     35  C   UNL A   1      42.400  30.249  34.935  1.00  0.00     0.049 A 
ATOM     36  H   UNL A   1      40.845  30.963  33.699  1.00  0.00     0.167 HD
ATOM     37  C   UNL A   1      42.577  28.852  32.890  1.00  0.00     0.074 A 
ATOM     38  C   UNL A   1      43.187  27.806  32.094  1.00  0.00     0.031 C 
ATOM     39  C   UNL A   1      42.998  29.220  34.125  1.00  0.00     0.037 A 
BRANCH  26  40
ATOM     40  C   UNL A   1      39.703  33.756  36.714  1.00  0.00     0.064 A 
ATOM     41  C   UNL A   1      38.869  33.350  37.766  1.00  0.00     0.173 A 
ATOM     42  C   UNL A   1      40.278  35.034  36.788  1.00  0.00     0.173 A 
ATOM     43  F   UNL A   1      38.291  32.140  37.742  1.00  0.00    -0.203 F 
ATOM     44  C   UNL A   1      38.611  34.193  38.844  1.00  0.00     0.198 A 
ATOM     45  C   UNL A   1      40.035  35.866  37.878  1.00  0.00     0.198 A 
ATOM     46  F   UNL A   1      41.093  35.464  35.813  1.00  0.00    -0.203 F 
ATOM     47  F   UNL A   1      37.793  33.793  39.826  1.00  0.00    -0.200 F 
ATOM     48  C   UNL A   1      39.197  35.449  38.901  1.00  0.00     0.200 A 
ATOM     49  F   UNL A   1      40.619  37.071  37.942  1.00  0.00    -0.200 F 
ATOM     50  F   UNL A   1      38.957  36.255  39.944  1.00  0.00    -0.200 F 
ENDBRANCH  26  40
BRANCH  27  51
ATOM     51  C   UNL A   1      40.740  27.960  28.645  1.00  0.00     0.064 A 
ATOM     52  C   UNL A   1      41.508  28.318  27.528  1.00  0.00     0.173 A 
ATOM     53  C   UNL A   1      40.012  26.765  28.584  1.00  0.00     0.173 A 
ATOM     54  F   UNL A   1      42.215  29.458  27.537  1.00  0.00    -0.203 F 
ATOM     55  C   UNL A   1      41.521  27.528  26.382  1.00  0.00     0.198 A 
ATOM     56  C   UNL A   1      40.043  25.963  27.446  1.00  0.00     0.198 A 
ATOM     57  F   UNL A   1      39.274  26.377  29.635  1.00  0.00    -0.203 F 
ATOM     58  F   UNL A   1      42.227  27.914  25.311  1.00  0.00    -0.200 F 
ATOM     59  C   UNL A   1      40.789  26.351  26.342  1.00  0.00     0.200 A 
ATOM     60  F   UNL A   1      39.347  24.818  27.416  1.00  0.00    -0.200 F 
ATOM     61  F   UNL A   1      40.799  25.590  25.239  1.00  0.00    -0.200 F 
ENDBRANCH  27  51
BRANCH  39  62
ATOM     62  C   UNL A   1      44.174  28.486  34.691  1.00  0.00     0.064 A 
ATOM     63  C   UNL A   1      45.479  28.946  34.463  1.00  0.00     0.173 A 
ATOM     64  C   UNL A   1      44.009  27.295  35.413  1.00  0.00     0.173 A 
ATOM     65  F   UNL A   1      45.685  30.078  33.774  1.00  0.00    -0.203 F 
ATOM     66  C   UNL A   1      46.578  28.235  34.934  1.00  0.00     0.198 A 
ATOM     67  C   UNL A   1      45.111  26.598  35.900  1.00  0.00     0.198 A 
ATOM     68  F   UNL A   1      42.778  26.824  35.666  1.00  0.00    -0.203 F 
ATOM     69  F   UNL A   1      47.818  28.681  34.688  1.00  0.00    -0.200 F 
ATOM     70  C   UNL A   1      46.393  27.063  35.654  1.00  0.00     0.200 A 
ATOM     71  F   UNL A   1      44.930  25.477  36.614  1.00  0.00    -0.200 F 
ATOM     72  F   UNL A   1      47.453  26.386  36.117  1.00  0.00    -0.200 F 
ENDBRANCH  39  62
ENDBRANCH  13  14
ENDBRANCH   6   8
ENDBRANCH   3   4
ENDBRANCH   2   3
ENDBRANCH   1   2
BRANCH   1  73
ATOM     73  C   UNL A   1      32.963  30.143  26.050  1.00  0.00     0.116 C 
BRANCH  73  74
ATOM     74  N   UNL A   1      32.927  29.763  24.649  1.00  0.00    -0.352 N 
ATOM     75  C   UNL A   1      33.140  28.471  24.229  1.00  0.00     0.255 C 
ATOM     76  H   UNL A   1      32.742  30.456  23.975  1.00  0.00     0.163 HD
ATOM     77  O   UNL A   1      34.177  28.266  23.606  1.00  0.00    -0.269 OA
BRANCH  75  78
ATOM     78  C   UNL A   1      32.094  27.432  24.481  1.00  0.00     0.082 A 
ATOM     79  C   UNL A   1      32.382  26.382  25.377  1.00  0.00     0.033 A 
ATOM     80  C   UNL A   1      30.841  27.441  23.846  1.00  0.00     0.132 A 
ATOM     81  C   UNL A   1      31.526  25.290  25.505  1.00  0.00     0.019 A 
ATOM     82  C   UNL A   1      29.999  26.322  23.972  1.00  0.00     0.048 A 
ATOM     83  Br  UNL A   1      32.006  23.853  26.635  1.00  0.00    -0.051 Br
ATOM     84  C   UNL A   1      30.345  25.240  24.782  1.00  0.00     0.019 A 
BRANCH  80  85
ATOM     85  O   UNL A   1      30.350  28.380  22.988  1.00  0.00    -0.488 OA
BRANCH  85  86
ATOM     86  C   UNL A   1      29.206  29.175  23.343  1.00  0.00     0.268 C 
BRANCH  86  87
ATOM     87  C   UNL A   1      28.846  30.417  22.557  1.00  0.00     0.025 A 
ATOM     88  C   UNL A   1      28.346  30.335  21.247  1.00  0.00     0.010 A 
ATOM     89  C   UNL A   1      28.901  31.677  23.156  1.00  0.00     0.129 A 
ATOM     90  C   UNL A   1      27.939  31.479  20.556  1.00  0.00     0.001 A 
ATOM     91  C   UNL A   1      28.471  32.820  22.483  1.00  0.00     0.039 A 
ATOM     92  F   UNL A   1      29.323  31.799  24.422  1.00  0.00    -0.207 F 
ATOM     93  C   UNL A   1      27.994  32.723  21.177  1.00  0.00     0.003 A 
ENDBRANCH  86  87
ENDBRANCH  85  86
ENDBRANCH  80  85
ENDBRANCH  75  78
ENDBRANCH  73  74
ENDBRANCH   1  73
TORSDOF 14
ENDMDL
