MODEL 1
REMARK VINA RESULT:     -10.5      0.000      0.000
REMARK SMILES CC(C)c1ccc(CCCC(=O)NCCCCNC(=O)c2ccc(-c3c4nc(c(-c5c(F)c(F)c(F)c(F)c5F)c5ccc([nH]5)c(-c5c(F)c(F)c(F)c(F)c5F)c5nc(c(-c6c(F)c(F)c(F)c(F)c6F)c6ccc3[nH]6)C=C5)C=C4)cc2)cc1
REMARK SMILES IDX 14 1 13 2 11 3 12 4 10 6 9 7 8 8 7 9 4 10 5 11 85 12 6 13
REMARK SMILES IDX 84 14 2 15 1 16 3 17 15 18 16 19 17 20 18 21 19 22 20 24
REMARK SMILES IDX 21 25 22 26 83 27 23 28 82 29 24 30 25 31 26 32 76 33 27 34
REMARK SMILES IDX 81 35 75 36 77 37 28 38 80 39 74 40 73 41 29 43 61 44 41 45
REMARK SMILES IDX 60 46 42 47 45 48 59 49 78 50 43 51 44 52 58 54 79 55 46 56
REMARK SMILES IDX 30 57 31 58 39 59 32 60 33 61 37 62 40 63 34 64 35 65 38 66
REMARK SMILES IDX 36 67 62 68 63 69 71 70 64 71 65 72 69 73 72 74 66 75 67 76
REMARK SMILES IDX 70 77 68 78 47 79 48 80 56 81 49 82 50 83 54 84 57 85 51 86
REMARK SMILES IDX 52 87 55 88 53 89
REMARK H PARENT 13 5 18 23 77 42 45 53
REMARK Flexibility Score: inf
ROOT
ATOM      1  C   UNL A   1      43.598  18.855  25.438  1.00  0.00     0.116 C 
ENDROOT
BRANCH   1   2
ATOM      2  N   UNL A   1      44.935  18.516  25.878  1.00  0.00    -0.356 N 
ATOM      3  C   UNL A   1      46.129  18.863  25.325  1.00  0.00     0.220 C 
ATOM      4  O   UNL A   1      47.153  18.327  25.751  1.00  0.00    -0.275 OA
ATOM      5  H   UNL A   1      44.987  17.959  26.689  1.00  0.00     0.163 HD
BRANCH   3   6
ATOM      6  C   UNL A   1      46.187  19.945  24.266  1.00  0.00     0.100 C 
BRANCH   6   7
ATOM      7  C   UNL A   1      46.364  21.386  24.754  1.00  0.00     0.015 C 
BRANCH   7   8
ATOM      8  C   UNL A   1      45.161  22.160  25.320  1.00  0.00     0.036 C 
BRANCH   8   9
ATOM      9  C   UNL A   1      45.221  22.861  26.662  1.00  0.00    -0.048 A 
ATOM     10  C   UNL A   1      45.399  24.374  29.078  1.00  0.00    -0.045 A 
ATOM     11  C   UNL A   1      44.325  23.512  28.836  1.00  0.00     0.004 A 
ATOM     12  C   UNL A   1      46.400  24.451  28.101  1.00  0.00     0.004 A 
ATOM     13  C   UNL A   1      44.254  22.748  27.662  1.00  0.00     0.004 A 
ATOM     14  C   UNL A   1      46.309  23.714  26.913  1.00  0.00     0.004 A 
BRANCH  10  15
ATOM     15  C   UNL A   1      45.534  25.194  30.356  1.00  0.00     0.013 C 
ATOM     16  C   UNL A   1      45.269  26.697  30.197  1.00  0.00     0.012 C 
ATOM     17  C   UNL A   1      44.619  24.633  31.450  1.00  0.00     0.012 C 
ENDBRANCH  10  15
ENDBRANCH   8   9
ENDBRANCH   7   8
ENDBRANCH   6   7
ENDBRANCH   3   6
ENDBRANCH   1   2
BRANCH   1  18
ATOM     18  C   UNL A   1      42.575  18.438  26.494  1.00  0.00     0.023 C 
BRANCH  18  19
ATOM     19  C   UNL A   1      42.035  19.604  27.311  1.00  0.00     0.023 C 
BRANCH  19  20
ATOM     20  C   UNL A   1      41.546  20.773  26.466  1.00  0.00     0.116 C 
BRANCH  20  21
ATOM     21  N   UNL A   1      40.168  20.625  26.014  1.00  0.00    -0.352 N 
ATOM     22  C   UNL A   1      39.139  21.536  26.106  1.00  0.00     0.251 C 
ATOM     23  H   UNL A   1      39.944  19.764  25.589  1.00  0.00     0.163 HD
ATOM     24  O   UNL A   1      38.001  21.250  25.766  1.00  0.00    -0.269 OA
BRANCH  22  25
ATOM     25  C   UNL A   1      39.438  22.862  26.683  1.00  0.00     0.039 A 
ATOM     26  C   UNL A   1      40.402  22.956  27.689  1.00  0.00     0.014 A 
ATOM     27  C   UNL A   1      38.868  24.009  26.125  1.00  0.00     0.014 A 
ATOM     28  C   UNL A   1      40.877  24.214  28.061  1.00  0.00     0.010 A 
ATOM     29  C   UNL A   1      39.400  25.253  26.441  1.00  0.00     0.010 A 
ATOM     30  C   UNL A   1      40.427  25.364  27.393  1.00  0.00    -0.014 A 
BRANCH  30  31
ATOM     31  C   UNL A   1      41.048  26.692  27.626  1.00  0.00     0.031 A 
ATOM     32  C   UNL A   1      42.452  26.954  27.166  1.00  0.00     0.074 A 
ATOM     33  C   UNL A   1      40.388  27.617  28.350  1.00  0.00     0.049 A 
ATOM     34  N   UNL A   1      43.216  27.992  27.393  1.00  0.00    -0.248 NA
ATOM     35  C   UNL A   1      43.095  25.893  26.376  1.00  0.00     0.031 C 
ATOM     36  C   UNL A   1      39.042  27.458  28.905  1.00  0.00     0.029 A 
ATOM     37  N   UNL A   1      40.769  28.869  28.764  1.00  0.00    -0.354 N 
ATOM     38  C   UNL A   1      44.433  27.699  26.796  1.00  0.00     0.074 A 
ATOM     39  C   UNL A   1      44.324  26.369  26.235  1.00  0.00     0.031 C 
ATOM     40  C   UNL A   1      38.704  28.573  29.572  1.00  0.00     0.029 A 
ATOM     41  C   UNL A   1      39.823  29.509  29.528  1.00  0.00     0.049 A 
ATOM     42  H   UNL A   1      41.638  29.271  28.534  1.00  0.00     0.167 HD
ATOM     43  C   UNL A   1      45.537  28.479  26.706  1.00  0.00     0.037 A 
ATOM     44  C   UNL A   1      39.861  30.708  30.141  1.00  0.00     0.037 A 
ATOM     45  C   UNL A   1      45.628  29.816  27.227  1.00  0.00     0.049 A 
ATOM     46  C   UNL A   1      41.098  31.556  30.021  1.00  0.00     0.074 A 
ATOM     47  C   UNL A   1      46.666  30.721  27.100  1.00  0.00     0.029 A 
ATOM     48  N   UNL A   1      44.641  30.439  27.977  1.00  0.00    -0.354 N 
ATOM     49  N   UNL A   1      42.216  31.300  29.386  1.00  0.00    -0.248 NA
ATOM     50  C   UNL A   1      41.081  32.856  30.706  1.00  0.00     0.031 C 
ATOM     51  C   UNL A   1      46.325  31.878  27.809  1.00  0.00     0.029 A 
ATOM     52  C   UNL A   1      45.059  31.708  28.345  1.00  0.00     0.049 A 
ATOM     53  H   UNL A   1      43.773  30.039  28.214  1.00  0.00     0.167 HD
ATOM     54  C   UNL A   1      43.027  32.410  29.581  1.00  0.00     0.074 A 
ATOM     55  C   UNL A   1      42.267  33.349  30.379  1.00  0.00     0.031 C 
ATOM     56  C   UNL A   1      44.289  32.628  29.141  1.00  0.00     0.037 A 
BRANCH  43  57
ATOM     57  C   UNL A   1      46.733  27.907  26.007  1.00  0.00     0.064 A 
ATOM     58  C   UNL A   1      46.834  27.906  24.607  1.00  0.00     0.173 A 
ATOM     59  C   UNL A   1      47.808  27.389  26.744  1.00  0.00     0.173 A 
ATOM     60  F   UNL A   1      45.827  28.378  23.858  1.00  0.00    -0.203 F 
ATOM     61  C   UNL A   1      47.956  27.383  23.972  1.00  0.00     0.198 A 
ATOM     62  C   UNL A   1      48.941  26.891  26.105  1.00  0.00     0.198 A 
ATOM     63  F   UNL A   1      47.762  27.371  28.085  1.00  0.00    -0.203 F 
ATOM     64  F   UNL A   1      48.011  27.351  22.633  1.00  0.00    -0.200 F 
ATOM     65  C   UNL A   1      49.010  26.883  24.720  1.00  0.00     0.200 A 
ATOM     66  F   UNL A   1      49.963  26.417  26.830  1.00  0.00    -0.200 F 
ATOM     67  F   UNL A   1      50.093  26.385  24.106  1.00  0.00    -0.200 F 
ENDBRANCH  43  57
BRANCH  44  68
ATOM     68  C   UNL A   1      38.687  31.184  30.916  1.00  0.00     0.064 A 
ATOM     69  C   UNL A   1      37.637  31.863  30.282  1.00  0.00     0.173 A 
ATOM     70  C   UNL A   1      38.590  30.976  32.299  1.00  0.00     0.173 A 
ATOM     71  F   UNL A   1      37.696  32.105  28.964  1.00  0.00    -0.203 F 
ATOM     72  C   UNL A   1      36.541  32.330  31.006  1.00  0.00     0.198 A 
ATOM     73  C   UNL A   1      37.483  31.422  33.018  1.00  0.00     0.198 A 
ATOM     74  F   UNL A   1      39.568  30.330  32.951  1.00  0.00    -0.203 F 
ATOM     75  F   UNL A   1      35.571  33.010  30.381  1.00  0.00    -0.200 F 
ATOM     76  C   UNL A   1      36.463  32.105  32.371  1.00  0.00     0.200 A 
ATOM     77  F   UNL A   1      37.404  31.193  34.335  1.00  0.00    -0.200 F 
ATOM     78  F   UNL A   1      35.408  32.551  33.065  1.00  0.00    -0.200 F 
ENDBRANCH  44  68
BRANCH  56  79
ATOM     79  C   UNL A   1      44.926  33.936  29.502  1.00  0.00     0.064 A 
ATOM     80  C   UNL A   1      45.714  34.069  30.655  1.00  0.00     0.173 A 
ATOM     81  C   UNL A   1      44.794  35.050  28.660  1.00  0.00     0.173 A 
ATOM     82  F   UNL A   1      45.854  33.036  31.499  1.00  0.00    -0.203 F 
ATOM     83  C   UNL A   1      46.336  35.277  30.958  1.00  0.00     0.198 A 
ATOM     84  C   UNL A   1      45.438  36.248  28.954  1.00  0.00     0.198 A 
ATOM     85  F   UNL A   1      44.055  34.970  27.544  1.00  0.00    -0.203 F 
ATOM     86  F   UNL A   1      47.057  35.393  32.082  1.00  0.00    -0.200 F 
ATOM     87  C   UNL A   1      46.205  36.361  30.104  1.00  0.00     0.200 A 
ATOM     88  F   UNL A   1      45.319  37.293  28.122  1.00  0.00    -0.200 F 
ATOM     89  F   UNL A   1      46.814  37.520  30.393  1.00  0.00    -0.200 F 
ENDBRANCH  56  79
ENDBRANCH  30  31
ENDBRANCH  22  25
ENDBRANCH  20  21
ENDBRANCH  19  20
ENDBRANCH  18  19
ENDBRANCH   1  18
TORSDOF 15
ENDMDL
MODEL 2
REMARK VINA RESULT:     -10.3      1.969      2.522
REMARK SMILES CC(C)c1ccc(CCCC(=O)NCCCCNC(=O)c2ccc(-c3c4nc(c(-c5c(F)c(F)c(F)c(F)c5F)c5ccc([nH]5)c(-c5c(F)c(F)c(F)c(F)c5F)c5nc(c(-c6c(F)c(F)c(F)c(F)c6F)c6ccc3[nH]6)C=C5)C=C4)cc2)cc1
REMARK SMILES IDX 14 1 13 2 11 3 12 4 10 6 9 7 8 8 7 9 4 10 5 11 85 12 6 13
REMARK SMILES IDX 84 14 2 15 1 16 3 17 15 18 16 19 17 20 18 21 19 22 20 24
REMARK SMILES IDX 21 25 22 26 83 27 23 28 82 29 24 30 25 31 26 32 76 33 27 34
REMARK SMILES IDX 81 35 75 36 77 37 28 38 80 39 74 40 73 41 29 43 61 44 41 45
REMARK SMILES IDX 60 46 42 47 45 48 59 49 78 50 43 51 44 52 58 54 79 55 46 56
REMARK SMILES IDX 30 57 31 58 39 59 32 60 33 61 37 62 40 63 34 64 35 65 38 66
REMARK SMILES IDX 36 67 62 68 63 69 71 70 64 71 65 72 69 73 72 74 66 75 67 76
REMARK SMILES IDX 70 77 68 78 47 79 48 80 56 81 49 82 50 83 54 84 57 85 51 86
REMARK SMILES IDX 52 87 55 88 53 89
REMARK H PARENT 13 5 18 23 77 42 45 53
REMARK Flexibility Score: inf
ROOT
ATOM      1  C   UNL A   1      43.024  19.360  25.553  1.00  0.00     0.116 C 
ENDROOT
BRANCH   1   2
ATOM      2  N   UNL A   1      44.429  19.643  25.752  1.00  0.00    -0.356 N 
ATOM      3  C   UNL A   1      45.248  20.454  25.026  1.00  0.00     0.220 C 
ATOM      4  O   UNL A   1      46.458  20.424  25.253  1.00  0.00    -0.275 OA
ATOM      5  H   UNL A   1      44.851  19.187  26.516  1.00  0.00     0.163 HD
BRANCH   3   6
ATOM      6  C   UNL A   1      44.656  21.424  24.024  1.00  0.00     0.100 C 
BRANCH   6   7
ATOM      7  C   UNL A   1      44.665  22.908  24.403  1.00  0.00     0.015 C 
BRANCH   7   8
ATOM      8  C   UNL A   1      43.577  23.471  25.334  1.00  0.00     0.036 C 
BRANCH   8   9
ATOM      9  C   UNL A   1      43.812  23.656  26.819  1.00  0.00    -0.048 A 
ATOM     10  C   UNL A   1      44.393  24.183  29.566  1.00  0.00    -0.045 A 
ATOM     11  C   UNL A   1      43.093  23.895  29.138  1.00  0.00     0.004 A 
ATOM     12  C   UNL A   1      45.408  24.178  28.599  1.00  0.00     0.004 A 
ATOM     13  C   UNL A   1      42.815  23.609  27.794  1.00  0.00     0.004 A 
ATOM     14  C   UNL A   1      45.121  23.927  27.251  1.00  0.00     0.004 A 
BRANCH  10  15
ATOM     15  C   UNL A   1      44.746  24.464  31.021  1.00  0.00     0.013 C 
ATOM     16  C   UNL A   1      44.329  25.847  31.538  1.00  0.00     0.012 C 
ATOM     17  C   UNL A   1      44.152  23.384  31.934  1.00  0.00     0.012 C 
ENDBRANCH  10  15
ENDBRANCH   8   9
ENDBRANCH   7   8
ENDBRANCH   6   7
ENDBRANCH   3   6
ENDBRANCH   1   2
BRANCH   1  18
ATOM     18  C   UNL A   1      42.181  20.162  26.544  1.00  0.00     0.023 C 
BRANCH  18  19
ATOM     19  C   UNL A   1      41.049  20.941  25.887  1.00  0.00     0.023 C 
BRANCH  19  20
ATOM     20  C   UNL A   1      40.061  21.544  26.876  1.00  0.00     0.116 C 
BRANCH  20  21
ATOM     21  N   UNL A   1      38.854  22.065  26.245  1.00  0.00    -0.352 N 
ATOM     22  C   UNL A   1      38.430  23.373  26.170  1.00  0.00     0.251 C 
ATOM     23  H   UNL A   1      38.270  21.397  25.817  1.00  0.00     0.163 HD
ATOM     24  O   UNL A   1      37.347  23.666  25.686  1.00  0.00    -0.269 OA
BRANCH  22  25
ATOM     25  C   UNL A   1      39.300  24.418  26.746  1.00  0.00     0.039 A 
ATOM     26  C   UNL A   1      40.079  25.194  25.886  1.00  0.00     0.014 A 
ATOM     27  C   UNL A   1      39.228  24.710  28.110  1.00  0.00     0.014 A 
ATOM     28  C   UNL A   1      40.703  26.340  26.380  1.00  0.00     0.010 A 
ATOM     29  C   UNL A   1      39.785  25.892  28.581  1.00  0.00     0.010 A 
ATOM     30  C   UNL A   1      40.505  26.731  27.715  1.00  0.00    -0.014 A 
BRANCH  30  31
ATOM     31  C   UNL A   1      40.992  28.039  28.221  1.00  0.00     0.031 A 
ATOM     32  C   UNL A   1      42.465  28.291  28.353  1.00  0.00     0.074 A 
ATOM     33  C   UNL A   1      40.105  28.951  28.666  1.00  0.00     0.049 A 
ATOM     34  N   UNL A   1      43.084  29.307  28.899  1.00  0.00    -0.248 NA
ATOM     35  C   UNL A   1      43.361  27.246  27.836  1.00  0.00     0.031 C 
ATOM     36  C   UNL A   1      38.649  28.798  28.647  1.00  0.00     0.029 A 
ATOM     37  N   UNL A   1      40.299  30.182  29.241  1.00  0.00    -0.354 N 
ATOM     38  C   UNL A   1      44.437  29.012  28.811  1.00  0.00     0.074 A 
ATOM     39  C   UNL A   1      44.549  27.704  28.203  1.00  0.00     0.031 C 
ATOM     40  C   UNL A   1      38.082  29.897  29.171  1.00  0.00     0.029 A 
ATOM     41  C   UNL A   1      39.133  30.813  29.601  1.00  0.00     0.049 A 
ATOM     42  H   UNL A   1      41.190  30.576  29.383  1.00  0.00     0.167 HD
ATOM     43  C   UNL A   1      45.490  29.775  29.187  1.00  0.00     0.037 A 
ATOM     44  C   UNL A   1      38.934  31.990  30.224  1.00  0.00     0.037 A 
ATOM     45  C   UNL A   1      45.376  31.093  29.752  1.00  0.00     0.049 A 
ATOM     46  C   UNL A   1      40.123  32.820  30.627  1.00  0.00     0.074 A 
ATOM     47  C   UNL A   1      46.386  31.983  30.073  1.00  0.00     0.029 A 
ATOM     48  N   UNL A   1      44.178  31.708  30.082  1.00  0.00    -0.354 N 
ATOM     49  N   UNL A   1      41.398  32.565  30.468  1.00  0.00    -0.248 NA
ATOM     50  C   UNL A   1      39.844  34.096  31.299  1.00  0.00     0.031 C 
ATOM     51  C   UNL A   1      45.800  33.121  30.636  1.00  0.00     0.029 A 
ATOM     52  C   UNL A   1      44.424  32.956  30.630  1.00  0.00     0.049 A 
ATOM     53  H   UNL A   1      43.285  31.315  29.947  1.00  0.00     0.167 HD
ATOM     54  C   UNL A   1      42.073  33.653  31.004  1.00  0.00     0.074 A 
ATOM     55  C   UNL A   1      41.066  34.578  31.478  1.00  0.00     0.031 C 
ATOM     56  C   UNL A   1      43.408  33.863  31.098  1.00  0.00     0.037 A 
BRANCH  43  57
ATOM     57  C   UNL A   1      46.863  29.205  28.987  1.00  0.00     0.064 A 
ATOM     58  C   UNL A   1      47.587  29.433  27.807  1.00  0.00     0.173 A 
ATOM     59  C   UNL A   1      47.476  28.456  30.001  1.00  0.00     0.173 A 
ATOM     60  F   UNL A   1      47.038  30.133  26.803  1.00  0.00    -0.203 F 
ATOM     61  C   UNL A   1      48.865  28.908  27.640  1.00  0.00     0.198 A 
ATOM     62  C   UNL A   1      48.766  27.955  29.841  1.00  0.00     0.198 A 
ATOM     63  F   UNL A   1      46.827  28.213  31.150  1.00  0.00    -0.203 F 
ATOM     64  F   UNL A   1      49.520  29.101  26.487  1.00  0.00    -0.200 F 
ATOM     65  C   UNL A   1      49.455  28.176  28.659  1.00  0.00     0.200 A 
ATOM     66  F   UNL A   1      49.339  27.256  30.830  1.00  0.00    -0.200 F 
ATOM     67  F   UNL A   1      50.689  27.677  28.498  1.00  0.00    -0.200 F 
ENDBRANCH  43  57
BRANCH  44  68
ATOM     68  C   UNL A   1      37.552  32.461  30.499  1.00  0.00     0.064 A 
ATOM     69  C   UNL A   1      36.842  33.200  29.541  1.00  0.00     0.173 A 
ATOM     70  C   UNL A   1      36.915  32.189  31.718  1.00  0.00     0.173 A 
ATOM     71  F   UNL A   1      37.419  33.503  28.369  1.00  0.00    -0.203 F 
ATOM     72  C   UNL A   1      35.553  33.661  29.799  1.00  0.00     0.198 A 
ATOM     73  C   UNL A   1      35.617  32.632  31.965  1.00  0.00     0.198 A 
ATOM     74  F   UNL A   1      37.551  31.485  32.665  1.00  0.00    -0.203 F 
ATOM     75  F   UNL A   1      34.913  34.399  28.881  1.00  0.00    -0.200 F 
ATOM     76  C   UNL A   1      34.940  33.373  31.008  1.00  0.00     0.200 A 
ATOM     77  F   UNL A   1      35.022  32.341  33.131  1.00  0.00    -0.200 F 
ATOM     78  F   UNL A   1      33.699  33.815  31.254  1.00  0.00    -0.200 F 
ENDBRANCH  44  68
BRANCH  56  79
ATOM     79  C   UNL A   1      43.859  35.146  31.727  1.00  0.00     0.064 A 
ATOM     80  C   UNL A   1      44.213  35.208  33.083  1.00  0.00     0.173 A 
ATOM     81  C   UNL A   1      43.991  36.310  30.956  1.00  0.00     0.173 A 
ATOM     82  F   UNL A   1      44.087  34.125  33.863  1.00  0.00    -0.203 F 
ATOM     83  C   UNL A   1      44.671  36.396  33.647  1.00  0.00     0.198 A 
ATOM     84  C   UNL A   1      44.473  37.489  31.518  1.00  0.00     0.198 A 
ATOM     85  F   UNL A   1      43.669  36.299  29.654  1.00  0.00    -0.203 F 
ATOM     86  F   UNL A   1      44.973  36.443  34.952  1.00  0.00    -0.200 F 
ATOM     87  C   UNL A   1      44.809  37.531  32.863  1.00  0.00     0.200 A 
ATOM     88  F   UNL A   1      44.616  38.583  30.757  1.00  0.00    -0.200 F 
ATOM     89  F   UNL A   1      45.261  38.670  33.406  1.00  0.00    -0.200 F 
ENDBRANCH  56  79
ENDBRANCH  30  31
ENDBRANCH  22  25
ENDBRANCH  20  21
ENDBRANCH  19  20
ENDBRANCH  18  19
ENDBRANCH   1  18
TORSDOF 15
ENDMDL
MODEL 3
REMARK VINA RESULT:     -10.3      0.441      2.046
REMARK SMILES CC(C)c1ccc(CCCC(=O)NCCCCNC(=O)c2ccc(-c3c4nc(c(-c5c(F)c(F)c(F)c(F)c5F)c5ccc([nH]5)c(-c5c(F)c(F)c(F)c(F)c5F)c5nc(c(-c6c(F)c(F)c(F)c(F)c6F)c6ccc3[nH]6)C=C5)C=C4)cc2)cc1
REMARK SMILES IDX 14 1 13 2 11 3 12 4 10 6 9 7 8 8 7 9 4 10 5 11 85 12 6 13
REMARK SMILES IDX 84 14 2 15 1 16 3 17 15 18 16 19 17 20 18 21 19 22 20 24
REMARK SMILES IDX 21 25 22 26 83 27 23 28 82 29 24 30 25 31 26 32 76 33 27 34
REMARK SMILES IDX 81 35 75 36 77 37 28 38 80 39 74 40 73 41 29 43 61 44 41 45
REMARK SMILES IDX 60 46 42 47 45 48 59 49 78 50 43 51 44 52 58 54 79 55 46 56
REMARK SMILES IDX 30 57 31 58 39 59 32 60 33 61 37 62 40 63 34 64 35 65 38 66
REMARK SMILES IDX 36 67 62 68 63 69 71 70 64 71 65 72 69 73 72 74 66 75 67 76
REMARK SMILES IDX 70 77 68 78 47 79 48 80 56 81 49 82 50 83 54 84 57 85 51 86
REMARK SMILES IDX 52 87 55 88 53 89
REMARK H PARENT 13 5 18 23 77 42 45 53
REMARK Flexibility Score: inf
ROOT
ATOM      1  C   UNL A   1      43.201  18.766  25.780  1.00  0.00     0.116 C 
ENDROOT
BRANCH   1   2
ATOM      2  N   UNL A   1      44.618  18.490  25.888  1.00  0.00    -0.356 N 
ATOM      3  C   UNL A   1      45.647  19.014  25.167  1.00  0.00     0.220 C 
ATOM      4  O   UNL A   1      46.767  18.518  25.293  1.00  0.00    -0.275 OA
ATOM      5  H   UNL A   1      44.872  17.834  26.577  1.00  0.00     0.163 HD
BRANCH   3   6
ATOM      6  C   UNL A   1      45.416  20.232  24.295  1.00  0.00     0.100 C 
BRANCH   6   7
ATOM      7  C   UNL A   1      46.535  21.278  24.252  1.00  0.00     0.015 C 
BRANCH   7   8
ATOM      8  C   UNL A   1      46.260  22.718  24.717  1.00  0.00     0.036 C 
BRANCH   8   9
ATOM      9  C   UNL A   1      45.785  23.027  26.122  1.00  0.00    -0.048 A 
ATOM     10  C   UNL A   1      44.946  23.831  28.732  1.00  0.00    -0.045 A 
ATOM     11  C   UNL A   1      44.180  22.954  27.958  1.00  0.00     0.004 A 
ATOM     12  C   UNL A   1      46.156  24.284  28.189  1.00  0.00     0.004 A 
ATOM     13  C   UNL A   1      44.607  22.538  26.689  1.00  0.00     0.004 A 
ATOM     14  C   UNL A   1      46.564  23.895  26.906  1.00  0.00     0.004 A 
BRANCH  10  15
ATOM     15  C   UNL A   1      44.537  24.280  30.130  1.00  0.00     0.013 C 
ATOM     16  C   UNL A   1      44.106  25.748  30.243  1.00  0.00     0.012 C 
ATOM     17  C   UNL A   1      43.420  23.382  30.674  1.00  0.00     0.012 C 
ENDBRANCH  10  15
ENDBRANCH   8   9
ENDBRANCH   7   8
ENDBRANCH   6   7
ENDBRANCH   3   6
ENDBRANCH   1   2
BRANCH   1  18
ATOM     18  C   UNL A   1      42.542  18.677  27.157  1.00  0.00     0.023 C 
BRANCH  18  19
ATOM     19  C   UNL A   1      41.915  19.986  27.616  1.00  0.00     0.023 C 
BRANCH  19  20
ATOM     20  C   UNL A   1      41.529  20.917  26.475  1.00  0.00     0.116 C 
BRANCH  20  21
ATOM     21  N   UNL A   1      40.148  20.754  26.037  1.00  0.00    -0.352 N 
ATOM     22  C   UNL A   1      39.113  21.659  26.127  1.00  0.00     0.251 C 
ATOM     23  H   UNL A   1      39.927  19.887  25.623  1.00  0.00     0.163 HD
ATOM     24  O   UNL A   1      37.975  21.361  25.799  1.00  0.00    -0.269 OA
BRANCH  22  25
ATOM     25  C   UNL A   1      39.407  22.994  26.685  1.00  0.00     0.039 A 
ATOM     26  C   UNL A   1      40.276  23.090  27.774  1.00  0.00     0.014 A 
ATOM     27  C   UNL A   1      38.935  24.139  26.040  1.00  0.00     0.014 A 
ATOM     28  C   UNL A   1      40.762  24.344  28.148  1.00  0.00     0.010 A 
ATOM     29  C   UNL A   1      39.481  25.374  26.364  1.00  0.00     0.010 A 
ATOM     30  C   UNL A   1      40.419  25.484  27.403  1.00  0.00    -0.014 A 
BRANCH  30  31
ATOM     31  C   UNL A   1      41.066  26.797  27.650  1.00  0.00     0.031 A 
ATOM     32  C   UNL A   1      42.473  27.039  27.190  1.00  0.00     0.074 A 
ATOM     33  C   UNL A   1      40.424  27.726  28.387  1.00  0.00     0.049 A 
ATOM     34  N   UNL A   1      43.257  28.060  27.427  1.00  0.00    -0.248 NA
ATOM     35  C   UNL A   1      43.095  25.975  26.386  1.00  0.00     0.031 C 
ATOM     36  C   UNL A   1      39.077  27.586  28.943  1.00  0.00     0.029 A 
ATOM     37  N   UNL A   1      40.830  28.966  28.814  1.00  0.00    -0.354 N 
ATOM     38  C   UNL A   1      44.467  27.751  26.824  1.00  0.00     0.074 A 
ATOM     39  C   UNL A   1      44.331  26.430  26.248  1.00  0.00     0.031 C 
ATOM     40  C   UNL A   1      38.762  28.699  29.624  1.00  0.00     0.029 A 
ATOM     41  C   UNL A   1      39.898  29.615  29.588  1.00  0.00     0.049 A 
ATOM     42  H   UNL A   1      41.706  29.354  28.587  1.00  0.00     0.167 HD
ATOM     43  C   UNL A   1      45.585  28.511  26.740  1.00  0.00     0.037 A 
ATOM     44  C   UNL A   1      39.960  30.805  30.214  1.00  0.00     0.037 A 
ATOM     45  C   UNL A   1      45.702  29.840  27.277  1.00  0.00     0.049 A 
ATOM     46  C   UNL A   1      41.212  31.632  30.102  1.00  0.00     0.074 A 
ATOM     47  C   UNL A   1      46.757  30.727  27.157  1.00  0.00     0.029 A 
ATOM     48  N   UNL A   1      44.729  30.472  28.036  1.00  0.00    -0.354 N 
ATOM     49  N   UNL A   1      42.323  31.362  29.461  1.00  0.00    -0.248 NA
ATOM     50  C   UNL A   1      41.220  32.923  30.801  1.00  0.00     0.031 C 
ATOM     51  C   UNL A   1      46.439  31.882  27.881  1.00  0.00     0.029 A 
ATOM     52  C   UNL A   1      45.171  31.729  28.417  1.00  0.00     0.049 A 
ATOM     53  H   UNL A   1      43.854  30.086  28.270  1.00  0.00     0.167 HD
ATOM     54  C   UNL A   1      43.155  32.454  29.666  1.00  0.00     0.074 A 
ATOM     55  C   UNL A   1      42.414  33.398  30.477  1.00  0.00     0.031 C 
ATOM     56  C   UNL A   1      44.420  32.654  29.226  1.00  0.00     0.037 A 
BRANCH  43  57
ATOM     57  C   UNL A   1      46.769  27.925  26.031  1.00  0.00     0.064 A 
ATOM     58  C   UNL A   1      47.830  27.339  26.737  1.00  0.00     0.173 A 
ATOM     59  C   UNL A   1      46.826  27.916  24.630  1.00  0.00     0.173 A 
ATOM     60  F   UNL A   1      47.828  27.335  28.078  1.00  0.00    -0.203 F 
ATOM     61  C   UNL A   1      48.918  26.789  26.065  1.00  0.00     0.198 A 
ATOM     62  C   UNL A   1      47.902  27.340  23.961  1.00  0.00     0.198 A 
ATOM     63  F   UNL A   1      45.833  28.460  23.909  1.00  0.00    -0.203 F 
ATOM     64  F   UNL A   1      49.942  26.274  26.761  1.00  0.00    -0.200 F 
ATOM     65  C   UNL A   1      48.950  26.783  24.680  1.00  0.00     0.200 A 
ATOM     66  F   UNL A   1      47.927  27.326  22.622  1.00  0.00    -0.200 F 
ATOM     67  F   UNL A   1      49.995  26.246  24.034  1.00  0.00    -0.200 F 
ENDBRANCH  43  57
BRANCH  44  68
ATOM     68  C   UNL A   1      38.796  31.294  30.998  1.00  0.00     0.064 A 
ATOM     69  C   UNL A   1      38.642  30.944  32.347  1.00  0.00     0.173 A 
ATOM     70  C   UNL A   1      37.817  32.114  30.420  1.00  0.00     0.173 A 
ATOM     71  F   UNL A   1      39.543  30.144  32.937  1.00  0.00    -0.203 F 
ATOM     72  C   UNL A   1      37.544  31.382  33.083  1.00  0.00     0.198 A 
ATOM     73  C   UNL A   1      36.731  32.571  31.164  1.00  0.00     0.198 A 
ATOM     74  F   UNL A   1      37.920  32.478  29.134  1.00  0.00    -0.203 F 
ATOM     75  F   UNL A   1      37.401  31.000  34.359  1.00  0.00    -0.200 F 
ATOM     76  C   UNL A   1      36.592  32.199  32.493  1.00  0.00     0.200 A 
ATOM     77  F   UNL A   1      35.819  33.370  30.594  1.00  0.00    -0.200 F 
ATOM     78  F   UNL A   1      35.538  32.623  33.203  1.00  0.00    -0.200 F 
ENDBRANCH  44  68
BRANCH  56  79
ATOM     79  C   UNL A   1      45.082  33.945  29.601  1.00  0.00     0.064 A 
ATOM     80  C   UNL A   1      44.938  35.094  28.809  1.00  0.00     0.173 A 
ATOM     81  C   UNL A   1      45.821  34.050  30.788  1.00  0.00     0.173 A 
ATOM     82  F   UNL A   1      44.255  35.038  27.656  1.00  0.00    -0.203 F 
ATOM     83  C   UNL A   1      45.522  36.299  29.188  1.00  0.00     0.198 A 
ATOM     84  C   UNL A   1      46.383  35.263  31.176  1.00  0.00     0.198 A 
ATOM     85  F   UNL A   1      45.984  32.979  31.580  1.00  0.00    -0.203 F 
ATOM     86  F   UNL A   1      45.400  37.378  28.401  1.00  0.00    -0.200 F 
ATOM     87  C   UNL A   1      46.236  36.385  30.374  1.00  0.00     0.200 A 
ATOM     88  F   UNL A   1      47.064  35.347  32.328  1.00  0.00    -0.200 F 
ATOM     89  F   UNL A   1      46.788  37.549  30.743  1.00  0.00    -0.200 F 
ENDBRANCH  56  79
ENDBRANCH  30  31
ENDBRANCH  22  25
ENDBRANCH  20  21
ENDBRANCH  19  20
ENDBRANCH  18  19
ENDBRANCH   1  18
TORSDOF 15
ENDMDL
