MODEL 1
REMARK VINA RESULT:      -7.9      0.000      0.000
REMARK SMILES CC/C=C/C/C=C/C/C=C/C/C=C/CC/C=C/COCC(=O)NCCCCNC(=O)c1ccc(-c2c3nc(c(-c4c(F)c(F)c(F)c(F)c4F)c4ccc([nH]4)c(-c4c(F)c(F)c(F)c(F)c4F)c4nc(c(-c5c(F)c(F)c(F)c(F)c5F)c5ccc2[nH]5)C=C4)C=C3)cc1
REMARK SMILES IDX 18 1 17 2 16 3 15 4 14 5 13 6 12 7 11 8 10 9 9 10 8 11 7 12
REMARK SMILES IDX 6 13 5 14 4 15 3 16 2 17 1 18 19 19 20 20 21 21 22 22 23 23
REMARK SMILES IDX 24 25 25 26 26 27 27 28 28 29 29 30 30 32 31 33 32 34 93 35
REMARK SMILES IDX 33 36 92 37 34 38 35 39 36 40 86 41 37 42 91 43 85 44 87 45
REMARK SMILES IDX 38 46 90 47 84 48 83 49 39 51 71 52 51 53 70 54 52 55 55 56
REMARK SMILES IDX 69 57 88 58 53 59 54 60 68 62 89 63 56 64 40 65 41 66 49 67
REMARK SMILES IDX 42 68 43 69 47 70 50 71 44 72 45 73 48 74 46 75 72 76 73 77
REMARK SMILES IDX 81 78 74 79 75 80 79 81 82 82 76 83 77 84 80 85 78 86 57 87
REMARK SMILES IDX 58 88 66 89 59 90 60 91 64 92 67 93 61 94 62 95 65 96 63 97
REMARK H PARENT 23 24 28 31 87 50 55 61
REMARK Flexibility Score: inf
ROOT
ATOM      1  C   UNL A   1      39.344  34.591  33.505  1.00  0.00     0.188 C 
ENDROOT
BRANCH   1   2
ATOM      2  C   UNL A   1      39.613  33.747  34.711  1.00  0.00    -0.003 C 
ATOM      3  C   UNL A   1      40.601  32.840  34.760  1.00  0.00    -0.029 C 
BRANCH   3   4
ATOM      4  C   UNL A   1      40.811  31.871  35.890  1.00  0.00     0.031 C 
BRANCH   4   5
ATOM      5  C   UNL A   1      40.182  30.496  35.607  1.00  0.00     0.031 C 
BRANCH   5   6
ATOM      6  C   UNL A   1      41.047  29.620  34.742  1.00  0.00    -0.031 C 
ATOM      7  C   UNL A   1      40.574  28.772  33.814  1.00  0.00    -0.027 C 
BRANCH   7   8
ATOM      8  C   UNL A   1      41.443  27.864  32.993  1.00  0.00     0.054 C 
BRANCH   8   9
ATOM      9  C   UNL A   1      42.698  27.522  33.744  1.00  0.00    -0.027 C 
ATOM     10  C   UNL A   1      43.667  26.721  33.267  1.00  0.00    -0.027 C 
BRANCH  10  11
ATOM     11  C   UNL A   1      44.897  26.335  34.036  1.00  0.00     0.054 C 
BRANCH  11  12
ATOM     12  C   UNL A   1      44.984  24.842  34.172  1.00  0.00    -0.027 C 
ATOM     13  C   UNL A   1      43.996  23.996  33.838  1.00  0.00    -0.027 C 
BRANCH  13  14
ATOM     14  C   UNL A   1      44.070  22.506  34.004  1.00  0.00     0.054 C 
BRANCH  14  15
ATOM     15  C   UNL A   1      44.969  22.142  35.151  1.00  0.00    -0.027 C 
ATOM     16  C   UNL A   1      45.549  20.941  35.303  1.00  0.00    -0.031 C 
BRANCH  16  17
ATOM     17  C   UNL A   1      46.438  20.579  36.457  1.00  0.00     0.023 C 
ATOM     18  C   UNL A   1      46.034  19.246  37.068  1.00  0.00     0.008 C 
ENDBRANCH  16  17
ENDBRANCH  14  15
ENDBRANCH  13  14
ENDBRANCH  11  12
ENDBRANCH  10  11
ENDBRANCH   8   9
ENDBRANCH   7   8
ENDBRANCH   5   6
ENDBRANCH   4   5
ENDBRANCH   3   4
ENDBRANCH   1   2
BRANCH   1  19
ATOM     19  O   UNL A   1      38.550  33.868  32.562  1.00  0.00    -0.368 OA
BRANCH  19  20
ATOM     20  C   UNL A   1      37.348  34.531  32.190  1.00  0.00     0.260 C 
BRANCH  20  21
ATOM     21  C   UNL A   1      36.128  34.314  33.093  1.00  0.00     0.246 C 
ATOM     22  O   UNL A   1      35.854  35.075  34.022  1.00  0.00    -0.272 OA
ATOM     23  N   UNL A   1      35.304  33.251  32.846  1.00  0.00    -0.354 N 
ATOM     24  H   UNL A   1      34.510  33.178  33.424  1.00  0.00     0.163 HD
BRANCH  23  25
ATOM     25  C   UNL A   1      35.458  32.219  31.841  1.00  0.00     0.116 C 
BRANCH  25  26
ATOM     26  C   UNL A   1      34.759  32.589  30.533  1.00  0.00     0.023 C 
BRANCH  26  27
ATOM     27  C   UNL A   1      35.688  32.738  29.326  1.00  0.00     0.023 C 
BRANCH  27  28
ATOM     28  C   UNL A   1      35.037  32.529  27.961  1.00  0.00     0.116 C 
BRANCH  28  29
ATOM     29  N   UNL A   1      34.382  31.237  27.830  1.00  0.00    -0.352 N 
ATOM     30  C   UNL A   1      34.911  29.976  27.968  1.00  0.00     0.251 C 
ATOM     31  H   UNL A   1      33.423  31.270  27.610  1.00  0.00     0.163 HD
ATOM     32  O   UNL A   1      34.232  28.987  27.710  1.00  0.00    -0.269 OA
BRANCH  30  33
ATOM     33  C   UNL A   1      36.320  29.812  28.388  1.00  0.00     0.039 A 
ATOM     34  C   UNL A   1      36.586  29.373  29.689  1.00  0.00     0.014 A 
ATOM     35  C   UNL A   1      37.370  30.060  27.501  1.00  0.00     0.014 A 
ATOM     36  C   UNL A   1      37.901  29.095  30.070  1.00  0.00     0.010 A 
ATOM     37  C   UNL A   1      38.673  29.725  27.862  1.00  0.00     0.010 A 
ATOM     38  C   UNL A   1      38.948  29.222  29.143  1.00  0.00    -0.014 A 
BRANCH  38  39
ATOM     39  C   UNL A   1      40.330  28.791  29.474  1.00  0.00     0.031 A 
ATOM     40  C   UNL A   1      41.246  29.700  30.240  1.00  0.00     0.074 A 
ATOM     41  C   UNL A   1      40.788  27.615  29.002  1.00  0.00     0.049 A 
ATOM     42  N   UNL A   1      42.517  29.550  30.522  1.00  0.00    -0.248 NA
ATOM     43  C   UNL A   1      40.666  30.958  30.735  1.00  0.00     0.031 C 
ATOM     44  C   UNL A   1      40.010  26.662  28.208  1.00  0.00     0.029 A 
ATOM     45  N   UNL A   1      42.027  27.030  29.100  1.00  0.00    -0.354 N 
ATOM     46  C   UNL A   1      42.890  30.697  31.209  1.00  0.00     0.074 A 
ATOM     47  C   UNL A   1      41.724  31.552  31.268  1.00  0.00     0.031 C 
ATOM     48  C   UNL A   1      40.784  25.610  27.900  1.00  0.00     0.029 A 
ATOM     49  C   UNL A   1      42.124  25.831  28.436  1.00  0.00     0.049 A 
ATOM     50  H   UNL A   1      42.774  27.431  29.600  1.00  0.00     0.167 HD
ATOM     51  C   UNL A   1      44.091  30.998  31.755  1.00  0.00     0.037 A 
ATOM     52  C   UNL A   1      43.178  25.012  28.260  1.00  0.00     0.037 A 
ATOM     53  C   UNL A   1      45.241  30.134  31.719  1.00  0.00     0.049 A 
ATOM     54  C   UNL A   1      44.506  25.381  28.862  1.00  0.00     0.074 A 
ATOM     55  C   UNL A   1      46.478  30.319  32.313  1.00  0.00     0.029 A 
ATOM     56  N   UNL A   1      45.298  28.923  31.047  1.00  0.00    -0.354 N 
ATOM     57  N   UNL A   1      44.828  26.435  29.572  1.00  0.00    -0.248 NA
ATOM     58  C   UNL A   1      45.620  24.448  28.637  1.00  0.00     0.031 C 
ATOM     59  C   UNL A   1      47.297  29.242  31.961  1.00  0.00     0.029 A 
ATOM     60  C   UNL A   1      46.559  28.363  31.185  1.00  0.00     0.049 A 
ATOM     61  H   UNL A   1      44.553  28.519  30.544  1.00  0.00     0.167 HD
ATOM     62  C   UNL A   1      46.169  26.283  29.895  1.00  0.00     0.074 A 
ATOM     63  C   UNL A   1      46.599  25.027  29.317  1.00  0.00     0.031 C 
ATOM     64  C   UNL A   1      46.972  27.112  30.605  1.00  0.00     0.037 A 
BRANCH  51  65
ATOM     65  C   UNL A   1      44.228  32.324  32.446  1.00  0.00     0.064 A 
ATOM     66  C   UNL A   1      44.109  32.442  33.838  1.00  0.00     0.173 A 
ATOM     67  C   UNL A   1      44.531  33.480  31.712  1.00  0.00     0.173 A 
ATOM     68  F   UNL A   1      43.812  31.368  34.585  1.00  0.00    -0.203 F 
ATOM     69  C   UNL A   1      44.265  33.674  34.468  1.00  0.00     0.198 A 
ATOM     70  C   UNL A   1      44.713  34.705  32.348  1.00  0.00     0.198 A 
ATOM     71  F   UNL A   1      44.662  33.420  30.378  1.00  0.00    -0.203 F 
ATOM     72  F   UNL A   1      44.107  33.770  35.795  1.00  0.00    -0.200 F 
ATOM     73  C   UNL A   1      44.574  34.802  33.724  1.00  0.00     0.200 A 
ATOM     74  F   UNL A   1      45.023  35.793  31.629  1.00  0.00    -0.200 F 
ATOM     75  F   UNL A   1      44.733  35.986  34.333  1.00  0.00    -0.200 F 
ENDBRANCH  51  65
BRANCH  52  76
ATOM     76  C   UNL A   1      43.021  23.757  27.481  1.00  0.00     0.064 A 
ATOM     77  C   UNL A   1      43.341  23.713  26.118  1.00  0.00     0.173 A 
ATOM     78  C   UNL A   1      42.548  22.581  28.080  1.00  0.00     0.173 A 
ATOM     79  F   UNL A   1      43.776  24.819  25.496  1.00  0.00    -0.203 F 
ATOM     80  C   UNL A   1      43.177  22.545  25.377  1.00  0.00     0.198 A 
ATOM     81  C   UNL A   1      42.410  21.405  27.344  1.00  0.00     0.198 A 
ATOM     82  F   UNL A   1      42.231  22.570  29.383  1.00  0.00    -0.203 F 
ATOM     83  F   UNL A   1      43.450  22.541  24.065  1.00  0.00    -0.200 F 
ATOM     84  C   UNL A   1      42.717  21.389  25.993  1.00  0.00     0.200 A 
ATOM     85  F   UNL A   1      41.977  20.288  27.946  1.00  0.00    -0.200 F 
ATOM     86  F   UNL A   1      42.564  20.264  25.281  1.00  0.00    -0.200 F 
ENDBRANCH  52  76
BRANCH  64  87
ATOM     87  C   UNL A   1      48.393  26.680  30.816  1.00  0.00     0.064 A 
ATOM     88  C   UNL A   1      48.756  25.860  31.894  1.00  0.00     0.173 A 
ATOM     89  C   UNL A   1      49.393  27.047  29.903  1.00  0.00     0.173 A 
ATOM     90  F   UNL A   1      47.838  25.496  32.804  1.00  0.00    -0.203 F 
ATOM     91  C   UNL A   1      50.072  25.436  32.058  1.00  0.00     0.198 A 
ATOM     92  C   UNL A   1      50.701  26.600  30.056  1.00  0.00     0.198 A 
ATOM     93  F   UNL A   1      49.095  27.827  28.853  1.00  0.00    -0.203 F 
ATOM     94  F   UNL A   1      50.404  24.682  33.117  1.00  0.00    -0.200 F 
ATOM     95  C   UNL A   1      51.041  25.799  31.135  1.00  0.00     0.200 A 
ATOM     96  F   UNL A   1      51.634  26.942  29.156  1.00  0.00    -0.200 F 
ATOM     97  F   UNL A   1      52.304  25.379  31.288  1.00  0.00    -0.200 F 
ENDBRANCH  64  87
ENDBRANCH  38  39
ENDBRANCH  30  33
ENDBRANCH  28  29
ENDBRANCH  27  28
ENDBRANCH  26  27
ENDBRANCH  25  26
ENDBRANCH  23  25
ENDBRANCH  20  21
ENDBRANCH  19  20
ENDBRANCH   1  19
TORSDOF 24
ENDMDL
MODEL 2
REMARK VINA RESULT:      -7.7      4.024     10.936
REMARK SMILES CC/C=C/C/C=C/C/C=C/C/C=C/CC/C=C/COCC(=O)NCCCCNC(=O)c1ccc(-c2c3nc(c(-c4c(F)c(F)c(F)c(F)c4F)c4ccc([nH]4)c(-c4c(F)c(F)c(F)c(F)c4F)c4nc(c(-c5c(F)c(F)c(F)c(F)c5F)c5ccc2[nH]5)C=C4)C=C3)cc1
REMARK SMILES IDX 18 1 17 2 16 3 15 4 14 5 13 6 12 7 11 8 10 9 9 10 8 11 7 12
REMARK SMILES IDX 6 13 5 14 4 15 3 16 2 17 1 18 19 19 20 20 21 21 22 22 23 23
REMARK SMILES IDX 24 25 25 26 26 27 27 28 28 29 29 30 30 32 31 33 32 34 93 35
REMARK SMILES IDX 33 36 92 37 34 38 35 39 36 40 86 41 37 42 91 43 85 44 87 45
REMARK SMILES IDX 38 46 90 47 84 48 83 49 39 51 71 52 51 53 70 54 52 55 55 56
REMARK SMILES IDX 69 57 88 58 53 59 54 60 68 62 89 63 56 64 40 65 41 66 49 67
REMARK SMILES IDX 42 68 43 69 47 70 50 71 44 72 45 73 48 74 46 75 72 76 73 77
REMARK SMILES IDX 81 78 74 79 75 80 79 81 82 82 76 83 77 84 80 85 78 86 57 87
REMARK SMILES IDX 58 88 66 89 59 90 60 91 64 92 67 93 61 94 62 95 65 96 63 97
REMARK H PARENT 23 24 28 31 87 50 55 61
REMARK Flexibility Score: inf
ROOT
ATOM      1  C   UNL A   1      42.021  29.238  28.075  1.00  0.00     0.188 C 
ENDROOT
BRANCH   1   2
ATOM      2  C   UNL A   1      41.648  29.173  29.523  1.00  0.00    -0.003 C 
ATOM      3  C   UNL A   1      41.247  30.247  30.221  1.00  0.00    -0.029 C 
BRANCH   3   4
ATOM      4  C   UNL A   1      41.009  30.257  31.705  1.00  0.00     0.031 C 
BRANCH   4   5
ATOM      5  C   UNL A   1      39.990  31.328  32.128  1.00  0.00     0.031 C 
BRANCH   5   6
ATOM      6  C   UNL A   1      39.860  32.445  31.126  1.00  0.00    -0.031 C 
ATOM      7  C   UNL A   1      39.257  33.618  31.377  1.00  0.00    -0.027 C 
BRANCH   7   8
ATOM      8  C   UNL A   1      39.085  34.704  30.355  1.00  0.00     0.054 C 
BRANCH   8   9
ATOM      9  C   UNL A   1      38.232  34.220  29.217  1.00  0.00    -0.027 C 
ATOM     10  C   UNL A   1      37.002  33.700  29.367  1.00  0.00    -0.027 C 
BRANCH  10  11
ATOM     11  C   UNL A   1      36.168  33.168  28.237  1.00  0.00     0.054 C 
BRANCH  11  12
ATOM     12  C   UNL A   1      36.304  31.675  28.142  1.00  0.00    -0.027 C 
ATOM     13  C   UNL A   1      37.374  30.987  28.572  1.00  0.00    -0.027 C 
BRANCH  13  14
ATOM     14  C   UNL A   1      37.525  29.499  28.448  1.00  0.00     0.054 C 
BRANCH  14  15
ATOM     15  C   UNL A   1      37.634  28.859  29.802  1.00  0.00    -0.027 C 
ATOM     16  C   UNL A   1      38.508  27.888  30.109  1.00  0.00    -0.031 C 
BRANCH  16  17
ATOM     17  C   UNL A   1      38.605  27.245  31.462  1.00  0.00     0.023 C 
ATOM     18  C   UNL A   1      38.089  28.172  32.552  1.00  0.00     0.008 C 
ENDBRANCH  16  17
ENDBRANCH  14  15
ENDBRANCH  13  14
ENDBRANCH  11  12
ENDBRANCH  10  11
ENDBRANCH   8   9
ENDBRANCH   7   8
ENDBRANCH   5   6
ENDBRANCH   4   5
ENDBRANCH   3   4
ENDBRANCH   1   2
BRANCH   1  19
ATOM     19  O   UNL A   1      40.926  28.814  27.262  1.00  0.00    -0.368 OA
BRANCH  19  20
ATOM     20  C   UNL A   1      41.139  27.568  26.608  1.00  0.00     0.260 C 
BRANCH  20  21
ATOM     21  C   UNL A   1      42.215  27.534  25.516  1.00  0.00     0.246 C 
ATOM     22  O   UNL A   1      42.253  28.361  24.605  1.00  0.00    -0.272 OA
ATOM     23  N   UNL A   1      43.178  26.565  25.568  1.00  0.00    -0.354 N 
ATOM     24  H   UNL A   1      43.873  26.611  24.871  1.00  0.00     0.163 HD
BRANCH  23  25
ATOM     25  C   UNL A   1      43.301  25.480  26.520  1.00  0.00     0.116 C 
BRANCH  25  26
ATOM     26  C   UNL A   1      44.070  24.295  25.939  1.00  0.00     0.023 C 
BRANCH  26  27
ATOM     27  C   UNL A   1      45.315  24.669  25.129  1.00  0.00     0.023 C 
BRANCH  27  28
ATOM     28  C   UNL A   1      46.509  25.160  25.942  1.00  0.00     0.116 C 
BRANCH  28  29
ATOM     29  N   UNL A   1      47.483  25.891  25.146  1.00  0.00    -0.352 N 
ATOM     30  C   UNL A   1      47.846  27.214  25.215  1.00  0.00     0.251 C 
ATOM     31  H   UNL A   1      47.949  25.361  24.458  1.00  0.00     0.163 HD
ATOM     32  O   UNL A   1      48.612  27.692  24.384  1.00  0.00    -0.269 OA
BRANCH  30  33
ATOM     33  C   UNL A   1      47.276  28.078  26.272  1.00  0.00     0.039 A 
ATOM     34  C   UNL A   1      45.915  28.394  26.221  1.00  0.00     0.014 A 
ATOM     35  C   UNL A   1      48.069  28.551  27.320  1.00  0.00     0.014 A 
ATOM     36  C   UNL A   1      45.330  29.108  27.270  1.00  0.00     0.010 A 
ATOM     37  C   UNL A   1      47.474  29.208  28.394  1.00  0.00     0.010 A 
ATOM     38  C   UNL A   1      46.097  29.476  28.388  1.00  0.00    -0.014 A 
BRANCH  38  39
ATOM     39  C   UNL A   1      45.471  30.100  29.581  1.00  0.00     0.031 A 
ATOM     40  C   UNL A   1      45.138  29.270  30.787  1.00  0.00     0.074 A 
ATOM     41  C   UNL A   1      45.118  31.401  29.540  1.00  0.00     0.049 A 
ATOM     42  N   UNL A   1      44.487  29.609  31.872  1.00  0.00    -0.248 NA
ATOM     43  C   UNL A   1      45.571  27.865  30.760  1.00  0.00     0.031 C 
ATOM     44  C   UNL A   1      45.347  32.303  28.411  1.00  0.00     0.029 A 
ATOM     45  N   UNL A   1      44.469  32.183  30.464  1.00  0.00    -0.354 N 
ATOM     46  C   UNL A   1      44.419  28.459  32.646  1.00  0.00     0.074 A 
ATOM     47  C   UNL A   1      45.058  27.402  31.892  1.00  0.00     0.031 C 
ATOM     48  C   UNL A   1      44.856  33.517  28.710  1.00  0.00     0.029 A 
ATOM     49  C   UNL A   1      44.240  33.468  30.033  1.00  0.00     0.049 A 
ATOM     50  H   UNL A   1      44.195  31.855  31.350  1.00  0.00     0.167 HD
ATOM     51  C   UNL A   1      43.886  28.305  33.881  1.00  0.00     0.037 A 
ATOM     52  C   UNL A   1      43.590  34.486  30.627  1.00  0.00     0.037 A 
ATOM     53  C   UNL A   1      43.275  29.364  34.641  1.00  0.00     0.049 A 
ATOM     54  C   UNL A   1      42.991  34.282  31.991  1.00  0.00     0.074 A 
ATOM     55  C   UNL A   1      42.779  29.323  35.932  1.00  0.00     0.029 A 
ATOM     56  N   UNL A   1      43.072  30.654  34.176  1.00  0.00    -0.354 N 
ATOM     57  N   UNL A   1      42.997  33.210  32.744  1.00  0.00    -0.248 NA
ATOM     58  C   UNL A   1      42.294  35.430  32.589  1.00  0.00     0.031 C 
ATOM     59  C   UNL A   1      42.233  30.575  36.232  1.00  0.00     0.029 A 
ATOM     60  C   UNL A   1      42.430  31.410  35.144  1.00  0.00     0.049 A 
ATOM     61  H   UNL A   1      43.343  30.985  33.289  1.00  0.00     0.167 HD
ATOM     62  C   UNL A   1      42.325  33.557  33.908  1.00  0.00     0.074 A 
ATOM     63  C   UNL A   1      41.938  34.945  33.770  1.00  0.00     0.031 C 
ATOM     64  C   UNL A   1      42.052  32.792  34.993  1.00  0.00     0.037 A 
BRANCH  51  65
ATOM     65  C   UNL A   1      43.941  26.937  34.497  1.00  0.00     0.064 A 
ATOM     66  C   UNL A   1      42.820  26.096  34.517  1.00  0.00     0.173 A 
ATOM     67  C   UNL A   1      45.142  26.445  35.028  1.00  0.00     0.173 A 
ATOM     68  F   UNL A   1      41.645  26.523  34.030  1.00  0.00    -0.203 F 
ATOM     69  C   UNL A   1      42.893  24.819  35.068  1.00  0.00     0.198 A 
ATOM     70  C   UNL A   1      45.218  25.158  35.553  1.00  0.00     0.198 A 
ATOM     71  F   UNL A   1      46.246  27.208  35.028  1.00  0.00    -0.203 F 
ATOM     72  F   UNL A   1      41.798  24.048  35.113  1.00  0.00    -0.200 F 
ATOM     73  C   UNL A   1      44.093  24.349  35.578  1.00  0.00     0.200 A 
ATOM     74  F   UNL A   1      46.382  24.700  36.036  1.00  0.00    -0.200 F 
ATOM     75  F   UNL A   1      44.163  23.116  36.100  1.00  0.00    -0.200 F 
ENDBRANCH  51  65
BRANCH  52  76
ATOM     76  C   UNL A   1      43.472  35.796  29.935  1.00  0.00     0.064 A 
ATOM     77  C   UNL A   1      42.495  36.004  28.953  1.00  0.00     0.173 A 
ATOM     78  C   UNL A   1      44.332  36.861  30.238  1.00  0.00     0.173 A 
ATOM     79  F   UNL A   1      41.665  35.008  28.613  1.00  0.00    -0.203 F 
ATOM     80  C   UNL A   1      42.393  37.224  28.287  1.00  0.00     0.198 A 
ATOM     81  C   UNL A   1      44.212  38.089  29.591  1.00  0.00     0.198 A 
ATOM     82  F   UNL A   1      45.282  36.713  31.173  1.00  0.00    -0.203 F 
ATOM     83  F   UNL A   1      41.477  37.383  27.322  1.00  0.00    -0.200 F 
ATOM     84  C   UNL A   1      43.248  38.268  28.611  1.00  0.00     0.200 A 
ATOM     85  F   UNL A   1      45.031  39.099  29.915  1.00  0.00    -0.200 F 
ATOM     86  F   UNL A   1      43.146  39.442  27.973  1.00  0.00    -0.200 F 
ENDBRANCH  52  76
BRANCH  64  87
ATOM     87  C   UNL A   1      41.317  33.442  36.127  1.00  0.00     0.064 A 
ATOM     88  C   UNL A   1      41.997  34.150  37.129  1.00  0.00     0.173 A 
ATOM     89  C   UNL A   1      39.916  33.402  36.185  1.00  0.00     0.173 A 
ATOM     90  F   UNL A   1      43.338  34.203  37.126  1.00  0.00    -0.203 F 
ATOM     91  C   UNL A   1      41.301  34.781  38.156  1.00  0.00     0.198 A 
ATOM     92  C   UNL A   1      39.222  34.056  37.199  1.00  0.00     0.198 A 
ATOM     93  F   UNL A   1      39.219  32.741  35.248  1.00  0.00    -0.203 F 
ATOM     94  F   UNL A   1      41.973  35.422  39.124  1.00  0.00    -0.200 F 
ATOM     95  C   UNL A   1      39.914  34.741  38.185  1.00  0.00     0.200 A 
ATOM     96  F   UNL A   1      37.882  34.026  37.219  1.00  0.00    -0.200 F 
ATOM     97  F   UNL A   1      39.246  35.359  39.169  1.00  0.00    -0.200 F 
ENDBRANCH  64  87
ENDBRANCH  38  39
ENDBRANCH  30  33
ENDBRANCH  28  29
ENDBRANCH  27  28
ENDBRANCH  26  27
ENDBRANCH  25  26
ENDBRANCH  23  25
ENDBRANCH  20  21
ENDBRANCH  19  20
ENDBRANCH   1  19
TORSDOF 24
ENDMDL
MODEL 3
REMARK VINA RESULT:      -7.5      3.587     10.965
REMARK SMILES CC/C=C/C/C=C/C/C=C/C/C=C/CC/C=C/COCC(=O)NCCCCNC(=O)c1ccc(-c2c3nc(c(-c4c(F)c(F)c(F)c(F)c4F)c4ccc([nH]4)c(-c4c(F)c(F)c(F)c(F)c4F)c4nc(c(-c5c(F)c(F)c(F)c(F)c5F)c5ccc2[nH]5)C=C4)C=C3)cc1
REMARK SMILES IDX 18 1 17 2 16 3 15 4 14 5 13 6 12 7 11 8 10 9 9 10 8 11 7 12
REMARK SMILES IDX 6 13 5 14 4 15 3 16 2 17 1 18 19 19 20 20 21 21 22 22 23 23
REMARK SMILES IDX 24 25 25 26 26 27 27 28 28 29 29 30 30 32 31 33 32 34 93 35
REMARK SMILES IDX 33 36 92 37 34 38 35 39 36 40 86 41 37 42 91 43 85 44 87 45
REMARK SMILES IDX 38 46 90 47 84 48 83 49 39 51 71 52 51 53 70 54 52 55 55 56
REMARK SMILES IDX 69 57 88 58 53 59 54 60 68 62 89 63 56 64 40 65 41 66 49 67
REMARK SMILES IDX 42 68 43 69 47 70 50 71 44 72 45 73 48 74 46 75 72 76 73 77
REMARK SMILES IDX 81 78 74 79 75 80 79 81 82 82 76 83 77 84 80 85 78 86 57 87
REMARK SMILES IDX 58 88 66 89 59 90 60 91 64 92 67 93 61 94 62 95 65 96 63 97
REMARK H PARENT 23 24 28 31 87 50 55 61
REMARK Flexibility Score: inf
ROOT
ATOM      1  C   UNL A   1      41.879  27.485  34.350  1.00  0.00     0.188 C 
ENDROOT
BRANCH   1   2
ATOM      2  C   UNL A   1      41.672  28.804  33.674  1.00  0.00    -0.003 C 
ATOM      3  C   UNL A   1      41.587  28.934  32.341  1.00  0.00    -0.029 C 
BRANCH   3   4
ATOM      4  C   UNL A   1      41.531  30.250  31.617  1.00  0.00     0.031 C 
BRANCH   4   5
ATOM      5  C   UNL A   1      41.589  31.450  32.577  1.00  0.00     0.031 C 
BRANCH   5   6
ATOM      6  C   UNL A   1      40.411  32.377  32.432  1.00  0.00    -0.031 C 
ATOM      7  C   UNL A   1      40.454  33.559  31.797  1.00  0.00    -0.027 C 
BRANCH   7   8
ATOM      8  C   UNL A   1      39.288  34.500  31.705  1.00  0.00     0.054 C 
BRANCH   8   9
ATOM      9  C   UNL A   1      38.178  33.879  30.905  1.00  0.00    -0.027 C 
ATOM     10  C   UNL A   1      38.249  33.627  29.587  1.00  0.00    -0.027 C 
BRANCH  10  11
ATOM     11  C   UNL A   1      37.123  33.055  28.776  1.00  0.00     0.054 C 
BRANCH  11  12
ATOM     12  C   UNL A   1      37.077  31.561  28.922  1.00  0.00    -0.027 C 
ATOM     13  C   UNL A   1      38.142  30.756  28.779  1.00  0.00    -0.027 C 
BRANCH  13  14
ATOM     14  C   UNL A   1      38.091  29.261  28.893  1.00  0.00     0.054 C 
BRANCH  14  15
ATOM     15  C   UNL A   1      37.673  28.845  30.275  1.00  0.00    -0.027 C 
ATOM     16  C   UNL A   1      38.003  29.508  31.394  1.00  0.00    -0.031 C 
BRANCH  16  17
ATOM     17  C   UNL A   1      37.592  29.082  32.773  1.00  0.00     0.023 C 
ATOM     18  C   UNL A   1      38.079  30.068  33.824  1.00  0.00     0.008 C 
ENDBRANCH  16  17
ENDBRANCH  14  15
ENDBRANCH  13  14
ENDBRANCH  11  12
ENDBRANCH  10  11
ENDBRANCH   8   9
ENDBRANCH   7   8
ENDBRANCH   5   6
ENDBRANCH   4   5
ENDBRANCH   3   4
ENDBRANCH   1   2
BRANCH   1  19
ATOM     19  O   UNL A   1      41.058  27.391  35.516  1.00  0.00    -0.368 OA
BRANCH  19  20
ATOM     20  C   UNL A   1      41.753  26.953  36.678  1.00  0.00     0.260 C 
BRANCH  20  21
ATOM     21  C   UNL A   1      41.938  25.440  36.846  1.00  0.00     0.246 C 
ATOM     22  O   UNL A   1      41.168  24.624  36.339  1.00  0.00    -0.272 OA
ATOM     23  N   UNL A   1      43.007  24.980  37.564  1.00  0.00    -0.354 N 
ATOM     24  H   UNL A   1      43.109  24.002  37.606  1.00  0.00     0.163 HD
BRANCH  23  25
ATOM     25  C   UNL A   1      44.005  25.757  38.271  1.00  0.00     0.116 C 
BRANCH  25  26
ATOM     26  C   UNL A   1      45.367  25.065  38.275  1.00  0.00     0.023 C 
BRANCH  26  27
ATOM     27  C   UNL A   1      45.353  23.615  38.767  1.00  0.00     0.023 C 
BRANCH  27  28
ATOM     28  C   UNL A   1      46.620  22.811  38.492  1.00  0.00     0.116 C 
BRANCH  28  29
ATOM     29  N   UNL A   1      46.356  21.502  37.916  1.00  0.00    -0.352 N 
ATOM     30  C   UNL A   1      45.896  21.181  36.662  1.00  0.00     0.251 C 
ATOM     31  H   UNL A   1      46.531  20.736  38.510  1.00  0.00     0.163 HD
ATOM     32  O   UNL A   1      45.622  20.018  36.381  1.00  0.00    -0.269 OA
BRANCH  30  33
ATOM     33  C   UNL A   1      45.690  22.248  35.659  1.00  0.00     0.039 A 
ATOM     34  C   UNL A   1      44.382  22.631  35.344  1.00  0.00     0.014 A 
ATOM     35  C   UNL A   1      46.774  22.886  35.053  1.00  0.00     0.014 A 
ATOM     36  C   UNL A   1      44.164  23.716  34.491  1.00  0.00     0.010 A 
ATOM     37  C   UNL A   1      46.557  24.005  34.252  1.00  0.00     0.010 A 
ATOM     38  C   UNL A   1      45.252  24.441  33.979  1.00  0.00    -0.014 A 
BRANCH  38  39
ATOM     39  C   UNL A   1      45.049  25.686  33.195  1.00  0.00     0.031 A 
ATOM     40  C   UNL A   1      44.780  25.619  31.719  1.00  0.00     0.074 A 
ATOM     41  C   UNL A   1      45.200  26.881  33.799  1.00  0.00     0.049 A 
ATOM     42  N   UNL A   1      44.692  26.594  30.849  1.00  0.00    -0.248 NA
ATOM     43  C   UNL A   1      44.611  24.279  31.139  1.00  0.00     0.031 C 
ATOM     44  C   UNL A   1      45.506  27.079  35.217  1.00  0.00     0.029 A 
ATOM     45  N   UNL A   1      45.142  28.156  33.292  1.00  0.00    -0.354 N 
ATOM     46  C   UNL A   1      44.476  25.985  29.620  1.00  0.00     0.074 A 
ATOM     47  C   UNL A   1      44.485  24.556  29.849  1.00  0.00     0.031 C 
ATOM     48  C   UNL A   1      45.599  28.395  35.468  1.00  0.00     0.029 A 
ATOM     49  C   UNL A   1      45.403  29.132  34.223  1.00  0.00     0.049 A 
ATOM     50  H   UNL A   1      44.932  28.352  32.350  1.00  0.00     0.167 HD
ATOM     51  C   UNL A   1      44.272  26.567  28.415  1.00  0.00     0.037 A 
ATOM     52  C   UNL A   1      45.494  30.469  34.088  1.00  0.00     0.037 A 
ATOM     53  C   UNL A   1      44.235  27.989  28.195  1.00  0.00     0.049 A 
ATOM     54  C   UNL A   1      45.281  31.088  32.733  1.00  0.00     0.074 A 
ATOM     55  C   UNL A   1      43.956  28.673  27.025  1.00  0.00     0.029 A 
ATOM     56  N   UNL A   1      44.492  28.945  29.166  1.00  0.00    -0.354 N 
ATOM     57  N   UNL A   1      45.005  30.505  31.592  1.00  0.00    -0.248 NA
ATOM     58  C   UNL A   1      45.392  32.551  32.647  1.00  0.00     0.031 C 
ATOM     59  C   UNL A   1      44.089  30.042  27.276  1.00  0.00     0.029 A 
ATOM     60  C   UNL A   1      44.408  30.214  28.613  1.00  0.00     0.049 A 
ATOM     61  H   UNL A   1      44.704  28.753  30.108  1.00  0.00     0.167 HD
ATOM     62  C   UNL A   1      44.891  31.527  30.660  1.00  0.00     0.074 A 
ATOM     63  C   UNL A   1      45.111  32.769  31.370  1.00  0.00     0.031 C 
ATOM     64  C   UNL A   1      44.629  31.442  29.333  1.00  0.00     0.037 A 
BRANCH  51  65
ATOM     65  C   UNL A   1      44.067  25.666  27.233  1.00  0.00     0.064 A 
ATOM     66  C   UNL A   1      45.122  25.331  26.373  1.00  0.00     0.173 A 
ATOM     67  C   UNL A   1      42.811  25.091  26.987  1.00  0.00     0.173 A 
ATOM     68  F   UNL A   1      46.340  25.861  26.560  1.00  0.00    -0.203 F 
ATOM     69  C   UNL A   1      44.923  24.472  25.296  1.00  0.00     0.198 A 
ATOM     70  C   UNL A   1      42.621  24.211  25.925  1.00  0.00     0.198 A 
ATOM     71  F   UNL A   1      41.769  25.374  27.784  1.00  0.00    -0.203 F 
ATOM     72  F   UNL A   1      45.936  24.199  24.463  1.00  0.00    -0.200 F 
ATOM     73  C   UNL A   1      43.675  23.907  25.077  1.00  0.00     0.200 A 
ATOM     74  F   UNL A   1      41.418  23.656  25.721  1.00  0.00    -0.200 F 
ATOM     75  F   UNL A   1      43.487  23.074  24.044  1.00  0.00    -0.200 F 
ENDBRANCH  51  65
BRANCH  52  76
ATOM     76  C   UNL A   1      45.800  31.316  35.269  1.00  0.00     0.064 A 
ATOM     77  C   UNL A   1      44.772  31.809  36.084  1.00  0.00     0.173 A 
ATOM     78  C   UNL A   1      47.119  31.649  35.607  1.00  0.00     0.173 A 
ATOM     79  F   UNL A   1      43.493  31.535  35.788  1.00  0.00    -0.203 F 
ATOM     80  C   UNL A   1      45.051  32.620  37.182  1.00  0.00     0.198 A 
ATOM     81  C   UNL A   1      47.399  32.438  36.720  1.00  0.00     0.198 A 
ATOM     82  F   UNL A   1      48.139  31.198  34.860  1.00  0.00    -0.203 F 
ATOM     83  F   UNL A   1      44.048  33.115  37.919  1.00  0.00    -0.200 F 
ATOM     84  C   UNL A   1      46.366  32.929  37.503  1.00  0.00     0.200 A 
ATOM     85  F   UNL A   1      48.671  32.724  37.034  1.00  0.00    -0.200 F 
ATOM     86  F   UNL A   1      46.634  33.705  38.562  1.00  0.00    -0.200 F 
ENDBRANCH  52  76
BRANCH  64  87
ATOM     87  C   UNL A   1      44.545  32.726  28.564  1.00  0.00     0.064 A 
ATOM     88  C   UNL A   1      43.393  33.526  28.598  1.00  0.00     0.173 A 
ATOM     89  C   UNL A   1      45.646  33.189  27.827  1.00  0.00     0.173 A 
ATOM     90  F   UNL A   1      42.309  33.118  29.276  1.00  0.00    -0.203 F 
ATOM     91  C   UNL A   1      43.342  34.735  27.910  1.00  0.00     0.198 A 
ATOM     92  C   UNL A   1      45.599  34.411  27.161  1.00  0.00     0.198 A 
ATOM     93  F   UNL A   1      46.772  32.463  27.766  1.00  0.00    -0.203 F 
ATOM     94  F   UNL A   1      42.217  35.465  27.926  1.00  0.00    -0.200 F 
ATOM     95  C   UNL A   1      44.447  35.180  27.199  1.00  0.00     0.200 A 
ATOM     96  F   UNL A   1      46.672  34.845  26.486  1.00  0.00    -0.200 F 
ATOM     97  F   UNL A   1      44.399  36.350  26.548  1.00  0.00    -0.200 F 
ENDBRANCH  64  87
ENDBRANCH  38  39
ENDBRANCH  30  33
ENDBRANCH  28  29
ENDBRANCH  27  28
ENDBRANCH  26  27
ENDBRANCH  25  26
ENDBRANCH  23  25
ENDBRANCH  20  21
ENDBRANCH  19  20
ENDBRANCH   1  19
TORSDOF 24
ENDMDL
