MODEL 1
REMARK VINA RESULT:     -13.7      0.000      0.000
REMARK SMILES CCn1ncc(NC(=O)[C@@H]2CCCC[C@@H]2C(=O)NCCCCNC(=O)c2ccc(-c3c4nc(c(-c5c(F)c(F)c(F)c(F)c5F)c5ccc([nH]5)c(-c5c(F)c(F)c(F)c(F)c5F)c5nc(c(-c6c(F)c(F)c(F)c(F)c6F)c6ccc3[nH]6)C=C5)C=C4)cc2)c1C(=O)Nc1cnn(C)c1C
REMARK SMILES IDX 19 1 18 2 16 3 17 4 15 6 10 7 11 8 12 9 14 10 13 11 8 12
REMARK SMILES IDX 7 13 9 15 6 16 3 17 4 18 89 19 5 20 2 21 1 22 90 23 91 24
REMARK SMILES IDX 92 25 93 27 94 28 98 29 95 30 96 31 99 32 97 33 20 34 21 35
REMARK SMILES IDX 22 36 23 37 24 38 25 40 26 41 27 42 88 43 28 44 87 45 29 46
REMARK SMILES IDX 30 47 31 48 81 49 32 50 86 51 80 52 82 53 33 54 85 55 79 56
REMARK SMILES IDX 78 57 34 59 66 60 46 61 65 62 47 63 50 64 64 65 83 66 48 67
REMARK SMILES IDX 49 68 63 70 84 71 51 72 35 73 36 74 44 75 37 76 38 77 42 78
REMARK SMILES IDX 45 79 39 80 40 81 43 82 41 83 67 84 68 85 76 86 69 87 70 88
REMARK SMILES IDX 74 89 77 90 71 91 72 92 75 93 73 94 52 95 53 96 61 97 54 98
REMARK SMILES IDX 55 99 59 100 62 101 56 102 57 103 60 104 58 105
REMARK H PARENT 18 5 7 14 92 26 23 39 82 58 50 69
REMARK Flexibility Score: inf
ROOT
ATOM      1  C   UNL A   1      34.766  24.460  24.279  1.00  0.00     0.116 C 
ENDROOT
BRANCH   1   2
ATOM      2  N   UNL A   1      34.249  25.491  23.407  1.00  0.00    -0.356 N 
ATOM      3  C   UNL A   1      33.141  26.257  23.626  1.00  0.00     0.223 C 
ATOM      4  O   UNL A   1      32.646  26.846  22.668  1.00  0.00    -0.275 OA
ATOM      5  H   UNL A   1      34.746  25.658  22.574  1.00  0.00     0.163 HD
BRANCH   3   6
ATOM      6  C   UNL A   1      32.663  26.419  25.071  1.00  0.00     0.091 C 
ATOM      7  C   UNL A   1      31.187  26.873  25.171  1.00  0.00     0.091 C 
ATOM      8  C   UNL A   1      31.073  28.274  24.644  1.00  0.00     0.014 C 
ATOM      9  C   UNL A   1      32.007  29.283  25.260  1.00  0.00     0.001 C 
ATOM     10  C   UNL A   1      33.591  27.451  25.768  1.00  0.00     0.014 C 
ATOM     11  C   UNL A   1      33.443  28.851  25.183  1.00  0.00     0.001 C 
BRANCH   7  12
ATOM     12  C   UNL A   1      30.186  25.871  24.588  1.00  0.00     0.228 C 
ATOM     13  N   UNL A   1      30.294  24.506  24.590  1.00  0.00    -0.322 N 
ATOM     14  H   UNL A   1      29.777  24.082  23.865  1.00  0.00     0.170 HD
ATOM     15  O   UNL A   1      29.197  26.321  23.983  1.00  0.00    -0.274 OA
BRANCH  13  16
ATOM     16  C   UNL A   1      30.970  23.576  25.384  1.00  0.00     0.092 A 
ATOM     17  N   UNL A   1      32.408  22.321  26.421  1.00  0.00    -0.258 N 
ATOM     18  N   UNL A   1      31.632  22.788  27.420  1.00  0.00    -0.178 NA
ATOM     19  C   UNL A   1      31.829  22.476  25.170  1.00  0.00     0.150 A 
ATOM     20  C   UNL A   1      30.780  23.585  26.789  1.00  0.00     0.162 A 
BRANCH  17  21
ATOM     21  C   UNL A   1      33.741  21.912  26.813  1.00  0.00     0.142 C 
ATOM     22  C   UNL A   1      34.485  22.987  27.589  1.00  0.00     0.029 C 
ENDBRANCH  17  21
BRANCH  19  23
ATOM     23  C   UNL A   1      32.043  21.695  23.934  1.00  0.00     0.276 C 
ATOM     24  O   UNL A   1      31.737  22.158  22.833  1.00  0.00    -0.267 OA
ATOM     25  N   UNL A   1      32.927  20.620  23.938  1.00  0.00    -0.318 N 
ATOM     26  H   UNL A   1      33.801  20.785  23.517  1.00  0.00     0.170 HD
BRANCH  25  27
ATOM     27  C   UNL A   1      32.742  19.358  24.455  1.00  0.00     0.082 A 
ATOM     28  C   UNL A   1      32.634  18.952  25.798  1.00  0.00     0.161 A 
ATOM     29  C   UNL A   1      32.577  18.197  23.716  1.00  0.00     0.059 A 
ATOM     30  N   UNL A   1      32.604  17.625  25.916  1.00  0.00    -0.179 NA
ATOM     31  N   UNL A   1      32.676  17.186  24.645  1.00  0.00    -0.271 N 
ATOM     32  C   UNL A   1      32.493  17.912  22.259  1.00  0.00     0.068 C 
ATOM     33  C   UNL A   1      33.036  15.804  24.412  1.00  0.00     0.174 C 
ENDBRANCH  25  27
ENDBRANCH  19  23
ENDBRANCH  13  16
ENDBRANCH   7  12
ENDBRANCH   3   6
ENDBRANCH   1   2
BRANCH   1  34
ATOM     34  C   UNL A   1      35.261  23.267  23.471  1.00  0.00     0.023 C 
BRANCH  34  35
ATOM     35  C   UNL A   1      36.759  22.970  23.619  1.00  0.00     0.023 C 
BRANCH  35  36
ATOM     36  C   UNL A   1      37.311  23.162  25.027  1.00  0.00     0.116 C 
BRANCH  36  37
ATOM     37  N   UNL A   1      38.144  22.042  25.451  1.00  0.00    -0.352 N 
ATOM     38  C   UNL A   1      39.343  22.071  26.123  1.00  0.00     0.251 C 
ATOM     39  H   UNL A   1      37.803  21.146  25.226  1.00  0.00     0.163 HD
ATOM     40  O   UNL A   1      40.109  21.106  26.077  1.00  0.00    -0.269 OA
BRANCH  38  41
ATOM     41  C   UNL A   1      39.708  23.254  26.916  1.00  0.00     0.039 A 
ATOM     42  C   UNL A   1      40.884  23.277  27.668  1.00  0.00     0.014 A 
ATOM     43  C   UNL A   1      38.844  24.348  26.921  1.00  0.00     0.014 A 
ATOM     44  C   UNL A   1      41.214  24.436  28.364  1.00  0.00     0.010 A 
ATOM     45  C   UNL A   1      39.216  25.528  27.515  1.00  0.00     0.010 A 
ATOM     46  C   UNL A   1      40.380  25.564  28.270  1.00  0.00    -0.014 A 
BRANCH  46  47
ATOM     47  C   UNL A   1      40.814  26.849  28.800  1.00  0.00     0.031 A 
ATOM     48  C   UNL A   1      42.022  27.378  28.115  1.00  0.00     0.074 A 
ATOM     49  C   UNL A   1      40.069  27.592  29.648  1.00  0.00     0.049 A 
ATOM     50  N   UNL A   1      43.206  27.519  28.611  1.00  0.00    -0.248 NA
ATOM     51  C   UNL A   1      41.955  27.618  26.662  1.00  0.00     0.031 C 
ATOM     52  C   UNL A   1      38.711  27.312  30.125  1.00  0.00     0.029 A 
ATOM     53  N   UNL A   1      40.325  28.820  30.184  1.00  0.00    -0.354 N 
ATOM     54  C   UNL A   1      43.973  28.090  27.599  1.00  0.00     0.074 A 
ATOM     55  C   UNL A   1      43.228  27.912  26.383  1.00  0.00     0.031 C 
ATOM     56  C   UNL A   1      38.185  28.426  30.680  1.00  0.00     0.029 A 
ATOM     57  C   UNL A   1      39.212  29.449  30.739  1.00  0.00     0.049 A 
ATOM     58  H   UNL A   1      41.221  29.227  30.181  1.00  0.00     0.167 HD
ATOM     59  C   UNL A   1      44.988  28.940  27.916  1.00  0.00     0.037 A 
ATOM     60  C   UNL A   1      39.136  30.729  31.186  1.00  0.00     0.037 A 
ATOM     61  C   UNL A   1      45.359  28.781  29.306  1.00  0.00     0.049 A 
ATOM     62  C   UNL A   1      40.524  31.192  31.418  1.00  0.00     0.074 A 
ATOM     63  C   UNL A   1      45.818  27.745  30.094  1.00  0.00     0.029 A 
ATOM     64  N   UNL A   1      44.887  29.734  30.172  1.00  0.00    -0.354 N 
ATOM     65  N   UNL A   1      41.295  30.734  32.363  1.00  0.00    -0.248 NA
ATOM     66  C   UNL A   1      41.205  31.874  30.330  1.00  0.00     0.031 C 
ATOM     67  C   UNL A   1      45.206  27.945  31.371  1.00  0.00     0.029 A 
ATOM     68  C   UNL A   1      44.470  29.129  31.323  1.00  0.00     0.049 A 
ATOM     69  H   UNL A   1      44.855  30.700  29.993  1.00  0.00     0.167 HD
ATOM     70  C   UNL A   1      42.546  30.647  31.774  1.00  0.00     0.074 A 
ATOM     71  C   UNL A   1      42.457  31.485  30.580  1.00  0.00     0.031 C 
ATOM     72  C   UNL A   1      43.416  29.665  32.153  1.00  0.00     0.037 A 
BRANCH  59  73
ATOM     73  C   UNL A   1      45.288  30.229  27.162  1.00  0.00     0.064 A 
ATOM     74  C   UNL A   1      46.640  30.563  26.925  1.00  0.00     0.173 A 
ATOM     75  C   UNL A   1      44.370  31.286  26.973  1.00  0.00     0.173 A 
ATOM     76  F   UNL A   1      47.606  29.645  27.072  1.00  0.00    -0.203 F 
ATOM     77  C   UNL A   1      47.044  31.874  26.655  1.00  0.00     0.198 A 
ATOM     78  C   UNL A   1      44.775  32.582  26.652  1.00  0.00     0.198 A 
ATOM     79  F   UNL A   1      43.059  31.157  27.194  1.00  0.00    -0.203 F 
ATOM     80  F   UNL A   1      48.351  32.168  26.598  1.00  0.00    -0.200 F 
ATOM     81  C   UNL A   1      46.112  32.885  26.532  1.00  0.00     0.200 A 
ATOM     82  F   UNL A   1      43.853  33.551  26.554  1.00  0.00    -0.200 F 
ATOM     83  F   UNL A   1      46.499  34.154  26.351  1.00  0.00    -0.200 F 
ENDBRANCH  59  73
BRANCH  60  84
ATOM     84  C   UNL A   1      37.992  31.676  31.182  1.00  0.00     0.064 A 
ATOM     85  C   UNL A   1      37.500  32.211  29.977  1.00  0.00     0.173 A 
ATOM     86  C   UNL A   1      37.172  31.837  32.315  1.00  0.00     0.173 A 
ATOM     87  F   UNL A   1      38.197  32.069  28.840  1.00  0.00    -0.203 F 
ATOM     88  C   UNL A   1      36.247  32.831  29.903  1.00  0.00     0.198 A 
ATOM     89  C   UNL A   1      35.924  32.461  32.240  1.00  0.00     0.198 A 
ATOM     90  F   UNL A   1      37.516  31.303  33.495  1.00  0.00    -0.203 F 
ATOM     91  F   UNL A   1      35.783  33.261  28.721  1.00  0.00    -0.200 F 
ATOM     92  C   UNL A   1      35.454  32.943  31.032  1.00  0.00     0.200 A 
ATOM     93  F   UNL A   1      35.150  32.533  33.333  1.00  0.00    -0.200 F 
ATOM     94  F   UNL A   1      34.226  33.472  30.949  1.00  0.00    -0.200 F 
ENDBRANCH  60  84
BRANCH  72  95
ATOM     95  C   UNL A   1      43.142  28.962  33.454  1.00  0.00     0.064 A 
ATOM     96  C   UNL A   1      42.262  27.878  33.615  1.00  0.00     0.173 A 
ATOM     97  C   UNL A   1      43.887  29.356  34.575  1.00  0.00     0.173 A 
ATOM     98  F   UNL A   1      41.585  27.374  32.575  1.00  0.00    -0.203 F 
ATOM     99  C   UNL A   1      42.097  27.258  34.854  1.00  0.00     0.198 A 
ATOM    100  C   UNL A   1      43.752  28.709  35.798  1.00  0.00     0.198 A 
ATOM    101  F   UNL A   1      44.779  30.354  34.471  1.00  0.00    -0.203 F 
ATOM    102  F   UNL A   1      41.229  26.245  34.989  1.00  0.00    -0.200 F 
ATOM    103  C   UNL A   1      42.846  27.672  35.942  1.00  0.00     0.200 A 
ATOM    104  F   UNL A   1      44.515  29.083  36.835  1.00  0.00    -0.200 F 
ATOM    105  F   UNL A   1      42.714  27.056  37.125  1.00  0.00    -0.200 F 
ENDBRANCH  72  95
ENDBRANCH  46  47
ENDBRANCH  38  41
ENDBRANCH  36  37
ENDBRANCH  35  36
ENDBRANCH  34  35
ENDBRANCH   1  34
TORSDOF 16
ENDMDL
MODEL 2
REMARK VINA RESULT:     -13.1      2.965      8.523
REMARK SMILES CCn1ncc(NC(=O)[C@@H]2CCCC[C@@H]2C(=O)NCCCCNC(=O)c2ccc(-c3c4nc(c(-c5c(F)c(F)c(F)c(F)c5F)c5ccc([nH]5)c(-c5c(F)c(F)c(F)c(F)c5F)c5nc(c(-c6c(F)c(F)c(F)c(F)c6F)c6ccc3[nH]6)C=C5)C=C4)cc2)c1C(=O)Nc1cnn(C)c1C
REMARK SMILES IDX 19 1 18 2 16 3 17 4 15 6 10 7 11 8 12 9 14 10 13 11 8 12
REMARK SMILES IDX 7 13 9 15 6 16 3 17 4 18 89 19 5 20 2 21 1 22 90 23 91 24
REMARK SMILES IDX 92 25 93 27 94 28 98 29 95 30 96 31 99 32 97 33 20 34 21 35
REMARK SMILES IDX 22 36 23 37 24 38 25 40 26 41 27 42 88 43 28 44 87 45 29 46
REMARK SMILES IDX 30 47 31 48 81 49 32 50 86 51 80 52 82 53 33 54 85 55 79 56
REMARK SMILES IDX 78 57 34 59 66 60 46 61 65 62 47 63 50 64 64 65 83 66 48 67
REMARK SMILES IDX 49 68 63 70 84 71 51 72 35 73 36 74 44 75 37 76 38 77 42 78
REMARK SMILES IDX 45 79 39 80 40 81 43 82 41 83 67 84 68 85 76 86 69 87 70 88
REMARK SMILES IDX 74 89 77 90 71 91 72 92 75 93 73 94 52 95 53 96 61 97 54 98
REMARK SMILES IDX 55 99 59 100 62 101 56 102 57 103 60 104 58 105
REMARK H PARENT 18 5 7 14 92 26 23 39 82 58 50 69
REMARK Flexibility Score: inf
ROOT
ATOM      1  C   UNL A   1      32.977  25.938  26.261  1.00  0.00     0.116 C 
ENDROOT
BRANCH   1   2
ATOM      2  N   UNL A   1      32.400  24.648  26.566  1.00  0.00    -0.356 N 
ATOM      3  C   UNL A   1      32.505  23.514  25.813  1.00  0.00     0.223 C 
ATOM      4  O   UNL A   1      31.706  22.604  26.021  1.00  0.00    -0.275 OA
ATOM      5  H   UNL A   1      31.880  24.579  27.400  1.00  0.00     0.163 HD
BRANCH   3   6
ATOM      6  C   UNL A   1      33.685  23.413  24.843  1.00  0.00     0.091 C 
ATOM      7  C   UNL A   1      33.557  22.225  23.860  1.00  0.00     0.091 C 
ATOM      8  C   UNL A   1      33.674  20.942  24.630  1.00  0.00     0.014 C 
ATOM      9  C   UNL A   1      34.896  20.812  25.502  1.00  0.00     0.001 C 
ATOM     10  C   UNL A   1      34.984  23.279  25.683  1.00  0.00     0.014 C 
ATOM     11  C   UNL A   1      35.042  21.965  26.454  1.00  0.00     0.001 C 
BRANCH   7  12
ATOM     12  C   UNL A   1      32.348  22.317  22.924  1.00  0.00     0.228 C 
ATOM     13  N   UNL A   1      31.720  23.459  22.502  1.00  0.00    -0.322 N 
ATOM     14  H   UNL A   1      30.783  23.303  22.239  1.00  0.00     0.170 HD
ATOM     15  O   UNL A   1      31.820  21.256  22.549  1.00  0.00    -0.274 OA
BRANCH  13  16
ATOM     16  C   UNL A   1      32.105  24.795  22.360  1.00  0.00     0.092 A 
ATOM     17  N   UNL A   1      32.793  26.841  22.603  1.00  0.00    -0.258 N 
ATOM     18  N   UNL A   1      33.518  26.396  21.557  1.00  0.00    -0.178 NA
ATOM     19  C   UNL A   1      31.691  26.043  22.874  1.00  0.00     0.150 A 
ATOM     20  C   UNL A   1      33.126  25.135  21.436  1.00  0.00     0.162 A 
BRANCH  17  21
ATOM     21  C   UNL A   1      33.377  27.944  23.338  1.00  0.00     0.142 C 
ATOM     22  C   UNL A   1      34.261  28.828  22.472  1.00  0.00     0.029 C 
ENDBRANCH  17  21
BRANCH  19  23
ATOM     23  C   UNL A   1      30.411  26.397  23.524  1.00  0.00     0.276 C 
ATOM     24  O   UNL A   1      29.769  25.556  24.156  1.00  0.00    -0.267 OA
ATOM     25  N   UNL A   1      30.107  27.733  23.770  1.00  0.00    -0.318 N 
ATOM     26  H   UNL A   1      30.211  28.030  24.702  1.00  0.00     0.170 HD
BRANCH  25  27
ATOM     27  C   UNL A   1      29.682  28.694  22.881  1.00  0.00     0.082 A 
ATOM     28  C   UNL A   1      30.429  29.440  21.951  1.00  0.00     0.161 A 
ATOM     29  C   UNL A   1      28.370  29.101  22.694  1.00  0.00     0.059 A 
ATOM     30  N   UNL A   1      29.693  30.383  21.363  1.00  0.00    -0.179 NA
ATOM     31  N   UNL A   1      28.472  30.225  21.907  1.00  0.00    -0.271 N 
ATOM     32  C   UNL A   1      27.071  28.668  23.272  1.00  0.00     0.068 C 
ATOM     33  C   UNL A   1      27.514  31.302  21.777  1.00  0.00     0.174 C 
ENDBRANCH  25  27
ENDBRANCH  19  23
ENDBRANCH  13  16
ENDBRANCH   7  12
ENDBRANCH   3   6
ENDBRANCH   1   2
BRANCH   1  34
ATOM     34  C   UNL A   1      32.033  27.061  26.668  1.00  0.00     0.023 C 
BRANCH  34  35
ATOM     35  C   UNL A   1      32.673  28.153  27.536  1.00  0.00     0.023 C 
BRANCH  35  36
ATOM     36  C   UNL A   1      33.647  29.064  26.799  1.00  0.00     0.116 C 
BRANCH  36  37
ATOM     37  N   UNL A   1      33.450  30.471  27.134  1.00  0.00    -0.352 N 
ATOM     38  C   UNL A   1      34.249  31.290  27.897  1.00  0.00     0.251 C 
ATOM     39  H   UNL A   1      32.638  30.888  26.768  1.00  0.00     0.163 HD
ATOM     40  O   UNL A   1      33.787  32.312  28.409  1.00  0.00    -0.269 OA
BRANCH  38  41
ATOM     41  C   UNL A   1      35.668  30.957  28.087  1.00  0.00     0.039 A 
ATOM     42  C   UNL A   1      36.571  31.912  28.556  1.00  0.00     0.014 A 
ATOM     43  C   UNL A   1      36.101  29.670  27.771  1.00  0.00     0.014 A 
ATOM     44  C   UNL A   1      37.895  31.538  28.769  1.00  0.00     0.010 A 
ATOM     45  C   UNL A   1      37.375  29.266  28.080  1.00  0.00     0.010 A 
ATOM     46  C   UNL A   1      38.285  30.207  28.542  1.00  0.00    -0.014 A 
BRANCH  46  47
ATOM     47  C   UNL A   1      39.597  29.739  28.968  1.00  0.00     0.031 A 
ATOM     48  C   UNL A   1      39.784  29.807  30.441  1.00  0.00     0.074 A 
ATOM     49  C   UNL A   1      40.456  29.092  28.151  1.00  0.00     0.049 A 
ATOM     50  N   UNL A   1      40.579  30.586  31.095  1.00  0.00    -0.248 NA
ATOM     51  C   UNL A   1      38.859  29.046  31.300  1.00  0.00     0.031 C 
ATOM     52  C   UNL A   1      40.230  28.680  26.762  1.00  0.00     0.029 A 
ATOM     53  N   UNL A   1      41.685  28.564  28.420  1.00  0.00    -0.354 N 
ATOM     54  C   UNL A   1      40.425  30.242  32.435  1.00  0.00     0.074 A 
ATOM     55  C   UNL A   1      39.214  29.473  32.515  1.00  0.00     0.031 C 
ATOM     56  C   UNL A   1      41.171  27.783  26.393  1.00  0.00     0.029 A 
ATOM     57  C   UNL A   1      42.153  27.672  27.457  1.00  0.00     0.049 A 
ATOM     58  H   UNL A   1      42.199  28.795  29.227  1.00  0.00     0.167 HD
ATOM     59  C   UNL A   1      41.483  30.346  33.287  1.00  0.00     0.037 A 
ATOM     60  C   UNL A   1      43.251  26.879  27.544  1.00  0.00     0.037 A 
ATOM     61  C   UNL A   1      42.500  31.203  32.720  1.00  0.00     0.049 A 
ATOM     62  C   UNL A   1      44.115  27.446  28.604  1.00  0.00     0.074 A 
ATOM     63  C   UNL A   1      42.562  32.513  32.289  1.00  0.00     0.029 A 
ATOM     64  N   UNL A   1      43.583  30.572  32.163  1.00  0.00    -0.354 N 
ATOM     65  N   UNL A   1      44.741  28.584  28.502  1.00  0.00    -0.248 NA
ATOM     66  C   UNL A   1      43.950  26.943  29.958  1.00  0.00     0.031 C 
ATOM     67  C   UNL A   1      43.433  32.496  31.156  1.00  0.00     0.029 A 
ATOM     68  C   UNL A   1      43.920  31.198  30.997  1.00  0.00     0.049 A 
ATOM     69  H   UNL A   1      44.046  29.792  32.545  1.00  0.00     0.167 HD
ATOM     70  C   UNL A   1      44.628  29.154  29.759  1.00  0.00     0.074 A 
ATOM     71  C   UNL A   1      44.257  28.049  30.640  1.00  0.00     0.031 C 
ATOM     72  C   UNL A   1      44.546  30.511  29.891  1.00  0.00     0.037 A 
BRANCH  59  73
ATOM     73  C   UNL A   1      41.825  29.311  34.351  1.00  0.00     0.064 A 
ATOM     74  C   UNL A   1      42.338  29.768  35.585  1.00  0.00     0.173 A 
ATOM     75  C   UNL A   1      42.001  27.930  34.108  1.00  0.00     0.173 A 
ATOM     76  F   UNL A   1      42.233  31.060  35.931  1.00  0.00    -0.203 F 
ATOM     77  C   UNL A   1      43.077  28.940  36.435  1.00  0.00     0.198 A 
ATOM     78  C   UNL A   1      42.694  27.097  34.984  1.00  0.00     0.198 A 
ATOM     79  F   UNL A   1      41.615  27.338  32.974  1.00  0.00    -0.203 F 
ATOM     80  F   UNL A   1      43.678  29.463  37.514  1.00  0.00    -0.200 F 
ATOM     81  C   UNL A   1      43.266  27.608  36.127  1.00  0.00     0.200 A 
ATOM     82  F   UNL A   1      42.880  25.810  34.656  1.00  0.00    -0.200 F 
ATOM     83  F   UNL A   1      44.038  26.831  36.897  1.00  0.00    -0.200 F 
ENDBRANCH  59  73
BRANCH  60  84
ATOM     84  C   UNL A   1      43.502  25.529  26.977  1.00  0.00     0.064 A 
ATOM     85  C   UNL A   1      44.511  25.324  26.018  1.00  0.00     0.173 A 
ATOM     86  C   UNL A   1      42.972  24.372  27.580  1.00  0.00     0.173 A 
ATOM     87  F   UNL A   1      45.100  26.371  25.422  1.00  0.00    -0.203 F 
ATOM     88  C   UNL A   1      44.987  24.044  25.711  1.00  0.00     0.198 A 
ATOM     89  C   UNL A   1      43.445  23.095  27.268  1.00  0.00     0.198 A 
ATOM     90  F   UNL A   1      42.058  24.462  28.555  1.00  0.00    -0.203 F 
ATOM     91  F   UNL A   1      46.001  23.897  24.846  1.00  0.00    -0.200 F 
ATOM     92  C   UNL A   1      44.464  22.932  26.348  1.00  0.00     0.200 A 
ATOM     93  F   UNL A   1      42.954  22.029  27.916  1.00  0.00    -0.200 F 
ATOM     94  F   UNL A   1      44.966  21.713  26.108  1.00  0.00    -0.200 F 
ENDBRANCH  60  84
BRANCH  72  95
ATOM     95  C   UNL A   1      44.972  31.349  28.717  1.00  0.00     0.064 A 
ATOM     96  C   UNL A   1      44.167  31.643  27.602  1.00  0.00     0.173 A 
ATOM     97  C   UNL A   1      46.234  31.957  28.776  1.00  0.00     0.173 A 
ATOM     98  F   UNL A   1      42.913  31.183  27.512  1.00  0.00    -0.203 F 
ATOM     99  C   UNL A   1      44.630  32.462  26.573  1.00  0.00     0.198 A 
ATOM    100  C   UNL A   1      46.677  32.807  27.769  1.00  0.00     0.198 A 
ATOM    101  F   UNL A   1      47.029  31.753  29.839  1.00  0.00    -0.203 F 
ATOM    102  F   UNL A   1      43.855  32.704  25.506  1.00  0.00    -0.200 F 
ATOM    103  C   UNL A   1      45.882  33.047  26.660  1.00  0.00     0.200 A 
ATOM    104  F   UNL A   1      47.869  33.408  27.883  1.00  0.00    -0.200 F 
ATOM    105  F   UNL A   1      46.315  33.862  25.688  1.00  0.00    -0.200 F 
ENDBRANCH  72  95
ENDBRANCH  46  47
ENDBRANCH  38  41
ENDBRANCH  36  37
ENDBRANCH  35  36
ENDBRANCH  34  35
ENDBRANCH   1  34
TORSDOF 16
ENDMDL
MODEL 3
REMARK VINA RESULT:     -13.1      2.629      7.550
REMARK SMILES CCn1ncc(NC(=O)[C@@H]2CCCC[C@@H]2C(=O)NCCCCNC(=O)c2ccc(-c3c4nc(c(-c5c(F)c(F)c(F)c(F)c5F)c5ccc([nH]5)c(-c5c(F)c(F)c(F)c(F)c5F)c5nc(c(-c6c(F)c(F)c(F)c(F)c6F)c6ccc3[nH]6)C=C5)C=C4)cc2)c1C(=O)Nc1cnn(C)c1C
REMARK SMILES IDX 19 1 18 2 16 3 17 4 15 6 10 7 11 8 12 9 14 10 13 11 8 12
REMARK SMILES IDX 7 13 9 15 6 16 3 17 4 18 89 19 5 20 2 21 1 22 90 23 91 24
REMARK SMILES IDX 92 25 93 27 94 28 98 29 95 30 96 31 99 32 97 33 20 34 21 35
REMARK SMILES IDX 22 36 23 37 24 38 25 40 26 41 27 42 88 43 28 44 87 45 29 46
REMARK SMILES IDX 30 47 31 48 81 49 32 50 86 51 80 52 82 53 33 54 85 55 79 56
REMARK SMILES IDX 78 57 34 59 66 60 46 61 65 62 47 63 50 64 64 65 83 66 48 67
REMARK SMILES IDX 49 68 63 70 84 71 51 72 35 73 36 74 44 75 37 76 38 77 42 78
REMARK SMILES IDX 45 79 39 80 40 81 43 82 41 83 67 84 68 85 76 86 69 87 70 88
REMARK SMILES IDX 74 89 77 90 71 91 72 92 75 93 73 94 52 95 53 96 61 97 54 98
REMARK SMILES IDX 55 99 59 100 62 101 56 102 57 103 60 104 58 105
REMARK H PARENT 18 5 7 14 92 26 23 39 82 58 50 69
REMARK Flexibility Score: inf
ROOT
ATOM      1  C   UNL A   1      32.322  29.160  27.188  1.00  0.00     0.116 C 
ENDROOT
BRANCH   1   2
ATOM      2  N   UNL A   1      33.153  28.381  26.297  1.00  0.00    -0.356 N 
ATOM      3  C   UNL A   1      32.720  27.487  25.360  1.00  0.00     0.223 C 
ATOM      4  O   UNL A   1      33.530  26.674  24.918  1.00  0.00    -0.275 OA
ATOM      5  H   UNL A   1      34.126  28.509  26.372  1.00  0.00     0.163 HD
BRANCH   3   6
ATOM      6  C   UNL A   1      31.287  27.636  24.844  1.00  0.00     0.091 C 
ATOM      7  C   UNL A   1      30.629  26.281  24.492  1.00  0.00     0.091 C 
ATOM      8  C   UNL A   1      31.331  25.693  23.302  1.00  0.00     0.014 C 
ATOM      9  C   UNL A   1      31.435  26.590  22.095  1.00  0.00     0.001 C 
ATOM     10  C   UNL A   1      31.323  28.557  23.594  1.00  0.00     0.014 C 
ATOM     11  C   UNL A   1      32.060  27.916  22.423  1.00  0.00     0.001 C 
BRANCH   7  12
ATOM     12  C   UNL A   1      30.468  25.337  25.687  1.00  0.00     0.228 C 
ATOM     13  N   UNL A   1      31.175  24.189  25.930  1.00  0.00    -0.322 N 
ATOM     14  H   UNL A   1      30.687  23.555  26.505  1.00  0.00     0.170 HD
ATOM     15  O   UNL A   1      29.560  25.578  26.502  1.00  0.00    -0.274 OA
BRANCH  13  16
ATOM     16  C   UNL A   1      32.432  23.712  25.547  1.00  0.00     0.092 A 
ATOM     17  N   UNL A   1      34.314  23.242  24.571  1.00  0.00    -0.258 N 
ATOM     18  N   UNL A   1      34.694  23.589  25.817  1.00  0.00    -0.178 NA
ATOM     19  C   UNL A   1      32.960  22.955  24.479  1.00  0.00     0.150 A 
ATOM     20  C   UNL A   1      33.548  23.914  26.399  1.00  0.00     0.162 A 
BRANCH  17  21
ATOM     21  C   UNL A   1      35.330  23.395  23.549  1.00  0.00     0.142 C 
ATOM     22  C   UNL A   1      36.696  22.899  23.995  1.00  0.00     0.029 C 
ENDBRANCH  17  21
BRANCH  19  23
ATOM     23  C   UNL A   1      32.248  22.081  23.522  1.00  0.00     0.276 C 
ATOM     24  O   UNL A   1      31.457  22.553  22.703  1.00  0.00    -0.267 OA
ATOM     25  N   UNL A   1      32.731  20.801  23.264  1.00  0.00    -0.318 N 
ATOM     26  H   UNL A   1      33.205  20.689  22.408  1.00  0.00     0.170 HD
BRANCH  25  27
ATOM     27  C   UNL A   1      32.634  19.673  24.045  1.00  0.00     0.082 A 
ATOM     28  C   UNL A   1      32.616  19.560  25.447  1.00  0.00     0.161 A 
ATOM     29  C   UNL A   1      32.488  18.375  23.580  1.00  0.00     0.059 A 
ATOM     30  N   UNL A   1      32.657  18.288  25.845  1.00  0.00    -0.179 NA
ATOM     31  N   UNL A   1      32.684  17.591  24.694  1.00  0.00    -0.271 N 
ATOM     32  C   UNL A   1      32.342  17.783  22.224  1.00  0.00     0.068 C 
ATOM     33  C   UNL A   1      33.098  16.205  24.736  1.00  0.00     0.174 C 
ENDBRANCH  25  27
ENDBRANCH  19  23
ENDBRANCH  13  16
ENDBRANCH   7  12
ENDBRANCH   3   6
ENDBRANCH   1   2
BRANCH   1  34
ATOM     34  C   UNL A   1      32.902  30.554  27.386  1.00  0.00     0.023 C 
BRANCH  34  35
ATOM     35  C   UNL A   1      34.427  30.596  27.553  1.00  0.00     0.023 C 
BRANCH  35  36
ATOM     36  C   UNL A   1      35.010  31.993  27.734  1.00  0.00     0.116 C 
BRANCH  36  37
ATOM     37  N   UNL A   1      34.630  32.590  29.011  1.00  0.00    -0.352 N 
ATOM     38  C   UNL A   1      35.062  32.258  30.274  1.00  0.00     0.251 C 
ATOM     39  H   UNL A   1      33.979  33.326  28.962  1.00  0.00     0.163 HD
ATOM     40  O   UNL A   1      34.394  32.565  31.263  1.00  0.00    -0.269 OA
BRANCH  38  41
ATOM     41  C   UNL A   1      36.337  31.548  30.448  1.00  0.00     0.039 A 
ATOM     42  C   UNL A   1      36.367  30.167  30.651  1.00  0.00     0.014 A 
ATOM     43  C   UNL A   1      37.521  32.285  30.427  1.00  0.00     0.014 A 
ATOM     44  C   UNL A   1      37.600  29.530  30.761  1.00  0.00     0.010 A 
ATOM     45  C   UNL A   1      38.738  31.651  30.426  1.00  0.00     0.010 A 
ATOM     46  C   UNL A   1      38.782  30.279  30.631  1.00  0.00    -0.014 A 
BRANCH  46  47
ATOM     47  C   UNL A   1      40.071  29.610  30.517  1.00  0.00     0.031 A 
ATOM     48  C   UNL A   1      40.731  29.402  31.832  1.00  0.00     0.074 A 
ATOM     49  C   UNL A   1      40.507  29.027  29.379  1.00  0.00     0.049 A 
ATOM     50  N   UNL A   1      41.807  29.969  32.267  1.00  0.00    -0.248 NA
ATOM     51  C   UNL A   1      40.027  28.605  32.853  1.00  0.00     0.031 C 
ATOM     52  C   UNL A   1      39.782  28.886  28.112  1.00  0.00     0.029 A 
ATOM     53  N   UNL A   1      41.658  28.334  29.141  1.00  0.00    -0.354 N 
ATOM     54  C   UNL A   1      42.042  29.417  33.523  1.00  0.00     0.074 A 
ATOM     55  C   UNL A   1      40.817  28.777  33.915  1.00  0.00     0.031 C 
ATOM     56  C   UNL A   1      40.401  27.973  27.332  1.00  0.00     0.029 A 
ATOM     57  C   UNL A   1      41.644  27.578  27.971  1.00  0.00     0.049 A 
ATOM     58  H   UNL A   1      42.434  28.367  29.745  1.00  0.00     0.167 HD
ATOM     59  C   UNL A   1      43.321  29.261  33.966  1.00  0.00     0.037 A 
ATOM     60  C   UNL A   1      42.572  26.671  27.573  1.00  0.00     0.037 A 
ATOM     61  C   UNL A   1      44.222  30.092  33.197  1.00  0.00     0.049 A 
ATOM     62  C   UNL A   1      43.810  26.953  28.336  1.00  0.00     0.074 A 
ATOM     63  C   UNL A   1      44.346  31.443  32.942  1.00  0.00     0.029 A 
ATOM     64  N   UNL A   1      44.953  29.456  32.227  1.00  0.00    -0.354 N 
ATOM     65  N   UNL A   1      44.540  28.019  28.170  1.00  0.00    -0.248 NA
ATOM     66  C   UNL A   1      44.015  26.244  29.588  1.00  0.00     0.031 C 
ATOM     67  C   UNL A   1      44.790  31.530  31.586  1.00  0.00     0.029 A 
ATOM     68  C   UNL A   1      44.989  30.235  31.106  1.00  0.00     0.049 A 
ATOM     69  H   UNL A   1      45.386  28.578  32.324  1.00  0.00     0.167 HD
ATOM     70  C   UNL A   1      44.929  28.374  29.451  1.00  0.00     0.074 A 
ATOM     71  C   UNL A   1      44.695  27.178  30.258  1.00  0.00     0.031 C 
ATOM     72  C   UNL A   1      45.109  29.688  29.775  1.00  0.00     0.037 A 
BRANCH  59  73
ATOM     73  C   UNL A   1      43.822  28.028  34.707  1.00  0.00     0.064 A 
ATOM     74  C   UNL A   1      43.588  26.761  34.128  1.00  0.00     0.173 A 
ATOM     75  C   UNL A   1      44.193  28.001  36.070  1.00  0.00     0.173 A 
ATOM     76  F   UNL A   1      43.228  26.655  32.840  1.00  0.00    -0.203 F 
ATOM     77  C   UNL A   1      43.597  25.585  34.884  1.00  0.00     0.198 A 
ATOM     78  C   UNL A   1      44.251  26.819  36.808  1.00  0.00     0.198 A 
ATOM     79  F   UNL A   1      44.410  29.108  36.785  1.00  0.00    -0.203 F 
ATOM     80  F   UNL A   1      43.211  24.431  34.322  1.00  0.00    -0.200 F 
ATOM     81  C   UNL A   1      43.915  25.618  36.227  1.00  0.00     0.200 A 
ATOM     82  F   UNL A   1      44.546  26.877  38.115  1.00  0.00    -0.200 F 
ATOM     83  F   UNL A   1      43.849  24.507  36.972  1.00  0.00    -0.200 F 
ENDBRANCH  59  73
BRANCH  60  84
ATOM     84  C   UNL A   1      42.412  25.421  26.788  1.00  0.00     0.064 A 
ATOM     85  C   UNL A   1      43.223  25.161  25.668  1.00  0.00     0.173 A 
ATOM     86  C   UNL A   1      41.679  24.329  27.292  1.00  0.00     0.173 A 
ATOM     87  F   UNL A   1      43.986  26.133  25.146  1.00  0.00    -0.203 F 
ATOM     88  C   UNL A   1      43.327  23.880  25.114  1.00  0.00     0.198 A 
ATOM     89  C   UNL A   1      41.779  23.053  26.734  1.00  0.00     0.198 A 
ATOM     90  F   UNL A   1      40.931  24.454  28.397  1.00  0.00    -0.203 F 
ATOM     91  F   UNL A   1      44.167  23.659  24.093  1.00  0.00    -0.200 F 
ATOM     92  C   UNL A   1      42.615  22.824  25.656  1.00  0.00     0.200 A 
ATOM     93  F   UNL A   1      41.112  22.030  27.289  1.00  0.00    -0.200 F 
ATOM     94  F   UNL A   1      42.766  21.584  25.171  1.00  0.00    -0.200 F 
ENDBRANCH  60  84
BRANCH  72  95
ATOM     95  C   UNL A   1      45.258  30.666  28.642  1.00  0.00     0.064 A 
ATOM     96  C   UNL A   1      44.195  31.327  28.002  1.00  0.00     0.173 A 
ATOM     97  C   UNL A   1      46.559  31.016  28.252  1.00  0.00     0.173 A 
ATOM     98  F   UNL A   1      42.926  31.125  28.379  1.00  0.00    -0.203 F 
ATOM     99  C   UNL A   1      44.427  32.251  26.983  1.00  0.00     0.198 A 
ATOM    100  C   UNL A   1      46.789  31.968  27.266  1.00  0.00     0.198 A 
ATOM    101  F   UNL A   1      47.616  30.454  28.861  1.00  0.00    -0.203 F 
ATOM    102  F   UNL A   1      43.395  32.846  26.367  1.00  0.00    -0.200 F 
ATOM    103  C   UNL A   1      45.724  32.574  26.620  1.00  0.00     0.200 A 
ATOM    104  F   UNL A   1      48.046  32.311  26.953  1.00  0.00    -0.200 F 
ATOM    105  F   UNL A   1      45.949  33.486  25.664  1.00  0.00    -0.200 F 
ENDBRANCH  72  95
ENDBRANCH  46  47
ENDBRANCH  38  41
ENDBRANCH  36  37
ENDBRANCH  35  36
ENDBRANCH  34  35
ENDBRANCH   1  34
TORSDOF 16
ENDMDL
