MODEL 1
REMARK VINA RESULT:     -12.8      0.000      0.000
REMARK SMILES C[C@@H]1CCCN(c2cc(Br)ccc2/C=C/C(=O)NCCCCNC(=O)c2ccc(-c3c4nc(c(-c5c(F)c(F)c(F)c(F)c5F)c5ccc([nH]5)c(-c5c(F)c(F)c(F)c(F)c5F)c5nc(c(-c6c(F)c(F)c(F)c(F)c6F)c6ccc3[nH]6)C=C5)C=C4)cc2)C1
REMARK SMILES IDX 20 1 19 2 18 3 16 4 17 5 15 7 14 8 13 9 7 10 8 11 9 12 12 13
REMARK SMILES IDX 10 14 11 15 6 16 1 17 2 18 3 19 89 20 4 21 5 22 21 23 22 24
REMARK SMILES IDX 23 25 24 26 25 28 26 29 27 30 88 31 28 32 87 33 29 34 30 35
REMARK SMILES IDX 31 36 81 37 32 38 86 39 80 40 82 41 33 42 85 43 79 44 78 45
REMARK SMILES IDX 34 47 66 48 46 49 65 50 47 51 50 52 64 53 83 54 48 55 49 56
REMARK SMILES IDX 63 58 84 59 51 60 35 61 36 62 44 63 37 64 38 65 42 66 45 67
REMARK SMILES IDX 39 68 40 69 43 70 41 71 67 72 68 73 76 74 69 75 70 76 74 77
REMARK SMILES IDX 77 78 71 79 72 80 75 81 73 82 52 83 53 84 61 85 54 86 55 87
REMARK SMILES IDX 59 88 62 89 56 90 57 91 60 92 58 93
REMARK H PARENT 18 6 23 27 82 46 50 57
REMARK Flexibility Score: inf
ROOT
ATOM      1  C   UNL A   1      31.725  30.843  26.185  1.00  0.00     0.023 C 
ENDROOT
BRANCH   1   2
ATOM      2  C   UNL A   1      31.892  29.699  27.185  1.00  0.00     0.116 C 
BRANCH   2   3
ATOM      3  N   UNL A   1      33.254  29.628  27.667  1.00  0.00    -0.353 N 
ATOM      4  C   UNL A   1      34.304  28.909  27.187  1.00  0.00     0.244 C 
ATOM      5  O   UNL A   1      35.419  29.054  27.683  1.00  0.00    -0.270 OA
ATOM      6  H   UNL A   1      33.450  30.181  28.457  1.00  0.00     0.163 HD
BRANCH   4   7
ATOM      7  C   UNL A   1      34.143  28.026  26.008  1.00  0.00     0.072 C 
ATOM      8  C   UNL A   1      33.555  26.820  26.025  1.00  0.00     0.016 C 
BRANCH   8   9
ATOM      9  C   UNL A   1      33.443  25.934  24.847  1.00  0.00    -0.002 A 
ATOM     10  C   UNL A   1      32.288  25.946  24.021  1.00  0.00     0.045 A 
ATOM     11  C   UNL A   1      32.206  25.009  22.976  1.00  0.00     0.042 A 
ATOM     12  C   UNL A   1      33.225  24.085  22.752  1.00  0.00     0.020 A 
ATOM     13  C   UNL A   1      34.452  24.979  24.614  1.00  0.00     0.011 A 
ATOM     14  Br  UNL A   1      33.072  22.841  21.337  1.00  0.00    -0.051 Br
ATOM     15  C   UNL A   1      34.349  24.063  23.568  1.00  0.00     0.016 A 
BRANCH  10  16
ATOM     16  N   UNL A   1      31.242  26.839  24.205  1.00  0.00    -0.371 N 
ATOM     17  C   UNL A   1      30.000  29.755  22.097  1.00  0.00     0.009 C 
ATOM     18  C   UNL A   1      30.062  28.322  22.626  1.00  0.00     0.005 C 
ATOM     19  C   UNL A   1      28.755  27.967  23.351  1.00  0.00     0.007 C 
ATOM     20  C   UNL A   1      31.269  28.147  23.561  1.00  0.00     0.119 C 
ATOM     21  C   UNL A   1      28.823  26.559  23.939  1.00  0.00     0.022 C 
ATOM     22  C   UNL A   1      30.020  26.407  24.872  1.00  0.00     0.116 C 
ENDBRANCH  10  16
ENDBRANCH   8   9
ENDBRANCH   4   7
ENDBRANCH   2   3
ENDBRANCH   1   2
BRANCH   1  23
ATOM     23  C   UNL A   1      31.413  32.195  26.830  1.00  0.00     0.023 C 
BRANCH  23  24
ATOM     24  C   UNL A   1      32.630  32.945  27.364  1.00  0.00     0.116 C 
BRANCH  24  25
ATOM     25  N   UNL A   1      32.359  34.335  27.692  1.00  0.00    -0.352 N 
ATOM     26  C   UNL A   1      32.991  35.137  28.612  1.00  0.00     0.251 C 
ATOM     27  H   UNL A   1      31.625  34.757  27.189  1.00  0.00     0.163 HD
ATOM     28  O   UNL A   1      32.575  36.264  28.842  1.00  0.00    -0.269 OA
BRANCH  26  29
ATOM     29  C   UNL A   1      34.154  34.606  29.355  1.00  0.00     0.039 A 
ATOM     30  C   UNL A   1      33.946  34.064  30.625  1.00  0.00     0.014 A 
ATOM     31  C   UNL A   1      35.433  34.618  28.793  1.00  0.00     0.014 A 
ATOM     32  C   UNL A   1      35.012  33.476  31.306  1.00  0.00     0.010 A 
ATOM     33  C   UNL A   1      36.479  33.968  29.441  1.00  0.00     0.010 A 
ATOM     34  C   UNL A   1      36.279  33.392  30.705  1.00  0.00    -0.014 A 
BRANCH  34  35
ATOM     35  C   UNL A   1      37.402  32.703  31.388  1.00  0.00     0.031 A 
ATOM     36  C   UNL A   1      38.116  31.566  30.712  1.00  0.00     0.074 A 
ATOM     37  C   UNL A   1      37.744  33.068  32.638  1.00  0.00     0.049 A 
ATOM     38  N   UNL A   1      39.101  30.826  31.156  1.00  0.00    -0.248 NA
ATOM     39  C   UNL A   1      37.643  31.191  29.371  1.00  0.00     0.031 C 
ATOM     40  C   UNL A   1      37.087  34.116  33.421  1.00  0.00     0.029 A 
ATOM     41  N   UNL A   1      38.727  32.597  33.473  1.00  0.00    -0.354 N 
ATOM     42  C   UNL A   1      39.356  29.897  30.156  1.00  0.00     0.074 A 
ATOM     43  C   UNL A   1      38.386  30.126  29.108  1.00  0.00     0.031 C 
ATOM     44  C   UNL A   1      37.702  34.226  34.611  1.00  0.00     0.029 A 
ATOM     45  C   UNL A   1      38.774  33.240  34.685  1.00  0.00     0.049 A 
ATOM     46  H   UNL A   1      39.338  31.866  33.225  1.00  0.00     0.167 HD
ATOM     47  C   UNL A   1      40.330  28.956  30.105  1.00  0.00     0.037 A 
ATOM     48  C   UNL A   1      39.594  33.054  35.737  1.00  0.00     0.037 A 
ATOM     49  C   UNL A   1      41.308  28.748  31.139  1.00  0.00     0.049 A 
ATOM     50  C   UNL A   1      40.673  32.009  35.650  1.00  0.00     0.074 A 
ATOM     51  C   UNL A   1      42.373  27.863  31.156  1.00  0.00     0.029 A 
ATOM     52  N   UNL A   1      41.340  29.434  32.345  1.00  0.00    -0.354 N 
ATOM     53  N   UNL A   1      40.956  31.191  34.665  1.00  0.00    -0.248 NA
ATOM     54  C   UNL A   1      41.554  31.869  36.818  1.00  0.00     0.031 C 
ATOM     55  C   UNL A   1      43.022  27.984  32.389  1.00  0.00     0.029 A 
ATOM     56  C   UNL A   1      42.393  28.978  33.120  1.00  0.00     0.049 A 
ATOM     57  H   UNL A   1      40.707  30.140  32.610  1.00  0.00     0.167 HD
ATOM     58  C   UNL A   1      42.062  30.461  35.081  1.00  0.00     0.074 A 
ATOM     59  C   UNL A   1      42.408  30.946  36.401  1.00  0.00     0.031 C 
ATOM     60  C   UNL A   1      42.728  29.477  34.430  1.00  0.00     0.037 A 
BRANCH  47  61
ATOM     61  C   UNL A   1      40.388  28.086  28.883  1.00  0.00     0.064 A 
ATOM     62  C   UNL A   1      41.139  28.452  27.754  1.00  0.00     0.173 A 
ATOM     63  C   UNL A   1      39.716  26.856  28.850  1.00  0.00     0.173 A 
ATOM     64  F   UNL A   1      41.790  29.625  27.729  1.00  0.00    -0.203 F 
ATOM     65  C   UNL A   1      41.189  27.634  26.630  1.00  0.00     0.198 A 
ATOM     66  C   UNL A   1      39.795  26.024  27.736  1.00  0.00     0.198 A 
ATOM     67  F   UNL A   1      38.989  26.453  29.903  1.00  0.00    -0.203 F 
ATOM     68  F   UNL A   1      41.871  28.029  25.545  1.00  0.00    -0.200 F 
ATOM     69  C   UNL A   1      40.523  26.418  26.624  1.00  0.00     0.200 A 
ATOM     70  F   UNL A   1      39.161  24.843  27.736  1.00  0.00    -0.200 F 
ATOM     71  F   UNL A   1      40.579  25.627  25.543  1.00  0.00    -0.200 F 
ENDBRANCH  47  61
BRANCH  48  72
ATOM     72  C   UNL A   1      39.451  33.902  36.949  1.00  0.00     0.064 A 
ATOM     73  C   UNL A   1      38.728  33.450  38.062  1.00  0.00     0.173 A 
ATOM     74  C   UNL A   1      40.026  35.180  37.019  1.00  0.00     0.173 A 
ATOM     75  F   UNL A   1      38.144  32.243  38.035  1.00  0.00    -0.203 F 
ATOM     76  C   UNL A   1      38.565  34.252  39.189  1.00  0.00     0.198 A 
ATOM     77  C   UNL A   1      39.886  35.970  38.159  1.00  0.00     0.198 A 
ATOM     78  F   UNL A   1      40.732  35.656  35.984  1.00  0.00    -0.203 F 
ATOM     79  F   UNL A   1      37.828  33.813  40.219  1.00  0.00    -0.200 F 
ATOM     80  C   UNL A   1      39.148  35.509  39.239  1.00  0.00     0.200 A 
ATOM     81  F   UNL A   1      40.463  37.177  38.208  1.00  0.00    -0.200 F 
ATOM     82  F   UNL A   1      38.993  36.278  40.324  1.00  0.00    -0.200 F 
ENDBRANCH  48  72
BRANCH  60  83
ATOM     83  C   UNL A   1      43.922  28.883  35.121  1.00  0.00     0.064 A 
ATOM     84  C   UNL A   1      43.807  27.762  35.957  1.00  0.00     0.173 A 
ATOM     85  C   UNL A   1      45.201  29.424  34.920  1.00  0.00     0.173 A 
ATOM     86  F   UNL A   1      42.604  27.218  36.194  1.00  0.00    -0.203 F 
ATOM     87  C   UNL A   1      44.925  27.224  36.589  1.00  0.00     0.198 A 
ATOM     88  C   UNL A   1      46.320  28.864  35.527  1.00  0.00     0.198 A 
ATOM     89  F   UNL A   1      45.366  30.491  34.123  1.00  0.00    -0.203 F 
ATOM     90  F   UNL A   1      44.784  26.186  37.424  1.00  0.00    -0.200 F 
ATOM     91  C   UNL A   1      46.181  27.771  36.368  1.00  0.00     0.200 A 
ATOM     92  F   UNL A   1      47.534  29.385  35.302  1.00  0.00    -0.200 F 
ATOM     93  F   UNL A   1      47.255  27.248  36.973  1.00  0.00    -0.200 F 
ENDBRANCH  60  83
ENDBRANCH  34  35
ENDBRANCH  26  29
ENDBRANCH  24  25
ENDBRANCH  23  24
ENDBRANCH   1  23
TORSDOF 13
ENDMDL
MODEL 2
REMARK VINA RESULT:     -12.5      0.801      7.449
REMARK SMILES C[C@@H]1CCCN(c2cc(Br)ccc2/C=C/C(=O)NCCCCNC(=O)c2ccc(-c3c4nc(c(-c5c(F)c(F)c(F)c(F)c5F)c5ccc([nH]5)c(-c5c(F)c(F)c(F)c(F)c5F)c5nc(c(-c6c(F)c(F)c(F)c(F)c6F)c6ccc3[nH]6)C=C5)C=C4)cc2)C1
REMARK SMILES IDX 20 1 19 2 18 3 16 4 17 5 15 7 14 8 13 9 7 10 8 11 9 12 12 13
REMARK SMILES IDX 10 14 11 15 6 16 1 17 2 18 3 19 89 20 4 21 5 22 21 23 22 24
REMARK SMILES IDX 23 25 24 26 25 28 26 29 27 30 88 31 28 32 87 33 29 34 30 35
REMARK SMILES IDX 31 36 81 37 32 38 86 39 80 40 82 41 33 42 85 43 79 44 78 45
REMARK SMILES IDX 34 47 66 48 46 49 65 50 47 51 50 52 64 53 83 54 48 55 49 56
REMARK SMILES IDX 63 58 84 59 51 60 35 61 36 62 44 63 37 64 38 65 42 66 45 67
REMARK SMILES IDX 39 68 40 69 43 70 41 71 67 72 68 73 76 74 69 75 70 76 74 77
REMARK SMILES IDX 77 78 71 79 72 80 75 81 73 82 52 83 53 84 61 85 54 86 55 87
REMARK SMILES IDX 59 88 62 89 56 90 57 91 60 92 58 93
REMARK H PARENT 18 6 23 27 82 46 50 57
REMARK Flexibility Score: inf
ROOT
ATOM      1  C   UNL A   1      31.548  30.805  26.155  1.00  0.00     0.023 C 
ENDROOT
BRANCH   1   2
ATOM      2  C   UNL A   1      31.787  29.703  27.187  1.00  0.00     0.116 C 
BRANCH   2   3
ATOM      3  N   UNL A   1      33.163  29.703  27.634  1.00  0.00    -0.353 N 
ATOM      4  C   UNL A   1      34.228  29.009  27.149  1.00  0.00     0.244 C 
ATOM      5  O   UNL A   1      35.349  29.215  27.609  1.00  0.00    -0.270 OA
ATOM      6  H   UNL A   1      33.358  30.291  28.399  1.00  0.00     0.163 HD
BRANCH   4   7
ATOM      7  C   UNL A   1      34.072  28.080  26.006  1.00  0.00     0.072 C 
ATOM      8  C   UNL A   1      33.561  26.842  26.085  1.00  0.00     0.016 C 
BRANCH   8   9
ATOM      9  C   UNL A   1      33.453  25.913  24.940  1.00  0.00    -0.002 A 
ATOM     10  C   UNL A   1      32.302  25.893  24.110  1.00  0.00     0.045 A 
ATOM     11  C   UNL A   1      32.223  24.918  23.100  1.00  0.00     0.042 A 
ATOM     12  C   UNL A   1      33.245  23.987  22.914  1.00  0.00     0.020 A 
ATOM     13  C   UNL A   1      34.464  24.951  24.746  1.00  0.00     0.011 A 
ATOM     14  Br  UNL A   1      33.097  22.692  21.546  1.00  0.00    -0.051 Br
ATOM     15  C   UNL A   1      34.365  23.997  23.734  1.00  0.00     0.016 A 
BRANCH  10  16
ATOM     16  N   UNL A   1      31.255  26.792  24.258  1.00  0.00    -0.371 N 
ATOM     17  C   UNL A   1      30.095  29.707  22.101  1.00  0.00     0.009 C 
ATOM     18  C   UNL A   1      30.133  28.275  22.637  1.00  0.00     0.005 C 
ATOM     19  C   UNL A   1      28.801  27.929  23.320  1.00  0.00     0.007 C 
ATOM     20  C   UNL A   1      31.308  28.098  23.611  1.00  0.00     0.119 C 
ATOM     21  C   UNL A   1      28.844  26.522  23.914  1.00  0.00     0.022 C 
ATOM     22  C   UNL A   1      30.009  26.368  24.886  1.00  0.00     0.116 C 
ENDBRANCH  10  16
ENDBRANCH   8   9
ENDBRANCH   4   7
ENDBRANCH   2   3
ENDBRANCH   1   2
BRANCH   1  23
ATOM     23  C   UNL A   1      31.350  32.196  26.761  1.00  0.00     0.023 C 
BRANCH  23  24
ATOM     24  C   UNL A   1      32.630  33.010  26.925  1.00  0.00     0.116 C 
BRANCH  24  25
ATOM     25  N   UNL A   1      32.441  34.247  27.665  1.00  0.00    -0.352 N 
ATOM     26  C   UNL A   1      33.151  34.717  28.744  1.00  0.00     0.251 C 
ATOM     27  H   UNL A   1      31.707  34.825  27.352  1.00  0.00     0.163 HD
ATOM     28  O   UNL A   1      32.800  35.737  29.321  1.00  0.00    -0.269 OA
BRANCH  26  29
ATOM     29  C   UNL A   1      34.317  33.949  29.231  1.00  0.00     0.039 A 
ATOM     30  C   UNL A   1      35.599  34.424  28.943  1.00  0.00     0.014 A 
ATOM     31  C   UNL A   1      34.148  32.787  29.988  1.00  0.00     0.014 A 
ATOM     32  C   UNL A   1      36.712  33.766  29.469  1.00  0.00     0.010 A 
ATOM     33  C   UNL A   1      35.254  32.174  30.571  1.00  0.00     0.010 A 
ATOM     34  C   UNL A   1      36.546  32.656  30.315  1.00  0.00    -0.014 A 
BRANCH  34  35
ATOM     35  C   UNL A   1      37.718  31.994  30.940  1.00  0.00     0.031 A 
ATOM     36  C   UNL A   1      38.159  32.384  32.323  1.00  0.00     0.074 A 
ATOM     37  C   UNL A   1      38.416  31.080  30.239  1.00  0.00     0.049 A 
ATOM     38  N   UNL A   1      39.170  31.937  33.026  1.00  0.00    -0.248 NA
ATOM     39  C   UNL A   1      37.378  33.432  32.997  1.00  0.00     0.031 C 
ATOM     40  C   UNL A   1      38.123  30.662  28.868  1.00  0.00     0.029 A 
ATOM     41  N   UNL A   1      39.518  30.337  30.584  1.00  0.00    -0.354 N 
ATOM     42  C   UNL A   1      39.150  32.656  34.214  1.00  0.00     0.074 A 
ATOM     43  C   UNL A   1      38.066  33.608  34.115  1.00  0.00     0.031 C 
ATOM     44  C   UNL A   1      39.005  29.720  28.497  1.00  0.00     0.029 A 
ATOM     45  C   UNL A   1      39.942  29.489  29.592  1.00  0.00     0.049 A 
ATOM     46  H   UNL A   1      39.963  30.409  31.460  1.00  0.00     0.167 HD
ATOM     47  C   UNL A   1      39.948  32.515  35.300  1.00  0.00     0.037 A 
ATOM     48  C   UNL A   1      40.970  28.619  29.570  1.00  0.00     0.037 A 
ATOM     49  C   UNL A   1      41.011  31.550  35.403  1.00  0.00     0.049 A 
ATOM     50  C   UNL A   1      41.834  28.476  30.793  1.00  0.00     0.074 A 
ATOM     51  C   UNL A   1      41.835  31.286  36.483  1.00  0.00     0.029 A 
ATOM     52  N   UNL A   1      41.397  30.690  34.385  1.00  0.00    -0.354 N 
ATOM     53  N   UNL A   1      41.756  29.104  31.941  1.00  0.00    -0.248 NA
ATOM     54  C   UNL A   1      42.924  27.494  30.720  1.00  0.00     0.031 C 
ATOM     55  C   UNL A   1      42.749  30.297  36.103  1.00  0.00     0.029 A 
ATOM     56  C   UNL A   1      42.461  29.909  34.805  1.00  0.00     0.049 A 
ATOM     57  H   UNL A   1      40.977  30.643  33.496  1.00  0.00     0.167 HD
ATOM     58  C   UNL A   1      42.764  28.574  32.736  1.00  0.00     0.074 A 
ATOM     59  C   UNL A   1      43.429  27.561  31.944  1.00  0.00     0.031 C 
ATOM     60  C   UNL A   1      43.108  28.900  34.005  1.00  0.00     0.037 A 
BRANCH  47  61
ATOM     61  C   UNL A   1      39.694  33.423  36.468  1.00  0.00     0.064 A 
ATOM     62  C   UNL A   1      38.820  33.059  37.506  1.00  0.00     0.173 A 
ATOM     63  C   UNL A   1      40.356  34.655  36.572  1.00  0.00     0.173 A 
ATOM     64  F   UNL A   1      38.153  31.896  37.448  1.00  0.00    -0.203 F 
ATOM     65  C   UNL A   1      38.598  33.908  38.586  1.00  0.00     0.198 A 
ATOM     66  C   UNL A   1      40.155  35.487  37.670  1.00  0.00     0.198 A 
ATOM     67  F   UNL A   1      41.206  35.050  35.612  1.00  0.00    -0.203 F 
ATOM     68  F   UNL A   1      37.720  33.561  39.538  1.00  0.00    -0.200 F 
ATOM     69  C   UNL A   1      39.270  35.117  38.672  1.00  0.00     0.200 A 
ATOM     70  F   UNL A   1      40.814  36.651  37.758  1.00  0.00    -0.200 F 
ATOM     71  F   UNL A   1      39.060  35.930  39.717  1.00  0.00    -0.200 F 
ENDBRANCH  47  61
BRANCH  48  72
ATOM     72  C   UNL A   1      41.216  27.790  28.362  1.00  0.00     0.064 A 
ATOM     73  C   UNL A   1      40.595  26.543  28.206  1.00  0.00     0.173 A 
ATOM     74  C   UNL A   1      42.080  28.220  27.343  1.00  0.00     0.173 A 
ATOM     75  F   UNL A   1      39.776  26.080  29.162  1.00  0.00    -0.203 F 
ATOM     76  C   UNL A   1      40.845  25.747  27.091  1.00  0.00     0.198 A 
ATOM     77  C   UNL A   1      42.308  27.435  26.214  1.00  0.00     0.198 A 
ATOM     78  F   UNL A   1      42.695  29.407  27.441  1.00  0.00    -0.203 F 
ATOM     79  F   UNL A   1      40.275  24.539  26.991  1.00  0.00    -0.200 F 
ATOM     80  C   UNL A   1      41.697  26.196  26.093  1.00  0.00     0.200 A 
ATOM     81  F   UNL A   1      43.120  27.879  25.246  1.00  0.00    -0.200 F 
ATOM     82  F   UNL A   1      41.936  25.431  25.019  1.00  0.00    -0.200 F 
ENDBRANCH  48  72
BRANCH  60  83
ATOM     83  C   UNL A   1      44.234  28.128  34.630  1.00  0.00     0.064 A 
ATOM     84  C   UNL A   1      45.549  28.618  34.637  1.00  0.00     0.173 A 
ATOM     85  C   UNL A   1      43.989  26.896  35.256  1.00  0.00     0.173 A 
ATOM     86  F   UNL A   1      45.838  29.783  34.037  1.00  0.00    -0.203 F 
ATOM     87  C   UNL A   1      46.581  27.889  35.221  1.00  0.00     0.198 A 
ATOM     88  C   UNL A   1      45.017  26.186  35.868  1.00  0.00     0.198 A 
ATOM     89  F   UNL A   1      42.748  26.387  35.285  1.00  0.00    -0.203 F 
ATOM     90  F   UNL A   1      47.838  28.351  35.170  1.00  0.00    -0.200 F 
ATOM     91  C   UNL A   1      46.314  26.677  35.842  1.00  0.00     0.200 A 
ATOM     92  F   UNL A   1      44.755  25.022  36.479  1.00  0.00    -0.200 F 
ATOM     93  F   UNL A   1      47.308  25.980  36.409  1.00  0.00    -0.200 F 
ENDBRANCH  60  83
ENDBRANCH  34  35
ENDBRANCH  26  29
ENDBRANCH  24  25
ENDBRANCH  23  24
ENDBRANCH   1  23
TORSDOF 13
ENDMDL
MODEL 3
REMARK VINA RESULT:     -12.4      3.909      8.044
REMARK SMILES C[C@@H]1CCCN(c2cc(Br)ccc2/C=C/C(=O)NCCCCNC(=O)c2ccc(-c3c4nc(c(-c5c(F)c(F)c(F)c(F)c5F)c5ccc([nH]5)c(-c5c(F)c(F)c(F)c(F)c5F)c5nc(c(-c6c(F)c(F)c(F)c(F)c6F)c6ccc3[nH]6)C=C5)C=C4)cc2)C1
REMARK SMILES IDX 20 1 19 2 18 3 16 4 17 5 15 7 14 8 13 9 7 10 8 11 9 12 12 13
REMARK SMILES IDX 10 14 11 15 6 16 1 17 2 18 3 19 89 20 4 21 5 22 21 23 22 24
REMARK SMILES IDX 23 25 24 26 25 28 26 29 27 30 88 31 28 32 87 33 29 34 30 35
REMARK SMILES IDX 31 36 81 37 32 38 86 39 80 40 82 41 33 42 85 43 79 44 78 45
REMARK SMILES IDX 34 47 66 48 46 49 65 50 47 51 50 52 64 53 83 54 48 55 49 56
REMARK SMILES IDX 63 58 84 59 51 60 35 61 36 62 44 63 37 64 38 65 42 66 45 67
REMARK SMILES IDX 39 68 40 69 43 70 41 71 67 72 68 73 76 74 69 75 70 76 74 77
REMARK SMILES IDX 77 78 71 79 72 80 75 81 73 82 52 83 53 84 61 85 54 86 55 87
REMARK SMILES IDX 59 88 62 89 56 90 57 91 60 92 58 93
REMARK H PARENT 18 6 23 27 82 46 50 57
REMARK Flexibility Score: inf
ROOT
ATOM      1  C   UNL A   1      34.662  22.648  25.255  1.00  0.00     0.023 C 
ENDROOT
BRANCH   1   2
ATOM      2  C   UNL A   1      33.349  23.369  24.954  1.00  0.00     0.116 C 
BRANCH   2   3
ATOM      3  N   UNL A   1      32.450  23.298  26.086  1.00  0.00    -0.353 N 
ATOM      4  C   UNL A   1      31.283  23.962  26.305  1.00  0.00     0.244 C 
ATOM      5  O   UNL A   1      30.607  23.695  27.297  1.00  0.00    -0.270 OA
ATOM      6  H   UNL A   1      32.721  22.678  26.801  1.00  0.00     0.163 HD
BRANCH   4   7
ATOM      7  C   UNL A   1      30.764  24.933  25.313  1.00  0.00     0.072 C 
ATOM      8  C   UNL A   1      30.825  26.268  25.439  1.00  0.00     0.016 C 
BRANCH   8   9
ATOM      9  C   UNL A   1      30.262  27.221  24.459  1.00  0.00    -0.002 A 
ATOM     10  C   UNL A   1      30.972  28.388  24.073  1.00  0.00     0.045 A 
ATOM     11  C   UNL A   1      30.338  29.301  23.212  1.00  0.00     0.042 A 
ATOM     12  C   UNL A   1      29.042  29.076  22.749  1.00  0.00     0.020 A 
ATOM     13  C   UNL A   1      28.948  27.023  23.993  1.00  0.00     0.011 A 
ATOM     14  Br  UNL A   1      28.226  30.331  21.596  1.00  0.00    -0.051 Br
ATOM     15  C   UNL A   1      28.342  27.941  23.137  1.00  0.00     0.016 A 
BRANCH  10  16
ATOM     16  N   UNL A   1      32.260  28.664  24.511  1.00  0.00    -0.371 N 
ATOM     17  C   UNL A   1      33.552  30.636  27.499  1.00  0.00     0.009 C 
ATOM     18  C   UNL A   1      33.118  29.406  26.702  1.00  0.00     0.005 C 
ATOM     19  C   UNL A   1      34.308  28.457  26.499  1.00  0.00     0.007 C 
ATOM     20  C   UNL A   1      32.520  29.827  25.350  1.00  0.00     0.119 C 
ATOM     21  C   UNL A   1      33.905  27.252  25.652  1.00  0.00     0.022 C 
ATOM     22  C   UNL A   1      33.325  27.688  24.311  1.00  0.00     0.116 C 
ENDBRANCH  10  16
ENDBRANCH   8   9
ENDBRANCH   4   7
ENDBRANCH   2   3
ENDBRANCH   1   2
BRANCH   1  23
ATOM     23  C   UNL A   1      35.715  23.527  25.933  1.00  0.00     0.023 C 
BRANCH  23  24
ATOM     24  C   UNL A   1      37.004  23.710  25.137  1.00  0.00     0.116 C 
BRANCH  24  25
ATOM     25  N   UNL A   1      38.029  22.729  25.455  1.00  0.00    -0.352 N 
ATOM     26  C   UNL A   1      39.181  22.900  26.185  1.00  0.00     0.251 C 
ATOM     27  H   UNL A   1      37.877  21.822  25.100  1.00  0.00     0.163 HD
ATOM     28  O   UNL A   1      39.996  21.992  26.278  1.00  0.00    -0.269 OA
BRANCH  26  29
ATOM     29  C   UNL A   1      39.448  24.209  26.818  1.00  0.00     0.039 A 
ATOM     30  C   UNL A   1      39.006  24.423  28.126  1.00  0.00     0.014 A 
ATOM     31  C   UNL A   1      40.151  25.206  26.138  1.00  0.00     0.014 A 
ATOM     32  C   UNL A   1      39.325  25.616  28.774  1.00  0.00     0.010 A 
ATOM     33  C   UNL A   1      40.531  26.365  26.810  1.00  0.00     0.010 A 
ATOM     34  C   UNL A   1      40.120  26.582  28.133  1.00  0.00    -0.014 A 
BRANCH  34  35
ATOM     35  C   UNL A   1      40.529  27.822  28.839  1.00  0.00     0.031 A 
ATOM     36  C   UNL A   1      41.930  27.968  29.363  1.00  0.00     0.074 A 
ATOM     37  C   UNL A   1      39.621  28.794  29.053  1.00  0.00     0.049 A 
ATOM     38  N   UNL A   1      42.466  28.962  30.024  1.00  0.00    -0.248 NA
ATOM     39  C   UNL A   1      42.842  26.836  29.139  1.00  0.00     0.031 C 
ATOM     40  C   UNL A   1      38.216  28.743  28.646  1.00  0.00     0.029 A 
ATOM     41  N   UNL A   1      39.744  30.014  29.669  1.00  0.00    -0.354 N 
ATOM     42  C   UNL A   1      43.770  28.571  30.302  1.00  0.00     0.074 A 
ATOM     43  C   UNL A   1      43.926  27.227  29.791  1.00  0.00     0.031 C 
ATOM     44  C   UNL A   1      37.615  29.891  28.999  1.00  0.00     0.029 A 
ATOM     45  C   UNL A   1      38.582  30.744  29.682  1.00  0.00     0.049 A 
ATOM     46  H   UNL A   1      40.587  30.335  30.066  1.00  0.00     0.167 HD
ATOM     47  C   UNL A   1      44.755  29.280  30.904  1.00  0.00     0.037 A 
ATOM     48  C   UNL A   1      38.326  31.966  30.186  1.00  0.00     0.037 A 
ATOM     49  C   UNL A   1      44.601  30.626  31.390  1.00  0.00     0.049 A 
ATOM     50  C   UNL A   1      39.440  32.736  30.842  1.00  0.00     0.074 A 
ATOM     51  C   UNL A   1      45.554  31.453  31.959  1.00  0.00     0.029 A 
ATOM     52  N   UNL A   1      43.414  31.343  31.365  1.00  0.00    -0.354 N 
ATOM     53  N   UNL A   1      40.691  32.388  31.026  1.00  0.00    -0.248 NA
ATOM     54  C   UNL A   1      39.110  34.074  31.350  1.00  0.00     0.031 C 
ATOM     55  C   UNL A   1      44.933  32.653  32.318  1.00  0.00     0.029 A 
ATOM     56  C   UNL A   1      43.605  32.595  31.927  1.00  0.00     0.049 A 
ATOM     57  H   UNL A   1      42.560  31.011  31.002  1.00  0.00     0.167 HD
ATOM     58  C   UNL A   1      41.302  33.471  31.643  1.00  0.00     0.074 A 
ATOM     59  C   UNL A   1      40.288  34.495  31.786  1.00  0.00     0.031 C 
ATOM     60  C   UNL A   1      42.586  33.605  32.056  1.00  0.00     0.037 A 
BRANCH  47  61
ATOM     61  C   UNL A   1      46.090  28.613  31.063  1.00  0.00     0.064 A 
ATOM     62  C   UNL A   1      46.404  27.861  32.207  1.00  0.00     0.173 A 
ATOM     63  C   UNL A   1      47.055  28.696  30.049  1.00  0.00     0.173 A 
ATOM     64  F   UNL A   1      45.522  27.761  33.212  1.00  0.00    -0.203 F 
ATOM     65  C   UNL A   1      47.645  27.243  32.339  1.00  0.00     0.198 A 
ATOM     66  C   UNL A   1      48.282  28.050  30.171  1.00  0.00     0.198 A 
ATOM     67  F   UNL A   1      46.805  29.397  28.933  1.00  0.00    -0.203 F 
ATOM     68  F   UNL A   1      47.940  26.573  33.463  1.00  0.00    -0.200 F 
ATOM     69  C   UNL A   1      48.579  27.331  31.320  1.00  0.00     0.200 A 
ATOM     70  F   UNL A   1      49.181  28.126  29.180  1.00  0.00    -0.200 F 
ATOM     71  F   UNL A   1      49.771  26.730  31.446  1.00  0.00    -0.200 F 
ENDBRANCH  47  61
BRANCH  48  72
ATOM     72  C   UNL A   1      36.967  32.554  30.058  1.00  0.00     0.064 A 
ATOM     73  C   UNL A   1      36.601  33.277  28.915  1.00  0.00     0.173 A 
ATOM     74  C   UNL A   1      36.011  32.413  31.075  1.00  0.00     0.173 A 
ATOM     75  F   UNL A   1      37.487  33.456  27.924  1.00  0.00    -0.203 F 
ATOM     76  C   UNL A   1      35.340  33.857  28.802  1.00  0.00     0.198 A 
ATOM     77  C   UNL A   1      34.740  32.969  30.949  1.00  0.00     0.198 A 
ATOM     78  F   UNL A   1      36.309  31.725  32.187  1.00  0.00    -0.203 F 
ATOM     79  F   UNL A   1      35.033  34.583  27.719  1.00  0.00    -0.200 F 
ATOM     80  C   UNL A   1      34.408  33.697  29.816  1.00  0.00     0.200 A 
ATOM     81  F   UNL A   1      33.838  32.800  31.925  1.00  0.00    -0.200 F 
ATOM     82  F   UNL A   1      33.194  34.253  29.706  1.00  0.00    -0.200 F 
ENDBRANCH  48  72
BRANCH  60  83
ATOM     83  C   UNL A   1      42.976  34.918  32.670  1.00  0.00     0.064 A 
ATOM     84  C   UNL A   1      43.487  35.970  31.895  1.00  0.00     0.173 A 
ATOM     85  C   UNL A   1      42.809  35.136  34.046  1.00  0.00     0.173 A 
ATOM     86  F   UNL A   1      43.682  35.806  30.578  1.00  0.00    -0.203 F 
ATOM     87  C   UNL A   1      43.844  37.182  32.481  1.00  0.00     0.198 A 
ATOM     88  C   UNL A   1      43.136  36.360  34.623  1.00  0.00     0.198 A 
ATOM     89  F   UNL A   1      42.317  34.165  34.830  1.00  0.00    -0.203 F 
ATOM     90  F   UNL A   1      44.379  38.155  31.731  1.00  0.00    -0.200 F 
ATOM     91  C   UNL A   1      43.662  37.378  33.843  1.00  0.00     0.200 A 
ATOM     92  F   UNL A   1      42.947  36.552  35.935  1.00  0.00    -0.200 F 
ATOM     93  F   UNL A   1      44.000  38.547  34.403  1.00  0.00    -0.200 F 
ENDBRANCH  60  83
ENDBRANCH  34  35
ENDBRANCH  26  29
ENDBRANCH  24  25
ENDBRANCH  23  24
ENDBRANCH   1  23
TORSDOF 13
ENDMDL
