MODEL 1
REMARK VINA RESULT:     -12.5      0.000      0.000
REMARK SMILES CC1(C)C[C@@H]([NH2+]C[C@@H]2CCCC[C@@H]2C(=O)NCCCCNC(=O)c2ccc(-c3c4nc(c(-c5c(F)c(F)c(F)c(F)c5F)c5ccc([nH]5)c(-c5c(F)c(F)c(F)c(F)c5F)c5nc(c(-c6c(F)c(F)c(F)c(F)c6F)c6ccc3[nH]6)C=C5)C=C4)cc2)C(C)(C)O1
REMARK SMILES IDX 18 1 17 2 16 3 14 4 15 5 13 7 8 8 9 9 10 10 12 11 11 12 7 13
REMARK SMILES IDX 6 14 5 17 1 18 2 19 3 20 4 21 90 22 87 23 88 24 89 25 19 26
REMARK SMILES IDX 20 27 21 28 22 29 23 31 24 32 25 33 86 34 26 35 85 36 27 37
REMARK SMILES IDX 28 38 29 39 79 40 30 41 84 42 78 43 80 44 31 45 83 46 77 47
REMARK SMILES IDX 76 48 32 50 64 51 44 52 63 53 45 54 48 55 62 56 81 57 46 58
REMARK SMILES IDX 47 59 61 61 82 62 49 63 33 64 34 65 42 66 35 67 36 68 40 69
REMARK SMILES IDX 43 70 37 71 38 72 41 73 39 74 65 75 66 76 74 77 67 78 68 79
REMARK SMILES IDX 72 80 75 81 69 82 70 83 73 84 71 85 50 86 51 87 59 88 52 89
REMARK SMILES IDX 53 90 57 91 60 92 54 93 55 94 58 95 56 96
REMARK H PARENT 16 6 6 15 6 16 21 30 80 49 48 60
REMARK Flexibility Score: inf
ROOT
ATOM      1  C   UNL A   1      31.694  30.562  26.841  1.00  0.00     0.023 C 
ENDROOT
BRANCH   1   2
ATOM      2  C   UNL A   1      33.111  30.024  26.780  1.00  0.00     0.116 C 
BRANCH   2   3
ATOM      3  N   UNL A   1      33.584  29.790  25.431  1.00  0.00    -0.356 N 
ATOM      4  C   UNL A   1      33.032  29.020  24.449  1.00  0.00     0.223 C 
ATOM      5  O   UNL A   1      33.519  29.111  23.325  1.00  0.00    -0.275 OA
ATOM      6  H   UNL A   1      34.420  30.250  25.190  1.00  0.00     0.163 HD
BRANCH   4   7
ATOM      7  C   UNL A   1      31.841  28.115  24.790  1.00  0.00     0.087 C 
ATOM      8  C   UNL A   1      32.147  26.582  24.748  1.00  0.00     0.056 C 
ATOM      9  C   UNL A   1      32.132  26.096  23.311  1.00  0.00     0.010 C 
ATOM     10  C   UNL A   1      31.080  26.556  22.333  1.00  0.00     0.001 C 
ATOM     11  C   UNL A   1      30.655  28.438  23.835  1.00  0.00     0.014 C 
ATOM     12  C   UNL A   1      30.952  28.053  22.392  1.00  0.00     0.001 C 
BRANCH   8  13
ATOM     13  C   UNL A   1      33.469  26.101  25.470  1.00  0.00     0.265 C 
BRANCH  13  14
ATOM     14  N   UNL A   1      33.426  24.850  26.273  1.00  0.00    -0.341 N 
ATOM     15  H   UNL A   1      33.423  25.121  27.256  1.00  0.00     0.346 HD
ATOM     16  H   UNL A   1      32.592  24.365  25.943  1.00  0.00     0.346 HD
BRANCH  14  17
ATOM     17  C   UNL A   1      34.528  23.863  26.089  1.00  0.00     0.217 C 
ATOM     18  C   UNL A   1      36.616  22.922  23.134  1.00  0.00     0.042 C 
ATOM     19  C   UNL A   1      36.152  22.856  24.592  1.00  0.00     0.069 C 
ATOM     20  C   UNL A   1      37.351  22.591  25.508  1.00  0.00     0.042 C 
ATOM     21  C   UNL A   1      35.466  24.150  24.933  1.00  0.00     0.103 C 
ATOM     22  O   UNL A   1      35.147  21.865  24.793  1.00  0.00    -0.363 OA
ATOM     23  C   UNL A   1      34.113  22.400  25.683  1.00  0.00     0.115 C 
ATOM     24  C   UNL A   1      32.805  22.333  24.886  1.00  0.00     0.048 C 
ATOM     25  C   UNL A   1      34.042  21.458  26.883  1.00  0.00     0.048 C 
ENDBRANCH  14  17
ENDBRANCH  13  14
ENDBRANCH   8  13
ENDBRANCH   4   7
ENDBRANCH   2   3
ENDBRANCH   1   2
BRANCH   1  26
ATOM     26  C   UNL A   1      31.572  32.077  26.756  1.00  0.00     0.023 C 
BRANCH  26  27
ATOM     27  C   UNL A   1      32.782  32.857  27.255  1.00  0.00     0.116 C 
BRANCH  27  28
ATOM     28  N   UNL A   1      32.464  34.228  27.625  1.00  0.00    -0.352 N 
ATOM     29  C   UNL A   1      32.995  35.008  28.621  1.00  0.00     0.251 C 
ATOM     30  H   UNL A   1      31.765  34.658  27.081  1.00  0.00     0.163 HD
ATOM     31  O   UNL A   1      32.496  36.101  28.884  1.00  0.00    -0.269 OA
BRANCH  29  32
ATOM     32  C   UNL A   1      34.146  34.516  29.400  1.00  0.00     0.039 A 
ATOM     33  C   UNL A   1      33.914  33.909  30.634  1.00  0.00     0.014 A 
ATOM     34  C   UNL A   1      35.447  34.624  28.897  1.00  0.00     0.014 A 
ATOM     35  C   UNL A   1      34.981  33.342  31.331  1.00  0.00     0.010 A 
ATOM     36  C   UNL A   1      36.491  33.975  29.546  1.00  0.00     0.010 A 
ATOM     37  C   UNL A   1      36.270  33.330  30.772  1.00  0.00    -0.014 A 
BRANCH  37  38
ATOM     38  C   UNL A   1      37.393  32.644  31.459  1.00  0.00     0.031 A 
ATOM     39  C   UNL A   1      38.094  31.490  30.800  1.00  0.00     0.074 A 
ATOM     40  C   UNL A   1      37.748  33.034  32.699  1.00  0.00     0.049 A 
ATOM     41  N   UNL A   1      39.080  30.755  31.249  1.00  0.00    -0.248 NA
ATOM     42  C   UNL A   1      37.606  31.089  29.471  1.00  0.00     0.031 C 
ATOM     43  C   UNL A   1      37.105  34.102  33.467  1.00  0.00     0.029 A 
ATOM     44  N   UNL A   1      38.737  32.576  33.533  1.00  0.00    -0.354 N 
ATOM     45  C   UNL A   1      39.323  29.806  30.265  1.00  0.00     0.074 A 
ATOM     46  C   UNL A   1      38.340  30.015  29.225  1.00  0.00     0.031 C 
ATOM     47  C   UNL A   1      37.738  34.241  34.643  1.00  0.00     0.029 A 
ATOM     48  C   UNL A   1      38.802  33.248  34.730  1.00  0.00     0.049 A 
ATOM     49  H   UNL A   1      39.342  31.836  33.297  1.00  0.00     0.167 HD
ATOM     50  C   UNL A   1      40.296  28.865  30.219  1.00  0.00     0.037 A 
ATOM     51  C   UNL A   1      39.628  33.078  35.780  1.00  0.00     0.037 A 
ATOM     52  C   UNL A   1      41.281  28.673  31.252  1.00  0.00     0.049 A 
ATOM     53  C   UNL A   1      40.693  32.016  35.709  1.00  0.00     0.074 A 
ATOM     54  C   UNL A   1      42.343  27.786  31.276  1.00  0.00     0.029 A 
ATOM     55  N   UNL A   1      41.319  29.375  32.448  1.00  0.00    -0.354 N 
ATOM     56  N   UNL A   1      40.965  31.180  34.737  1.00  0.00    -0.248 NA
ATOM     57  C   UNL A   1      41.571  31.884  36.879  1.00  0.00     0.031 C 
ATOM     58  C   UNL A   1      42.988  27.910  32.510  1.00  0.00     0.029 A 
ATOM     59  C   UNL A   1      42.370  28.921  33.230  1.00  0.00     0.049 A 
ATOM     60  H   UNL A   1      40.693  30.090  32.703  1.00  0.00     0.167 HD
ATOM     61  C   UNL A   1      42.061  30.442  35.164  1.00  0.00     0.074 A 
ATOM     62  C   UNL A   1      42.416  30.947  36.475  1.00  0.00     0.031 C 
ATOM     63  C   UNL A   1      42.713  29.435  34.532  1.00  0.00     0.037 A 
BRANCH  50  64
ATOM     64  C   UNL A   1      40.343  27.973  29.012  1.00  0.00     0.064 A 
ATOM     65  C   UNL A   1      39.619  26.772  28.952  1.00  0.00     0.173 A 
ATOM     66  C   UNL A   1      41.093  28.340  27.884  1.00  0.00     0.173 A 
ATOM     67  F   UNL A   1      38.894  26.367  30.007  1.00  0.00    -0.203 F 
ATOM     68  C   UNL A   1      39.670  25.957  27.825  1.00  0.00     0.198 A 
ATOM     69  C   UNL A   1      41.114  27.540  26.744  1.00  0.00     0.198 A 
ATOM     70  F   UNL A   1      41.801  29.479  27.882  1.00  0.00    -0.203 F 
ATOM     71  F   UNL A   1      39.013  24.789  27.814  1.00  0.00    -0.200 F 
ATOM     72  C   UNL A   1      40.410  26.346  26.718  1.00  0.00     0.200 A 
ATOM     73  F   UNL A   1      41.819  27.923  25.670  1.00  0.00    -0.200 F 
ATOM     74  F   UNL A   1      40.451  25.565  25.630  1.00  0.00    -0.200 F 
ENDBRANCH  50  64
BRANCH  51  75
ATOM     75  C   UNL A   1      39.498  33.949  36.979  1.00  0.00     0.064 A 
ATOM     76  C   UNL A   1      40.124  35.202  37.032  1.00  0.00     0.173 A 
ATOM     77  C   UNL A   1      38.758  33.544  38.099  1.00  0.00     0.173 A 
ATOM     78  F   UNL A   1      40.860  35.627  35.994  1.00  0.00    -0.203 F 
ATOM     79  C   UNL A   1      40.038  36.004  38.167  1.00  0.00     0.198 A 
ATOM     80  C   UNL A   1      38.645  34.361  39.222  1.00  0.00     0.198 A 
ATOM     81  F   UNL A   1      38.134  32.357  38.099  1.00  0.00    -0.203 F 
ATOM     82  F   UNL A   1      40.691  37.173  38.211  1.00  0.00    -0.200 F 
ATOM     83  C   UNL A   1      39.294  35.586  39.260  1.00  0.00     0.200 A 
ATOM     84  F   UNL A   1      37.909  33.961  40.268  1.00  0.00    -0.200 F 
ATOM     85  F   UNL A   1      39.208  36.359  40.351  1.00  0.00    -0.200 F 
ENDBRANCH  51  75
BRANCH  63  86
ATOM     86  C   UNL A   1      43.899  28.837  35.235  1.00  0.00     0.064 A 
ATOM     87  C   UNL A   1      45.197  29.336  35.050  1.00  0.00     0.173 A 
ATOM     88  C   UNL A   1      43.731  27.762  36.121  1.00  0.00     0.173 A 
ATOM     89  F   UNL A   1      45.414  30.354  34.202  1.00  0.00    -0.203 F 
ATOM     90  C   UNL A   1      46.286  28.757  35.696  1.00  0.00     0.198 A 
ATOM     91  C   UNL A   1      44.817  27.211  36.796  1.00  0.00     0.198 A 
ATOM     92  F   UNL A   1      42.510  27.251  36.343  1.00  0.00    -0.203 F 
ATOM     93  F   UNL A   1      47.524  29.211  35.454  1.00  0.00    -0.200 F 
ATOM     94  C   UNL A   1      46.094  27.700  36.573  1.00  0.00     0.200 A 
ATOM     95  F   UNL A   1      44.628  26.200  37.655  1.00  0.00    -0.200 F 
ATOM     96  F   UNL A   1      47.144  27.148  37.197  1.00  0.00    -0.200 F 
ENDBRANCH  63  86
ENDBRANCH  37  38
ENDBRANCH  29  32
ENDBRANCH  27  28
ENDBRANCH  26  27
ENDBRANCH   1  26
TORSDOF 14
ENDMDL
MODEL 2
REMARK VINA RESULT:     -12.5      0.962      7.441
REMARK SMILES CC1(C)C[C@@H]([NH2+]C[C@@H]2CCCC[C@@H]2C(=O)NCCCCNC(=O)c2ccc(-c3c4nc(c(-c5c(F)c(F)c(F)c(F)c5F)c5ccc([nH]5)c(-c5c(F)c(F)c(F)c(F)c5F)c5nc(c(-c6c(F)c(F)c(F)c(F)c6F)c6ccc3[nH]6)C=C5)C=C4)cc2)C(C)(C)O1
REMARK SMILES IDX 18 1 17 2 16 3 14 4 15 5 13 7 8 8 9 9 10 10 12 11 11 12 7 13
REMARK SMILES IDX 6 14 5 17 1 18 2 19 3 20 4 21 90 22 87 23 88 24 89 25 19 26
REMARK SMILES IDX 20 27 21 28 22 29 23 31 24 32 25 33 86 34 26 35 85 36 27 37
REMARK SMILES IDX 28 38 29 39 79 40 30 41 84 42 78 43 80 44 31 45 83 46 77 47
REMARK SMILES IDX 76 48 32 50 64 51 44 52 63 53 45 54 48 55 62 56 81 57 46 58
REMARK SMILES IDX 47 59 61 61 82 62 49 63 33 64 34 65 42 66 35 67 36 68 40 69
REMARK SMILES IDX 43 70 37 71 38 72 41 73 39 74 65 75 66 76 74 77 67 78 68 79
REMARK SMILES IDX 72 80 75 81 69 82 70 83 73 84 71 85 50 86 51 87 59 88 52 89
REMARK SMILES IDX 53 90 57 91 60 92 54 93 55 94 58 95 56 96
REMARK H PARENT 16 6 6 15 6 16 21 30 80 49 48 60
REMARK Flexibility Score: inf
ROOT
ATOM      1  C   UNL A   1      31.574  30.831  25.994  1.00  0.00     0.023 C 
ENDROOT
BRANCH   1   2
ATOM      2  C   UNL A   1      32.792  29.984  26.312  1.00  0.00     0.116 C 
BRANCH   2   3
ATOM      3  N   UNL A   1      33.565  29.618  25.143  1.00  0.00    -0.356 N 
ATOM      4  C   UNL A   1      33.358  28.596  24.263  1.00  0.00     0.223 C 
ATOM      5  O   UNL A   1      34.046  28.585  23.244  1.00  0.00    -0.275 OA
ATOM      6  H   UNL A   1      34.348  30.185  24.958  1.00  0.00     0.163 HD
BRANCH   4   7
ATOM      7  C   UNL A   1      32.283  27.547  24.575  1.00  0.00     0.087 C 
ATOM      8  C   UNL A   1      32.651  26.085  24.161  1.00  0.00     0.056 C 
ATOM      9  C   UNL A   1      32.427  25.902  22.671  1.00  0.00     0.010 C 
ATOM     10  C   UNL A   1      31.209  26.465  21.982  1.00  0.00     0.001 C 
ATOM     11  C   UNL A   1      30.943  27.961  23.897  1.00  0.00     0.014 C 
ATOM     12  C   UNL A   1      31.021  27.903  22.378  1.00  0.00     0.001 C 
BRANCH   8  13
ATOM     13  C   UNL A   1      34.094  25.575  24.560  1.00  0.00     0.265 C 
BRANCH  13  14
ATOM     14  N   UNL A   1      34.259  24.836  25.839  1.00  0.00    -0.341 N 
ATOM     15  H   UNL A   1      35.184  25.064  26.204  1.00  0.00     0.346 HD
ATOM     16  H   UNL A   1      33.469  25.136  26.410  1.00  0.00     0.346 HD
BRANCH  14  17
ATOM     17  C   UNL A   1      34.151  23.349  25.806  1.00  0.00     0.217 C 
ATOM     18  C   UNL A   1      32.498  20.983  23.430  1.00  0.00     0.042 C 
ATOM     19  C   UNL A   1      33.315  21.377  24.663  1.00  0.00     0.069 C 
ATOM     20  C   UNL A   1      34.416  20.341  24.911  1.00  0.00     0.042 C 
ATOM     21  C   UNL A   1      33.885  22.751  24.438  1.00  0.00     0.103 C 
ATOM     22  O   UNL A   1      32.502  21.523  25.824  1.00  0.00    -0.363 OA
ATOM     23  C   UNL A   1      32.935  22.706  26.572  1.00  0.00     0.115 C 
ATOM     24  C   UNL A   1      31.706  23.621  26.648  1.00  0.00     0.048 C 
ATOM     25  C   UNL A   1      33.314  22.224  27.971  1.00  0.00     0.048 C 
ENDBRANCH  14  17
ENDBRANCH  13  14
ENDBRANCH   8  13
ENDBRANCH   4   7
ENDBRANCH   2   3
ENDBRANCH   1   2
BRANCH   1  26
ATOM     26  C   UNL A   1      31.390  32.058  26.876  1.00  0.00     0.023 C 
BRANCH  26  27
ATOM     27  C   UNL A   1      32.665  32.830  27.192  1.00  0.00     0.116 C 
BRANCH  27  28
ATOM     28  N   UNL A   1      32.414  34.204  27.599  1.00  0.00    -0.352 N 
ATOM     29  C   UNL A   1      33.020  34.948  28.579  1.00  0.00     0.251 C 
ATOM     30  H   UNL A   1      31.704  34.667  27.098  1.00  0.00     0.163 HD
ATOM     31  O   UNL A   1      32.573  36.052  28.885  1.00  0.00    -0.269 OA
BRANCH  29  32
ATOM     32  C   UNL A   1      34.191  34.403  29.291  1.00  0.00     0.039 A 
ATOM     33  C   UNL A   1      33.984  33.610  30.419  1.00  0.00     0.014 A 
ATOM     34  C   UNL A   1      35.487  34.649  28.827  1.00  0.00     0.014 A 
ATOM     35  C   UNL A   1      35.075  32.999  31.039  1.00  0.00     0.010 A 
ATOM     36  C   UNL A   1      36.560  33.963  29.386  1.00  0.00     0.010 A 
ATOM     37  C   UNL A   1      36.365  33.134  30.500  1.00  0.00    -0.014 A 
BRANCH  37  38
ATOM     38  C   UNL A   1      37.518  32.409  31.092  1.00  0.00     0.031 A 
ATOM     39  C   UNL A   1      38.022  32.773  32.460  1.00  0.00     0.074 A 
ATOM     40  C   UNL A   1      38.139  31.453  30.373  1.00  0.00     0.049 A 
ATOM     41  N   UNL A   1      39.026  32.269  33.133  1.00  0.00    -0.248 NA
ATOM     42  C   UNL A   1      37.326  33.869  33.153  1.00  0.00     0.031 C 
ATOM     43  C   UNL A   1      37.779  31.051  29.012  1.00  0.00     0.029 A 
ATOM     44  N   UNL A   1      39.204  30.647  30.687  1.00  0.00    -0.354 N 
ATOM     45  C   UNL A   1      39.082  32.987  34.320  1.00  0.00     0.074 A 
ATOM     46  C   UNL A   1      38.058  34.005  34.249  1.00  0.00     0.031 C 
ATOM     47  C   UNL A   1      38.585  30.051  28.621  1.00  0.00     0.029 A 
ATOM     48  C   UNL A   1      39.543  29.769  29.685  1.00  0.00     0.049 A 
ATOM     49  H   UNL A   1      39.680  30.693  31.547  1.00  0.00     0.167 HD
ATOM     50  C   UNL A   1      39.896  32.796  35.386  1.00  0.00     0.037 A 
ATOM     51  C   UNL A   1      40.518  28.843  29.632  1.00  0.00     0.037 A 
ATOM     52  C   UNL A   1      40.904  31.770  35.457  1.00  0.00     0.049 A 
ATOM     53  C   UNL A   1      41.418  28.659  30.825  1.00  0.00     0.074 A 
ATOM     54  C   UNL A   1      41.743  31.457  36.512  1.00  0.00     0.029 A 
ATOM     55  N   UNL A   1      41.216  30.896  34.425  1.00  0.00    -0.354 N 
ATOM     56  N   UNL A   1      41.408  29.290  31.975  1.00  0.00    -0.248 NA
ATOM     57  C   UNL A   1      42.457  27.627  30.715  1.00  0.00     0.031 C 
ATOM     58  C   UNL A   1      42.601  30.432  36.099  1.00  0.00     0.029 A 
ATOM     59  C   UNL A   1      42.255  30.062  34.809  1.00  0.00     0.049 A 
ATOM     60  H   UNL A   1      40.767  30.872  33.550  1.00  0.00     0.167 HD
ATOM     61  C   UNL A   1      42.418  28.713  32.734  1.00  0.00     0.074 A 
ATOM     62  C   UNL A   1      43.004  27.667  31.921  1.00  0.00     0.031 C 
ATOM     63  C   UNL A   1      42.827  29.024  33.989  1.00  0.00     0.037 A 
BRANCH  50  64
ATOM     64  C   UNL A   1      39.728  33.714  36.562  1.00  0.00     0.064 A 
ATOM     65  C   UNL A   1      40.393  34.948  36.636  1.00  0.00     0.173 A 
ATOM     66  C   UNL A   1      38.862  33.375  37.613  1.00  0.00     0.173 A 
ATOM     67  F   UNL A   1      41.241  35.318  35.665  1.00  0.00    -0.203 F 
ATOM     68  C   UNL A   1      40.224  35.791  37.732  1.00  0.00     0.198 A 
ATOM     69  C   UNL A   1      38.669  34.236  38.691  1.00  0.00     0.198 A 
ATOM     70  F   UNL A   1      38.197  32.210  37.593  1.00  0.00    -0.203 F 
ATOM     71  F   UNL A   1      40.913  36.938  37.805  1.00  0.00    -0.200 F 
ATOM     72  C   UNL A   1      39.356  35.438  38.754  1.00  0.00     0.200 A 
ATOM     73  F   UNL A   1      37.818  33.900  39.671  1.00  0.00    -0.200 F 
ATOM     74  F   UNL A   1      39.187  36.254  39.803  1.00  0.00    -0.200 F 
ENDBRANCH  50  64
BRANCH  51  75
ATOM     75  C   UNL A   1      40.682  28.000  28.417  1.00  0.00     0.064 A 
ATOM     76  C   UNL A   1      40.064  26.746  28.321  1.00  0.00     0.173 A 
ATOM     77  C   UNL A   1      41.466  28.424  27.335  1.00  0.00     0.173 A 
ATOM     78  F   UNL A   1      39.320  26.286  29.337  1.00  0.00    -0.203 F 
ATOM     79  C   UNL A   1      40.246  25.936  27.202  1.00  0.00     0.198 A 
ATOM     80  C   UNL A   1      41.620  27.629  26.201  1.00  0.00     0.198 A 
ATOM     81  F   UNL A   1      42.074  29.619  27.372  1.00  0.00    -0.203 F 
ATOM     82  F   UNL A   1      39.689  24.719  27.159  1.00  0.00    -0.200 F 
ATOM     83  C   UNL A   1      41.020  26.380  26.140  1.00  0.00     0.200 A 
ATOM     84  F   UNL A   1      42.353  28.070  25.170  1.00  0.00    -0.200 F 
ATOM     85  F   UNL A   1      41.192  25.604  25.062  1.00  0.00    -0.200 F 
ENDBRANCH  51  75
BRANCH  63  86
ATOM     86  C   UNL A   1      43.938  28.197  34.574  1.00  0.00     0.064 A 
ATOM     87  C   UNL A   1      45.279  28.602  34.499  1.00  0.00     0.173 A 
ATOM     88  C   UNL A   1      43.653  26.993  35.235  1.00  0.00     0.173 A 
ATOM     89  F   UNL A   1      45.607  29.739  33.865  1.00  0.00    -0.203 F 
ATOM     90  C   UNL A   1      46.296  27.814  35.031  1.00  0.00     0.198 A 
ATOM     91  C   UNL A   1      44.669  26.226  35.800  1.00  0.00     0.198 A 
ATOM     92  F   UNL A   1      42.387  26.562  35.344  1.00  0.00    -0.203 F 
ATOM     93  F   UNL A   1      47.575  28.190  34.891  1.00  0.00    -0.200 F 
ATOM     94  C   UNL A   1      45.990  26.631  35.687  1.00  0.00     0.200 A 
ATOM     95  F   UNL A   1      44.369  25.092  36.447  1.00  0.00    -0.200 F 
ATOM     96  F   UNL A   1      46.970  25.876  36.201  1.00  0.00    -0.200 F 
ENDBRANCH  63  86
ENDBRANCH  37  38
ENDBRANCH  29  32
ENDBRANCH  27  28
ENDBRANCH  26  27
ENDBRANCH   1  26
TORSDOF 14
ENDMDL
MODEL 3
REMARK VINA RESULT:     -12.5      0.589      7.297
REMARK SMILES CC1(C)C[C@@H]([NH2+]C[C@@H]2CCCC[C@@H]2C(=O)NCCCCNC(=O)c2ccc(-c3c4nc(c(-c5c(F)c(F)c(F)c(F)c5F)c5ccc([nH]5)c(-c5c(F)c(F)c(F)c(F)c5F)c5nc(c(-c6c(F)c(F)c(F)c(F)c6F)c6ccc3[nH]6)C=C5)C=C4)cc2)C(C)(C)O1
REMARK SMILES IDX 18 1 17 2 16 3 14 4 15 5 13 7 8 8 9 9 10 10 12 11 11 12 7 13
REMARK SMILES IDX 6 14 5 17 1 18 2 19 3 20 4 21 90 22 87 23 88 24 89 25 19 26
REMARK SMILES IDX 20 27 21 28 22 29 23 31 24 32 25 33 86 34 26 35 85 36 27 37
REMARK SMILES IDX 28 38 29 39 79 40 30 41 84 42 78 43 80 44 31 45 83 46 77 47
REMARK SMILES IDX 76 48 32 50 64 51 44 52 63 53 45 54 48 55 62 56 81 57 46 58
REMARK SMILES IDX 47 59 61 61 82 62 49 63 33 64 34 65 42 66 35 67 36 68 40 69
REMARK SMILES IDX 43 70 37 71 38 72 41 73 39 74 65 75 66 76 74 77 67 78 68 79
REMARK SMILES IDX 72 80 75 81 69 82 70 83 73 84 71 85 50 86 51 87 59 88 52 89
REMARK SMILES IDX 53 90 57 91 60 92 54 93 55 94 58 95 56 96
REMARK H PARENT 16 6 6 15 6 16 21 30 80 49 48 60
REMARK Flexibility Score: inf
ROOT
ATOM      1  C   UNL A   1      31.521  30.699  26.434  1.00  0.00     0.023 C 
ENDROOT
BRANCH   1   2
ATOM      2  C   UNL A   1      32.897  30.115  26.693  1.00  0.00     0.116 C 
BRANCH   2   3
ATOM      3  N   UNL A   1      33.589  29.705  25.488  1.00  0.00    -0.356 N 
ATOM      4  C   UNL A   1      33.223  28.768  24.566  1.00  0.00     0.223 C 
ATOM      5  O   UNL A   1      33.884  28.714  23.530  1.00  0.00    -0.275 OA
ATOM      6  H   UNL A   1      34.440  30.165  25.310  1.00  0.00     0.163 HD
BRANCH   4   7
ATOM      7  C   UNL A   1      32.017  27.865  24.855  1.00  0.00     0.087 C 
ATOM      8  C   UNL A   1      32.330  26.333  24.863  1.00  0.00     0.056 C 
ATOM      9  C   UNL A   1      32.401  25.817  23.438  1.00  0.00     0.010 C 
ATOM     10  C   UNL A   1      31.407  26.252  22.390  1.00  0.00     0.001 C 
ATOM     11  C   UNL A   1      30.889  28.163  23.824  1.00  0.00     0.014 C 
ATOM     12  C   UNL A   1      31.271  27.749  22.410  1.00  0.00     0.001 C 
BRANCH   8  13
ATOM     13  C   UNL A   1      33.608  25.873  25.672  1.00  0.00     0.265 C 
BRANCH  13  14
ATOM     14  N   UNL A   1      33.553  24.588  26.418  1.00  0.00    -0.341 N 
ATOM     15  H   UNL A   1      33.643  24.809  27.410  1.00  0.00     0.346 HD
ATOM     16  H   UNL A   1      32.668  24.167  26.135  1.00  0.00     0.346 HD
BRANCH  14  17
ATOM     17  C   UNL A   1      34.576  23.551  26.102  1.00  0.00     0.217 C 
ATOM     18  C   UNL A   1      36.648  22.885  23.062  1.00  0.00     0.042 C 
ATOM     19  C   UNL A   1      36.148  22.645  24.489  1.00  0.00     0.069 C 
ATOM     20  C   UNL A   1      37.302  22.151  25.368  1.00  0.00     0.042 C 
ATOM     21  C   UNL A   1      35.560  23.927  25.010  1.00  0.00     0.103 C 
ATOM     22  O   UNL A   1      35.063  21.721  24.531  1.00  0.00    -0.363 OA
ATOM     23  C   UNL A   1      34.056  22.202  25.480  1.00  0.00     0.115 C 
ATOM     24  C   UNL A   1      32.765  22.360  24.668  1.00  0.00     0.048 C 
ATOM     25  C   UNL A   1      33.883  21.104  26.527  1.00  0.00     0.048 C 
ENDBRANCH  14  17
ENDBRANCH  13  14
ENDBRANCH   8  13
ENDBRANCH   4   7
ENDBRANCH   2   3
ENDBRANCH   1   2
BRANCH   1  26
ATOM     26  C   UNL A   1      31.401  32.199  26.662  1.00  0.00     0.023 C 
BRANCH  26  27
ATOM     27  C   UNL A   1      32.619  32.862  27.293  1.00  0.00     0.116 C 
BRANCH  27  28
ATOM     28  N   UNL A   1      32.375  34.240  27.693  1.00  0.00    -0.352 N 
ATOM     29  C   UNL A   1      32.998  34.992  28.656  1.00  0.00     0.251 C 
ATOM     30  H   UNL A   1      31.657  34.699  27.200  1.00  0.00     0.163 HD
ATOM     31  O   UNL A   1      32.557  36.098  28.960  1.00  0.00    -0.269 OA
BRANCH  29  32
ATOM     32  C   UNL A   1      34.180  34.452  29.354  1.00  0.00     0.039 A 
ATOM     33  C   UNL A   1      34.000  33.776  30.560  1.00  0.00     0.014 A 
ATOM     34  C   UNL A   1      35.457  34.584  28.800  1.00  0.00     0.014 A 
ATOM     35  C   UNL A   1      35.094  33.166  31.176  1.00  0.00     0.010 A 
ATOM     36  C   UNL A   1      36.526  33.896  29.363  1.00  0.00     0.010 A 
ATOM     37  C   UNL A   1      36.356  33.183  30.560  1.00  0.00    -0.014 A 
BRANCH  37  38
ATOM     38  C   UNL A   1      37.505  32.455  31.155  1.00  0.00     0.031 A 
ATOM     39  C   UNL A   1      38.011  32.823  32.521  1.00  0.00     0.074 A 
ATOM     40  C   UNL A   1      38.120  31.491  30.441  1.00  0.00     0.049 A 
ATOM     41  N   UNL A   1      39.012  32.316  33.197  1.00  0.00    -0.248 NA
ATOM     42  C   UNL A   1      37.322  33.926  33.209  1.00  0.00     0.031 C 
ATOM     43  C   UNL A   1      37.757  31.083  29.082  1.00  0.00     0.029 A 
ATOM     44  N   UNL A   1      39.180  30.679  30.759  1.00  0.00    -0.354 N 
ATOM     45  C   UNL A   1      39.074  33.040  34.379  1.00  0.00     0.074 A 
ATOM     46  C   UNL A   1      38.056  34.063  34.303  1.00  0.00     0.031 C 
ATOM     47  C   UNL A   1      38.557  30.076  28.697  1.00  0.00     0.029 A 
ATOM     48  C   UNL A   1      39.513  29.794  29.761  1.00  0.00     0.049 A 
ATOM     49  H   UNL A   1      39.656  30.727  31.618  1.00  0.00     0.167 HD
ATOM     50  C   UNL A   1      39.887  32.849  35.446  1.00  0.00     0.037 A 
ATOM     51  C   UNL A   1      40.483  28.862  29.713  1.00  0.00     0.037 A 
ATOM     52  C   UNL A   1      40.888  31.818  35.522  1.00  0.00     0.049 A 
ATOM     53  C   UNL A   1      41.381  28.679  30.907  1.00  0.00     0.074 A 
ATOM     54  C   UNL A   1      41.725  31.505  36.579  1.00  0.00     0.029 A 
ATOM     55  N   UNL A   1      41.195  30.937  34.495  1.00  0.00    -0.354 N 
ATOM     56  N   UNL A   1      41.376  29.316  32.053  1.00  0.00    -0.248 NA
ATOM     57  C   UNL A   1      42.414  27.640  30.802  1.00  0.00     0.031 C 
ATOM     58  C   UNL A   1      42.577  30.473  36.171  1.00  0.00     0.029 A 
ATOM     59  C   UNL A   1      42.228  30.098  34.884  1.00  0.00     0.049 A 
ATOM     60  H   UNL A   1      40.745  30.911  33.620  1.00  0.00     0.167 HD
ATOM     61  C   UNL A   1      42.383  28.737  32.816  1.00  0.00     0.074 A 
ATOM     62  C   UNL A   1      42.962  27.683  32.008  1.00  0.00     0.031 C 
ATOM     63  C   UNL A   1      42.794  29.051  34.069  1.00  0.00     0.037 A 
BRANCH  50  64
ATOM     64  C   UNL A   1      39.724  33.775  36.617  1.00  0.00     0.064 A 
ATOM     65  C   UNL A   1      40.362  35.025  36.665  1.00  0.00     0.173 A 
ATOM     66  C   UNL A   1      38.892  33.426  37.692  1.00  0.00     0.173 A 
ATOM     67  F   UNL A   1      41.178  35.405  35.670  1.00  0.00    -0.203 F 
ATOM     68  C   UNL A   1      40.199  35.874  37.756  1.00  0.00     0.198 A 
ATOM     69  C   UNL A   1      38.703  34.292  38.766  1.00  0.00     0.198 A 
ATOM     70  F   UNL A   1      38.254  32.246  37.698  1.00  0.00    -0.203 F 
ATOM     71  F   UNL A   1      40.862  37.038  37.802  1.00  0.00    -0.200 F 
ATOM     72  C   UNL A   1      39.363  35.511  38.801  1.00  0.00     0.200 A 
ATOM     73  F   UNL A   1      37.884  33.946  39.769  1.00  0.00    -0.200 F 
ATOM     74  F   UNL A   1      39.200  36.333  39.846  1.00  0.00    -0.200 F 
ENDBRANCH  50  64
BRANCH  51  75
ATOM     75  C   UNL A   1      40.641  28.012  28.503  1.00  0.00     0.064 A 
ATOM     76  C   UNL A   1      41.422  28.437  27.420  1.00  0.00     0.173 A 
ATOM     77  C   UNL A   1      40.006  26.766  28.397  1.00  0.00     0.173 A 
ATOM     78  F   UNL A   1      42.034  29.630  27.463  1.00  0.00    -0.203 F 
ATOM     79  C   UNL A   1      41.541  27.663  26.268  1.00  0.00     0.198 A 
ATOM     80  C   UNL A   1      40.152  25.976  27.259  1.00  0.00     0.198 A 
ATOM     81  F   UNL A   1      39.251  26.309  29.407  1.00  0.00    -0.203 F 
ATOM     82  F   UNL A   1      42.251  28.118  25.227  1.00  0.00    -0.200 F 
ATOM     83  C   UNL A   1      40.911  26.430  26.190  1.00  0.00     0.200 A 
ATOM     84  F   UNL A   1      39.556  24.778  27.196  1.00  0.00    -0.200 F 
ATOM     85  F   UNL A   1      41.028  25.683  25.084  1.00  0.00    -0.200 F 
ENDBRANCH  51  75
BRANCH  63  86
ATOM     86  C   UNL A   1      43.899  28.222  34.657  1.00  0.00     0.064 A 
ATOM     87  C   UNL A   1      45.246  28.601  34.552  1.00  0.00     0.173 A 
ATOM     88  C   UNL A   1      43.605  27.039  35.355  1.00  0.00     0.173 A 
ATOM     89  F   UNL A   1      45.583  29.715  33.883  1.00  0.00    -0.203 F 
ATOM     90  C   UNL A   1      46.258  27.809  35.088  1.00  0.00     0.198 A 
ATOM     91  C   UNL A   1      44.616  26.270  35.923  1.00  0.00     0.198 A 
ATOM     92  F   UNL A   1      42.334  26.634  35.494  1.00  0.00    -0.203 F 
ATOM     93  F   UNL A   1      47.540  28.159  34.919  1.00  0.00    -0.200 F 
ATOM     94  C   UNL A   1      45.942  26.649  35.779  1.00  0.00     0.200 A 
ATOM     95  F   UNL A   1      44.308  25.158  36.604  1.00  0.00    -0.200 F 
ATOM     96  F   UNL A   1      46.917  25.890  36.298  1.00  0.00    -0.200 F 
ENDBRANCH  63  86
ENDBRANCH  37  38
ENDBRANCH  29  32
ENDBRANCH  27  28
ENDBRANCH  26  27
ENDBRANCH   1  26
TORSDOF 14
ENDMDL
