MODEL 1
REMARK VINA RESULT:     -12.4      0.000      0.000
REMARK SMILES C[C@@H]1CCC[C@@H](C)C1[N@H+]1CCO[C@H](CC(=O)NCCCCNC(=O)c2ccc(-c3c4nc(c(-c5c(F)c(F)c(F)c(F)c5F)c5ccc([nH]5)c(-c5c(F)c(F)c(F)c(F)c5F)c5nc(c(-c6c(F)c(F)c(F)c(F)c6F)c6ccc3[nH]6)C=C5)C=C4)cc2)C1
REMARK SMILES IDX 19 1 18 2 17 3 15 4 16 5 14 7 13 8 9 9 10 10 88 11 11 13
REMARK SMILES IDX 12 14 8 15 1 16 2 17 3 18 4 19 6 20 5 21 7 22 20 23 21 24
REMARK SMILES IDX 22 25 23 26 24 28 25 29 26 30 87 31 27 32 86 33 28 34 29 35
REMARK SMILES IDX 30 36 80 37 31 38 85 39 79 40 81 41 32 42 84 43 78 44 77 45
REMARK SMILES IDX 33 47 65 48 45 49 64 50 46 51 49 52 63 53 82 54 47 55 48 56
REMARK SMILES IDX 62 58 83 59 50 60 34 61 35 62 43 63 36 64 37 65 41 66 44 67
REMARK SMILES IDX 38 68 39 69 42 70 40 71 66 72 67 73 75 74 68 75 69 76 73 77
REMARK SMILES IDX 76 78 70 79 71 80 74 81 72 82 51 83 52 84 60 85 53 86 54 87
REMARK SMILES IDX 58 88 61 89 55 90 56 91 59 92 57 93
REMARK H PARENT 17 6 9 12 22 27 81 46 49 57
REMARK Flexibility Score: inf
ROOT
ATOM      1  C   UNL A   1      31.947  30.229  26.907  1.00  0.00     0.023 C 
ENDROOT
BRANCH   1   2
ATOM      2  C   UNL A   1      33.201  29.607  26.301  1.00  0.00     0.116 C 
BRANCH   2   3
ATOM      3  N   UNL A   1      33.155  29.717  24.857  1.00  0.00    -0.356 N 
ATOM      4  C   UNL A   1      32.645  28.847  23.943  1.00  0.00     0.222 C 
ATOM      5  O   UNL A   1      32.895  29.043  22.753  1.00  0.00    -0.275 OA
ATOM      6  H   UNL A   1      33.549  30.538  24.484  1.00  0.00     0.163 HD
BRANCH   4   7
ATOM      7  C   UNL A   1      31.764  27.698  24.375  1.00  0.00     0.138 C 
BRANCH   7   8
ATOM      8  C   UNL A   1      32.357  26.294  24.260  1.00  0.00     0.182 C 
ATOM      9  N   UNL A   1      34.422  24.841  24.492  1.00  0.00    -0.328 N 
ATOM     10  C   UNL A   1      34.185  24.420  23.119  1.00  0.00     0.291 C 
ATOM     11  C   UNL A   1      33.819  26.165  24.757  1.00  0.00     0.295 C 
ATOM     12  H   UNL A   1      35.440  24.909  24.488  1.00  0.00     0.348 HD
ATOM     13  C   UNL A   1      32.751  24.628  22.614  1.00  0.00     0.222 C 
ATOM     14  O   UNL A   1      32.278  25.955  22.859  1.00  0.00    -0.366 OA
BRANCH   9  15
ATOM     15  C   UNL A   1      34.533  23.901  25.620  1.00  0.00     0.189 C 
ATOM     16  C   UNL A   1      33.189  22.685  27.413  1.00  0.00     0.014 C 
ATOM     17  C   UNL A   1      33.284  23.022  25.911  1.00  0.00     0.045 C 
ATOM     18  C   UNL A   1      33.222  21.743  25.074  1.00  0.00     0.009 C 
ATOM     19  C   UNL A   1      34.475  20.893  25.193  1.00  0.00     0.001 C 
ATOM     20  C   UNL A   1      35.820  23.014  25.687  1.00  0.00     0.045 C 
ATOM     21  C   UNL A   1      35.742  21.689  24.906  1.00  0.00     0.009 C 
ATOM     22  C   UNL A   1      37.105  23.775  25.355  1.00  0.00     0.014 C 
ENDBRANCH   9  15
ENDBRANCH   7   8
ENDBRANCH   4   7
ENDBRANCH   2   3
ENDBRANCH   1   2
BRANCH   1  23
ATOM     23  C   UNL A   1      31.800  31.734  26.714  1.00  0.00     0.023 C 
BRANCH  23  24
ATOM     24  C   UNL A   1      32.884  32.569  27.372  1.00  0.00     0.116 C 
BRANCH  24  25
ATOM     25  N   UNL A   1      32.477  33.937  27.654  1.00  0.00    -0.352 N 
ATOM     26  C   UNL A   1      33.003  34.843  28.552  1.00  0.00     0.251 C 
ATOM     27  H   UNL A   1      31.714  34.265  27.126  1.00  0.00     0.163 HD
ATOM     28  O   UNL A   1      32.472  35.929  28.713  1.00  0.00    -0.269 OA
BRANCH  26  29
ATOM     29  C   UNL A   1      34.189  34.467  29.357  1.00  0.00     0.039 A 
ATOM     30  C   UNL A   1      33.996  33.906  30.622  1.00  0.00     0.014 A 
ATOM     31  C   UNL A   1      35.479  34.615  28.847  1.00  0.00     0.014 A 
ATOM     32  C   UNL A   1      35.090  33.401  31.329  1.00  0.00     0.010 A 
ATOM     33  C   UNL A   1      36.549  34.019  29.501  1.00  0.00     0.010 A 
ATOM     34  C   UNL A   1      36.368  33.403  30.748  1.00  0.00    -0.014 A 
BRANCH  34  35
ATOM     35  C   UNL A   1      37.538  32.775  31.414  1.00  0.00     0.031 A 
ATOM     36  C   UNL A   1      38.231  31.611  30.760  1.00  0.00     0.074 A 
ATOM     37  C   UNL A   1      37.907  33.175  32.647  1.00  0.00     0.049 A 
ATOM     38  N   UNL A   1      39.159  30.822  31.239  1.00  0.00    -0.248 NA
ATOM     39  C   UNL A   1      37.789  31.261  29.401  1.00  0.00     0.031 C 
ATOM     40  C   UNL A   1      37.280  34.253  33.414  1.00  0.00     0.029 A 
ATOM     41  N   UNL A   1      38.891  32.705  33.481  1.00  0.00    -0.354 N 
ATOM     42  C   UNL A   1      39.381  29.866  30.257  1.00  0.00     0.074 A 
ATOM     43  C   UNL A   1      38.457  30.139  29.179  1.00  0.00     0.031 C 
ATOM     44  C   UNL A   1      37.908  34.377  34.594  1.00  0.00     0.029 A 
ATOM     45  C   UNL A   1      38.952  33.362  34.687  1.00  0.00     0.049 A 
ATOM     46  H   UNL A   1      39.497  31.968  33.239  1.00  0.00     0.167 HD
ATOM     47  C   UNL A   1      40.292  28.864  30.244  1.00  0.00     0.037 A 
ATOM     48  C   UNL A   1      39.754  33.160  35.751  1.00  0.00     0.037 A 
ATOM     49  C   UNL A   1      41.248  28.629  31.293  1.00  0.00     0.049 A 
ATOM     50  C   UNL A   1      40.778  32.060  35.699  1.00  0.00     0.074 A 
ATOM     51  C   UNL A   1      42.264  27.691  31.340  1.00  0.00     0.029 A 
ATOM     52  N   UNL A   1      41.310  29.349  32.477  1.00  0.00    -0.354 N 
ATOM     53  N   UNL A   1      41.021  31.199  34.740  1.00  0.00    -0.248 NA
ATOM     54  C   UNL A   1      41.644  31.904  36.876  1.00  0.00     0.031 C 
ATOM     55  C   UNL A   1      42.921  27.822  32.568  1.00  0.00     0.029 A 
ATOM     56  C   UNL A   1      42.341  28.867  33.267  1.00  0.00     0.049 A 
ATOM     57  H   UNL A   1      40.710  30.090  32.719  1.00  0.00     0.167 HD
ATOM     58  C   UNL A   1      42.080  30.421  35.184  1.00  0.00     0.074 A 
ATOM     59  C   UNL A   1      42.444  30.918  36.495  1.00  0.00     0.031 C 
ATOM     60  C   UNL A   1      42.697  29.387  34.562  1.00  0.00     0.037 A 
BRANCH  47  61
ATOM     61  C   UNL A   1      40.305  27.954  29.051  1.00  0.00     0.064 A 
ATOM     62  C   UNL A   1      39.567  26.760  29.029  1.00  0.00     0.173 A 
ATOM     63  C   UNL A   1      41.042  28.291  27.906  1.00  0.00     0.173 A 
ATOM     64  F   UNL A   1      38.857  26.386  30.104  1.00  0.00    -0.203 F 
ATOM     65  C   UNL A   1      39.594  25.921  27.919  1.00  0.00     0.198 A 
ATOM     66  C   UNL A   1      41.042  27.463  26.785  1.00  0.00     0.198 A 
ATOM     67  F   UNL A   1      41.761  29.422  27.872  1.00  0.00    -0.203 F 
ATOM     68  F   UNL A   1      38.926  24.759  27.943  1.00  0.00    -0.200 F 
ATOM     69  C   UNL A   1      40.326  26.276  26.796  1.00  0.00     0.200 A 
ATOM     70  F   UNL A   1      41.741  27.814  25.696  1.00  0.00    -0.200 F 
ATOM     71  F   UNL A   1      40.348  25.469  25.727  1.00  0.00    -0.200 F 
ENDBRANCH  47  61
BRANCH  48  72
ATOM     72  C   UNL A   1      39.640  34.038  36.944  1.00  0.00     0.064 A 
ATOM     73  C   UNL A   1      38.853  33.655  38.040  1.00  0.00     0.173 A 
ATOM     74  C   UNL A   1      40.308  35.268  37.018  1.00  0.00     0.173 A 
ATOM     75  F   UNL A   1      38.179  32.496  38.006  1.00  0.00    -0.203 F 
ATOM     76  C   UNL A   1      38.724  34.479  39.156  1.00  0.00     0.198 A 
ATOM     77  C   UNL A   1      40.198  36.079  38.144  1.00  0.00     0.198 A 
ATOM     78  F   UNL A   1      41.077  35.677  35.997  1.00  0.00    -0.203 F 
ATOM     79  F   UNL A   1      37.931  34.108  40.170  1.00  0.00    -0.200 F 
ATOM     80  C   UNL A   1      39.400  35.688  39.210  1.00  0.00     0.200 A 
ATOM     81  F   UNL A   1      40.863  37.242  38.199  1.00  0.00    -0.200 F 
ATOM     82  F   UNL A   1      39.278  36.479  40.285  1.00  0.00    -0.200 F 
ENDBRANCH  48  72
BRANCH  60  83
ATOM     83  C   UNL A   1      43.855  28.748  35.269  1.00  0.00     0.064 A 
ATOM     84  C   UNL A   1      43.675  27.661  36.137  1.00  0.00     0.173 A 
ATOM     85  C   UNL A   1      45.163  29.195  35.030  1.00  0.00     0.173 A 
ATOM     86  F   UNL A   1      42.441  27.209  36.407  1.00  0.00    -0.203 F 
ATOM     87  C   UNL A   1      44.766  27.053  36.752  1.00  0.00     0.198 A 
ATOM     88  C   UNL A   1      46.252  28.567  35.627  1.00  0.00     0.198 A 
ATOM     89  F   UNL A   1      45.385  30.227  34.204  1.00  0.00    -0.203 F 
ATOM     90  F   UNL A   1      44.570  26.038  37.605  1.00  0.00    -0.200 F 
ATOM     91  C   UNL A   1      46.053  27.501  36.491  1.00  0.00     0.200 A 
ATOM     92  F   UNL A   1      47.495  28.992  35.364  1.00  0.00    -0.200 F 
ATOM     93  F   UNL A   1      47.101  26.905  37.076  1.00  0.00    -0.200 F 
ENDBRANCH  60  83
ENDBRANCH  34  35
ENDBRANCH  26  29
ENDBRANCH  24  25
ENDBRANCH  23  24
ENDBRANCH   1  23
TORSDOF 13
ENDMDL
MODEL 2
REMARK VINA RESULT:     -12.4      0.104      1.605
REMARK SMILES C[C@@H]1CCC[C@@H](C)C1[N@H+]1CCO[C@H](CC(=O)NCCCCNC(=O)c2ccc(-c3c4nc(c(-c5c(F)c(F)c(F)c(F)c5F)c5ccc([nH]5)c(-c5c(F)c(F)c(F)c(F)c5F)c5nc(c(-c6c(F)c(F)c(F)c(F)c6F)c6ccc3[nH]6)C=C5)C=C4)cc2)C1
REMARK SMILES IDX 19 1 18 2 17 3 15 4 16 5 14 7 13 8 9 9 10 10 88 11 11 13
REMARK SMILES IDX 12 14 8 15 1 16 2 17 3 18 4 19 6 20 5 21 7 22 20 23 21 24
REMARK SMILES IDX 22 25 23 26 24 28 25 29 26 30 87 31 27 32 86 33 28 34 29 35
REMARK SMILES IDX 30 36 80 37 31 38 85 39 79 40 81 41 32 42 84 43 78 44 77 45
REMARK SMILES IDX 33 47 65 48 45 49 64 50 46 51 49 52 63 53 82 54 47 55 48 56
REMARK SMILES IDX 62 58 83 59 50 60 34 61 35 62 43 63 36 64 37 65 41 66 44 67
REMARK SMILES IDX 38 68 39 69 42 70 40 71 66 72 67 73 75 74 68 75 69 76 73 77
REMARK SMILES IDX 76 78 70 79 71 80 74 81 72 82 51 83 52 84 60 85 53 86 54 87
REMARK SMILES IDX 58 88 61 89 55 90 56 91 59 92 57 93
REMARK H PARENT 17 6 9 12 22 27 81 46 49 57
REMARK Flexibility Score: inf
ROOT
ATOM      1  C   UNL A   1      31.936  30.264  26.873  1.00  0.00     0.023 C 
ENDROOT
BRANCH   1   2
ATOM      2  C   UNL A   1      33.231  29.668  26.331  1.00  0.00     0.116 C 
BRANCH   2   3
ATOM      3  N   UNL A   1      33.246  29.758  24.885  1.00  0.00    -0.356 N 
ATOM      4  C   UNL A   1      32.749  28.889  23.963  1.00  0.00     0.222 C 
ATOM      5  O   UNL A   1      33.052  29.061  22.782  1.00  0.00    -0.275 OA
ATOM      6  H   UNL A   1      33.678  30.563  24.517  1.00  0.00     0.163 HD
BRANCH   4   7
ATOM      7  C   UNL A   1      31.820  27.772  24.375  1.00  0.00     0.138 C 
BRANCH   7   8
ATOM      8  C   UNL A   1      32.365  26.348  24.268  1.00  0.00     0.182 C 
ATOM      9  N   UNL A   1      34.388  24.833  24.476  1.00  0.00    -0.328 N 
ATOM     10  C   UNL A   1      34.105  24.399  23.115  1.00  0.00     0.291 C 
ATOM     11  C   UNL A   1      33.834  26.179  24.734  1.00  0.00     0.295 C 
ATOM     12  H   UNL A   1      35.407  24.869  24.448  1.00  0.00     0.348 HD
ATOM     13  C   UNL A   1      32.667  24.645  22.641  1.00  0.00     0.222 C 
ATOM     14  O   UNL A   1      32.242  25.990  22.875  1.00  0.00    -0.366 OA
BRANCH   9  15
ATOM     15  C   UNL A   1      34.495  23.907  25.616  1.00  0.00     0.189 C 
ATOM     16  C   UNL A   1      33.144  22.703  27.412  1.00  0.00     0.014 C 
ATOM     17  C   UNL A   1      33.250  23.023  25.907  1.00  0.00     0.045 C 
ATOM     18  C   UNL A   1      33.203  21.735  25.084  1.00  0.00     0.009 C 
ATOM     19  C   UNL A   1      34.460  20.894  25.224  1.00  0.00     0.001 C 
ATOM     20  C   UNL A   1      35.787  23.029  25.705  1.00  0.00     0.045 C 
ATOM     21  C   UNL A   1      35.725  21.695  24.938  1.00  0.00     0.009 C 
ATOM     22  C   UNL A   1      37.070  23.795  25.374  1.00  0.00     0.014 C 
ENDBRANCH   9  15
ENDBRANCH   7   8
ENDBRANCH   4   7
ENDBRANCH   2   3
ENDBRANCH   1   2
BRANCH   1  23
ATOM     23  C   UNL A   1      31.782  31.770  26.701  1.00  0.00     0.023 C 
BRANCH  23  24
ATOM     24  C   UNL A   1      32.860  32.601  27.373  1.00  0.00     0.116 C 
BRANCH  24  25
ATOM     25  N   UNL A   1      32.453  33.970  27.655  1.00  0.00    -0.352 N 
ATOM     26  C   UNL A   1      32.981  34.877  28.550  1.00  0.00     0.251 C 
ATOM     27  H   UNL A   1      31.688  34.296  27.128  1.00  0.00     0.163 HD
ATOM     28  O   UNL A   1      32.450  35.963  28.711  1.00  0.00    -0.269 OA
BRANCH  26  29
ATOM     29  C   UNL A   1      34.169  34.502  29.352  1.00  0.00     0.039 A 
ATOM     30  C   UNL A   1      33.981  33.989  30.638  1.00  0.00     0.014 A 
ATOM     31  C   UNL A   1      35.455  34.606  28.821  1.00  0.00     0.014 A 
ATOM     32  C   UNL A   1      35.074  33.484  31.348  1.00  0.00     0.010 A 
ATOM     33  C   UNL A   1      36.521  34.009  29.482  1.00  0.00     0.010 A 
ATOM     34  C   UNL A   1      36.344  33.439  30.751  1.00  0.00    -0.014 A 
BRANCH  34  35
ATOM     35  C   UNL A   1      37.508  32.809  31.423  1.00  0.00     0.031 A 
ATOM     36  C   UNL A   1      38.209  31.649  30.769  1.00  0.00     0.074 A 
ATOM     37  C   UNL A   1      37.867  33.203  32.661  1.00  0.00     0.049 A 
ATOM     38  N   UNL A   1      39.134  30.859  31.251  1.00  0.00    -0.248 NA
ATOM     39  C   UNL A   1      37.778  31.306  29.404  1.00  0.00     0.031 C 
ATOM     40  C   UNL A   1      37.233  34.276  33.429  1.00  0.00     0.029 A 
ATOM     41  N   UNL A   1      38.845  32.729  33.501  1.00  0.00    -0.354 N 
ATOM     42  C   UNL A   1      39.365  29.908  30.266  1.00  0.00     0.074 A 
ATOM     43  C   UNL A   1      38.449  30.186  29.182  1.00  0.00     0.031 C 
ATOM     44  C   UNL A   1      37.851  34.394  34.615  1.00  0.00     0.029 A 
ATOM     45  C   UNL A   1      38.896  33.379  34.711  1.00  0.00     0.049 A 
ATOM     46  H   UNL A   1      39.453  31.994  33.260  1.00  0.00     0.167 HD
ATOM     47  C   UNL A   1      40.277  28.907  30.255  1.00  0.00     0.037 A 
ATOM     48  C   UNL A   1      39.688  33.173  35.780  1.00  0.00     0.037 A 
ATOM     49  C   UNL A   1      41.224  28.667  31.310  1.00  0.00     0.049 A 
ATOM     50  C   UNL A   1      40.715  32.074  35.731  1.00  0.00     0.074 A 
ATOM     51  C   UNL A   1      42.241  27.731  31.361  1.00  0.00     0.029 A 
ATOM     52  N   UNL A   1      41.276  29.381  32.499  1.00  0.00    -0.354 N 
ATOM     53  N   UNL A   1      40.966  31.218  34.769  1.00  0.00    -0.248 NA
ATOM     54  C   UNL A   1      41.571  31.913  36.914  1.00  0.00     0.031 C 
ATOM     55  C   UNL A   1      42.888  27.855  32.594  1.00  0.00     0.029 A 
ATOM     56  C   UNL A   1      42.301  28.896  33.294  1.00  0.00     0.049 A 
ATOM     57  H   UNL A   1      40.673  30.121  32.740  1.00  0.00     0.167 HD
ATOM     58  C   UNL A   1      42.023  30.439  35.217  1.00  0.00     0.074 A 
ATOM     59  C   UNL A   1      42.375  30.929  36.534  1.00  0.00     0.031 C 
ATOM     60  C   UNL A   1      42.646  29.410  34.595  1.00  0.00     0.037 A 
BRANCH  47  61
ATOM     61  C   UNL A   1      40.300  28.004  29.057  1.00  0.00     0.064 A 
ATOM     62  C   UNL A   1      39.562  26.811  29.021  1.00  0.00     0.173 A 
ATOM     63  C   UNL A   1      41.049  28.346  27.921  1.00  0.00     0.173 A 
ATOM     64  F   UNL A   1      38.841  26.431  30.088  1.00  0.00    -0.203 F 
ATOM     65  C   UNL A   1      39.599  25.977  27.907  1.00  0.00     0.198 A 
ATOM     66  C   UNL A   1      41.058  27.525  26.796  1.00  0.00     0.198 A 
ATOM     67  F   UNL A   1      41.769  29.477  27.900  1.00  0.00    -0.203 F 
ATOM     68  F   UNL A   1      38.929  24.816  27.919  1.00  0.00    -0.200 F 
ATOM     69  C   UNL A   1      40.341  26.338  26.793  1.00  0.00     0.200 A 
ATOM     70  F   UNL A   1      41.768  27.880  25.715  1.00  0.00    -0.200 F 
ATOM     71  F   UNL A   1      40.373  25.537  25.720  1.00  0.00    -0.200 F 
ENDBRANCH  47  61
BRANCH  48  72
ATOM     72  C   UNL A   1      39.564  34.044  36.977  1.00  0.00     0.064 A 
ATOM     73  C   UNL A   1      40.223  35.280  37.033  1.00  0.00     0.173 A 
ATOM     74  C   UNL A   1      38.791  33.665  38.084  1.00  0.00     0.173 A 
ATOM     75  F   UNL A   1      40.990  35.675  36.006  1.00  0.00    -0.203 F 
ATOM     76  C   UNL A   1      40.129  36.096  38.158  1.00  0.00     0.198 A 
ATOM     77  C   UNL A   1      38.677  34.493  39.198  1.00  0.00     0.198 A 
ATOM     78  F   UNL A   1      38.136  32.494  38.077  1.00  0.00    -0.203 F 
ATOM     79  F   UNL A   1      40.804  37.252  38.202  1.00  0.00    -0.200 F 
ATOM     80  C   UNL A   1      39.352  35.705  39.238  1.00  0.00     0.200 A 
ATOM     81  F   UNL A   1      37.915  34.118  40.235  1.00  0.00    -0.200 F 
ATOM     82  F   UNL A   1      39.259  36.491  40.319  1.00  0.00    -0.200 F 
ENDBRANCH  48  72
BRANCH  60  83
ATOM     83  C   UNL A   1      43.798  28.768  35.308  1.00  0.00     0.064 A 
ATOM     84  C   UNL A   1      45.115  29.214  35.126  1.00  0.00     0.173 A 
ATOM     85  C   UNL A   1      43.572  27.731  36.226  1.00  0.00     0.173 A 
ATOM     86  F   UNL A   1      45.381  30.193  34.248  1.00  0.00    -0.203 F 
ATOM     87  C   UNL A   1      46.168  28.634  35.829  1.00  0.00     0.198 A 
ATOM     88  C   UNL A   1      44.624  27.172  36.945  1.00  0.00     0.198 A 
ATOM     89  F   UNL A   1      42.329  27.274  36.438  1.00  0.00    -0.203 F 
ATOM     90  F   UNL A   1      47.423  29.051  35.614  1.00  0.00    -0.200 F 
ATOM     91  C   UNL A   1      45.921  27.620  36.743  1.00  0.00     0.200 A 
ATOM     92  F   UNL A   1      44.383  26.201  37.837  1.00  0.00    -0.200 F 
ATOM     93  F   UNL A   1      46.935  27.071  37.425  1.00  0.00    -0.200 F 
ENDBRANCH  60  83
ENDBRANCH  34  35
ENDBRANCH  26  29
ENDBRANCH  24  25
ENDBRANCH  23  24
ENDBRANCH   1  23
TORSDOF 13
ENDMDL
MODEL 3
REMARK VINA RESULT:     -12.4      1.099      7.422
REMARK SMILES C[C@@H]1CCC[C@@H](C)C1[N@H+]1CCO[C@H](CC(=O)NCCCCNC(=O)c2ccc(-c3c4nc(c(-c5c(F)c(F)c(F)c(F)c5F)c5ccc([nH]5)c(-c5c(F)c(F)c(F)c(F)c5F)c5nc(c(-c6c(F)c(F)c(F)c(F)c6F)c6ccc3[nH]6)C=C5)C=C4)cc2)C1
REMARK SMILES IDX 19 1 18 2 17 3 15 4 16 5 14 7 13 8 9 9 10 10 88 11 11 13
REMARK SMILES IDX 12 14 8 15 1 16 2 17 3 18 4 19 6 20 5 21 7 22 20 23 21 24
REMARK SMILES IDX 22 25 23 26 24 28 25 29 26 30 87 31 27 32 86 33 28 34 29 35
REMARK SMILES IDX 30 36 80 37 31 38 85 39 79 40 81 41 32 42 84 43 78 44 77 45
REMARK SMILES IDX 33 47 65 48 45 49 64 50 46 51 49 52 63 53 82 54 47 55 48 56
REMARK SMILES IDX 62 58 83 59 50 60 34 61 35 62 43 63 36 64 37 65 41 66 44 67
REMARK SMILES IDX 38 68 39 69 42 70 40 71 66 72 67 73 75 74 68 75 69 76 73 77
REMARK SMILES IDX 76 78 70 79 71 80 74 81 72 82 51 83 52 84 60 85 53 86 54 87
REMARK SMILES IDX 58 88 61 89 55 90 56 91 59 92 57 93
REMARK H PARENT 17 6 9 12 22 27 81 46 49 57
REMARK Flexibility Score: inf
ROOT
ATOM      1  C   UNL A   1      31.637  30.868  26.158  1.00  0.00     0.023 C 
ENDROOT
BRANCH   1   2
ATOM      2  C   UNL A   1      31.864  29.722  27.139  1.00  0.00     0.116 C 
BRANCH   2   3
ATOM      3  N   UNL A   1      33.267  29.645  27.489  1.00  0.00    -0.356 N 
ATOM      4  C   UNL A   1      34.264  28.933  26.897  1.00  0.00     0.222 C 
ATOM      5  O   UNL A   1      35.345  28.851  27.482  1.00  0.00    -0.275 OA
ATOM      6  H   UNL A   1      33.539  30.187  28.265  1.00  0.00     0.163 HD
BRANCH   4   7
ATOM      7  C   UNL A   1      34.060  28.293  25.544  1.00  0.00     0.138 C 
BRANCH   7   8
ATOM      8  C   UNL A   1      33.807  26.786  25.525  1.00  0.00     0.182 C 
ATOM      9  N   UNL A   1      33.232  24.752  24.124  1.00  0.00    -0.328 N 
ATOM     10  C   UNL A   1      32.134  24.520  25.052  1.00  0.00     0.291 C 
ATOM     11  C   UNL A   1      33.630  26.176  24.111  1.00  0.00     0.295 C 
ATOM     12  H   UNL A   1      32.782  24.501  23.244  1.00  0.00     0.348 HD
ATOM     13  C   UNL A   1      32.288  25.196  26.421  1.00  0.00     0.222 C 
ATOM     14  O   UNL A   1      32.610  26.584  26.307  1.00  0.00    -0.366 OA
BRANCH   9  15
ATOM     15  C   UNL A   1      34.269  23.749  23.830  1.00  0.00     0.189 C 
ATOM     16  C   UNL A   1      36.757  23.242  24.066  1.00  0.00     0.014 C 
ATOM     17  C   UNL A   1      35.481  23.702  24.801  1.00  0.00     0.045 C 
ATOM     18  C   UNL A   1      35.243  22.841  26.043  1.00  0.00     0.009 C 
ATOM     19  C   UNL A   1      34.811  21.423  25.708  1.00  0.00     0.001 C 
ATOM     20  C   UNL A   1      33.788  22.290  23.529  1.00  0.00     0.045 C 
ATOM     21  C   UNL A   1      33.613  21.392  24.767  1.00  0.00     0.009 C 
ATOM     22  C   UNL A   1      32.555  22.228  22.624  1.00  0.00     0.014 C 
ENDBRANCH   9  15
ENDBRANCH   7   8
ENDBRANCH   4   7
ENDBRANCH   2   3
ENDBRANCH   1   2
BRANCH   1  23
ATOM     23  C   UNL A   1      31.369  32.230  26.788  1.00  0.00     0.023 C 
BRANCH  23  24
ATOM     24  C   UNL A   1      32.605  32.951  27.296  1.00  0.00     0.116 C 
BRANCH  24  25
ATOM     25  N   UNL A   1      32.362  34.336  27.668  1.00  0.00    -0.352 N 
ATOM     26  C   UNL A   1      32.994  35.115  28.615  1.00  0.00     0.251 C 
ATOM     27  H   UNL A   1      31.639  34.784  27.171  1.00  0.00     0.163 HD
ATOM     28  O   UNL A   1      32.595  36.243  28.851  1.00  0.00    -0.269 OA
BRANCH  26  29
ATOM     29  C   UNL A   1      34.132  34.553  29.380  1.00  0.00     0.039 A 
ATOM     30  C   UNL A   1      33.874  33.892  30.585  1.00  0.00     0.014 A 
ATOM     31  C   UNL A   1      35.434  34.629  28.888  1.00  0.00     0.014 A 
ATOM     32  C   UNL A   1      34.909  33.220  31.240  1.00  0.00     0.010 A 
ATOM     33  C   UNL A   1      36.438  33.874  29.482  1.00  0.00     0.010 A 
ATOM     34  C   UNL A   1      36.188  33.159  30.663  1.00  0.00    -0.014 A 
BRANCH  34  35
ATOM     35  C   UNL A   1      37.287  32.362  31.265  1.00  0.00     0.031 A 
ATOM     36  C   UNL A   1      37.793  32.709  32.639  1.00  0.00     0.074 A 
ATOM     37  C   UNL A   1      37.900  31.405  30.542  1.00  0.00     0.049 A 
ATOM     38  N   UNL A   1      38.839  32.252  33.278  1.00  0.00    -0.248 NA
ATOM     39  C   UNL A   1      37.046  33.743  33.374  1.00  0.00     0.031 C 
ATOM     40  C   UNL A   1      37.544  31.011  29.178  1.00  0.00     0.029 A 
ATOM     41  N   UNL A   1      38.969  30.600  30.849  1.00  0.00    -0.354 N 
ATOM     42  C   UNL A   1      38.895  32.967  34.467  1.00  0.00     0.074 A 
ATOM     43  C   UNL A   1      37.811  33.923  34.439  1.00  0.00     0.031 C 
ATOM     44  C   UNL A   1      38.362  30.026  28.774  1.00  0.00     0.029 A 
ATOM     45  C   UNL A   1      39.328  29.748  29.832  1.00  0.00     0.049 A 
ATOM     46  H   UNL A   1      39.435  30.629  31.715  1.00  0.00     0.167 HD
ATOM     47  C   UNL A   1      39.757  32.821  35.501  1.00  0.00     0.037 A 
ATOM     48  C   UNL A   1      40.331  28.851  29.759  1.00  0.00     0.037 A 
ATOM     49  C   UNL A   1      40.799  31.831  35.549  1.00  0.00     0.049 A 
ATOM     50  C   UNL A   1      41.256  28.687  30.933  1.00  0.00     0.074 A 
ATOM     51  C   UNL A   1      41.674  31.549  36.583  1.00  0.00     0.029 A 
ATOM     52  N   UNL A   1      41.098  30.952  34.519  1.00  0.00    -0.354 N 
ATOM     53  N   UNL A   1      41.262  29.326  32.078  1.00  0.00    -0.248 NA
ATOM     54  C   UNL A   1      42.313  27.673  30.808  1.00  0.00     0.031 C 
ATOM     55  C   UNL A   1      42.525  30.521  36.166  1.00  0.00     0.029 A 
ATOM     56  C   UNL A   1      42.154  30.135  34.889  1.00  0.00     0.049 A 
ATOM     57  H   UNL A   1      40.630  30.916  33.654  1.00  0.00     0.167 HD
ATOM     58  C   UNL A   1      42.299  28.777  32.818  1.00  0.00     0.074 A 
ATOM     59  C   UNL A   1      42.895  27.743  31.998  1.00  0.00     0.031 C 
ATOM     60  C   UNL A   1      42.721  29.099  34.064  1.00  0.00     0.037 A 
BRANCH  47  61
ATOM     61  C   UNL A   1      39.600  33.749  36.670  1.00  0.00     0.064 A 
ATOM     62  C   UNL A   1      38.811  33.407  37.779  1.00  0.00     0.173 A 
ATOM     63  C   UNL A   1      40.264  34.984  36.693  1.00  0.00     0.173 A 
ATOM     64  F   UNL A   1      38.143  32.243  37.799  1.00  0.00    -0.203 F 
ATOM     65  C   UNL A   1      38.666  34.281  38.853  1.00  0.00     0.198 A 
ATOM     66  C   UNL A   1      40.141  35.843  37.784  1.00  0.00     0.198 A 
ATOM     67  F   UNL A   1      41.033  35.359  35.661  1.00  0.00    -0.203 F 
ATOM     68  F   UNL A   1      37.863  33.955  39.876  1.00  0.00    -0.200 F 
ATOM     69  C   UNL A   1      39.336  35.494  38.857  1.00  0.00     0.200 A 
ATOM     70  F   UNL A   1      40.799  37.011  37.792  1.00  0.00    -0.200 F 
ATOM     71  F   UNL A   1      39.199  36.333  39.893  1.00  0.00    -0.200 F 
ENDBRANCH  47  61
BRANCH  48  72
ATOM     72  C   UNL A   1      40.494  28.016  28.540  1.00  0.00     0.064 A 
ATOM     73  C   UNL A   1      39.885  26.756  28.450  1.00  0.00     0.173 A 
ATOM     74  C   UNL A   1      41.255  28.454  27.447  1.00  0.00     0.173 A 
ATOM     75  F   UNL A   1      39.165  26.287  29.479  1.00  0.00    -0.203 F 
ATOM     76  C   UNL A   1      40.048  25.958  27.320  1.00  0.00     0.198 A 
ATOM     77  C   UNL A   1      41.395  27.666  26.307  1.00  0.00     0.198 A 
ATOM     78  F   UNL A   1      41.852  29.655  27.482  1.00  0.00    -0.203 F 
ATOM     79  F   UNL A   1      39.490  24.740  27.278  1.00  0.00    -0.200 F 
ATOM     80  C   UNL A   1      40.798  26.414  26.247  1.00  0.00     0.200 A 
ATOM     81  F   UNL A   1      42.110  28.115  25.267  1.00  0.00    -0.200 F 
ATOM     82  F   UNL A   1      40.951  25.647  25.159  1.00  0.00    -0.200 F 
ENDBRANCH  48  72
BRANCH  60  83
ATOM     83  C   UNL A   1      43.854  28.302  34.637  1.00  0.00     0.064 A 
ATOM     84  C   UNL A   1      43.630  27.123  35.362  1.00  0.00     0.173 A 
ATOM     85  C   UNL A   1      45.181  28.696  34.409  1.00  0.00     0.173 A 
ATOM     86  F   UNL A   1      42.377  26.715  35.617  1.00  0.00    -0.203 F 
ATOM     87  C   UNL A   1      44.696  26.373  35.850  1.00  0.00     0.198 A 
ATOM     88  C   UNL A   1      46.244  27.929  34.877  1.00  0.00     0.198 A 
ATOM     89  F   UNL A   1      45.446  29.813  33.716  1.00  0.00    -0.203 F 
ATOM     90  F   UNL A   1      44.459  25.268  36.571  1.00  0.00    -0.200 F 
ATOM     91  C   UNL A   1      46.001  26.772  35.601  1.00  0.00     0.200 A 
ATOM     92  F   UNL A   1      47.504  28.309  34.625  1.00  0.00    -0.200 F 
ATOM     93  F   UNL A   1      47.025  26.042  36.064  1.00  0.00    -0.200 F 
ENDBRANCH  60  83
ENDBRANCH  34  35
ENDBRANCH  26  29
ENDBRANCH  24  25
ENDBRANCH  23  24
ENDBRANCH   1  23
TORSDOF 13
ENDMDL
