MODEL 1
REMARK VINA RESULT:     -12.5      0.000      0.000
REMARK SMILES NS(=O)(=O)c1ccc(-n2nc(C(=O)NCCCCNC(=O)c3ccc(-c4c5nc(c(-c6c(F)c(F)c(F)c(F)c6F)c6ccc([nH]6)c(-c6c(F)c(F)c(F)c(F)c6F)c6nc(c(-c7c(F)c(F)c(F)c(F)c7F)c7ccc4[nH]7)C=C6)C=C5)cc3)cc2-c2cc3ccccc3s2)cc1
REMARK SMILES IDX 16 1 15 2 14 3 12 4 13 5 11 7 9 8 10 9 86 10 85 11 8 12 5 13
REMARK SMILES IDX 6 14 97 15 7 16 96 17 2 18 3 19 4 20 1 21 87 24 88 25 95 26
REMARK SMILES IDX 89 27 94 28 90 29 93 30 91 31 92 32 17 33 18 34 19 35 20 36
REMARK SMILES IDX 21 38 22 39 23 40 84 41 24 42 83 43 25 44 26 45 27 46 77 47
REMARK SMILES IDX 28 48 82 49 76 50 78 51 29 52 81 53 75 54 74 55 30 57 62 58
REMARK SMILES IDX 42 59 61 60 43 61 46 62 60 63 79 64 44 65 45 66 59 68 80 69
REMARK SMILES IDX 47 70 31 71 32 72 40 73 33 74 34 75 38 76 41 77 35 78 36 79
REMARK SMILES IDX 39 80 37 81 63 82 64 83 72 84 65 85 66 86 70 87 73 88 67 89
REMARK SMILES IDX 68 90 71 91 69 92 48 93 49 94 57 95 50 96 51 97 55 98 58 99
REMARK SMILES IDX 52 100 53 101 56 102 54 103
REMARK H PARENT 14 6 1 22 1 23 19 37 78 56 46 67
REMARK Flexibility Score: inf
ROOT
ATOM      1  C   UNL A   1      42.253  19.560  27.221  1.00  0.00     0.023 C 
ENDROOT
BRANCH   1   2
ATOM      2  C   UNL A   1      42.632  19.477  25.734  1.00  0.00     0.116 C 
BRANCH   2   3
ATOM      3  N   UNL A   1      43.995  19.002  25.525  1.00  0.00    -0.351 N 
ATOM      4  C   UNL A   1      45.201  19.661  25.326  1.00  0.00     0.271 C 
ATOM      5  O   UNL A   1      46.209  18.950  25.312  1.00  0.00    -0.267 OA
ATOM      6  H   UNL A   1      44.076  18.022  25.525  1.00  0.00     0.163 HD
BRANCH   4   7
ATOM      7  C   UNL A   1      45.263  21.133  25.204  1.00  0.00     0.151 A 
ATOM      8  N   UNL A   1      46.003  23.129  25.559  1.00  0.00    -0.231 N 
ATOM      9  N   UNL A   1      46.403  21.837  25.373  1.00  0.00    -0.162 NA
ATOM     10  C   UNL A   1      44.631  23.228  25.477  1.00  0.00     0.085 A 
ATOM     11  C   UNL A   1      44.219  22.029  24.926  1.00  0.00     0.066 A 
BRANCH   8  12
ATOM     12  C   UNL A   1      46.955  24.175  25.653  1.00  0.00     0.065 A 
ATOM     13  C   UNL A   1      48.992  26.065  25.889  1.00  0.00     0.082 A 
ATOM     14  C   UNL A   1      48.329  25.907  24.667  1.00  0.00     0.024 A 
ATOM     15  C   UNL A   1      48.627  25.304  27.002  1.00  0.00     0.024 A 
ATOM     16  C   UNL A   1      47.325  24.941  24.542  1.00  0.00     0.030 A 
ATOM     17  C   UNL A   1      47.585  24.381  26.891  1.00  0.00     0.030 A 
BRANCH  13  18
ATOM     18  S   UNL A   1      50.325  27.219  26.017  1.00  0.00     0.238 S 
ATOM     19  O   UNL A   1      51.578  26.523  25.815  1.00  0.00    -0.207 OA
ATOM     20  O   UNL A   1      50.083  28.085  27.141  1.00  0.00    -0.207 OA
BRANCH  18  21
ATOM     21  N   UNL A   1      50.133  28.166  24.640  1.00  0.00    -0.225 NA
ATOM     22  H   UNL A   1      51.048  28.360  24.230  1.00  0.00     0.137 HD
ATOM     23  H   UNL A   1      49.682  29.045  24.892  1.00  0.00     0.137 HD
ENDBRANCH  18  21
ENDBRANCH  13  18
ENDBRANCH   8  12
BRANCH  10  24
ATOM     24  C   UNL A   1      43.710  24.214  25.968  1.00  0.00     0.054 A 
ATOM     25  C   UNL A   1      43.588  24.586  27.300  1.00  0.00     0.031 A 
ATOM     26  S   UNL A   1      43.555  25.673  25.039  1.00  0.00    -0.134 S 
ATOM     27  C   UNL A   1      44.360  25.808  27.465  1.00  0.00    -0.007 A 
ATOM     28  C   UNL A   1      44.517  26.470  26.240  1.00  0.00     0.035 A 
ATOM     29  C   UNL A   1      45.051  26.318  28.588  1.00  0.00     0.009 A 
ATOM     30  C   UNL A   1      45.364  27.578  26.084  1.00  0.00     0.019 A 
ATOM     31  C   UNL A   1      45.941  27.386  28.429  1.00  0.00     0.001 A 
ATOM     32  C   UNL A   1      46.107  27.996  27.190  1.00  0.00     0.001 A 
ENDBRANCH  10  24
ENDBRANCH   4   7
ENDBRANCH   2   3
ENDBRANCH   1   2
BRANCH   1  33
ATOM     33  C   UNL A   1      41.166  20.586  27.582  1.00  0.00     0.023 C 
BRANCH  33  34
ATOM     34  C   UNL A   1      41.123  21.836  26.705  1.00  0.00     0.116 C 
BRANCH  34  35
ATOM     35  N   UNL A   1      39.808  22.098  26.108  1.00  0.00    -0.352 N 
ATOM     36  C   UNL A   1      38.952  23.162  26.348  1.00  0.00     0.251 C 
ATOM     37  H   UNL A   1      39.494  21.434  25.452  1.00  0.00     0.163 HD
ATOM     38  O   UNL A   1      37.756  23.088  26.095  1.00  0.00    -0.269 OA
BRANCH  36  39
ATOM     39  C   UNL A   1      39.517  24.403  26.902  1.00  0.00     0.039 A 
ATOM     40  C   UNL A   1      40.128  25.376  26.103  1.00  0.00     0.014 A 
ATOM     41  C   UNL A   1      39.355  24.602  28.266  1.00  0.00     0.014 A 
ATOM     42  C   UNL A   1      40.478  26.597  26.683  1.00  0.00     0.010 A 
ATOM     43  C   UNL A   1      39.512  25.860  28.780  1.00  0.00     0.010 A 
ATOM     44  C   UNL A   1      40.143  26.842  28.022  1.00  0.00    -0.014 A 
BRANCH  44  45
ATOM     45  C   UNL A   1      40.374  28.140  28.650  1.00  0.00     0.031 A 
ATOM     46  C   UNL A   1      41.540  28.917  28.138  1.00  0.00     0.074 A 
ATOM     47  C   UNL A   1      39.451  28.719  29.453  1.00  0.00     0.049 A 
ATOM     48  N   UNL A   1      42.579  29.322  28.793  1.00  0.00    -0.248 NA
ATOM     49  C   UNL A   1      41.596  29.214  26.698  1.00  0.00     0.031 C 
ATOM     50  C   UNL A   1      38.099  28.242  29.784  1.00  0.00     0.029 A 
ATOM     51  N   UNL A   1      39.483  29.940  30.050  1.00  0.00    -0.354 N 
ATOM     52  C   UNL A   1      43.341  30.071  27.896  1.00  0.00     0.074 A 
ATOM     53  C   UNL A   1      42.769  29.843  26.594  1.00  0.00     0.031 C 
ATOM     54  C   UNL A   1      37.370  29.256  30.293  1.00  0.00     0.029 A 
ATOM     55  C   UNL A   1      38.253  30.384  30.511  1.00  0.00     0.049 A 
ATOM     56  H   UNL A   1      40.311  30.464  30.146  1.00  0.00     0.167 HD
ATOM     57  C   UNL A   1      44.248  30.991  28.330  1.00  0.00     0.037 A 
ATOM     58  C   UNL A   1      37.965  31.604  31.023  1.00  0.00     0.037 A 
ATOM     59  C   UNL A   1      44.568  30.790  29.719  1.00  0.00     0.049 A 
ATOM     60  C   UNL A   1      39.247  32.224  31.432  1.00  0.00     0.074 A 
ATOM     61  C   UNL A   1      45.121  29.757  30.449  1.00  0.00     0.029 A 
ATOM     62  N   UNL A   1      43.976  31.616  30.642  1.00  0.00    -0.354 N 
ATOM     63  N   UNL A   1      39.992  31.779  32.407  1.00  0.00    -0.248 NA
ATOM     64  C   UNL A   1      39.928  33.065  30.460  1.00  0.00     0.031 C 
ATOM     65  C   UNL A   1      44.404  29.753  31.682  1.00  0.00     0.029 A 
ATOM     66  C   UNL A   1      43.505  30.822  31.654  1.00  0.00     0.049 A 
ATOM     67  H   UNL A   1      43.905  32.597  30.588  1.00  0.00     0.167 HD
ATOM     68  C   UNL A   1      41.293  31.920  31.951  1.00  0.00     0.074 A 
ATOM     69  C   UNL A   1      41.195  32.804  30.792  1.00  0.00     0.031 C 
ATOM     70  C   UNL A   1      42.284  31.085  32.379  1.00  0.00     0.037 A 
BRANCH  57  71
ATOM     71  C   UNL A   1      44.584  32.285  27.622  1.00  0.00     0.064 A 
ATOM     72  C   UNL A   1      45.793  32.381  26.901  1.00  0.00     0.173 A 
ATOM     73  C   UNL A   1      43.933  33.511  27.876  1.00  0.00     0.173 A 
ATOM     74  F   UNL A   1      46.505  31.282  26.610  1.00  0.00    -0.203 F 
ATOM     75  C   UNL A   1      46.350  33.613  26.548  1.00  0.00     0.198 A 
ATOM     76  C   UNL A   1      44.465  34.736  27.473  1.00  0.00     0.198 A 
ATOM     77  F   UNL A   1      42.823  33.589  28.619  1.00  0.00    -0.203 F 
ATOM     78  F   UNL A   1      47.566  33.658  25.987  1.00  0.00    -0.200 F 
ATOM     79  C   UNL A   1      45.689  34.791  26.843  1.00  0.00     0.200 A 
ATOM     80  F   UNL A   1      43.816  35.867  27.782  1.00  0.00    -0.200 F 
ATOM     81  F   UNL A   1      46.251  35.975  26.568  1.00  0.00    -0.200 F 
ENDBRANCH  57  71
BRANCH  58  82
ATOM     82  C   UNL A   1      36.700  32.359  30.906  1.00  0.00     0.064 A 
ATOM     83  C   UNL A   1      35.861  32.558  32.010  1.00  0.00     0.173 A 
ATOM     84  C   UNL A   1      36.418  33.122  29.754  1.00  0.00     0.173 A 
ATOM     85  F   UNL A   1      36.094  31.903  33.157  1.00  0.00    -0.203 F 
ATOM     86  C   UNL A   1      34.808  33.479  31.973  1.00  0.00     0.198 A 
ATOM     87  C   UNL A   1      35.366  34.038  29.716  1.00  0.00     0.198 A 
ATOM     88  F   UNL A   1      37.216  33.057  28.677  1.00  0.00    -0.203 F 
ATOM     89  F   UNL A   1      34.060  33.683  33.065  1.00  0.00    -0.200 F 
ATOM     90  C   UNL A   1      34.568  34.224  30.829  1.00  0.00     0.200 A 
ATOM     91  F   UNL A   1      35.169  34.779  28.616  1.00  0.00    -0.200 F 
ATOM     92  F   UNL A   1      33.597  35.148  30.812  1.00  0.00    -0.200 F 
ENDBRANCH  58  82
BRANCH  70  93
ATOM     93  C   UNL A   1      41.997  30.188  33.550  1.00  0.00     0.064 A 
ATOM     94  C   UNL A   1      41.552  28.860  33.435  1.00  0.00     0.173 A 
ATOM     95  C   UNL A   1      42.351  30.638  34.829  1.00  0.00     0.173 A 
ATOM     96  F   UNL A   1      41.286  28.322  32.240  1.00  0.00    -0.203 F 
ATOM     97  C   UNL A   1      41.438  28.034  34.553  1.00  0.00     0.198 A 
ATOM     98  C   UNL A   1      42.271  29.801  35.938  1.00  0.00     0.198 A 
ATOM     99  F   UNL A   1      42.836  31.879  34.993  1.00  0.00    -0.203 F 
ATOM    100  F   UNL A   1      41.010  26.770  34.414  1.00  0.00    -0.200 F 
ATOM    101  C   UNL A   1      41.808  28.503  35.802  1.00  0.00     0.200 A 
ATOM    102  F   UNL A   1      42.678  30.244  37.137  1.00  0.00    -0.200 F 
ATOM    103  F   UNL A   1      41.747  27.694  36.870  1.00  0.00    -0.200 F 
ENDBRANCH  70  93
ENDBRANCH  44  45
ENDBRANCH  36  39
ENDBRANCH  34  35
ENDBRANCH  33  34
ENDBRANCH   1  33
TORSDOF 15
ENDMDL
MODEL 2
REMARK VINA RESULT:     -12.4      3.921      7.899
REMARK SMILES NS(=O)(=O)c1ccc(-n2nc(C(=O)NCCCCNC(=O)c3ccc(-c4c5nc(c(-c6c(F)c(F)c(F)c(F)c6F)c6ccc([nH]6)c(-c6c(F)c(F)c(F)c(F)c6F)c6nc(c(-c7c(F)c(F)c(F)c(F)c7F)c7ccc4[nH]7)C=C6)C=C5)cc3)cc2-c2cc3ccccc3s2)cc1
REMARK SMILES IDX 16 1 15 2 14 3 12 4 13 5 11 7 9 8 10 9 86 10 85 11 8 12 5 13
REMARK SMILES IDX 6 14 97 15 7 16 96 17 2 18 3 19 4 20 1 21 87 24 88 25 95 26
REMARK SMILES IDX 89 27 94 28 90 29 93 30 91 31 92 32 17 33 18 34 19 35 20 36
REMARK SMILES IDX 21 38 22 39 23 40 84 41 24 42 83 43 25 44 26 45 27 46 77 47
REMARK SMILES IDX 28 48 82 49 76 50 78 51 29 52 81 53 75 54 74 55 30 57 62 58
REMARK SMILES IDX 42 59 61 60 43 61 46 62 60 63 79 64 44 65 45 66 59 68 80 69
REMARK SMILES IDX 47 70 31 71 32 72 40 73 33 74 34 75 38 76 41 77 35 78 36 79
REMARK SMILES IDX 39 80 37 81 63 82 64 83 72 84 65 85 66 86 70 87 73 88 67 89
REMARK SMILES IDX 68 90 71 91 69 92 48 93 49 94 57 95 50 96 51 97 55 98 58 99
REMARK SMILES IDX 52 100 53 101 56 102 54 103
REMARK H PARENT 14 6 1 22 1 23 19 37 78 56 46 67
REMARK Flexibility Score: inf
ROOT
ATOM      1  C   UNL A   1      41.000  21.461  27.636  1.00  0.00     0.023 C 
ENDROOT
BRANCH   1   2
ATOM      2  C   UNL A   1      39.891  21.759  26.615  1.00  0.00     0.116 C 
BRANCH   2   3
ATOM      3  N   UNL A   1      39.629  23.186  26.467  1.00  0.00    -0.351 N 
ATOM      4  C   UNL A   1      38.464  23.913  26.267  1.00  0.00     0.271 C 
ATOM      5  O   UNL A   1      38.577  25.140  26.316  1.00  0.00    -0.267 OA
ATOM      6  H   UNL A   1      40.439  23.743  26.518  1.00  0.00     0.163 HD
BRANCH   4   7
ATOM      7  C   UNL A   1      37.161  23.241  26.073  1.00  0.00     0.151 A 
ATOM      8  N   UNL A   1      35.772  21.778  25.305  1.00  0.00    -0.231 N 
ATOM      9  N   UNL A   1      37.049  21.931  25.766  1.00  0.00    -0.162 NA
ATOM     10  C   UNL A   1      35.093  22.976  25.356  1.00  0.00     0.085 A 
ATOM     11  C   UNL A   1      35.874  23.797  26.147  1.00  0.00     0.066 A 
BRANCH   8  12
ATOM     12  C   UNL A   1      35.263  20.492  24.997  1.00  0.00     0.065 A 
ATOM     13  C   UNL A   1      34.368  17.882  24.591  1.00  0.00     0.082 A 
ATOM     14  C   UNL A   1      33.441  18.918  24.751  1.00  0.00     0.024 A 
ATOM     15  C   UNL A   1      35.739  18.144  24.604  1.00  0.00     0.024 A 
ATOM     16  C   UNL A   1      33.890  20.222  24.981  1.00  0.00     0.030 A 
ATOM     17  C   UNL A   1      36.186  19.457  24.775  1.00  0.00     0.030 A 
BRANCH  13  18
ATOM     18  S   UNL A   1      33.795  16.220  24.398  1.00  0.00     0.238 S 
ATOM     19  O   UNL A   1      34.466  15.372  25.359  1.00  0.00    -0.207 OA
ATOM     20  O   UNL A   1      33.731  15.913  22.993  1.00  0.00    -0.207 OA
BRANCH  18  21
ATOM     21  N   UNL A   1      32.204  16.307  24.937  1.00  0.00    -0.225 NA
ATOM     22  H   UNL A   1      32.076  15.667  25.721  1.00  0.00     0.137 HD
ATOM     23  H   UNL A   1      31.574  16.046  24.179  1.00  0.00     0.137 HD
ENDBRANCH  18  21
ENDBRANCH  13  18
ENDBRANCH   8  12
BRANCH  10  24
ATOM     24  C   UNL A   1      33.929  23.447  24.661  1.00  0.00     0.054 A 
ATOM     25  C   UNL A   1      32.719  23.760  25.267  1.00  0.00     0.031 A 
ATOM     26  S   UNL A   1      34.182  24.647  23.431  1.00  0.00    -0.134 S 
ATOM     27  C   UNL A   1      32.703  25.204  25.445  1.00  0.00    -0.007 A 
ATOM     28  C   UNL A   1      33.574  25.829  24.543  1.00  0.00     0.035 A 
ATOM     29  C   UNL A   1      32.080  26.005  26.429  1.00  0.00     0.009 A 
ATOM     30  C   UNL A   1      33.881  27.197  24.617  1.00  0.00     0.019 A 
ATOM     31  C   UNL A   1      32.424  27.356  26.545  1.00  0.00     0.001 A 
ATOM     32  C   UNL A   1      33.326  27.939  25.661  1.00  0.00     0.001 A 
ENDBRANCH  10  24
ENDBRANCH   4   7
ENDBRANCH   2   3
ENDBRANCH   1   2
BRANCH   1  33
ATOM     33  C   UNL A   1      41.955  20.311  27.277  1.00  0.00     0.023 C 
BRANCH  33  34
ATOM     34  C   UNL A   1      42.084  20.003  25.786  1.00  0.00     0.116 C 
BRANCH  34  35
ATOM     35  N   UNL A   1      43.452  19.689  25.360  1.00  0.00    -0.352 N 
ATOM     36  C   UNL A   1      44.449  20.565  24.957  1.00  0.00     0.251 C 
ATOM     37  H   UNL A   1      43.694  18.734  25.360  1.00  0.00     0.163 HD
ATOM     38  O   UNL A   1      45.396  20.186  24.279  1.00  0.00    -0.269 OA
BRANCH  36  39
ATOM     39  C   UNL A   1      44.356  21.972  25.380  1.00  0.00     0.039 A 
ATOM     40  C   UNL A   1      43.399  22.853  24.863  1.00  0.00     0.014 A 
ATOM     41  C   UNL A   1      45.227  22.377  26.381  1.00  0.00     0.014 A 
ATOM     42  C   UNL A   1      43.267  24.116  25.443  1.00  0.00     0.010 A 
ATOM     43  C   UNL A   1      44.961  23.526  27.073  1.00  0.00     0.010 A 
ATOM     44  C   UNL A   1      44.038  24.438  26.570  1.00  0.00    -0.014 A 
BRANCH  44  45
ATOM     45  C   UNL A   1      43.860  25.694  27.292  1.00  0.00     0.031 A 
ATOM     46  C   UNL A   1      44.802  26.794  26.934  1.00  0.00     0.074 A 
ATOM     47  C   UNL A   1      42.760  25.936  28.042  1.00  0.00     0.049 A 
ATOM     48  N   UNL A   1      45.642  27.408  27.703  1.00  0.00    -0.248 NA
ATOM     49  C   UNL A   1      44.876  27.213  25.525  1.00  0.00     0.031 C 
ATOM     50  C   UNL A   1      41.571  25.089  28.221  1.00  0.00     0.029 A 
ATOM     51  N   UNL A   1      42.415  27.068  28.711  1.00  0.00    -0.354 N 
ATOM     52  C   UNL A   1      46.230  28.404  26.925  1.00  0.00     0.074 A 
ATOM     53  C   UNL A   1      45.836  28.139  25.566  1.00  0.00     0.031 C 
ATOM     54  C   UNL A   1      40.558  25.826  28.722  1.00  0.00     0.029 A 
ATOM     55  C   UNL A   1      41.081  27.127  29.086  1.00  0.00     0.049 A 
ATOM     56  H   UNL A   1      43.059  27.786  28.913  1.00  0.00     0.167 HD
ATOM     57  C   UNL A   1      46.819  29.496  27.493  1.00  0.00     0.037 A 
ATOM     58  C   UNL A   1      40.435  28.179  29.642  1.00  0.00     0.037 A 
ATOM     59  C   UNL A   1      47.083  29.274  28.891  1.00  0.00     0.049 A 
ATOM     60  C   UNL A   1      41.466  29.084  30.201  1.00  0.00     0.074 A 
ATOM     61  C   UNL A   1      47.845  28.370  29.604  1.00  0.00     0.029 A 
ATOM     62  N   UNL A   1      46.224  29.833  29.805  1.00  0.00    -0.354 N 
ATOM     63  N   UNL A   1      42.233  28.776  31.211  1.00  0.00    -0.248 NA
ATOM     64  C   UNL A   1      41.957  30.153  29.346  1.00  0.00     0.031 C 
ATOM     65  C   UNL A   1      47.071  28.074  30.765  1.00  0.00     0.029 A 
ATOM     66  C   UNL A   1      45.919  28.861  30.721  1.00  0.00     0.049 A 
ATOM     67  H   UNL A   1      45.891  30.759  29.803  1.00  0.00     0.167 HD
ATOM     68  C   UNL A   1      43.475  29.298  30.883  1.00  0.00     0.074 A 
ATOM     69  C   UNL A   1      43.221  30.216  29.774  1.00  0.00     0.031 C 
ATOM     70  C   UNL A   1      44.625  28.727  31.347  1.00  0.00     0.037 A 
BRANCH  57  71
ATOM     71  C   UNL A   1      46.836  30.885  26.897  1.00  0.00     0.064 A 
ATOM     72  C   UNL A   1      48.046  31.611  26.878  1.00  0.00     0.173 A 
ATOM     73  C   UNL A   1      45.674  31.642  26.635  1.00  0.00     0.173 A 
ATOM     74  F   UNL A   1      49.215  30.998  27.124  1.00  0.00    -0.203 F 
ATOM     75  C   UNL A   1      48.077  32.997  26.705  1.00  0.00     0.198 A 
ATOM     76  C   UNL A   1      45.715  33.018  26.407  1.00  0.00     0.198 A 
ATOM     77  F   UNL A   1      44.448  31.112  26.701  1.00  0.00    -0.203 F 
ATOM     78  F   UNL A   1      49.236  33.658  26.833  1.00  0.00    -0.200 F 
ATOM     79  C   UNL A   1      46.910  33.701  26.478  1.00  0.00     0.200 A 
ATOM     80  F   UNL A   1      44.570  33.684  26.205  1.00  0.00    -0.200 F 
ATOM     81  F   UNL A   1      46.927  35.037  26.380  1.00  0.00    -0.200 F 
ENDBRANCH  57  71
BRANCH  58  82
ATOM     82  C   UNL A   1      39.023  28.575  29.457  1.00  0.00     0.064 A 
ATOM     83  C   UNL A   1      38.165  28.760  30.550  1.00  0.00     0.173 A 
ATOM     84  C   UNL A   1      38.558  29.029  28.206  1.00  0.00     0.173 A 
ATOM     85  F   UNL A   1      38.556  28.395  31.780  1.00  0.00    -0.203 F 
ATOM     86  C   UNL A   1      36.919  29.379  30.405  1.00  0.00     0.198 A 
ATOM     87  C   UNL A   1      37.313  29.643  28.061  1.00  0.00     0.198 A 
ATOM     88  F   UNL A   1      39.343  28.967  27.120  1.00  0.00    -0.203 F 
ATOM     89  F   UNL A   1      36.147  29.588  31.480  1.00  0.00    -0.200 F 
ATOM     90  C   UNL A   1      36.498  29.828  29.162  1.00  0.00     0.200 A 
ATOM     91  F   UNL A   1      36.936  30.106  26.861  1.00  0.00    -0.200 F 
ATOM     92  F   UNL A   1      35.330  30.472  29.033  1.00  0.00    -0.200 F 
ENDBRANCH  58  82
BRANCH  70  93
ATOM     93  C   UNL A   1      44.512  27.692  32.432  1.00  0.00     0.064 A 
ATOM     94  C   UNL A   1      44.367  26.315  32.195  1.00  0.00     0.173 A 
ATOM     95  C   UNL A   1      44.733  28.097  33.755  1.00  0.00     0.173 A 
ATOM     96  F   UNL A   1      44.249  25.836  30.952  1.00  0.00    -0.203 F 
ATOM     97  C   UNL A   1      44.409  25.392  33.240  1.00  0.00     0.198 A 
ATOM     98  C   UNL A   1      44.812  27.171  34.791  1.00  0.00     0.198 A 
ATOM     99  F   UNL A   1      44.935  29.394  34.035  1.00  0.00    -0.203 F 
ATOM    100  F   UNL A   1      44.267  24.082  32.985  1.00  0.00    -0.200 F 
ATOM    101  C   UNL A   1      44.642  25.820  34.535  1.00  0.00     0.200 A 
ATOM    102  F   UNL A   1      45.087  27.586  36.036  1.00  0.00    -0.200 F 
ATOM    103  F   UNL A   1      44.734  24.929  35.533  1.00  0.00    -0.200 F 
ENDBRANCH  70  93
ENDBRANCH  44  45
ENDBRANCH  36  39
ENDBRANCH  34  35
ENDBRANCH  33  34
ENDBRANCH   1  33
TORSDOF 15
ENDMDL
MODEL 3
REMARK VINA RESULT:     -12.3      5.146     11.593
REMARK SMILES NS(=O)(=O)c1ccc(-n2nc(C(=O)NCCCCNC(=O)c3ccc(-c4c5nc(c(-c6c(F)c(F)c(F)c(F)c6F)c6ccc([nH]6)c(-c6c(F)c(F)c(F)c(F)c6F)c6nc(c(-c7c(F)c(F)c(F)c(F)c7F)c7ccc4[nH]7)C=C6)C=C5)cc3)cc2-c2cc3ccccc3s2)cc1
REMARK SMILES IDX 16 1 15 2 14 3 12 4 13 5 11 7 9 8 10 9 86 10 85 11 8 12 5 13
REMARK SMILES IDX 6 14 97 15 7 16 96 17 2 18 3 19 4 20 1 21 87 24 88 25 95 26
REMARK SMILES IDX 89 27 94 28 90 29 93 30 91 31 92 32 17 33 18 34 19 35 20 36
REMARK SMILES IDX 21 38 22 39 23 40 84 41 24 42 83 43 25 44 26 45 27 46 77 47
REMARK SMILES IDX 28 48 82 49 76 50 78 51 29 52 81 53 75 54 74 55 30 57 62 58
REMARK SMILES IDX 42 59 61 60 43 61 46 62 60 63 79 64 44 65 45 66 59 68 80 69
REMARK SMILES IDX 47 70 31 71 32 72 40 73 33 74 34 75 38 76 41 77 35 78 36 79
REMARK SMILES IDX 39 80 37 81 63 82 64 83 72 84 65 85 66 86 70 87 73 88 67 89
REMARK SMILES IDX 68 90 71 91 69 92 48 93 49 94 57 95 50 96 51 97 55 98 58 99
REMARK SMILES IDX 52 100 53 101 56 102 54 103
REMARK H PARENT 14 6 1 22 1 23 19 37 78 56 46 67
REMARK Flexibility Score: inf
ROOT
ATOM      1  C   UNL A   1      31.566  29.995  25.659  1.00  0.00     0.023 C 
ENDROOT
BRANCH   1   2
ATOM      2  C   UNL A   1      31.656  29.095  24.417  1.00  0.00     0.116 C 
BRANCH   2   3
ATOM      3  N   UNL A   1      30.368  28.525  24.038  1.00  0.00    -0.351 N 
ATOM      4  C   UNL A   1      29.981  27.251  23.647  1.00  0.00     0.271 C 
ATOM      5  O   UNL A   1      28.768  27.068  23.520  1.00  0.00    -0.267 OA
ATOM      6  H   UNL A   1      29.627  29.172  24.064  1.00  0.00     0.163 HD
BRANCH   4   7
ATOM      7  C   UNL A   1      30.972  26.169  23.461  1.00  0.00     0.151 A 
ATOM      8  N   UNL A   1      31.878  24.230  23.741  1.00  0.00    -0.231 N 
ATOM      9  N   UNL A   1      30.673  24.862  23.622  1.00  0.00    -0.162 NA
ATOM     10  C   UNL A   1      32.912  25.133  23.626  1.00  0.00     0.085 A 
ATOM     11  C   UNL A   1      32.330  26.280  23.120  1.00  0.00     0.066 A 
BRANCH   8  12
ATOM     12  C   UNL A   1      31.949  22.816  23.808  1.00  0.00     0.065 A 
ATOM     13  C   UNL A   1      32.320  20.053  23.879  1.00  0.00     0.082 A 
ATOM     14  C   UNL A   1      31.936  20.733  25.040  1.00  0.00     0.024 A 
ATOM     15  C   UNL A   1      32.494  20.739  22.676  1.00  0.00     0.024 A 
ATOM     16  C   UNL A   1      31.776  22.122  25.011  1.00  0.00     0.030 A 
ATOM     17  C   UNL A   1      32.276  22.119  22.634  1.00  0.00     0.030 A 
BRANCH  13  18
ATOM     18  S   UNL A   1      32.616  18.311  23.944  1.00  0.00     0.238 S 
ATOM     19  O   UNL A   1      31.779  17.724  24.968  1.00  0.00    -0.207 OA
ATOM     20  O   UNL A   1      34.035  18.080  23.866  1.00  0.00    -0.207 OA
BRANCH  18  21
ATOM     21  N   UNL A   1      31.967  17.766  22.492  1.00  0.00    -0.225 NA
ATOM     22  H   UNL A   1      31.479  16.883  22.647  1.00  0.00     0.137 HD
ATOM     23  H   UNL A   1      32.717  17.625  21.815  1.00  0.00     0.137 HD
ENDBRANCH  18  21
ENDBRANCH  13  18
ENDBRANCH   8  12
BRANCH  10  24
ATOM     24  C   UNL A   1      34.282  25.080  24.051  1.00  0.00     0.054 A 
ATOM     25  C   UNL A   1      34.696  25.054  25.377  1.00  0.00     0.031 A 
ATOM     26  S   UNL A   1      35.329  23.993  23.192  1.00  0.00    -0.134 S 
ATOM     27  C   UNL A   1      34.961  23.661  25.703  1.00  0.00    -0.007 A 
ATOM     28  C   UNL A   1      35.224  22.917  24.546  1.00  0.00     0.035 A 
ATOM     29  C   UNL A   1      34.858  22.967  26.931  1.00  0.00     0.009 A 
ATOM     30  C   UNL A   1      35.339  21.518  24.559  1.00  0.00     0.019 A 
ATOM     31  C   UNL A   1      34.914  21.568  26.943  1.00  0.00     0.001 A 
ATOM     32  C   UNL A   1      35.134  20.854  25.770  1.00  0.00     0.001 A 
ENDBRANCH  10  24
ENDBRANCH   4   7
ENDBRANCH   2   3
ENDBRANCH   1   2
BRANCH   1  33
ATOM     33  C   UNL A   1      32.135  29.405  26.960  1.00  0.00     0.023 C 
BRANCH  33  34
ATOM     34  C   UNL A   1      33.636  29.598  27.169  1.00  0.00     0.116 C 
BRANCH  34  35
ATOM     35  N   UNL A   1      34.085  30.986  27.011  1.00  0.00    -0.352 N 
ATOM     36  C   UNL A   1      35.157  31.617  27.624  1.00  0.00     0.251 C 
ATOM     37  H   UNL A   1      33.558  31.540  26.391  1.00  0.00     0.163 HD
ATOM     38  O   UNL A   1      35.212  32.837  27.715  1.00  0.00    -0.269 OA
BRANCH  36  39
ATOM     39  C   UNL A   1      36.249  30.784  28.154  1.00  0.00     0.039 A 
ATOM     40  C   UNL A   1      36.322  29.404  27.929  1.00  0.00     0.014 A 
ATOM     41  C   UNL A   1      37.258  31.446  28.838  1.00  0.00     0.014 A 
ATOM     42  C   UNL A   1      37.477  28.722  28.316  1.00  0.00     0.010 A 
ATOM     43  C   UNL A   1      38.458  30.820  29.029  1.00  0.00     0.010 A 
ATOM     44  C   UNL A   1      38.556  29.444  28.844  1.00  0.00    -0.014 A 
BRANCH  44  45
ATOM     45  C   UNL A   1      39.833  28.806  29.155  1.00  0.00     0.031 A 
ATOM     46  C   UNL A   1      40.149  28.647  30.605  1.00  0.00     0.074 A 
ATOM     47  C   UNL A   1      40.560  28.167  28.210  1.00  0.00     0.049 A 
ATOM     48  N   UNL A   1      41.153  29.129  31.260  1.00  0.00    -0.248 NA
ATOM     49  C   UNL A   1      39.185  27.922  31.448  1.00  0.00     0.031 C 
ATOM     50  C   UNL A   1      40.220  27.933  26.798  1.00  0.00     0.029 A 
ATOM     51  N   UNL A   1      41.719  27.471  28.349  1.00  0.00    -0.354 N 
ATOM     52  C   UNL A   1      41.047  28.635  32.560  1.00  0.00     0.074 A 
ATOM     53  C   UNL A   1      39.745  28.028  32.655  1.00  0.00     0.031 C 
ATOM     54  C   UNL A   1      41.004  26.958  26.296  1.00  0.00     0.029 A 
ATOM     55  C   UNL A   1      42.024  26.646  27.277  1.00  0.00     0.049 A 
ATOM     56  H   UNL A   1      42.294  27.547  29.146  1.00  0.00     0.167 HD
ATOM     57  C   UNL A   1      42.130  28.574  33.388  1.00  0.00     0.037 A 
ATOM     58  C   UNL A   1      43.035  25.749  27.199  1.00  0.00     0.037 A 
ATOM     59  C   UNL A   1      43.200  29.407  32.904  1.00  0.00     0.049 A 
ATOM     60  C   UNL A   1      44.024  26.108  28.242  1.00  0.00     0.074 A 
ATOM     61  C   UNL A   1      43.344  30.758  32.655  1.00  0.00     0.029 A 
ATOM     62  N   UNL A   1      44.243  28.799  32.250  1.00  0.00    -0.354 N 
ATOM     63  N   UNL A   1      44.737  27.201  28.222  1.00  0.00    -0.248 NA
ATOM     64  C   UNL A   1      43.890  25.473  29.543  1.00  0.00     0.031 C 
ATOM     65  C   UNL A   1      44.141  30.830  31.474  1.00  0.00     0.029 A 
ATOM     66  C   UNL A   1      44.487  29.526  31.114  1.00  0.00     0.049 A 
ATOM     67  H   UNL A   1      44.726  27.993  32.543  1.00  0.00     0.167 HD
ATOM     68  C   UNL A   1      44.779  27.619  29.544  1.00  0.00     0.074 A 
ATOM     69  C   UNL A   1      44.326  26.468  30.321  1.00  0.00     0.031 C 
ATOM     70  C   UNL A   1      44.903  28.941  29.861  1.00  0.00     0.037 A 
BRANCH  57  71
ATOM     71  C   UNL A   1      42.370  27.506  34.431  1.00  0.00     0.064 A 
ATOM     72  C   UNL A   1      42.923  26.270  34.034  1.00  0.00     0.173 A 
ATOM     73  C   UNL A   1      41.802  27.527  35.722  1.00  0.00     0.173 A 
ATOM     74  F   UNL A   1      43.482  26.127  32.823  1.00  0.00    -0.203 F 
ATOM     75  C   UNL A   1      42.829  25.126  34.831  1.00  0.00     0.198 A 
ATOM     76  C   UNL A   1      41.759  26.395  36.537  1.00  0.00     0.198 A 
ATOM     77  F   UNL A   1      41.166  28.600  36.204  1.00  0.00    -0.203 F 
ATOM     78  F   UNL A   1      43.246  23.945  34.352  1.00  0.00    -0.200 F 
ATOM     79  C   UNL A   1      42.238  25.188  36.079  1.00  0.00     0.200 A 
ATOM     80  F   UNL A   1      41.168  26.473  37.738  1.00  0.00    -0.200 F 
ATOM     81  F   UNL A   1      42.084  24.080  36.816  1.00  0.00    -0.200 F 
ENDBRANCH  57  71
BRANCH  58  82
ATOM     82  C   UNL A   1      43.045  24.457  26.482  1.00  0.00     0.064 A 
ATOM     83  C   UNL A   1      43.761  24.286  25.289  1.00  0.00     0.173 A 
ATOM     84  C   UNL A   1      42.555  23.286  27.097  1.00  0.00     0.173 A 
ATOM     85  F   UNL A   1      44.298  25.348  24.670  1.00  0.00    -0.203 F 
ATOM     86  C   UNL A   1      43.989  23.016  24.748  1.00  0.00     0.198 A 
ATOM     87  C   UNL A   1      42.780  22.020  26.555  1.00  0.00     0.198 A 
ATOM     88  F   UNL A   1      41.929  23.346  28.282  1.00  0.00    -0.203 F 
ATOM     89  F   UNL A   1      44.724  22.886  23.636  1.00  0.00    -0.200 F 
ATOM     90  C   UNL A   1      43.506  21.884  25.387  1.00  0.00     0.200 A 
ATOM     91  F   UNL A   1      42.339  20.932  27.203  1.00  0.00    -0.200 F 
ATOM     92  F   UNL A   1      43.774  20.665  24.900  1.00  0.00    -0.200 F 
ENDBRANCH  58  82
BRANCH  70  93
ATOM     93  C   UNL A   1      45.262  29.902  28.763  1.00  0.00     0.064 A 
ATOM     94  C   UNL A   1      44.322  30.554  27.947  1.00  0.00     0.173 A 
ATOM     95  C   UNL A   1      46.599  30.305  28.649  1.00  0.00     0.173 A 
ATOM     96  F   UNL A   1      43.014  30.299  28.061  1.00  0.00    -0.203 F 
ATOM     97  C   UNL A   1      44.709  31.540  27.040  1.00  0.00     0.198 A 
ATOM     98  C   UNL A   1      46.979  31.314  27.769  1.00  0.00     0.198 A 
ATOM     99  F   UNL A   1      47.534  29.757  29.442  1.00  0.00    -0.203 F 
ATOM    100  F   UNL A   1      43.790  32.146  26.274  1.00  0.00    -0.200 F 
ATOM    101  C   UNL A   1      46.036  31.925  26.960  1.00  0.00     0.200 A 
ATOM    102  F   UNL A   1      48.257  31.718  27.732  1.00  0.00    -0.200 F 
ATOM    103  F   UNL A   1      46.402  32.908  26.124  1.00  0.00    -0.200 F 
ENDBRANCH  70  93
ENDBRANCH  44  45
ENDBRANCH  36  39
ENDBRANCH  34  35
ENDBRANCH  33  34
ENDBRANCH   1  33
TORSDOF 15
ENDMDL
