MODEL 1
REMARK VINA RESULT:     -13.4      0.000      0.000
REMARK SMILES O=C(COc1ccccc1/C=C1\C(=O)Nc2ccccc21)NCCCCNC(=O)c1ccc(-c2c3nc(c(-c4c(F)c(F)c(F)c(F)c4F)c4ccc([nH]4)c(-c4c(F)c(F)c(F)c(F)c4F)c4nc(c(-c5c(F)c(F)c(F)c(F)c5F)c5ccc2[nH]5)C=C4)C=C3)cc1
REMARK SMILES IDX 24 1 23 2 22 3 1 4 2 5 3 7 4 8 5 9 6 10 10 11 7 12 9 13 8 14
REMARK SMILES IDX 11 15 12 16 13 17 21 18 14 19 15 20 16 21 20 22 17 24 19 25
REMARK SMILES IDX 18 26 25 27 26 28 27 29 28 30 29 32 30 33 31 34 92 35 32 36
REMARK SMILES IDX 91 37 33 38 34 39 35 40 85 41 36 42 90 43 84 44 86 45 37 46
REMARK SMILES IDX 89 47 83 48 82 49 38 51 70 52 50 53 69 54 51 55 54 56 68 57
REMARK SMILES IDX 87 58 52 59 53 60 67 62 88 63 55 64 39 65 40 66 48 67 41 68
REMARK SMILES IDX 42 69 46 70 49 71 43 72 44 73 47 74 45 75 71 76 72 77 80 78
REMARK SMILES IDX 73 79 74 80 78 81 81 82 75 83 76 84 79 85 77 86 56 87 57 88
REMARK SMILES IDX 65 89 58 90 59 91 63 92 66 93 60 94 61 95 64 96 62 97
REMARK H PARENT 22 6 15 23 27 31 86 50 54 61
REMARK Flexibility Score: inf
ROOT
ATOM      1  C   UNL A   1      31.665  30.716  26.045  1.00  0.00     0.023 C 
ENDROOT
BRANCH   1   2
ATOM      2  C   UNL A   1      32.176  29.674  27.023  1.00  0.00     0.116 C 
BRANCH   2   3
ATOM      3  N   UNL A   1      32.135  28.311  26.568  1.00  0.00    -0.353 N 
ATOM      4  O   UNL A   1      34.015  28.410  25.228  1.00  0.00    -0.271 OA
ATOM      5  C   UNL A   1      33.212  27.758  25.885  1.00  0.00     0.257 C 
ATOM      6  H   UNL A   1      31.337  27.764  26.742  1.00  0.00     0.163 HD
BRANCH   5   7
ATOM      7  C   UNL A   1      33.316  26.250  26.069  1.00  0.00     0.329 C 
BRANCH   7   8
ATOM      8  O   UNL A   1      31.958  25.792  26.144  1.00  0.00    -0.483 OA
BRANCH   8   9
ATOM      9  C   UNL A   1      31.709  24.680  25.380  1.00  0.00     0.127 A 
ATOM     10  C   UNL A   1      32.479  23.540  25.655  1.00  0.00     0.047 A 
ATOM     11  C   UNL A   1      30.874  24.747  24.243  1.00  0.00     0.017 A 
ATOM     12  C   UNL A   1      32.465  22.461  24.777  1.00  0.00     0.004 A 
ATOM     13  C   UNL A   1      30.983  23.697  23.322  1.00  0.00     0.012 A 
ATOM     14  C   UNL A   1      31.744  22.556  23.594  1.00  0.00     0.001 A 
BRANCH  11  15
ATOM     15  C   UNL A   1      29.951  25.886  23.976  1.00  0.00     0.026 C 
ATOM     16  C   UNL A   1      30.198  27.025  23.289  1.00  0.00     0.050 C 
ATOM     17  C   UNL A   1      31.505  27.428  22.624  1.00  0.00     0.256 C 
ATOM     18  C   UNL A   1      29.261  28.147  23.020  1.00  0.00     0.011 A 
ATOM     19  O   UNL A   1      32.544  26.803  22.504  1.00  0.00    -0.269 OA
ATOM     20  N   UNL A   1      31.299  28.702  22.137  1.00  0.00    -0.321 N 
ATOM     21  C   UNL A   1      29.993  29.119  22.329  1.00  0.00     0.049 A 
ATOM     22  C   UNL A   1      27.921  28.391  23.264  1.00  0.00     0.011 A 
ATOM     23  H   UNL A   1      31.995  29.249  21.705  1.00  0.00     0.170 HD
ATOM     24  C   UNL A   1      29.454  30.309  21.875  1.00  0.00     0.027 A 
ATOM     25  C   UNL A   1      27.334  29.572  22.780  1.00  0.00     0.001 A 
ATOM     26  C   UNL A   1      28.097  30.527  22.093  1.00  0.00     0.002 A 
ENDBRANCH  11  15
ENDBRANCH   8   9
ENDBRANCH   7   8
ENDBRANCH   5   7
ENDBRANCH   2   3
ENDBRANCH   1   2
BRANCH   1  27
ATOM     27  C   UNL A   1      31.403  32.097  26.646  1.00  0.00     0.023 C 
BRANCH  27  28
ATOM     28  C   UNL A   1      32.604  32.796  27.285  1.00  0.00     0.116 C 
BRANCH  28  29
ATOM     29  N   UNL A   1      32.349  34.187  27.631  1.00  0.00    -0.352 N 
ATOM     30  C   UNL A   1      32.954  34.991  28.567  1.00  0.00     0.251 C 
ATOM     31  H   UNL A   1      31.631  34.619  27.113  1.00  0.00     0.163 HD
ATOM     32  O   UNL A   1      32.494  36.104  28.807  1.00  0.00    -0.269 OA
BRANCH  30  33
ATOM     33  C   UNL A   1      34.139  34.513  29.317  1.00  0.00     0.039 A 
ATOM     34  C   UNL A   1      33.957  33.977  30.596  1.00  0.00     0.014 A 
ATOM     35  C   UNL A   1      35.423  34.593  28.773  1.00  0.00     0.014 A 
ATOM     36  C   UNL A   1      35.047  33.444  31.289  1.00  0.00     0.010 A 
ATOM     37  C   UNL A   1      36.494  33.988  29.429  1.00  0.00     0.010 A 
ATOM     38  C   UNL A   1      36.318  33.400  30.691  1.00  0.00    -0.014 A 
BRANCH  38  39
ATOM     39  C   UNL A   1      37.466  32.729  31.363  1.00  0.00     0.031 A 
ATOM     40  C   UNL A   1      38.171  31.578  30.700  1.00  0.00     0.074 A 
ATOM     41  C   UNL A   1      37.833  33.117  32.601  1.00  0.00     0.049 A 
ATOM     42  N   UNL A   1      39.146  30.830  31.156  1.00  0.00    -0.248 NA
ATOM     43  C   UNL A   1      37.705  31.199  29.358  1.00  0.00     0.031 C 
ATOM     44  C   UNL A   1      37.205  34.190  33.373  1.00  0.00     0.029 A 
ATOM     45  N   UNL A   1      38.818  32.644  33.434  1.00  0.00    -0.354 N 
ATOM     46  C   UNL A   1      39.398  29.889  30.165  1.00  0.00     0.074 A 
ATOM     47  C   UNL A   1      38.438  30.125  29.108  1.00  0.00     0.031 C 
ATOM     48  C   UNL A   1      37.835  34.313  34.551  1.00  0.00     0.029 A 
ATOM     49  C   UNL A   1      38.881  33.299  34.641  1.00  0.00     0.049 A 
ATOM     50  H   UNL A   1      39.422  31.907  33.190  1.00  0.00     0.167 HD
ATOM     51  C   UNL A   1      40.354  28.930  30.130  1.00  0.00     0.037 A 
ATOM     52  C   UNL A   1      39.682  33.097  35.706  1.00  0.00     0.037 A 
ATOM     53  C   UNL A   1      41.320  28.710  31.176  1.00  0.00     0.049 A 
ATOM     54  C   UNL A   1      40.719  32.007  35.651  1.00  0.00     0.074 A 
ATOM     55  C   UNL A   1      42.367  27.805  31.205  1.00  0.00     0.029 A 
ATOM     56  N   UNL A   1      41.352  29.394  32.382  1.00  0.00    -0.354 N 
ATOM     57  N   UNL A   1      40.996  31.174  34.677  1.00  0.00    -0.248 NA
ATOM     58  C   UNL A   1      41.560  31.832  36.844  1.00  0.00     0.031 C 
ATOM     59  C   UNL A   1      42.993  27.898  32.451  1.00  0.00     0.029 A 
ATOM     60  C   UNL A   1      42.382  28.908  33.174  1.00  0.00     0.049 A 
ATOM     61  H   UNL A   1      40.736  30.119  32.637  1.00  0.00     0.167 HD
ATOM     62  C   UNL A   1      42.062  30.404  35.124  1.00  0.00     0.074 A 
ATOM     63  C   UNL A   1      42.391  30.878  36.451  1.00  0.00     0.031 C 
ATOM     64  C   UNL A   1      42.709  29.395  34.491  1.00  0.00     0.037 A 
BRANCH  51  65
ATOM     65  C   UNL A   1      40.404  28.036  28.923  1.00  0.00     0.064 A 
ATOM     66  C   UNL A   1      39.691  26.830  28.867  1.00  0.00     0.173 A 
ATOM     67  C   UNL A   1      41.136  28.417  27.787  1.00  0.00     0.173 A 
ATOM     68  F   UNL A   1      38.981  26.413  29.926  1.00  0.00    -0.203 F 
ATOM     69  C   UNL A   1      39.734  26.021  27.733  1.00  0.00     0.198 A 
ATOM     70  C   UNL A   1      41.149  27.624  26.643  1.00  0.00     0.198 A 
ATOM     71  F   UNL A   1      41.829  29.565  27.782  1.00  0.00    -0.203 F 
ATOM     72  F   UNL A   1      39.086  24.849  27.723  1.00  0.00    -0.200 F 
ATOM     73  C   UNL A   1      40.456  26.424  26.619  1.00  0.00     0.200 A 
ATOM     74  F   UNL A   1      41.832  28.023  25.560  1.00  0.00    -0.200 F 
ATOM     75  F   UNL A   1      40.486  25.652  25.524  1.00  0.00    -0.200 F 
ENDBRANCH  51  65
BRANCH  52  76
ATOM     76  C   UNL A   1      39.552  33.958  36.914  1.00  0.00     0.064 A 
ATOM     77  C   UNL A   1      38.777  33.549  38.009  1.00  0.00     0.173 A 
ATOM     78  C   UNL A   1      40.178  35.210  36.992  1.00  0.00     0.173 A 
ATOM     79  F   UNL A   1      38.139  32.370  37.974  1.00  0.00    -0.203 F 
ATOM     80  C   UNL A   1      38.609  34.371  39.121  1.00  0.00     0.198 A 
ATOM     81  C   UNL A   1      40.038  36.017  38.119  1.00  0.00     0.198 A 
ATOM     82  F   UNL A   1      40.935  35.648  35.975  1.00  0.00    -0.203 F 
ATOM     83  F   UNL A   1      37.816  33.980  40.127  1.00  0.00    -0.200 F 
ATOM     84  C   UNL A   1      39.245  35.602  39.178  1.00  0.00     0.200 A 
ATOM     85  F   UNL A   1      40.668  37.198  38.177  1.00  0.00    -0.200 F 
ATOM     86  F   UNL A   1      39.085  36.392  40.248  1.00  0.00    -0.200 F 
ENDBRANCH  52  76
BRANCH  64  87
ATOM     87  C   UNL A   1      43.871  28.763  35.203  1.00  0.00     0.064 A 
ATOM     88  C   UNL A   1      43.705  27.673  36.071  1.00  0.00     0.173 A 
ATOM     89  C   UNL A   1      45.176  29.232  34.983  1.00  0.00     0.173 A 
ATOM     90  F   UNL A   1      42.479  27.196  36.328  1.00  0.00    -0.203 F 
ATOM     91  C   UNL A   1      44.798  27.097  36.715  1.00  0.00     0.198 A 
ATOM     92  C   UNL A   1      46.270  28.630  35.599  1.00  0.00     0.198 A 
ATOM     93  F   UNL A   1      45.393  30.266  34.156  1.00  0.00    -0.203 F 
ATOM     94  F   UNL A   1      44.610  26.094  37.582  1.00  0.00    -0.200 F 
ATOM     95  C   UNL A   1      46.080  27.570  36.472  1.00  0.00     0.200 A 
ATOM     96  F   UNL A   1      47.508  29.078  35.349  1.00  0.00    -0.200 F 
ATOM     97  F   UNL A   1      47.131  27.009  37.085  1.00  0.00    -0.200 F 
ENDBRANCH  64  87
ENDBRANCH  38  39
ENDBRANCH  30  33
ENDBRANCH  28  29
ENDBRANCH  27  28
ENDBRANCH   1  27
TORSDOF 14
ENDMDL
MODEL 2
REMARK VINA RESULT:     -13.4      0.159      1.575
REMARK SMILES O=C(COc1ccccc1/C=C1\C(=O)Nc2ccccc21)NCCCCNC(=O)c1ccc(-c2c3nc(c(-c4c(F)c(F)c(F)c(F)c4F)c4ccc([nH]4)c(-c4c(F)c(F)c(F)c(F)c4F)c4nc(c(-c5c(F)c(F)c(F)c(F)c5F)c5ccc2[nH]5)C=C4)C=C3)cc1
REMARK SMILES IDX 24 1 23 2 22 3 1 4 2 5 3 7 4 8 5 9 6 10 10 11 7 12 9 13 8 14
REMARK SMILES IDX 11 15 12 16 13 17 21 18 14 19 15 20 16 21 20 22 17 24 19 25
REMARK SMILES IDX 18 26 25 27 26 28 27 29 28 30 29 32 30 33 31 34 92 35 32 36
REMARK SMILES IDX 91 37 33 38 34 39 35 40 85 41 36 42 90 43 84 44 86 45 37 46
REMARK SMILES IDX 89 47 83 48 82 49 38 51 70 52 50 53 69 54 51 55 54 56 68 57
REMARK SMILES IDX 87 58 52 59 53 60 67 62 88 63 55 64 39 65 40 66 48 67 41 68
REMARK SMILES IDX 42 69 46 70 49 71 43 72 44 73 47 74 45 75 71 76 72 77 80 78
REMARK SMILES IDX 73 79 74 80 78 81 81 82 75 83 76 84 79 85 77 86 56 87 57 88
REMARK SMILES IDX 65 89 58 90 59 91 63 92 66 93 60 94 61 95 64 96 62 97
REMARK H PARENT 22 6 15 23 27 31 86 50 54 61
REMARK Flexibility Score: inf
ROOT
ATOM      1  C   UNL A   1      31.665  30.762  25.899  1.00  0.00     0.023 C 
ENDROOT
BRANCH   1   2
ATOM      2  C   UNL A   1      31.794  29.582  26.845  1.00  0.00     0.116 C 
BRANCH   2   3
ATOM      3  N   UNL A   1      32.034  28.305  26.228  1.00  0.00    -0.353 N 
ATOM      4  O   UNL A   1      34.336  28.470  26.135  1.00  0.00    -0.271 OA
ATOM      5  C   UNL A   1      33.320  27.785  26.149  1.00  0.00     0.257 C 
ATOM      6  H   UNL A   1      31.279  27.794  25.859  1.00  0.00     0.163 HD
BRANCH   5   7
ATOM      7  C   UNL A   1      33.340  26.263  26.117  1.00  0.00     0.329 C 
BRANCH   7   8
ATOM      8  O   UNL A   1      31.959  25.873  26.137  1.00  0.00    -0.483 OA
BRANCH   8   9
ATOM      9  C   UNL A   1      31.695  24.744  25.405  1.00  0.00     0.127 A 
ATOM     10  C   UNL A   1      32.457  23.605  25.706  1.00  0.00     0.047 A 
ATOM     11  C   UNL A   1      30.852  24.789  24.274  1.00  0.00     0.017 A 
ATOM     12  C   UNL A   1      32.427  22.503  24.857  1.00  0.00     0.004 A 
ATOM     13  C   UNL A   1      30.945  23.713  23.380  1.00  0.00     0.012 A 
ATOM     14  C   UNL A   1      31.697  22.572  23.677  1.00  0.00     0.001 A 
BRANCH  11  15
ATOM     15  C   UNL A   1      29.937  25.928  23.983  1.00  0.00     0.026 C 
ATOM     16  C   UNL A   1      30.212  27.081  23.330  1.00  0.00     0.050 C 
ATOM     17  C   UNL A   1      31.547  27.503  22.738  1.00  0.00     0.256 C 
ATOM     18  C   UNL A   1      29.283  28.203  23.036  1.00  0.00     0.011 A 
ATOM     19  O   UNL A   1      32.595  26.885  22.658  1.00  0.00    -0.269 OA
ATOM     20  N   UNL A   1      31.359  28.785  22.265  1.00  0.00    -0.321 N 
ATOM     21  C   UNL A   1      30.043  29.192  22.401  1.00  0.00     0.049 A 
ATOM     22  C   UNL A   1      27.931  28.437  23.218  1.00  0.00     0.011 A 
ATOM     23  H   UNL A   1      32.072  29.343  21.879  1.00  0.00     0.170 HD
ATOM     24  C   UNL A   1      29.521  30.388  21.943  1.00  0.00     0.027 A 
ATOM     25  C   UNL A   1      27.362  29.624  22.728  1.00  0.00     0.001 A 
ATOM     26  C   UNL A   1      28.153  30.596  22.099  1.00  0.00     0.002 A 
ENDBRANCH  11  15
ENDBRANCH   8   9
ENDBRANCH   7   8
ENDBRANCH   5   7
ENDBRANCH   2   3
ENDBRANCH   1   2
BRANCH   1  27
ATOM     27  C   UNL A   1      31.380  32.105  26.571  1.00  0.00     0.023 C 
BRANCH  27  28
ATOM     28  C   UNL A   1      32.565  32.778  27.265  1.00  0.00     0.116 C 
BRANCH  28  29
ATOM     29  N   UNL A   1      32.320  34.172  27.608  1.00  0.00    -0.352 N 
ATOM     30  C   UNL A   1      32.937  34.976  28.538  1.00  0.00     0.251 C 
ATOM     31  H   UNL A   1      31.602  34.606  27.093  1.00  0.00     0.163 HD
ATOM     32  O   UNL A   1      32.485  36.092  28.776  1.00  0.00    -0.269 OA
BRANCH  30  33
ATOM     33  C   UNL A   1      34.123  34.494  29.282  1.00  0.00     0.039 A 
ATOM     34  C   UNL A   1      33.940  33.909  30.538  1.00  0.00     0.014 A 
ATOM     35  C   UNL A   1      35.410  34.618  28.754  1.00  0.00     0.014 A 
ATOM     36  C   UNL A   1      35.033  33.371  31.223  1.00  0.00     0.010 A 
ATOM     37  C   UNL A   1      36.486  34.010  29.398  1.00  0.00     0.010 A 
ATOM     38  C   UNL A   1      36.310  33.373  30.637  1.00  0.00    -0.014 A 
BRANCH  38  39
ATOM     39  C   UNL A   1      37.464  32.700  31.295  1.00  0.00     0.031 A 
ATOM     40  C   UNL A   1      38.165  31.553  30.621  1.00  0.00     0.074 A 
ATOM     41  C   UNL A   1      37.841  33.082  32.532  1.00  0.00     0.049 A 
ATOM     42  N   UNL A   1      39.145  30.804  31.065  1.00  0.00    -0.248 NA
ATOM     43  C   UNL A   1      37.688  31.181  29.281  1.00  0.00     0.031 C 
ATOM     44  C   UNL A   1      37.218  34.150  33.315  1.00  0.00     0.029 A 
ATOM     45  N   UNL A   1      38.834  32.606  33.355  1.00  0.00    -0.354 N 
ATOM     46  C   UNL A   1      39.389  29.869  30.068  1.00  0.00     0.074 A 
ATOM     47  C   UNL A   1      38.421  30.108  29.019  1.00  0.00     0.031 C 
ATOM     48  C   UNL A   1      37.857  34.268  34.489  1.00  0.00     0.029 A 
ATOM     49  C   UNL A   1      38.905  33.254  34.565  1.00  0.00     0.049 A 
ATOM     50  H   UNL A   1      39.437  31.871  33.102  1.00  0.00     0.167 HD
ATOM     51  C   UNL A   1      40.346  28.911  30.020  1.00  0.00     0.037 A 
ATOM     52  C   UNL A   1      39.716  33.049  35.622  1.00  0.00     0.037 A 
ATOM     53  C   UNL A   1      41.321  28.686  31.056  1.00  0.00     0.049 A 
ATOM     54  C   UNL A   1      40.753  31.960  35.553  1.00  0.00     0.074 A 
ATOM     55  C   UNL A   1      42.369  27.782  31.072  1.00  0.00     0.029 A 
ATOM     56  N   UNL A   1      41.363  29.365  32.266  1.00  0.00    -0.354 N 
ATOM     57  N   UNL A   1      41.024  31.133  34.572  1.00  0.00    -0.248 NA
ATOM     58  C   UNL A   1      41.604  31.780  36.738  1.00  0.00     0.031 C 
ATOM     59  C   UNL A   1      43.006  27.870  32.314  1.00  0.00     0.029 A 
ATOM     60  C   UNL A   1      42.399  28.876  33.047  1.00  0.00     0.049 A 
ATOM     61  H   UNL A   1      40.747  30.087  32.529  1.00  0.00     0.167 HD
ATOM     62  C   UNL A   1      42.094  30.361  35.007  1.00  0.00     0.074 A 
ATOM     63  C   UNL A   1      42.434  30.829  36.333  1.00  0.00     0.031 C 
ATOM     64  C   UNL A   1      42.737  29.357  34.363  1.00  0.00     0.037 A 
BRANCH  51  65
ATOM     65  C   UNL A   1      40.387  28.023  28.807  1.00  0.00     0.064 A 
ATOM     66  C   UNL A   1      41.143  28.356  27.673  1.00  0.00     0.173 A 
ATOM     67  C   UNL A   1      39.701  26.798  28.800  1.00  0.00     0.173 A 
ATOM     68  F   UNL A   1      41.812  29.518  27.623  1.00  0.00    -0.203 F 
ATOM     69  C   UNL A   1      41.184  27.513  26.565  1.00  0.00     0.198 A 
ATOM     70  C   UNL A   1      39.773  25.942  27.705  1.00  0.00     0.198 A 
ATOM     71  F   UNL A   1      38.971  26.425  29.861  1.00  0.00    -0.203 F 
ATOM     72  F   UNL A   1      41.871  27.877  25.474  1.00  0.00    -0.200 F 
ATOM     73  C   UNL A   1      40.506  26.303  26.586  1.00  0.00     0.200 A 
ATOM     74  F   UNL A   1      39.132  24.765  27.733  1.00  0.00    -0.200 F 
ATOM     75  F   UNL A   1      40.557  25.487  25.523  1.00  0.00    -0.200 F 
ENDBRANCH  51  65
BRANCH  52  76
ATOM     76  C   UNL A   1      39.595  33.903  36.836  1.00  0.00     0.064 A 
ATOM     77  C   UNL A   1      38.813  33.497  37.926  1.00  0.00     0.173 A 
ATOM     78  C   UNL A   1      40.237  35.146  36.923  1.00  0.00     0.173 A 
ATOM     79  F   UNL A   1      38.160  32.326  37.883  1.00  0.00    -0.203 F 
ATOM     80  C   UNL A   1      38.654  34.314  39.044  1.00  0.00     0.198 A 
ATOM     81  C   UNL A   1      40.105  35.948  38.055  1.00  0.00     0.198 A 
ATOM     82  F   UNL A   1      41.001  35.582  35.909  1.00  0.00    -0.203 F 
ATOM     83  F   UNL A   1      37.854  33.926  40.046  1.00  0.00    -0.200 F 
ATOM     84  C   UNL A   1      39.305  35.537  39.110  1.00  0.00     0.200 A 
ATOM     85  F   UNL A   1      40.750  37.121  38.121  1.00  0.00    -0.200 F 
ATOM     86  F   UNL A   1      39.154  36.321  40.184  1.00  0.00    -0.200 F 
ENDBRANCH  52  76
BRANCH  64  87
ATOM     87  C   UNL A   1      43.905  28.722  35.062  1.00  0.00     0.064 A 
ATOM     88  C   UNL A   1      45.217  29.187  34.887  1.00  0.00     0.173 A 
ATOM     89  C   UNL A   1      43.703  27.653  35.951  1.00  0.00     0.173 A 
ATOM     90  F   UNL A   1      45.468  30.194  34.038  1.00  0.00    -0.203 F 
ATOM     91  C   UNL A   1      46.284  28.587  35.552  1.00  0.00     0.198 A 
ATOM     92  C   UNL A   1      44.767  27.081  36.642  1.00  0.00     0.198 A 
ATOM     93  F   UNL A   1      42.468  27.173  36.162  1.00  0.00    -0.203 F 
ATOM     94  F   UNL A   1      47.535  29.013  35.327  1.00  0.00    -0.200 F 
ATOM     95  C   UNL A   1      46.058  27.542  36.435  1.00  0.00     0.200 A 
ATOM     96  F   UNL A   1      44.543  26.082  37.507  1.00  0.00    -0.200 F 
ATOM     97  F   UNL A   1      47.085  26.972  37.081  1.00  0.00    -0.200 F 
ENDBRANCH  64  87
ENDBRANCH  38  39
ENDBRANCH  30  33
ENDBRANCH  28  29
ENDBRANCH  27  28
ENDBRANCH   1  27
TORSDOF 14
ENDMDL
MODEL 3
REMARK VINA RESULT:     -13.4      0.586      7.292
REMARK SMILES O=C(COc1ccccc1/C=C1\C(=O)Nc2ccccc21)NCCCCNC(=O)c1ccc(-c2c3nc(c(-c4c(F)c(F)c(F)c(F)c4F)c4ccc([nH]4)c(-c4c(F)c(F)c(F)c(F)c4F)c4nc(c(-c5c(F)c(F)c(F)c(F)c5F)c5ccc2[nH]5)C=C4)C=C3)cc1
REMARK SMILES IDX 24 1 23 2 22 3 1 4 2 5 3 7 4 8 5 9 6 10 10 11 7 12 9 13 8 14
REMARK SMILES IDX 11 15 12 16 13 17 21 18 14 19 15 20 16 21 20 22 17 24 19 25
REMARK SMILES IDX 18 26 25 27 26 28 27 29 28 30 29 32 30 33 31 34 92 35 32 36
REMARK SMILES IDX 91 37 33 38 34 39 35 40 85 41 36 42 90 43 84 44 86 45 37 46
REMARK SMILES IDX 89 47 83 48 82 49 38 51 70 52 50 53 69 54 51 55 54 56 68 57
REMARK SMILES IDX 87 58 52 59 53 60 67 62 88 63 55 64 39 65 40 66 48 67 41 68
REMARK SMILES IDX 42 69 46 70 49 71 43 72 44 73 47 74 45 75 71 76 72 77 80 78
REMARK SMILES IDX 73 79 74 80 78 81 81 82 75 83 76 84 79 85 77 86 56 87 57 88
REMARK SMILES IDX 65 89 58 90 59 91 63 92 66 93 60 94 61 95 64 96 62 97
REMARK H PARENT 22 6 15 23 27 31 86 50 54 61
REMARK Flexibility Score: inf
ROOT
ATOM      1  C   UNL A   1      31.403  30.825  25.935  1.00  0.00     0.023 C 
ENDROOT
BRANCH   1   2
ATOM      2  C   UNL A   1      31.857  29.777  26.934  1.00  0.00     0.116 C 
BRANCH   2   3
ATOM      3  N   UNL A   1      31.928  28.428  26.440  1.00  0.00    -0.353 N 
ATOM      4  O   UNL A   1      34.031  28.587  25.497  1.00  0.00    -0.271 OA
ATOM      5  C   UNL A   1      33.126  27.907  25.966  1.00  0.00     0.257 C 
ATOM      6  H   UNL A   1      31.119  27.867  26.438  1.00  0.00     0.163 HD
BRANCH   5   7
ATOM      7  C   UNL A   1      33.215  26.395  26.123  1.00  0.00     0.329 C 
BRANCH   7   8
ATOM      8  O   UNL A   1      31.855  25.954  26.241  1.00  0.00    -0.483 OA
BRANCH   8   9
ATOM      9  C   UNL A   1      31.576  24.828  25.509  1.00  0.00     0.127 A 
ATOM     10  C   UNL A   1      32.311  23.674  25.820  1.00  0.00     0.047 A 
ATOM     11  C   UNL A   1      30.746  24.887  24.368  1.00  0.00     0.017 A 
ATOM     12  C   UNL A   1      32.267  22.571  24.974  1.00  0.00     0.004 A 
ATOM     13  C   UNL A   1      30.827  23.807  23.478  1.00  0.00     0.012 A 
ATOM     14  C   UNL A   1      31.553  22.652  23.786  1.00  0.00     0.001 A 
BRANCH  11  15
ATOM     15  C   UNL A   1      29.858  26.044  24.064  1.00  0.00     0.026 C 
ATOM     16  C   UNL A   1      30.150  27.168  23.369  1.00  0.00     0.050 C 
ATOM     17  C   UNL A   1      31.482  27.531  22.732  1.00  0.00     0.256 C 
ATOM     18  C   UNL A   1      29.247  28.308  23.063  1.00  0.00     0.011 A 
ATOM     19  O   UNL A   1      32.508  26.879  22.645  1.00  0.00    -0.269 OA
ATOM     20  N   UNL A   1      31.319  28.803  22.224  1.00  0.00    -0.321 N 
ATOM     21  C   UNL A   1      30.019  29.253  22.379  1.00  0.00     0.049 A 
ATOM     22  C   UNL A   1      27.908  28.588  23.272  1.00  0.00     0.011 A 
ATOM     23  H   UNL A   1      32.038  29.327  21.803  1.00  0.00     0.170 HD
ATOM     24  C   UNL A   1      29.521  30.451  21.897  1.00  0.00     0.027 A 
ATOM     25  C   UNL A   1      27.362  29.776  22.759  1.00  0.00     0.001 A 
ATOM     26  C   UNL A   1      28.165  30.704  22.080  1.00  0.00     0.002 A 
ENDBRANCH  11  15
ENDBRANCH   8   9
ENDBRANCH   7   8
ENDBRANCH   5   7
ENDBRANCH   2   3
ENDBRANCH   1   2
BRANCH   1  27
ATOM     27  C   UNL A   1      31.249  32.237  26.501  1.00  0.00     0.023 C 
BRANCH  27  28
ATOM     28  C   UNL A   1      32.479  32.826  27.193  1.00  0.00     0.116 C 
BRANCH  28  29
ATOM     29  N   UNL A   1      32.298  34.205  27.623  1.00  0.00    -0.352 N 
ATOM     30  C   UNL A   1      32.956  34.923  28.594  1.00  0.00     0.251 C 
ATOM     31  H   UNL A   1      31.595  34.700  27.144  1.00  0.00     0.163 HD
ATOM     32  O   UNL A   1      32.555  36.041  28.906  1.00  0.00    -0.269 OA
BRANCH  30  33
ATOM     33  C   UNL A   1      34.127  34.346  29.294  1.00  0.00     0.039 A 
ATOM     34  C   UNL A   1      33.924  33.662  30.497  1.00  0.00     0.014 A 
ATOM     35  C   UNL A   1      35.418  34.476  28.778  1.00  0.00     0.014 A 
ATOM     36  C   UNL A   1      35.000  33.037  31.133  1.00  0.00     0.010 A 
ATOM     37  C   UNL A   1      36.475  33.785  29.369  1.00  0.00     0.010 A 
ATOM     38  C   UNL A   1      36.278  33.051  30.549  1.00  0.00    -0.014 A 
BRANCH  38  39
ATOM     39  C   UNL A   1      37.410  32.292  31.148  1.00  0.00     0.031 A 
ATOM     40  C   UNL A   1      37.916  32.632  32.523  1.00  0.00     0.074 A 
ATOM     41  C   UNL A   1      38.027  31.335  30.425  1.00  0.00     0.049 A 
ATOM     42  N   UNL A   1      38.929  32.126  33.182  1.00  0.00    -0.248 NA
ATOM     43  C   UNL A   1      37.206  33.699  33.244  1.00  0.00     0.031 C 
ATOM     44  C   UNL A   1      37.664  30.936  29.065  1.00  0.00     0.029 A 
ATOM     45  N   UNL A   1      39.097  30.529  30.731  1.00  0.00    -0.354 N 
ATOM     46  C   UNL A   1      38.985  32.820  34.384  1.00  0.00     0.074 A 
ATOM     47  C   UNL A   1      37.939  33.820  34.341  1.00  0.00     0.031 C 
ATOM     48  C   UNL A   1      38.476  29.946  28.663  1.00  0.00     0.029 A 
ATOM     49  C   UNL A   1      39.448  29.669  29.717  1.00  0.00     0.049 A 
ATOM     50  H   UNL A   1      39.568  30.563  31.594  1.00  0.00     0.167 HD
ATOM     51  C   UNL A   1      39.817  32.629  35.436  1.00  0.00     0.037 A 
ATOM     52  C   UNL A   1      40.447  28.768  29.640  1.00  0.00     0.037 A 
ATOM     53  C   UNL A   1      40.846  31.621  35.484  1.00  0.00     0.049 A 
ATOM     54  C   UNL A   1      41.374  28.594  30.813  1.00  0.00     0.074 A 
ATOM     55  C   UNL A   1      41.697  31.309  36.529  1.00  0.00     0.029 A 
ATOM     56  N   UNL A   1      41.168  30.769  34.438  1.00  0.00    -0.354 N 
ATOM     57  N   UNL A   1      41.367  29.204  31.973  1.00  0.00    -0.248 NA
ATOM     58  C   UNL A   1      42.447  27.600  30.667  1.00  0.00     0.031 C 
ATOM     59  C   UNL A   1      42.576  30.311  36.095  1.00  0.00     0.029 A 
ATOM     60  C   UNL A   1      42.228  29.953  34.803  1.00  0.00     0.049 A 
ATOM     61  H   UNL A   1      40.711  30.746  33.565  1.00  0.00     0.167 HD
ATOM     62  C   UNL A   1      42.406  28.645  32.705  1.00  0.00     0.074 A 
ATOM     63  C   UNL A   1      43.013  27.636  31.865  1.00  0.00     0.031 C 
ATOM     64  C   UNL A   1      42.819  28.942  33.962  1.00  0.00     0.037 A 
BRANCH  51  65
ATOM     65  C   UNL A   1      39.658  33.533  36.627  1.00  0.00     0.064 A 
ATOM     66  C   UNL A   1      40.286  34.785  36.693  1.00  0.00     0.173 A 
ATOM     67  C   UNL A   1      38.826  33.160  37.694  1.00  0.00     0.173 A 
ATOM     68  F   UNL A   1      41.098  35.188  35.704  1.00  0.00    -0.203 F 
ATOM     69  C   UNL A   1      40.114  35.618  37.796  1.00  0.00     0.198 A 
ATOM     70  C   UNL A   1      38.628  34.010  38.780  1.00  0.00     0.198 A 
ATOM     71  F   UNL A   1      38.193  31.978  37.680  1.00  0.00    -0.203 F 
ATOM     72  F   UNL A   1      40.765  36.787  37.859  1.00  0.00    -0.200 F 
ATOM     73  C   UNL A   1      39.277  35.233  38.834  1.00  0.00     0.200 A 
ATOM     74  F   UNL A   1      37.806  33.645  39.774  1.00  0.00    -0.200 F 
ATOM     75  F   UNL A   1      39.102  36.041  39.890  1.00  0.00    -0.200 F 
ENDBRANCH  51  65
BRANCH  52  76
ATOM     76  C   UNL A   1      40.616  27.942  28.412  1.00  0.00     0.064 A 
ATOM     77  C   UNL A   1      40.020  26.677  28.307  1.00  0.00     0.173 A 
ATOM     78  C   UNL A   1      41.392  28.387  27.332  1.00  0.00     0.173 A 
ATOM     79  F   UNL A   1      39.287  26.196  29.322  1.00  0.00    -0.203 F 
ATOM     80  C   UNL A   1      40.217  25.878  27.183  1.00  0.00     0.198 A 
ATOM     81  C   UNL A   1      41.560  27.602  26.194  1.00  0.00     0.198 A 
ATOM     82  F   UNL A   1      41.981  29.592  27.378  1.00  0.00    -0.203 F 
ATOM     83  F   UNL A   1      39.683  24.651  27.134  1.00  0.00    -0.200 F 
ATOM     84  C   UNL A   1      40.982  26.344  26.124  1.00  0.00     0.200 A 
ATOM     85  F   UNL A   1      42.286  28.063  25.166  1.00  0.00    -0.200 F 
ATOM     86  F   UNL A   1      41.170  25.577  25.042  1.00  0.00    -0.200 F 
ENDBRANCH  52  76
BRANCH  64  87
ATOM     87  C   UNL A   1      43.954  28.136  34.527  1.00  0.00     0.064 A 
ATOM     88  C   UNL A   1      45.285  28.569  34.445  1.00  0.00     0.173 A 
ATOM     89  C   UNL A   1      43.699  26.926  35.194  1.00  0.00     0.173 A 
ATOM     90  F   UNL A   1      45.586  29.709  33.805  1.00  0.00    -0.203 F 
ATOM     91  C   UNL A   1      46.321  27.809  34.983  1.00  0.00     0.198 A 
ATOM     92  C   UNL A   1      44.732  26.187  35.764  1.00  0.00     0.198 A 
ATOM     93  F   UNL A   1      42.443  26.468  35.309  1.00  0.00    -0.203 F 
ATOM     94  F   UNL A   1      47.590  28.215  34.844  1.00  0.00    -0.200 F 
ATOM     95  C   UNL A   1      46.043  26.624  35.649  1.00  0.00     0.200 A 
ATOM     96  F   UNL A   1      44.460  25.052  36.421  1.00  0.00    -0.200 F 
ATOM     97  F   UNL A   1      47.040  25.898  36.174  1.00  0.00    -0.200 F 
ENDBRANCH  64  87
ENDBRANCH  38  39
ENDBRANCH  30  33
ENDBRANCH  28  29
ENDBRANCH  27  28
ENDBRANCH   1  27
TORSDOF 14
ENDMDL
