MODEL 1
REMARK VINA RESULT:     -11.3      0.000      0.000
REMARK SMILES CCOC[C@@H](O)C[C@]1(C(=O)NCCCCNC(=O)c2ccc(-c3c4nc(c(-c5c(F)c(F)c(F)c(F)c5F)c5ccc([nH]5)c(-c5c(F)c(F)c(F)c(F)c5F)c5nc(c(-c6c(F)c(F)c(F)c(F)c6F)c6ccc3[nH]6)C=C5)C=C4)cc2)CCc2ccccc21
REMARK SMILES IDX 12 1 11 2 9 3 10 4 8 6 82 7 89 8 83 9 84 10 88 11 85 12
REMARK SMILES IDX 87 13 86 14 7 15 5 16 4 17 3 18 2 19 1 20 6 21 13 23 14 24
REMARK SMILES IDX 15 25 16 26 17 27 18 29 19 30 20 31 81 32 21 33 80 34 22 35
REMARK SMILES IDX 23 36 24 37 74 38 25 39 79 40 73 41 75 42 26 43 78 44 72 45
REMARK SMILES IDX 71 46 27 48 59 49 39 50 58 51 40 52 43 53 57 54 76 55 41 56
REMARK SMILES IDX 42 57 56 59 77 60 44 61 28 62 29 63 37 64 30 65 31 66 35 67
REMARK SMILES IDX 38 68 32 69 33 70 36 71 34 72 60 73 61 74 69 75 62 76 63 77
REMARK SMILES IDX 67 78 70 79 64 80 65 81 68 82 66 83 45 84 46 85 54 86 47 87
REMARK SMILES IDX 48 88 52 89 55 90 49 91 50 92 53 93 51 94
REMARK H PARENT 11 5 6 22 16 28 75 47 43 58
REMARK Flexibility Score: inf
ROOT
ATOM      1  C   UNL A   1      33.233  24.694  23.937  1.00  0.00     0.116 C 
ENDROOT
BRANCH   1   2
ATOM      2  N   UNL A   1      33.595  25.577  22.854  1.00  0.00    -0.355 N 
ATOM      3  C   UNL A   1      33.195  26.835  22.539  1.00  0.00     0.230 C 
ATOM      4  O   UNL A   1      33.874  27.377  21.658  1.00  0.00    -0.274 OA
ATOM      5  H   UNL A   1      34.253  25.195  22.229  1.00  0.00     0.163 HD
BRANCH   3   6
ATOM      6  C   UNL A   1      32.030  27.594  23.237  1.00  0.00     0.077 C 
ATOM      7  C   UNL A   1      30.726  26.781  23.488  1.00  0.00     0.026 C 
ATOM      8  C   UNL A   1      32.423  27.962  24.662  1.00  0.00    -0.029 A 
ATOM      9  C   UNL A   1      30.535  26.518  24.988  1.00  0.00     0.037 C 
ATOM     10  C   UNL A   1      31.603  27.347  25.614  1.00  0.00    -0.044 A 
ATOM     11  C   UNL A   1      33.508  28.731  25.069  1.00  0.00     0.005 A 
ATOM     12  C   UNL A   1      31.869  27.449  26.971  1.00  0.00     0.004 A 
ATOM     13  C   UNL A   1      33.775  28.851  26.436  1.00  0.00     0.000 A 
ATOM     14  C   UNL A   1      32.967  28.205  27.380  1.00  0.00     0.000 A 
BRANCH   6  15
ATOM     15  C   UNL A   1      31.701  28.883  22.417  1.00  0.00     0.056 C 
BRANCH  15  16
ATOM     16  C   UNL A   1      30.219  29.313  22.248  1.00  0.00     0.141 C 
BRANCH  16  17
ATOM     17  C   UNL A   1      29.621  30.101  23.426  1.00  0.00     0.191 C 
BRANCH  17  18
ATOM     18  O   UNL A   1      28.206  30.306  23.367  1.00  0.00    -0.379 OA
BRANCH  18  19
ATOM     19  C   UNL A   1      27.734  31.641  23.516  1.00  0.00     0.157 C 
ATOM     20  C   UNL A   1      28.582  32.689  22.814  1.00  0.00     0.035 C 
ENDBRANCH  18  19
ENDBRANCH  17  18
ENDBRANCH  16  17
BRANCH  16  21
ATOM     21  O   UNL A   1      30.194  30.129  21.063  1.00  0.00    -0.391 OA
ATOM     22  H   UNL A   1      29.637  29.705  20.391  1.00  0.00     0.211 HD
ENDBRANCH  16  21
ENDBRANCH  15  16
ENDBRANCH   6  15
ENDBRANCH   3   6
ENDBRANCH   1   2
BRANCH   1  23
ATOM     23  C   UNL A   1      34.250  24.733  25.072  1.00  0.00     0.023 C 
BRANCH  23  24
ATOM     24  C   UNL A   1      35.424  23.772  24.896  1.00  0.00     0.023 C 
BRANCH  24  25
ATOM     25  C   UNL A   1      36.583  23.996  25.858  1.00  0.00     0.116 C 
BRANCH  25  26
ATOM     26  N   UNL A   1      37.552  22.911  25.857  1.00  0.00    -0.352 N 
ATOM     27  C   UNL A   1      38.860  22.936  26.278  1.00  0.00     0.251 C 
ATOM     28  H   UNL A   1      37.229  22.048  25.510  1.00  0.00     0.163 HD
ATOM     29  O   UNL A   1      39.587  21.968  26.120  1.00  0.00    -0.269 OA
BRANCH  27  30
ATOM     30  C   UNL A   1      39.382  24.171  26.894  1.00  0.00     0.039 A 
ATOM     31  C   UNL A   1      40.065  25.084  26.088  1.00  0.00     0.014 A 
ATOM     32  C   UNL A   1      39.165  24.439  28.248  1.00  0.00     0.014 A 
ATOM     33  C   UNL A   1      40.489  26.295  26.634  1.00  0.00     0.010 A 
ATOM     34  C   UNL A   1      39.516  25.678  28.769  1.00  0.00     0.010 A 
ATOM     35  C   UNL A   1      40.195  26.610  27.972  1.00  0.00    -0.014 A 
BRANCH  35  36
ATOM     36  C   UNL A   1      40.625  27.901  28.560  1.00  0.00     0.031 A 
ATOM     37  C   UNL A   1      42.068  28.114  28.921  1.00  0.00     0.074 A 
ATOM     38  C   UNL A   1      39.712  28.858  28.811  1.00  0.00     0.049 A 
ATOM     39  N   UNL A   1      42.641  29.159  29.464  1.00  0.00    -0.248 NA
ATOM     40  C   UNL A   1      42.987  26.993  28.665  1.00  0.00     0.031 C 
ATOM     41  C   UNL A   1      38.274  28.742  28.560  1.00  0.00     0.029 A 
ATOM     42  N   UNL A   1      39.857  30.118  29.333  1.00  0.00    -0.354 N 
ATOM     43  C   UNL A   1      43.977  28.814  29.625  1.00  0.00     0.074 A 
ATOM     44  C   UNL A   1      44.117  27.444  29.185  1.00  0.00     0.031 C 
ATOM     45  C   UNL A   1      37.675  29.895  28.899  1.00  0.00     0.029 A 
ATOM     46  C   UNL A   1      38.680  30.820  29.416  1.00  0.00     0.049 A 
ATOM     47  H   UNL A   1      40.724  30.484  29.622  1.00  0.00     0.167 HD
ATOM     48  C   UNL A   1      44.999  29.582  30.069  1.00  0.00     0.037 A 
ATOM     49  C   UNL A   1      38.444  32.070  29.853  1.00  0.00     0.037 A 
ATOM     50  C   UNL A   1      44.858  30.953  30.479  1.00  0.00     0.049 A 
ATOM     51  C   UNL A   1      39.603  32.910  30.323  1.00  0.00     0.074 A 
ATOM     52  C   UNL A   1      45.837  31.837  30.896  1.00  0.00     0.029 A 
ATOM     53  N   UNL A   1      43.654  31.642  30.518  1.00  0.00    -0.354 N 
ATOM     54  N   UNL A   1      40.873  32.600  30.401  1.00  0.00    -0.248 NA
ATOM     55  C   UNL A   1      39.292  34.281  30.749  1.00  0.00     0.031 C 
ATOM     56  C   UNL A   1      45.220  33.049  31.226  1.00  0.00     0.029 A 
ATOM     57  C   UNL A   1      43.864  32.936  30.964  1.00  0.00     0.049 A 
ATOM     58  H   UNL A   1      42.779  31.266  30.266  1.00  0.00     0.167 HD
ATOM     59  C   UNL A   1      41.519  33.743  30.851  1.00  0.00     0.074 A 
ATOM     60  C   UNL A   1      40.499  34.759  31.014  1.00  0.00     0.031 C 
ATOM     61  C   UNL A   1      42.836  33.936  31.107  1.00  0.00     0.037 A 
BRANCH  48  62
ATOM     62  C   UNL A   1      46.361  28.952  30.125  1.00  0.00     0.064 A 
ATOM     63  C   UNL A   1      46.832  28.319  31.286  1.00  0.00     0.173 A 
ATOM     64  C   UNL A   1      47.201  28.964  29.001  1.00  0.00     0.173 A 
ATOM     65  F   UNL A   1      46.077  28.293  32.394  1.00  0.00    -0.203 F 
ATOM     66  C   UNL A   1      48.103  27.754  31.331  1.00  0.00     0.198 A 
ATOM     67  C   UNL A   1      48.459  28.368  29.039  1.00  0.00     0.198 A 
ATOM     68  F   UNL A   1      46.800  29.552  27.864  1.00  0.00    -0.203 F 
ATOM     69  F   UNL A   1      48.552  27.207  32.468  1.00  0.00    -0.200 F 
ATOM     70  C   UNL A   1      48.913  27.771  30.204  1.00  0.00     0.200 A 
ATOM     71  F   UNL A   1      49.235  28.376  27.946  1.00  0.00    -0.200 F 
ATOM     72  F   UNL A   1      50.134  27.223  30.247  1.00  0.00    -0.200 F 
ENDBRANCH  48  62
BRANCH  49  73
ATOM     73  C   UNL A   1      37.065  32.622  29.822  1.00  0.00     0.064 A 
ATOM     74  C   UNL A   1      36.201  32.459  30.915  1.00  0.00     0.173 A 
ATOM     75  C   UNL A   1      36.579  33.313  28.704  1.00  0.00     0.173 A 
ATOM     76  F   UNL A   1      36.614  31.790  32.000  1.00  0.00    -0.203 F 
ATOM     77  C   UNL A   1      34.895  32.944  30.878  1.00  0.00     0.198 A 
ATOM     78  C   UNL A   1      35.281  33.822  28.680  1.00  0.00     0.198 A 
ATOM     79  F   UNL A   1      37.367  33.502  27.636  1.00  0.00    -0.203 F 
ATOM     80  F   UNL A   1      34.076  32.731  31.918  1.00  0.00    -0.200 F 
ATOM     81  C   UNL A   1      34.437  33.628  29.763  1.00  0.00     0.200 A 
ATOM     82  F   UNL A   1      34.848  34.497  27.606  1.00  0.00    -0.200 F 
ATOM     83  F   UNL A   1      33.182  34.095  29.729  1.00  0.00    -0.200 F 
ENDBRANCH  49  73
BRANCH  61  84
ATOM     84  C   UNL A   1      43.255  35.311  31.542  1.00  0.00     0.064 A 
ATOM     85  C   UNL A   1      43.673  36.284  30.622  1.00  0.00     0.173 A 
ATOM     86  C   UNL A   1      43.213  35.664  32.899  1.00  0.00     0.173 A 
ATOM     87  F   UNL A   1      43.742  35.991  29.315  1.00  0.00    -0.203 F 
ATOM     88  C   UNL A   1      44.065  37.549  31.049  1.00  0.00     0.198 A 
ATOM     89  C   UNL A   1      43.576  36.941  33.319  1.00  0.00     0.198 A 
ATOM     90  F   UNL A   1      42.813  34.774  33.820  1.00  0.00    -0.203 F 
ATOM     91  F   UNL A   1      44.515  38.444  30.158  1.00  0.00    -0.200 F 
ATOM     92  C   UNL A   1      44.011  37.878  32.395  1.00  0.00     0.200 A 
ATOM     93  F   UNL A   1      43.509  37.263  34.618  1.00  0.00    -0.200 F 
ATOM     94  F   UNL A   1      44.387  39.099  32.803  1.00  0.00    -0.200 F 
ENDBRANCH  61  84
ENDBRANCH  35  36
ENDBRANCH  27  30
ENDBRANCH  25  26
ENDBRANCH  24  25
ENDBRANCH  23  24
ENDBRANCH   1  23
TORSDOF 17
ENDMDL
MODEL 2
REMARK VINA RESULT:     -11.3      3.946      7.475
REMARK SMILES CCOC[C@@H](O)C[C@]1(C(=O)NCCCCNC(=O)c2ccc(-c3c4nc(c(-c5c(F)c(F)c(F)c(F)c5F)c5ccc([nH]5)c(-c5c(F)c(F)c(F)c(F)c5F)c5nc(c(-c6c(F)c(F)c(F)c(F)c6F)c6ccc3[nH]6)C=C5)C=C4)cc2)CCc2ccccc21
REMARK SMILES IDX 12 1 11 2 9 3 10 4 8 6 82 7 89 8 83 9 84 10 88 11 85 12
REMARK SMILES IDX 87 13 86 14 7 15 5 16 4 17 3 18 2 19 1 20 6 21 13 23 14 24
REMARK SMILES IDX 15 25 16 26 17 27 18 29 19 30 20 31 81 32 21 33 80 34 22 35
REMARK SMILES IDX 23 36 24 37 74 38 25 39 79 40 73 41 75 42 26 43 78 44 72 45
REMARK SMILES IDX 71 46 27 48 59 49 39 50 58 51 40 52 43 53 57 54 76 55 41 56
REMARK SMILES IDX 42 57 56 59 77 60 44 61 28 62 29 63 37 64 30 65 31 66 35 67
REMARK SMILES IDX 38 68 32 69 33 70 36 71 34 72 60 73 61 74 69 75 62 76 63 77
REMARK SMILES IDX 67 78 70 79 64 80 65 81 68 82 66 83 45 84 46 85 54 86 47 87
REMARK SMILES IDX 48 88 52 89 55 90 49 91 50 92 53 93 51 94
REMARK H PARENT 11 5 6 22 16 28 75 47 43 58
REMARK Flexibility Score: inf
ROOT
ATOM      1  C   UNL A   1      42.591  23.147  27.732  1.00  0.00     0.116 C 
ENDROOT
BRANCH   1   2
ATOM      2  N   UNL A   1      43.967  22.721  27.639  1.00  0.00    -0.355 N 
ATOM      3  C   UNL A   1      44.921  22.942  26.699  1.00  0.00     0.230 C 
ATOM      4  O   UNL A   1      46.061  22.605  27.046  1.00  0.00    -0.274 OA
ATOM      5  H   UNL A   1      44.268  22.169  28.397  1.00  0.00     0.163 HD
BRANCH   3   6
ATOM      6  C   UNL A   1      44.665  23.611  25.318  1.00  0.00     0.077 C 
ATOM      7  C   UNL A   1      43.285  24.306  25.131  1.00  0.00     0.026 C 
ATOM      8  C   UNL A   1      45.614  24.786  25.121  1.00  0.00    -0.029 A 
ATOM      9  C   UNL A   1      43.455  25.830  25.063  1.00  0.00     0.037 C 
ATOM     10  C   UNL A   1      44.933  26.002  25.002  1.00  0.00    -0.044 A 
ATOM     11  C   UNL A   1      47.004  24.764  25.139  1.00  0.00     0.005 A 
ATOM     12  C   UNL A   1      45.614  27.209  24.942  1.00  0.00     0.004 A 
ATOM     13  C   UNL A   1      47.699  25.974  25.065  1.00  0.00     0.000 A 
ATOM     14  C   UNL A   1      47.008  27.190  24.978  1.00  0.00     0.000 A 
BRANCH   6  15
ATOM     15  C   UNL A   1      44.879  22.548  24.192  1.00  0.00     0.056 C 
BRANCH  15  16
ATOM     16  C   UNL A   1      45.494  21.171  24.560  1.00  0.00     0.141 C 
BRANCH  16  17
ATOM     17  C   UNL A   1      44.903  19.962  23.814  1.00  0.00     0.191 C 
BRANCH  17  18
ATOM     18  O   UNL A   1      43.663  19.470  24.333  1.00  0.00    -0.379 OA
BRANCH  18  19
ATOM     19  C   UNL A   1      43.544  19.369  25.748  1.00  0.00     0.157 C 
ATOM     20  C   UNL A   1      42.679  18.213  26.225  1.00  0.00     0.035 C 
ENDBRANCH  18  19
ENDBRANCH  17  18
ENDBRANCH  16  17
BRANCH  16  21
ATOM     21  O   UNL A   1      46.894  21.287  24.251  1.00  0.00    -0.391 OA
ATOM     22  H   UNL A   1      47.373  21.595  25.036  1.00  0.00     0.211 HD
ENDBRANCH  16  21
ENDBRANCH  15  16
ENDBRANCH   6  15
ENDBRANCH   3   6
ENDBRANCH   1   2
BRANCH   1  23
ATOM     23  C   UNL A   1      41.735  22.152  28.507  1.00  0.00     0.023 C 
BRANCH  23  24
ATOM     24  C   UNL A   1      40.918  21.208  27.627  1.00  0.00     0.023 C 
BRANCH  24  25
ATOM     25  C   UNL A   1      40.736  21.671  26.188  1.00  0.00     0.116 C 
BRANCH  25  26
ATOM     26  N   UNL A   1      39.343  21.836  25.806  1.00  0.00    -0.352 N 
ATOM     27  C   UNL A   1      38.522  22.918  26.020  1.00  0.00     0.251 C 
ATOM     28  H   UNL A   1      38.935  21.075  25.332  1.00  0.00     0.163 HD
ATOM     29  O   UNL A   1      37.337  22.871  25.731  1.00  0.00    -0.269 OA
BRANCH  27  30
ATOM     30  C   UNL A   1      39.093  24.128  26.642  1.00  0.00     0.039 A 
ATOM     31  C   UNL A   1      39.801  25.024  25.840  1.00  0.00     0.014 A 
ATOM     32  C   UNL A   1      38.898  24.389  28.001  1.00  0.00     0.014 A 
ATOM     33  C   UNL A   1      40.273  26.214  26.393  1.00  0.00     0.010 A 
ATOM     34  C   UNL A   1      39.296  25.610  28.531  1.00  0.00     0.010 A 
ATOM     35  C   UNL A   1      40.001  26.526  27.736  1.00  0.00    -0.014 A 
BRANCH  35  36
ATOM     36  C   UNL A   1      40.481  27.795  28.333  1.00  0.00     0.031 A 
ATOM     37  C   UNL A   1      41.945  27.978  28.623  1.00  0.00     0.074 A 
ATOM     38  C   UNL A   1      39.598  28.759  28.654  1.00  0.00     0.049 A 
ATOM     39  N   UNL A   1      42.561  28.999  29.161  1.00  0.00    -0.248 NA
ATOM     40  C   UNL A   1      42.830  26.850  28.293  1.00  0.00     0.031 C 
ATOM     41  C   UNL A   1      38.147  28.670  28.475  1.00  0.00     0.029 A 
ATOM     42  N   UNL A   1      39.790  30.002  29.199  1.00  0.00    -0.354 N 
ATOM     43  C   UNL A   1      43.898  28.632  29.244  1.00  0.00     0.074 A 
ATOM     44  C   UNL A   1      43.994  27.271  28.764  1.00  0.00     0.031 C 
ATOM     45  C   UNL A   1      37.585  29.823  28.874  1.00  0.00     0.029 A 
ATOM     46  C   UNL A   1      38.630  30.719  29.360  1.00  0.00     0.049 A 
ATOM     47  H   UNL A   1      40.677  30.349  29.451  1.00  0.00     0.167 HD
ATOM     48  C   UNL A   1      44.954  29.373  29.653  1.00  0.00     0.037 A 
ATOM     49  C   UNL A   1      38.437  31.961  29.840  1.00  0.00     0.037 A 
ATOM     50  C   UNL A   1      44.856  30.735  30.103  1.00  0.00     0.049 A 
ATOM     51  C   UNL A   1      39.631  32.772  30.269  1.00  0.00     0.074 A 
ATOM     52  C   UNL A   1      45.869  31.593  30.490  1.00  0.00     0.029 A 
ATOM     53  N   UNL A   1      43.667  31.440  30.222  1.00  0.00    -0.354 N 
ATOM     54  N   UNL A   1      40.899  32.441  30.273  1.00  0.00    -0.248 NA
ATOM     55  C   UNL A   1      39.365  34.136  30.744  1.00  0.00     0.031 C 
ATOM     56  C   UNL A   1      45.289  32.805  30.882  1.00  0.00     0.029 A 
ATOM     57  C   UNL A   1      43.920  32.719  30.689  1.00  0.00     0.049 A 
ATOM     58  H   UNL A   1      42.774  31.084  30.006  1.00  0.00     0.167 HD
ATOM     59  C   UNL A   1      41.586  33.563  30.718  1.00  0.00     0.074 A 
ATOM     60  C   UNL A   1      40.592  34.589  30.958  1.00  0.00     0.031 C 
ATOM     61  C   UNL A   1      42.917  33.731  30.908  1.00  0.00     0.037 A 
BRANCH  48  62
ATOM     62  C   UNL A   1      46.307  28.722  29.622  1.00  0.00     0.064 A 
ATOM     63  C   UNL A   1      46.804  28.005  30.723  1.00  0.00     0.173 A 
ATOM     64  C   UNL A   1      47.111  28.798  28.476  1.00  0.00     0.173 A 
ATOM     65  F   UNL A   1      46.083  27.915  31.850  1.00  0.00    -0.203 F 
ATOM     66  C   UNL A   1      48.066  27.421  30.688  1.00  0.00     0.198 A 
ATOM     67  C   UNL A   1      48.360  28.183  28.432  1.00  0.00     0.198 A 
ATOM     68  F   UNL A   1      46.684  29.467  27.394  1.00  0.00    -0.203 F 
ATOM     69  F   UNL A   1      48.542  26.791  31.772  1.00  0.00    -0.200 F 
ATOM     70  C   UNL A   1      48.840  27.503  29.540  1.00  0.00     0.200 A 
ATOM     71  F   UNL A   1      49.102  28.254  27.318  1.00  0.00    -0.200 F 
ATOM     72  F   UNL A   1      50.054  26.936  29.507  1.00  0.00    -0.200 F 
ENDBRANCH  48  62
BRANCH  49  73
ATOM     73  C   UNL A   1      37.067  32.534  29.894  1.00  0.00     0.064 A 
ATOM     74  C   UNL A   1      36.548  33.259  28.811  1.00  0.00     0.173 A 
ATOM     75  C   UNL A   1      36.253  32.378  31.024  1.00  0.00     0.173 A 
ATOM     76  F   UNL A   1      37.296  33.451  27.715  1.00  0.00    -0.203 F 
ATOM     77  C   UNL A   1      35.278  33.829  28.869  1.00  0.00     0.198 A 
ATOM     78  C   UNL A   1      34.972  32.925  31.070  1.00  0.00     0.198 A 
ATOM     79  F   UNL A   1      36.700  31.687  32.083  1.00  0.00    -0.203 F 
ATOM     80  F   UNL A   1      34.827  34.559  27.839  1.00  0.00    -0.200 F 
ATOM     81  C   UNL A   1      34.489  33.658  29.996  1.00  0.00     0.200 A 
ATOM     82  F   UNL A   1      34.206  32.743  32.155  1.00  0.00    -0.200 F 
ATOM     83  F   UNL A   1      33.267  34.204  30.051  1.00  0.00    -0.200 F 
ENDBRANCH  49  73
BRANCH  61  84
ATOM     84  C   UNL A   1      43.380  35.087  31.355  1.00  0.00     0.064 A 
ATOM     85  C   UNL A   1      43.718  36.093  30.438  1.00  0.00     0.173 A 
ATOM     86  C   UNL A   1      43.461  35.390  32.723  1.00  0.00     0.173 A 
ATOM     87  F   UNL A   1      43.670  35.849  29.120  1.00  0.00    -0.203 F 
ATOM     88  C   UNL A   1      44.153  37.341  30.874  1.00  0.00     0.198 A 
ATOM     89  C   UNL A   1      43.866  36.650  33.155  1.00  0.00     0.198 A 
ATOM     90  F   UNL A   1      43.140  34.467  33.642  1.00  0.00    -0.203 F 
ATOM     91  F   UNL A   1      44.526  38.268  29.981  1.00  0.00    -0.200 F 
ATOM     92  C   UNL A   1      44.221  37.620  32.231  1.00  0.00     0.200 A 
ATOM     93  F   UNL A   1      43.916  36.923  34.466  1.00  0.00    -0.200 F 
ATOM     94  F   UNL A   1      44.638  38.824  32.649  1.00  0.00    -0.200 F 
ENDBRANCH  61  84
ENDBRANCH  35  36
ENDBRANCH  27  30
ENDBRANCH  25  26
ENDBRANCH  24  25
ENDBRANCH  23  24
ENDBRANCH   1  23
TORSDOF 17
ENDMDL
MODEL 3
REMARK VINA RESULT:     -11.3      4.088      8.892
REMARK SMILES CCOC[C@@H](O)C[C@]1(C(=O)NCCCCNC(=O)c2ccc(-c3c4nc(c(-c5c(F)c(F)c(F)c(F)c5F)c5ccc([nH]5)c(-c5c(F)c(F)c(F)c(F)c5F)c5nc(c(-c6c(F)c(F)c(F)c(F)c6F)c6ccc3[nH]6)C=C5)C=C4)cc2)CCc2ccccc21
REMARK SMILES IDX 12 1 11 2 9 3 10 4 8 6 82 7 89 8 83 9 84 10 88 11 85 12
REMARK SMILES IDX 87 13 86 14 7 15 5 16 4 17 3 18 2 19 1 20 6 21 13 23 14 24
REMARK SMILES IDX 15 25 16 26 17 27 18 29 19 30 20 31 81 32 21 33 80 34 22 35
REMARK SMILES IDX 23 36 24 37 74 38 25 39 79 40 73 41 75 42 26 43 78 44 72 45
REMARK SMILES IDX 71 46 27 48 59 49 39 50 58 51 40 52 43 53 57 54 76 55 41 56
REMARK SMILES IDX 42 57 56 59 77 60 44 61 28 62 29 63 37 64 30 65 31 66 35 67
REMARK SMILES IDX 38 68 32 69 33 70 36 71 34 72 60 73 61 74 69 75 62 76 63 77
REMARK SMILES IDX 67 78 70 79 64 80 65 81 68 82 66 83 45 84 46 85 54 86 47 87
REMARK SMILES IDX 48 88 52 89 55 90 49 91 50 92 53 93 51 94
REMARK H PARENT 11 5 6 22 16 28 75 47 43 58
REMARK Flexibility Score: inf
ROOT
ATOM      1  C   UNL A   1      31.438  29.843  25.340  1.00  0.00     0.116 C 
ENDROOT
BRANCH   1   2
ATOM      2  N   UNL A   1      32.511  29.698  24.386  1.00  0.00    -0.355 N 
ATOM      3  C   UNL A   1      32.820  28.704  23.515  1.00  0.00     0.230 C 
ATOM      4  O   UNL A   1      33.691  29.005  22.690  1.00  0.00    -0.274 OA
ATOM      5  H   UNL A   1      33.134  30.460  24.364  1.00  0.00     0.163 HD
BRANCH   3   6
ATOM      6  C   UNL A   1      32.126  27.312  23.478  1.00  0.00     0.077 C 
ATOM      7  C   UNL A   1      31.811  26.732  22.067  1.00  0.00     0.026 C 
ATOM      8  C   UNL A   1      33.060  26.244  24.031  1.00  0.00    -0.029 A 
ATOM      9  C   UNL A   1      32.709  25.523  21.770  1.00  0.00     0.037 C 
ATOM     10  C   UNL A   1      33.388  25.278  23.073  1.00  0.00    -0.044 A 
ATOM     11  C   UNL A   1      33.647  26.203  25.291  1.00  0.00     0.005 A 
ATOM     12  C   UNL A   1      34.325  24.290  23.334  1.00  0.00     0.004 A 
ATOM     13  C   UNL A   1      34.582  25.201  25.568  1.00  0.00     0.000 A 
ATOM     14  C   UNL A   1      34.927  24.258  24.591  1.00  0.00     0.000 A 
BRANCH   6  15
ATOM     15  C   UNL A   1      30.815  27.376  24.328  1.00  0.00     0.056 C 
BRANCH  15  16
ATOM     16  C   UNL A   1      30.099  26.054  24.713  1.00  0.00     0.141 C 
BRANCH  16  17
ATOM     17  C   UNL A   1      30.076  25.728  26.216  1.00  0.00     0.191 C 
BRANCH  17  18
ATOM     18  O   UNL A   1      30.070  24.334  26.539  1.00  0.00    -0.379 OA
BRANCH  18  19
ATOM     19  C   UNL A   1      31.322  23.657  26.529  1.00  0.00     0.157 C 
ATOM     20  C   UNL A   1      31.524  22.724  25.346  1.00  0.00     0.035 C 
ENDBRANCH  18  19
ENDBRANCH  17  18
ENDBRANCH  16  17
BRANCH  16  21
ATOM     21  O   UNL A   1      28.751  26.201  24.234  1.00  0.00    -0.391 OA
ATOM     22  H   UNL A   1      28.156  25.655  24.773  1.00  0.00     0.211 HD
ENDBRANCH  16  21
ENDBRANCH  15  16
ENDBRANCH   6  15
ENDBRANCH   3   6
ENDBRANCH   1   2
BRANCH   1  23
ATOM     23  C   UNL A   1      31.922  30.427  26.662  1.00  0.00     0.023 C 
BRANCH  23  24
ATOM     24  C   UNL A   1      31.609  31.910  26.846  1.00  0.00     0.023 C 
BRANCH  24  25
ATOM     25  C   UNL A   1      32.824  32.796  27.087  1.00  0.00     0.116 C 
BRANCH  25  26
ATOM     26  N   UNL A   1      32.487  34.107  27.617  1.00  0.00    -0.352 N 
ATOM     27  C   UNL A   1      33.071  34.780  28.664  1.00  0.00     0.251 C 
ATOM     28  H   UNL A   1      31.745  34.574  27.168  1.00  0.00     0.163 HD
ATOM     29  O   UNL A   1      32.611  35.837  29.064  1.00  0.00    -0.269 OA
BRANCH  27  30
ATOM     30  C   UNL A   1      34.247  34.179  29.323  1.00  0.00     0.039 A 
ATOM     31  C   UNL A   1      34.041  33.255  30.349  1.00  0.00     0.014 A 
ATOM     32  C   UNL A   1      35.540  34.502  28.903  1.00  0.00     0.014 A 
ATOM     33  C   UNL A   1      35.138  32.614  30.923  1.00  0.00     0.010 A 
ATOM     34  C   UNL A   1      36.625  33.803  29.419  1.00  0.00     0.010 A 
ATOM     35  C   UNL A   1      36.435  32.866  30.445  1.00  0.00    -0.014 A 
BRANCH  35  36
ATOM     36  C   UNL A   1      37.609  32.178  31.034  1.00  0.00     0.031 A 
ATOM     37  C   UNL A   1      38.082  32.554  32.411  1.00  0.00     0.074 A 
ATOM     38  C   UNL A   1      38.273  31.254  30.315  1.00  0.00     0.049 A 
ATOM     39  N   UNL A   1      39.097  32.090  33.093  1.00  0.00    -0.248 NA
ATOM     40  C   UNL A   1      37.331  33.615  33.101  1.00  0.00     0.031 C 
ATOM     41  C   UNL A   1      37.944  30.850  28.946  1.00  0.00     0.029 A 
ATOM     42  N   UNL A   1      39.363  30.486  30.635  1.00  0.00    -0.354 N 
ATOM     43  C   UNL A   1      39.113  32.809  34.281  1.00  0.00     0.074 A 
ATOM     44  C   UNL A   1      38.049  33.785  34.200  1.00  0.00     0.031 C 
ATOM     45  C   UNL A   1      38.795  29.888  28.556  1.00  0.00     0.029 A 
ATOM     46  C   UNL A   1      39.744  29.626  29.635  1.00  0.00     0.049 A 
ATOM     47  H   UNL A   1      39.829  30.546  31.500  1.00  0.00     0.167 HD
ATOM     48  C   UNL A   1      39.921  32.648  35.355  1.00  0.00     0.037 A 
ATOM     49  C   UNL A   1      40.742  28.724  29.599  1.00  0.00     0.037 A 
ATOM     50  C   UNL A   1      40.959  31.657  35.441  1.00  0.00     0.049 A 
ATOM     51  C   UNL A   1      41.613  28.551  30.815  1.00  0.00     0.074 A 
ATOM     52  C   UNL A   1      41.800  31.375  36.502  1.00  0.00     0.029 A 
ATOM     53  N   UNL A   1      41.295  30.780  34.420  1.00  0.00    -0.354 N 
ATOM     54  N   UNL A   1      41.572  29.185  31.961  1.00  0.00    -0.248 NA
ATOM     55  C   UNL A   1      42.660  27.523  30.735  1.00  0.00     0.031 C 
ATOM     56  C   UNL A   1      42.673  30.353  36.108  1.00  0.00     0.029 A 
ATOM     57  C   UNL A   1      42.339  29.964  34.821  1.00  0.00     0.049 A 
ATOM     58  H   UNL A   1      40.855  30.742  33.539  1.00  0.00     0.167 HD
ATOM     59  C   UNL A   1      42.560  28.613  32.751  1.00  0.00     0.074 A 
ATOM     60  C   UNL A   1      43.174  27.569  31.955  1.00  0.00     0.031 C 
ATOM     61  C   UNL A   1      42.927  28.921  34.019  1.00  0.00     0.037 A 
BRANCH  48  62
ATOM     62  C   UNL A   1      39.703  33.563  36.526  1.00  0.00     0.064 A 
ATOM     63  C   UNL A   1      40.324  34.820  36.603  1.00  0.00     0.173 A 
ATOM     64  C   UNL A   1      38.850  33.190  37.575  1.00  0.00     0.173 A 
ATOM     65  F   UNL A   1      41.161  35.219  35.634  1.00  0.00    -0.203 F 
ATOM     66  C   UNL A   1      40.127  35.652  37.701  1.00  0.00     0.198 A 
ATOM     67  C   UNL A   1      38.629  34.039  38.657  1.00  0.00     0.198 A 
ATOM     68  F   UNL A   1      38.228  32.002  37.552  1.00  0.00    -0.203 F 
ATOM     69  F   UNL A   1      40.776  36.822  37.779  1.00  0.00    -0.200 F 
ATOM     70  C   UNL A   1      39.273  35.265  38.723  1.00  0.00     0.200 A 
ATOM     71  F   UNL A   1      37.795  33.669  39.638  1.00  0.00    -0.200 F 
ATOM     72  F   UNL A   1      39.081  36.069  39.778  1.00  0.00    -0.200 F 
ENDBRANCH  48  62
BRANCH  49  73
ATOM     73  C   UNL A   1      40.942  27.881  28.392  1.00  0.00     0.064 A 
ATOM     74  C   UNL A   1      41.746  28.324  27.331  1.00  0.00     0.173 A 
ATOM     75  C   UNL A   1      40.331  26.626  28.267  1.00  0.00     0.173 A 
ATOM     76  F   UNL A   1      42.336  29.526  27.396  1.00  0.00    -0.203 F 
ATOM     77  C   UNL A   1      41.908  27.555  26.182  1.00  0.00     0.198 A 
ATOM     78  C   UNL A   1      40.518  25.844  27.128  1.00  0.00     0.198 A 
ATOM     79  F   UNL A   1      39.558  26.153  29.256  1.00  0.00    -0.203 F 
ATOM     80  F   UNL A   1      42.642  28.025  25.163  1.00  0.00    -0.200 F 
ATOM     81  C   UNL A   1      41.299  26.314  26.082  1.00  0.00     0.200 A 
ATOM     82  F   UNL A   1      39.939  24.639  27.043  1.00  0.00    -0.200 F 
ATOM     83  F   UNL A   1      41.457  25.573  24.977  1.00  0.00    -0.200 F 
ENDBRANCH  49  73
BRANCH  61  84
ATOM     84  C   UNL A   1      44.010  28.088  34.640  1.00  0.00     0.064 A 
ATOM     85  C   UNL A   1      45.361  28.463  34.577  1.00  0.00     0.173 A 
ATOM     86  C   UNL A   1      43.687  26.910  35.330  1.00  0.00     0.173 A 
ATOM     87  F   UNL A   1      45.723  29.574  33.918  1.00  0.00    -0.203 F 
ATOM     88  C   UNL A   1      46.350  27.671  35.153  1.00  0.00     0.198 A 
ATOM     89  C   UNL A   1      44.677  26.137  35.932  1.00  0.00     0.198 A 
ATOM     90  F   UNL A   1      42.410  26.510  35.428  1.00  0.00    -0.203 F 
ATOM     91  F   UNL A   1      47.639  28.019  35.031  1.00  0.00    -0.200 F 
ATOM     92  C   UNL A   1      46.007  26.513  35.834  1.00  0.00     0.200 A 
ATOM     93  F   UNL A   1      44.342  25.026  36.602  1.00  0.00    -0.200 F 
ATOM     94  F   UNL A   1      46.962  25.753  36.389  1.00  0.00    -0.200 F 
ENDBRANCH  61  84
ENDBRANCH  35  36
ENDBRANCH  27  30
ENDBRANCH  25  26
ENDBRANCH  24  25
ENDBRANCH  23  24
ENDBRANCH   1  23
TORSDOF 17
ENDMDL
