MODEL 1
REMARK VINA RESULT:     -12.7      0.000      0.000
REMARK SMILES O=C(NCCCCNC(=O)[C@@H](c1ccccc1)[C@H](C(=O)c1ccccc1)c1ccccc1)c1ccc(-c2c3nc(c(-c4c(F)c(F)c(F)c(F)c4F)c4ccc([nH]4)c(-c4c(F)c(F)c(F)c(F)c4F)c4nc(c(-c5c(F)c(F)c(F)c(F)c5F)c5ccc2[nH]5)C=C4)C=C3)cc1
REMARK SMILES IDX 6 1 5 2 4 3 3 4 1 5 2 6 33 8 34 9 95 10 35 11 94 12 36 13
REMARK SMILES IDX 37 14 38 15 88 16 39 17 93 18 87 19 89 20 40 21 92 22 86 23
REMARK SMILES IDX 85 24 41 26 73 27 53 28 72 29 54 30 57 31 71 32 90 33 55 34
REMARK SMILES IDX 56 35 70 37 91 38 58 39 42 40 43 41 51 42 44 43 45 44 49 45
REMARK SMILES IDX 52 46 46 47 47 48 50 49 48 50 74 51 75 52 83 53 76 54 77 55
REMARK SMILES IDX 81 56 84 57 78 58 79 59 82 60 80 61 59 62 60 63 68 64 61 65
REMARK SMILES IDX 62 66 66 67 69 68 63 69 64 70 67 71 65 72 7 73 8 74 9 75
REMARK SMILES IDX 10 77 11 78 12 79 13 80 17 81 14 82 16 83 15 84 18 85 27 86
REMARK SMILES IDX 28 87 32 88 29 89 31 90 30 91 19 92 20 93 21 94 22 95 26 96
REMARK SMILES IDX 23 97 25 98 24 99
REMARK H PARENT 3 7 89 25 57 36 8 76
REMARK Flexibility Score: inf
ROOT
ATOM      1  C   UNL A   1      37.424  21.452  24.594  1.00  0.00     0.023 C 
ENDROOT
BRANCH   1   2
ATOM      2  C   UNL A   1      37.999  20.246  25.328  1.00  0.00     0.023 C 
BRANCH   2   3
ATOM      3  C   UNL A   1      39.374  20.456  25.946  1.00  0.00     0.116 C 
BRANCH   3   4
ATOM      4  N   UNL A   1      40.257  19.299  25.909  1.00  0.00    -0.352 N 
ATOM      5  O   UNL A   1      42.303  18.296  26.010  1.00  0.00    -0.269 OA
ATOM      6  C   UNL A   1      41.624  19.311  26.099  1.00  0.00     0.251 C 
ATOM      7  H   UNL A   1      39.840  18.425  25.732  1.00  0.00     0.163 HD
BRANCH   6   8
ATOM      8  C   UNL A   1      42.257  20.616  26.374  1.00  0.00     0.039 A 
ATOM      9  C   UNL A   1      42.356  21.063  27.692  1.00  0.00     0.014 A 
ATOM     10  C   UNL A   1      42.607  21.445  25.306  1.00  0.00     0.014 A 
ATOM     11  C   UNL A   1      42.655  22.395  27.936  1.00  0.00     0.010 A 
ATOM     12  C   UNL A   1      42.995  22.762  25.560  1.00  0.00     0.010 A 
ATOM     13  C   UNL A   1      42.988  23.257  26.875  1.00  0.00    -0.014 A 
BRANCH  13  14
ATOM     14  C   UNL A   1      43.400  24.647  27.183  1.00  0.00     0.031 A 
ATOM     15  C   UNL A   1      42.445  25.640  27.782  1.00  0.00     0.074 A 
ATOM     16  C   UNL A   1      44.678  24.993  26.936  1.00  0.00     0.049 A 
ATOM     17  N   UNL A   1      42.656  26.893  28.101  1.00  0.00    -0.248 NA
ATOM     18  C   UNL A   1      41.075  25.177  28.055  1.00  0.00     0.031 C 
ATOM     19  C   UNL A   1      45.685  24.108  26.343  1.00  0.00     0.029 A 
ATOM     20  N   UNL A   1      45.355  26.160  27.164  1.00  0.00    -0.354 N 
ATOM     21  C   UNL A   1      41.446  27.376  28.580  1.00  0.00     0.074 A 
ATOM     22  C   UNL A   1      40.499  26.284  28.510  1.00  0.00     0.031 C 
ATOM     23  C   UNL A   1      46.860  24.747  26.298  1.00  0.00     0.029 A 
ATOM     24  C   UNL A   1      46.676  26.107  26.790  1.00  0.00     0.049 A 
ATOM     25  H   UNL A   1      44.937  26.960  27.558  1.00  0.00     0.167 HD
ATOM     26  C   UNL A   1      41.161  28.620  29.035  1.00  0.00     0.037 A 
ATOM     27  C   UNL A   1      47.627  27.055  26.813  1.00  0.00     0.037 A 
ATOM     28  C   UNL A   1      42.123  29.690  29.134  1.00  0.00     0.049 A 
ATOM     29  C   UNL A   1      47.278  28.420  27.324  1.00  0.00     0.074 A 
ATOM     30  C   UNL A   1      41.944  30.967  29.639  1.00  0.00     0.029 A 
ATOM     31  N   UNL A   1      43.443  29.606  28.719  1.00  0.00    -0.354 N 
ATOM     32  N   UNL A   1      46.136  28.854  27.798  1.00  0.00    -0.248 NA
ATOM     33  C   UNL A   1      48.343  29.429  27.292  1.00  0.00     0.031 C 
ATOM     34  C   UNL A   1      43.145  31.669  29.492  1.00  0.00     0.029 A 
ATOM     35  C   UNL A   1      44.084  30.818  28.931  1.00  0.00     0.049 A 
ATOM     36  H   UNL A   1      43.863  28.806  28.329  1.00  0.00     0.167 HD
ATOM     37  C   UNL A   1      46.342  30.187  28.118  1.00  0.00     0.074 A 
ATOM     38  C   UNL A   1      47.728  30.480  27.815  1.00  0.00     0.031 C 
ATOM     39  C   UNL A   1      45.459  31.089  28.609  1.00  0.00     0.037 A 
BRANCH  26  40
ATOM     40  C   UNL A   1      39.751  28.918  29.454  1.00  0.00     0.064 A 
ATOM     41  C   UNL A   1      38.791  29.374  28.541  1.00  0.00     0.173 A 
ATOM     42  C   UNL A   1      39.333  28.647  30.767  1.00  0.00     0.173 A 
ATOM     43  F   UNL A   1      39.141  29.655  27.276  1.00  0.00    -0.203 F 
ATOM     44  C   UNL A   1      37.464  29.552  28.927  1.00  0.00     0.198 A 
ATOM     45  C   UNL A   1      38.001  28.807  31.144  1.00  0.00     0.198 A 
ATOM     46  F   UNL A   1      40.211  28.201  31.677  1.00  0.00    -0.203 F 
ATOM     47  F   UNL A   1      36.565  30.003  28.041  1.00  0.00    -0.200 F 
ATOM     48  C   UNL A   1      37.068  29.258  30.224  1.00  0.00     0.200 A 
ATOM     49  F   UNL A   1      37.621  28.511  32.394  1.00  0.00    -0.200 F 
ATOM     50  F   UNL A   1      35.787  29.412  30.588  1.00  0.00    -0.200 F 
ENDBRANCH  26  40
BRANCH  27  51
ATOM     51  C   UNL A   1      48.987  26.740  26.308  1.00  0.00     0.064 A 
ATOM     52  C   UNL A   1      49.959  26.184  27.148  1.00  0.00     0.173 A 
ATOM     53  C   UNL A   1      49.331  26.967  24.966  1.00  0.00     0.173 A 
ATOM     54  F   UNL A   1      49.681  25.965  28.441  1.00  0.00    -0.203 F 
ATOM     55  C   UNL A   1      51.230  25.875  26.667  1.00  0.00     0.198 A 
ATOM     56  C   UNL A   1      50.590  26.629  24.480  1.00  0.00     0.198 A 
ATOM     57  F   UNL A   1      48.431  27.492  24.122  1.00  0.00    -0.203 F 
ATOM     58  F   UNL A   1      52.154  25.376  27.498  1.00  0.00    -0.200 F 
ATOM     59  C   UNL A   1      51.541  26.091  25.332  1.00  0.00     0.200 A 
ATOM     60  F   UNL A   1      50.880  26.821  23.186  1.00  0.00    -0.200 F 
ATOM     61  F   UNL A   1      52.759  25.781  24.869  1.00  0.00    -0.200 F 
ENDBRANCH  27  51
BRANCH  39  62
ATOM     62  C   UNL A   1      45.977  32.476  28.841  1.00  0.00     0.064 A 
ATOM     63  C   UNL A   1      45.882  33.462  27.849  1.00  0.00     0.173 A 
ATOM     64  C   UNL A   1      46.563  32.823  30.066  1.00  0.00     0.173 A 
ATOM     65  F   UNL A   1      45.347  33.169  26.654  1.00  0.00    -0.203 F 
ATOM     66  C   UNL A   1      46.382  34.744  28.067  1.00  0.00     0.198 A 
ATOM     67  C   UNL A   1      47.039  34.112  30.288  1.00  0.00     0.198 A 
ATOM     68  F   UNL A   1      46.673  31.913  31.045  1.00  0.00    -0.203 F 
ATOM     69  F   UNL A   1      46.324  35.657  27.088  1.00  0.00    -0.200 F 
ATOM     70  C   UNL A   1      46.954  35.068  29.288  1.00  0.00     0.200 A 
ATOM     71  F   UNL A   1      47.586  34.428  31.471  1.00  0.00    -0.200 F 
ATOM     72  F   UNL A   1      47.436  36.301  29.495  1.00  0.00    -0.200 F 
ENDBRANCH  39  62
ENDBRANCH  13  14
ENDBRANCH   6   8
ENDBRANCH   3   4
ENDBRANCH   2   3
ENDBRANCH   1   2
BRANCH   1  73
ATOM     73  C   UNL A   1      36.942  22.575  25.506  1.00  0.00     0.116 C 
BRANCH  73  74
ATOM     74  N   UNL A   1      36.106  22.134  26.591  1.00  0.00    -0.356 N 
ATOM     75  C   UNL A   1      34.766  21.973  26.693  1.00  0.00     0.228 C 
ATOM     76  H   UNL A   1      36.601  21.908  27.413  1.00  0.00     0.163 HD
ATOM     77  O   UNL A   1      34.387  21.390  27.720  1.00  0.00    -0.274 OA
BRANCH  75  78
ATOM     78  C   UNL A   1      33.728  22.450  25.665  1.00  0.00     0.124 C 
BRANCH  78  79
ATOM     79  C   UNL A   1      33.407  23.944  25.740  1.00  0.00    -0.035 A 
ATOM     80  C   UNL A   1      32.203  24.354  26.351  1.00  0.00     0.004 A 
ATOM     81  C   UNL A   1      34.231  24.945  25.226  1.00  0.00     0.004 A 
ATOM     82  C   UNL A   1      31.839  25.701  26.417  1.00  0.00     0.000 A 
ATOM     83  C   UNL A   1      33.875  26.296  25.295  1.00  0.00     0.000 A 
ATOM     84  C   UNL A   1      32.676  26.673  25.886  1.00  0.00     0.000 A 
ENDBRANCH  78  79
BRANCH  78  85
ATOM     85  C   UNL A   1      33.620  21.661  24.314  1.00  0.00     0.108 C 
BRANCH  85  86
ATOM     86  C   UNL A   1      33.623  20.156  24.628  1.00  0.00    -0.036 A 
ATOM     87  C   UNL A   1      34.672  19.318  24.216  1.00  0.00     0.004 A 
ATOM     88  C   UNL A   1      32.500  19.571  25.240  1.00  0.00     0.004 A 
ATOM     89  C   UNL A   1      34.604  17.940  24.414  1.00  0.00     0.000 A 
ATOM     90  C   UNL A   1      32.428  18.189  25.419  1.00  0.00     0.000 A 
ATOM     91  C   UNL A   1      33.480  17.374  25.008  1.00  0.00     0.000 A 
ENDBRANCH  85  86
BRANCH  85  92
ATOM     92  C   UNL A   1      32.483  22.022  23.346  1.00  0.00     0.171 C 
ATOM     93  O   UNL A   1      31.716  21.213  22.829  1.00  0.00    -0.293 OA
BRANCH  92  94
ATOM     94  C   UNL A   1      32.278  23.436  22.945  1.00  0.00     0.018 A 
ATOM     95  C   UNL A   1      31.054  24.041  23.270  1.00  0.00     0.012 A 
ATOM     96  C   UNL A   1      33.195  24.106  22.135  1.00  0.00     0.012 A 
ATOM     97  C   UNL A   1      30.753  25.316  22.794  1.00  0.00     0.001 A 
ATOM     98  C   UNL A   1      32.880  25.377  21.645  1.00  0.00     0.001 A 
ATOM     99  C   UNL A   1      31.663  25.979  21.974  1.00  0.00     0.000 A 
ENDBRANCH  92  94
ENDBRANCH  85  92
ENDBRANCH  78  85
ENDBRANCH  75  78
ENDBRANCH  73  74
ENDBRANCH   1  73
TORSDOF 16
ENDMDL
MODEL 2
REMARK VINA RESULT:     -12.6      5.716     10.794
REMARK SMILES O=C(NCCCCNC(=O)[C@@H](c1ccccc1)[C@H](C(=O)c1ccccc1)c1ccccc1)c1ccc(-c2c3nc(c(-c4c(F)c(F)c(F)c(F)c4F)c4ccc([nH]4)c(-c4c(F)c(F)c(F)c(F)c4F)c4nc(c(-c5c(F)c(F)c(F)c(F)c5F)c5ccc2[nH]5)C=C4)C=C3)cc1
REMARK SMILES IDX 6 1 5 2 4 3 3 4 1 5 2 6 33 8 34 9 95 10 35 11 94 12 36 13
REMARK SMILES IDX 37 14 38 15 88 16 39 17 93 18 87 19 89 20 40 21 92 22 86 23
REMARK SMILES IDX 85 24 41 26 73 27 53 28 72 29 54 30 57 31 71 32 90 33 55 34
REMARK SMILES IDX 56 35 70 37 91 38 58 39 42 40 43 41 51 42 44 43 45 44 49 45
REMARK SMILES IDX 52 46 46 47 47 48 50 49 48 50 74 51 75 52 83 53 76 54 77 55
REMARK SMILES IDX 81 56 84 57 78 58 79 59 82 60 80 61 59 62 60 63 68 64 61 65
REMARK SMILES IDX 62 66 66 67 69 68 63 69 64 70 67 71 65 72 7 73 8 74 9 75
REMARK SMILES IDX 10 77 11 78 12 79 13 80 17 81 14 82 16 83 15 84 18 85 27 86
REMARK SMILES IDX 28 87 32 88 29 89 31 90 30 91 19 92 20 93 21 94 22 95 26 96
REMARK SMILES IDX 23 97 25 98 24 99
REMARK H PARENT 3 7 89 25 57 36 8 76
REMARK Flexibility Score: inf
ROOT
ATOM      1  C   UNL A   1      34.334  31.021  27.562  1.00  0.00     0.023 C 
ENDROOT
BRANCH   1   2
ATOM      2  C   UNL A   1      33.280  32.092  27.817  1.00  0.00     0.023 C 
BRANCH   2   3
ATOM      3  C   UNL A   1      33.613  33.475  27.276  1.00  0.00     0.116 C 
BRANCH   3   4
ATOM      4  N   UNL A   1      32.866  34.573  27.871  1.00  0.00    -0.352 N 
ATOM      5  O   UNL A   1      32.410  36.054  29.545  1.00  0.00    -0.269 OA
ATOM      6  C   UNL A   1      33.114  35.158  29.096  1.00  0.00     0.251 C 
ATOM      7  H   UNL A   1      32.112  34.934  27.350  1.00  0.00     0.163 HD
BRANCH   6   8
ATOM      8  C   UNL A   1      34.248  34.630  29.880  1.00  0.00     0.039 A 
ATOM      9  C   UNL A   1      35.547  34.792  29.397  1.00  0.00     0.014 A 
ATOM     10  C   UNL A   1      33.994  33.848  31.009  1.00  0.00     0.014 A 
ATOM     11  C   UNL A   1      36.575  34.043  29.950  1.00  0.00     0.010 A 
ATOM     12  C   UNL A   1      35.047  33.165  31.620  1.00  0.00     0.010 A 
ATOM     13  C   UNL A   1      36.339  33.230  31.074  1.00  0.00    -0.014 A 
BRANCH  13  14
ATOM     14  C   UNL A   1      37.483  32.523  31.699  1.00  0.00     0.031 A 
ATOM     15  C   UNL A   1      38.206  31.411  30.994  1.00  0.00     0.074 A 
ATOM     16  C   UNL A   1      37.880  32.930  32.920  1.00  0.00     0.049 A 
ATOM     17  N   UNL A   1      39.218  30.694  31.414  1.00  0.00    -0.248 NA
ATOM     18  C   UNL A   1      37.734  31.047  29.648  1.00  0.00     0.031 C 
ATOM     19  C   UNL A   1      37.238  33.992  33.699  1.00  0.00     0.029 A 
ATOM     20  N   UNL A   1      38.919  32.519  33.712  1.00  0.00    -0.354 N 
ATOM     21  C   UNL A   1      39.485  29.778  30.405  1.00  0.00     0.074 A 
ATOM     22  C   UNL A   1      38.526  30.025  29.349  1.00  0.00     0.031 C 
ATOM     23  C   UNL A   1      37.924  34.183  34.833  1.00  0.00     0.029 A 
ATOM     24  C   UNL A   1      39.008  33.209  34.896  1.00  0.00     0.049 A 
ATOM     25  H   UNL A   1      39.542  31.800  33.457  1.00  0.00     0.167 HD
ATOM     26  C   UNL A   1      40.444  28.823  30.372  1.00  0.00     0.037 A 
ATOM     27  C   UNL A   1      39.850  33.058  35.932  1.00  0.00     0.037 A 
ATOM     28  C   UNL A   1      41.416  28.610  31.416  1.00  0.00     0.049 A 
ATOM     29  C   UNL A   1      40.901  31.992  35.861  1.00  0.00     0.074 A 
ATOM     30  C   UNL A   1      42.466  27.707  31.447  1.00  0.00     0.029 A 
ATOM     31  N   UNL A   1      41.457  29.310  32.613  1.00  0.00    -0.354 N 
ATOM     32  N   UNL A   1      41.157  31.151  34.889  1.00  0.00    -0.248 NA
ATOM     33  C   UNL A   1      41.770  31.844  37.035  1.00  0.00     0.031 C 
ATOM     34  C   UNL A   1      43.116  27.832  32.680  1.00  0.00     0.029 A 
ATOM     35  C   UNL A   1      42.497  28.841  33.401  1.00  0.00     0.049 A 
ATOM     36  H   UNL A   1      40.838  30.032  32.865  1.00  0.00     0.167 HD
ATOM     37  C   UNL A   1      42.214  30.371  35.333  1.00  0.00     0.074 A 
ATOM     38  C   UNL A   1      42.572  30.862  36.649  1.00  0.00     0.031 C 
ATOM     39  C   UNL A   1      42.825  29.335  34.711  1.00  0.00     0.037 A 
BRANCH  26  40
ATOM     40  C   UNL A   1      40.499  27.910  29.182  1.00  0.00     0.064 A 
ATOM     41  C   UNL A   1      39.685  26.775  29.085  1.00  0.00     0.173 A 
ATOM     42  C   UNL A   1      41.306  28.236  28.080  1.00  0.00     0.173 A 
ATOM     43  F   UNL A   1      38.899  26.416  30.112  1.00  0.00    -0.203 F 
ATOM     44  C   UNL A   1      39.678  25.995  27.930  1.00  0.00     0.198 A 
ATOM     45  C   UNL A   1      41.284  27.465  26.920  1.00  0.00     0.198 A 
ATOM     46  F   UNL A   1      42.099  29.317  28.120  1.00  0.00    -0.203 F 
ATOM     47  F   UNL A   1      38.902  24.904  27.864  1.00  0.00    -0.200 F 
ATOM     48  C   UNL A   1      40.470  26.346  26.846  1.00  0.00     0.200 A 
ATOM     49  F   UNL A   1      42.041  27.815  25.871  1.00  0.00    -0.200 F 
ATOM     50  F   UNL A   1      40.448  25.605  25.729  1.00  0.00    -0.200 F 
ENDBRANCH  26  40
BRANCH  27  51
ATOM     51  C   UNL A   1      39.704  33.926  37.126  1.00  0.00     0.064 A 
ATOM     52  C   UNL A   1      40.319  35.184  37.186  1.00  0.00     0.173 A 
ATOM     53  C   UNL A   1      38.925  33.524  38.222  1.00  0.00     0.173 A 
ATOM     54  F   UNL A   1      41.087  35.603  36.170  1.00  0.00    -0.203 F 
ATOM     55  C   UNL A   1      40.167  36.002  38.303  1.00  0.00     0.198 A 
ATOM     56  C   UNL A   1      38.750  34.357  39.323  1.00  0.00     0.198 A 
ATOM     57  F   UNL A   1      38.311  32.332  38.208  1.00  0.00    -0.203 F 
ATOM     58  F   UNL A   1      40.793  37.187  38.351  1.00  0.00    -0.200 F 
ATOM     59  C   UNL A   1      39.376  35.592  39.366  1.00  0.00     0.200 A 
ATOM     60  F   UNL A   1      37.969  33.965  40.339  1.00  0.00    -0.200 F 
ATOM     61  F   UNL A   1      39.222  36.387  40.433  1.00  0.00    -0.200 F 
ENDBRANCH  27  51
BRANCH  39  62
ATOM     62  C   UNL A   1      43.941  28.668  35.457  1.00  0.00     0.064 A 
ATOM     63  C   UNL A   1      43.689  27.626  36.361  1.00  0.00     0.173 A 
ATOM     64  C   UNL A   1      45.269  29.068  35.260  1.00  0.00     0.173 A 
ATOM     65  F   UNL A   1      42.430  27.225  36.596  1.00  0.00    -0.203 F 
ATOM     66  C   UNL A   1      44.730  27.025  37.063  1.00  0.00     0.198 A 
ATOM     67  C   UNL A   1      46.309  28.447  35.946  1.00  0.00     0.198 A 
ATOM     68  F   UNL A   1      45.558  30.059  34.404  1.00  0.00    -0.203 F 
ATOM     69  F   UNL A   1      44.463  26.063  37.958  1.00  0.00    -0.200 F 
ATOM     70  C   UNL A   1      46.039  27.432  36.850  1.00  0.00     0.200 A 
ATOM     71  F   UNL A   1      47.575  28.836  35.736  1.00  0.00    -0.200 F 
ATOM     72  F   UNL A   1      47.038  26.853  37.528  1.00  0.00    -0.200 F 
ENDBRANCH  39  62
ENDBRANCH  13  14
ENDBRANCH   6   8
ENDBRANCH   3   4
ENDBRANCH   2   3
ENDBRANCH   1   2
BRANCH   1  73
ATOM     73  C   UNL A   1      33.795  29.741  26.933  1.00  0.00     0.116 C 
BRANCH  73  74
ATOM     74  N   UNL A   1      32.636  29.203  27.595  1.00  0.00    -0.356 N 
ATOM     75  C   UNL A   1      31.844  28.143  27.313  1.00  0.00     0.228 C 
ATOM     76  H   UNL A   1      32.370  29.699  28.404  1.00  0.00     0.163 HD
ATOM     77  O   UNL A   1      31.035  27.843  28.203  1.00  0.00    -0.274 OA
BRANCH  75  78
ATOM     78  C   UNL A   1      31.876  27.324  26.011  1.00  0.00     0.124 C 
BRANCH  78  79
ATOM     79  C   UNL A   1      30.961  27.858  24.908  1.00  0.00    -0.035 A 
ATOM     80  C   UNL A   1      29.953  27.018  24.390  1.00  0.00     0.004 A 
ATOM     81  C   UNL A   1      31.064  29.138  24.361  1.00  0.00     0.004 A 
ATOM     82  C   UNL A   1      29.111  27.437  23.357  1.00  0.00     0.000 A 
ATOM     83  C   UNL A   1      30.220  29.565  23.331  1.00  0.00     0.000 A 
ATOM     84  C   UNL A   1      29.246  28.713  22.826  1.00  0.00     0.000 A 
ENDBRANCH  78  79
BRANCH  78  85
ATOM     85  C   UNL A   1      33.193  26.544  25.670  1.00  0.00     0.108 C 
BRANCH  85  86
ATOM     86  C   UNL A   1      33.100  25.140  26.289  1.00  0.00    -0.036 A 
ATOM     87  C   UNL A   1      34.243  24.350  26.500  1.00  0.00     0.004 A 
ATOM     88  C   UNL A   1      31.838  24.575  26.545  1.00  0.00     0.004 A 
ATOM     89  C   UNL A   1      34.128  23.038  26.959  1.00  0.00     0.000 A 
ATOM     90  C   UNL A   1      31.727  23.256  26.987  1.00  0.00     0.000 A 
ATOM     91  C   UNL A   1      32.871  22.489  27.195  1.00  0.00     0.000 A 
ENDBRANCH  85  86
BRANCH  85  92
ATOM     92  C   UNL A   1      33.641  26.474  24.203  1.00  0.00     0.171 C 
ATOM     93  O   UNL A   1      34.109  27.413  23.564  1.00  0.00    -0.293 OA
BRANCH  92  94
ATOM     94  C   UNL A   1      33.482  25.208  23.444  1.00  0.00     0.018 A 
ATOM     95  C   UNL A   1      32.195  24.865  22.998  1.00  0.00     0.012 A 
ATOM     96  C   UNL A   1      34.533  24.302  23.305  1.00  0.00     0.012 A 
ATOM     97  C   UNL A   1      31.965  23.624  22.409  1.00  0.00     0.001 A 
ATOM     98  C   UNL A   1      34.293  23.051  22.729  1.00  0.00     0.001 A 
ATOM     99  C   UNL A   1      33.012  22.714  22.283  1.00  0.00     0.000 A 
ENDBRANCH  92  94
ENDBRANCH  85  92
ENDBRANCH  78  85
ENDBRANCH  75  78
ENDBRANCH  73  74
ENDBRANCH   1  73
TORSDOF 16
ENDMDL
MODEL 3
REMARK VINA RESULT:     -12.6      4.603      9.728
REMARK SMILES O=C(NCCCCNC(=O)[C@@H](c1ccccc1)[C@H](C(=O)c1ccccc1)c1ccccc1)c1ccc(-c2c3nc(c(-c4c(F)c(F)c(F)c(F)c4F)c4ccc([nH]4)c(-c4c(F)c(F)c(F)c(F)c4F)c4nc(c(-c5c(F)c(F)c(F)c(F)c5F)c5ccc2[nH]5)C=C4)C=C3)cc1
REMARK SMILES IDX 6 1 5 2 4 3 3 4 1 5 2 6 33 8 34 9 95 10 35 11 94 12 36 13
REMARK SMILES IDX 37 14 38 15 88 16 39 17 93 18 87 19 89 20 40 21 92 22 86 23
REMARK SMILES IDX 85 24 41 26 73 27 53 28 72 29 54 30 57 31 71 32 90 33 55 34
REMARK SMILES IDX 56 35 70 37 91 38 58 39 42 40 43 41 51 42 44 43 45 44 49 45
REMARK SMILES IDX 52 46 46 47 47 48 50 49 48 50 74 51 75 52 83 53 76 54 77 55
REMARK SMILES IDX 81 56 84 57 78 58 79 59 82 60 80 61 59 62 60 63 68 64 61 65
REMARK SMILES IDX 62 66 66 67 69 68 63 69 64 70 67 71 65 72 7 73 8 74 9 75
REMARK SMILES IDX 10 77 11 78 12 79 13 80 17 81 14 82 16 83 15 84 18 85 27 86
REMARK SMILES IDX 28 87 32 88 29 89 31 90 30 91 19 92 20 93 21 94 22 95 26 96
REMARK SMILES IDX 23 97 25 98 24 99
REMARK H PARENT 3 7 89 25 57 36 8 76
REMARK Flexibility Score: inf
ROOT
ATOM      1  C   UNL A   1      32.550  29.210  23.433  1.00  0.00     0.023 C 
ENDROOT
BRANCH   1   2
ATOM      2  C   UNL A   1      32.099  29.100  24.884  1.00  0.00     0.023 C 
BRANCH   2   3
ATOM      3  C   UNL A   1      33.006  29.778  25.900  1.00  0.00     0.116 C 
BRANCH   3   4
ATOM      4  N   UNL A   1      32.563  31.089  26.354  1.00  0.00    -0.352 N 
ATOM      5  O   UNL A   1      32.774  32.992  27.594  1.00  0.00    -0.269 OA
ATOM      6  C   UNL A   1      33.235  31.918  27.228  1.00  0.00     0.251 C 
ATOM      7  H   UNL A   1      31.703  31.414  26.004  1.00  0.00     0.163 HD
BRANCH   6   8
ATOM      8  C   UNL A   1      34.532  31.442  27.751  1.00  0.00     0.039 A 
ATOM      9  C   UNL A   1      34.634  30.140  28.241  1.00  0.00     0.014 A 
ATOM     10  C   UNL A   1      35.588  32.346  27.888  1.00  0.00     0.014 A 
ATOM     11  C   UNL A   1      35.735  29.788  29.009  1.00  0.00     0.010 A 
ATOM     12  C   UNL A   1      36.734  31.959  28.585  1.00  0.00     0.010 A 
ATOM     13  C   UNL A   1      36.801  30.689  29.180  1.00  0.00    -0.014 A 
BRANCH  13  14
ATOM     14  C   UNL A   1      38.004  30.242  29.923  1.00  0.00     0.031 A 
ATOM     15  C   UNL A   1      39.020  29.326  29.303  1.00  0.00     0.074 A 
ATOM     16  C   UNL A   1      38.179  30.710  31.174  1.00  0.00     0.049 A 
ATOM     17  N   UNL A   1      40.119  28.844  29.829  1.00  0.00    -0.248 NA
ATOM     18  C   UNL A   1      38.776  28.886  27.921  1.00  0.00     0.031 C 
ATOM     19  C   UNL A   1      37.245  31.595  31.876  1.00  0.00     0.029 A 
ATOM     20  N   UNL A   1      39.198  30.527  32.069  1.00  0.00    -0.354 N 
ATOM     21  C   UNL A   1      40.679  28.023  28.859  1.00  0.00     0.074 A 
ATOM     22  C   UNL A   1      39.800  28.067  27.710  1.00  0.00     0.031 C 
ATOM     23  C   UNL A   1      37.756  31.915  33.071  1.00  0.00     0.029 A 
ATOM     24  C   UNL A   1      39.015  31.203  33.250  1.00  0.00     0.049 A 
ATOM     25  H   UNL A   1      39.986  29.965  31.885  1.00  0.00     0.167 HD
ATOM     26  C   UNL A   1      41.824  27.302  28.931  1.00  0.00     0.037 A 
ATOM     27  C   UNL A   1      39.762  31.227  34.366  1.00  0.00     0.037 A 
ATOM     28  C   UNL A   1      42.710  27.293  30.069  1.00  0.00     0.049 A 
ATOM     29  C   UNL A   1      41.024  30.418  34.411  1.00  0.00     0.074 A 
ATOM     30  C   UNL A   1      43.924  26.643  30.212  1.00  0.00     0.029 A 
ATOM     31  N   UNL A   1      42.477  27.969  31.257  1.00  0.00    -0.354 N 
ATOM     32  N   UNL A   1      41.554  29.667  33.476  1.00  0.00    -0.248 NA
ATOM     33  C   UNL A   1      41.783  30.449  35.667  1.00  0.00     0.031 C 
ATOM     34  C   UNL A   1      44.405  26.891  31.502  1.00  0.00     0.029 A 
ATOM     35  C   UNL A   1      43.510  27.729  32.149  1.00  0.00     0.049 A 
ATOM     36  H   UNL A   1      41.692  28.534  31.440  1.00  0.00     0.167 HD
ATOM     37  C   UNL A   1      42.707  29.133  34.030  1.00  0.00     0.074 A 
ATOM     38  C   UNL A   1      42.816  29.673  35.371  1.00  0.00     0.031 C 
ATOM     39  C   UNL A   1      43.590  28.265  33.482  1.00  0.00     0.037 A 
BRANCH  26  40
ATOM     40  C   UNL A   1      42.196  26.440  27.760  1.00  0.00     0.064 A 
ATOM     41  C   UNL A   1      43.140  26.853  26.811  1.00  0.00     0.173 A 
ATOM     42  C   UNL A   1      41.672  25.142  27.644  1.00  0.00     0.173 A 
ATOM     43  F   UNL A   1      43.666  28.086  26.873  1.00  0.00    -0.203 F 
ATOM     44  C   UNL A   1      43.545  26.000  25.786  1.00  0.00     0.198 A 
ATOM     45  C   UNL A   1      42.092  24.285  26.630  1.00  0.00     0.198 A 
ATOM     46  F   UNL A   1      40.770  24.697  28.531  1.00  0.00    -0.203 F 
ATOM     47  F   UNL A   1      44.439  26.420  24.880  1.00  0.00    -0.200 F 
ATOM     48  C   UNL A   1      43.029  24.714  25.702  1.00  0.00     0.200 A 
ATOM     49  F   UNL A   1      41.601  23.041  26.559  1.00  0.00    -0.200 F 
ATOM     50  F   UNL A   1      43.434  23.889  24.727  1.00  0.00    -0.200 F 
ENDBRANCH  26  40
BRANCH  27  51
ATOM     51  C   UNL A   1      39.311  32.025  35.533  1.00  0.00     0.064 A 
ATOM     52  C   UNL A   1      38.450  31.480  36.493  1.00  0.00     0.173 A 
ATOM     53  C   UNL A   1      39.756  33.343  35.723  1.00  0.00     0.173 A 
ATOM     54  F   UNL A   1      37.986  30.231  36.344  1.00  0.00    -0.203 F 
ATOM     55  C   UNL A   1      38.041  32.227  37.595  1.00  0.00     0.198 A 
ATOM     56  C   UNL A   1      39.371  34.077  36.841  1.00  0.00     0.198 A 
ATOM     57  F   UNL A   1      40.587  33.906  34.834  1.00  0.00    -0.203 F 
ATOM     58  F   UNL A   1      37.189  31.695  38.482  1.00  0.00    -0.200 F 
ATOM     59  C   UNL A   1      38.508  33.521  37.773  1.00  0.00     0.200 A 
ATOM     60  F   UNL A   1      39.841  35.319  37.019  1.00  0.00    -0.200 F 
ATOM     61  F   UNL A   1      38.124  34.233  38.841  1.00  0.00    -0.200 F 
ENDBRANCH  27  51
BRANCH  39  62
ATOM     62  C   UNL A   1      44.745  27.850  34.341  1.00  0.00     0.064 A 
ATOM     63  C   UNL A   1      45.938  28.587  34.359  1.00  0.00     0.173 A 
ATOM     64  C   UNL A   1      44.656  26.713  35.156  1.00  0.00     0.173 A 
ATOM     65  F   UNL A   1      46.075  29.669  33.578  1.00  0.00    -0.203 F 
ATOM     66  C   UNL A   1      47.013  28.183  35.146  1.00  0.00     0.198 A 
ATOM     67  C   UNL A   1      45.724  26.328  35.961  1.00  0.00     0.198 A 
ATOM     68  F   UNL A   1      43.533  25.979  35.173  1.00  0.00    -0.203 F 
ATOM     69  F   UNL A   1      48.161  28.874  35.112  1.00  0.00    -0.200 F 
ATOM     70  C   UNL A   1      46.903  27.058  35.950  1.00  0.00     0.200 A 
ATOM     71  F   UNL A   1      45.616  25.245  36.742  1.00  0.00    -0.200 F 
ATOM     72  F   UNL A   1      47.939  26.672  36.705  1.00  0.00    -0.200 F 
ENDBRANCH  39  62
ENDBRANCH  13  14
ENDBRANCH   6   8
ENDBRANCH   3   4
ENDBRANCH   2   3
ENDBRANCH   1   2
BRANCH   1  73
ATOM     73  C   UNL A   1      33.818  28.429  23.104  1.00  0.00     0.116 C 
BRANCH  73  74
ATOM     74  N   UNL A   1      33.702  27.576  21.951  1.00  0.00    -0.356 N 
ATOM     75  C   UNL A   1      33.360  26.273  21.821  1.00  0.00     0.228 C 
ATOM     76  H   UNL A   1      33.911  28.024  21.099  1.00  0.00     0.163 HD
ATOM     77  O   UNL A   1      33.174  25.896  20.654  1.00  0.00    -0.274 OA
BRANCH  75  78
ATOM     78  C   UNL A   1      33.199  25.271  22.976  1.00  0.00     0.124 C 
BRANCH  78  79
ATOM     79  C   UNL A   1      31.987  25.532  23.872  1.00  0.00    -0.035 A 
ATOM     80  C   UNL A   1      30.724  25.729  23.274  1.00  0.00     0.004 A 
ATOM     81  C   UNL A   1      32.047  25.602  25.265  1.00  0.00     0.004 A 
ATOM     82  C   UNL A   1      29.588  26.007  24.038  1.00  0.00     0.000 A 
ATOM     83  C   UNL A   1      30.913  25.873  26.035  1.00  0.00     0.000 A 
ATOM     84  C   UNL A   1      29.683  26.080  25.422  1.00  0.00     0.000 A 
ENDBRANCH  78  79
BRANCH  78  85
ATOM     85  C   UNL A   1      33.764  23.823  22.772  1.00  0.00     0.108 C 
BRANCH  85  86
ATOM     86  C   UNL A   1      35.052  23.683  23.601  1.00  0.00    -0.036 A 
ATOM     87  C   UNL A   1      36.084  22.810  23.218  1.00  0.00     0.004 A 
ATOM     88  C   UNL A   1      35.161  24.350  24.834  1.00  0.00     0.004 A 
ATOM     89  C   UNL A   1      37.194  22.616  24.039  1.00  0.00     0.000 A 
ATOM     90  C   UNL A   1      36.265  24.138  25.661  1.00  0.00     0.000 A 
ATOM     91  C   UNL A   1      37.281  23.273  25.263  1.00  0.00     0.000 A 
ENDBRANCH  85  86
BRANCH  85  92
ATOM     92  C   UNL A   1      32.823  22.632  23.008  1.00  0.00     0.171 C 
ATOM     93  O   UNL A   1      31.926  22.282  22.244  1.00  0.00    -0.293 OA
BRANCH  92  94
ATOM     94  C   UNL A   1      32.941  21.835  24.254  1.00  0.00     0.018 A 
ATOM     95  C   UNL A   1      32.433  22.388  25.440  1.00  0.00     0.012 A 
ATOM     96  C   UNL A   1      33.668  20.645  24.294  1.00  0.00     0.012 A 
ATOM     97  C   UNL A   1      32.644  21.748  26.660  1.00  0.00     0.001 A 
ATOM     98  C   UNL A   1      33.893  20.016  25.523  1.00  0.00     0.001 A 
ATOM     99  C   UNL A   1      33.383  20.567  26.701  1.00  0.00     0.000 A 
ENDBRANCH  92  94
ENDBRANCH  85  92
ENDBRANCH  78  85
ENDBRANCH  75  78
ENDBRANCH  73  74
ENDBRANCH   1  73
TORSDOF 16
ENDMDL
