MODEL 1
REMARK VINA RESULT:     -13.0      0.000      0.000
REMARK SMILES O=C(NCCCCNC(=O)[C@H]1CC1(c1ccccc1)c1ccccc1)c1ccc(-c2c3nc(c(-c4c(F)c(F)c(F)c(F)c4F)c4ccc([nH]4)c(-c4c(F)c(F)c(F)c(F)c4F)c4nc(c(-c5c(F)c(F)c(F)c(F)c5F)c5ccc2[nH]5)C=C4)C=C3)cc1
REMARK SMILES IDX 5 1 4 2 3 3 1 4 2 5 26 7 27 8 88 9 28 10 87 11 29 12 30 13
REMARK SMILES IDX 31 14 81 15 32 16 86 17 80 18 82 19 33 20 85 21 79 22 78 23
REMARK SMILES IDX 34 25 66 26 46 27 65 28 47 29 50 30 64 31 83 32 48 33 49 34
REMARK SMILES IDX 63 36 84 37 51 38 35 39 36 40 44 41 37 42 38 43 42 44 45 45
REMARK SMILES IDX 39 46 40 47 43 48 41 49 67 50 68 51 76 52 69 53 70 54 74 55
REMARK SMILES IDX 77 56 71 57 72 58 75 59 73 60 52 61 53 62 61 63 54 64 55 65
REMARK SMILES IDX 59 66 62 67 56 68 57 69 60 70 58 71 6 72 7 73 8 74 9 75
REMARK SMILES IDX 10 77 11 78 12 79 13 80 14 81 15 82 19 83 16 84 18 85 17 86
REMARK SMILES IDX 20 87 21 88 25 89 22 90 24 91 23 92
REMARK H PARENT 3 6 82 24 50 35 8 76
REMARK Flexibility Score: inf
ROOT
ATOM      1  C   UNL A   1      31.661  28.780  25.749  1.00  0.00     0.023 C 
ENDROOT
BRANCH   1   2
ATOM      2  C   UNL A   1      32.817  29.623  26.268  1.00  0.00     0.116 C 
BRANCH   2   3
ATOM      3  N   UNL A   1      32.462  30.981  26.663  1.00  0.00    -0.352 N 
ATOM      4  O   UNL A   1      32.843  33.001  27.634  1.00  0.00    -0.269 OA
ATOM      5  C   UNL A   1      33.259  31.893  27.322  1.00  0.00     0.251 C 
ATOM      6  H   UNL A   1      31.552  31.280  26.432  1.00  0.00     0.163 HD
BRANCH   5   7
ATOM      7  C   UNL A   1      34.620  31.462  27.703  1.00  0.00     0.039 A 
ATOM      8  C   UNL A   1      34.844  30.132  28.055  1.00  0.00     0.014 A 
ATOM      9  C   UNL A   1      35.619  32.424  27.869  1.00  0.00     0.014 A 
ATOM     10  C   UNL A   1      35.990  29.807  28.766  1.00  0.00     0.010 A 
ATOM     11  C   UNL A   1      36.818  32.068  28.495  1.00  0.00     0.010 A 
ATOM     12  C   UNL A   1      36.985  30.771  29.004  1.00  0.00    -0.014 A 
BRANCH  12  13
ATOM     13  C   UNL A   1      38.181  30.375  29.793  1.00  0.00     0.031 A 
ATOM     14  C   UNL A   1      38.329  30.761  31.241  1.00  0.00     0.074 A 
ATOM     15  C   UNL A   1      39.090  29.570  29.212  1.00  0.00     0.049 A 
ATOM     16  N   UNL A   1      39.273  30.430  32.088  1.00  0.00    -0.248 NA
ATOM     17  C   UNL A   1      37.295  31.637  31.815  1.00  0.00     0.031 C 
ATOM     18  C   UNL A   1      39.053  29.140  27.813  1.00  0.00     0.029 A 
ATOM     19  N   UNL A   1      40.186  28.931  29.729  1.00  0.00    -0.354 N 
ATOM     20  C   UNL A   1      38.966  31.077  33.278  1.00  0.00     0.074 A 
ATOM     21  C   UNL A   1      37.752  31.830  33.046  1.00  0.00     0.031 C 
ATOM     22  C   UNL A   1      40.030  28.246  27.603  1.00  0.00     0.029 A 
ATOM     23  C   UNL A   1      40.797  28.089  28.834  1.00  0.00     0.049 A 
ATOM     24  H   UNL A   1      40.504  29.063  30.651  1.00  0.00     0.167 HD
ATOM     25  C   UNL A   1      39.637  31.040  34.455  1.00  0.00     0.037 A 
ATOM     26  C   UNL A   1      41.857  27.275  28.984  1.00  0.00     0.037 A 
ATOM     27  C   UNL A   1      40.827  30.264  34.691  1.00  0.00     0.049 A 
ATOM     28  C   UNL A   1      42.546  27.214  30.314  1.00  0.00     0.074 A 
ATOM     29  C   UNL A   1      41.584  30.169  35.847  1.00  0.00     0.029 A 
ATOM     30  N   UNL A   1      41.425  29.434  33.754  1.00  0.00    -0.354 N 
ATOM     31  N   UNL A   1      42.255  27.853  31.422  1.00  0.00    -0.248 NA
ATOM     32  C   UNL A   1      43.713  26.330  30.414  1.00  0.00     0.031 C 
ATOM     33  C   UNL A   1      42.652  29.297  35.603  1.00  0.00     0.029 A 
ATOM     34  C   UNL A   1      42.542  28.826  34.306  1.00  0.00     0.049 A 
ATOM     35  H   UNL A   1      41.104  29.298  32.833  1.00  0.00     0.167 HD
ATOM     36  C   UNL A   1      43.213  27.462  32.345  1.00  0.00     0.074 A 
ATOM     37  C   UNL A   1      44.065  26.496  31.681  1.00  0.00     0.031 C 
ATOM     38  C   UNL A   1      43.385  27.882  33.621  1.00  0.00     0.037 A 
BRANCH  25  39
ATOM     39  C   UNL A   1      39.111  31.876  35.584  1.00  0.00     0.064 A 
ATOM     40  C   UNL A   1      38.241  31.347  36.548  1.00  0.00     0.173 A 
ATOM     41  C   UNL A   1      39.538  33.204  35.744  1.00  0.00     0.173 A 
ATOM     42  F   UNL A   1      37.794  30.086  36.433  1.00  0.00    -0.203 F 
ATOM     43  C   UNL A   1      37.809  32.118  37.624  1.00  0.00     0.198 A 
ATOM     44  C   UNL A   1      39.120  33.967  36.832  1.00  0.00     0.198 A 
ATOM     45  F   UNL A   1      40.374  33.756  34.853  1.00  0.00    -0.203 F 
ATOM     46  F   UNL A   1      36.956  31.600  38.519  1.00  0.00    -0.200 F 
ATOM     47  C   UNL A   1      38.254  33.424  37.769  1.00  0.00     0.200 A 
ATOM     48  F   UNL A   1      39.558  35.224  36.976  1.00  0.00    -0.200 F 
ATOM     49  F   UNL A   1      37.847  34.161  38.812  1.00  0.00    -0.200 F 
ENDBRANCH  25  39
BRANCH  26  50
ATOM     50  C   UNL A   1      42.316  26.456  27.836  1.00  0.00     0.064 A 
ATOM     51  C   UNL A   1      41.746  25.206  27.566  1.00  0.00     0.173 A 
ATOM     52  C   UNL A   1      43.305  26.930  26.961  1.00  0.00     0.173 A 
ATOM     53  F   UNL A   1      40.809  24.706  28.385  1.00  0.00    -0.203 F 
ATOM     54  C   UNL A   1      42.152  24.457  26.464  1.00  0.00     0.198 A 
ATOM     55  C   UNL A   1      43.690  26.193  25.845  1.00  0.00     0.198 A 
ATOM     56  F   UNL A   1      43.873  28.126  27.174  1.00  0.00    -0.203 F 
ATOM     57  F   UNL A   1      41.610  23.251  26.241  1.00  0.00    -0.200 F 
ATOM     58  C   UNL A   1      43.116  24.955  25.600  1.00  0.00     0.200 A 
ATOM     59  F   UNL A   1      44.607  26.686  25.003  1.00  0.00    -0.200 F 
ATOM     60  F   UNL A   1      43.493  24.240  24.531  1.00  0.00    -0.200 F 
ENDBRANCH  26  50
BRANCH  38  61
ATOM     61  C   UNL A   1      44.551  27.308  34.364  1.00  0.00     0.064 A 
ATOM     62  C   UNL A   1      45.803  27.941  34.345  1.00  0.00     0.173 A 
ATOM     63  C   UNL A   1      44.419  26.123  35.102  1.00  0.00     0.173 A 
ATOM     64  F   UNL A   1      45.979  29.067  33.638  1.00  0.00    -0.203 F 
ATOM     65  C   UNL A   1      46.891  27.390  35.017  1.00  0.00     0.198 A 
ATOM     66  C   UNL A   1      45.504  25.588  35.790  1.00  0.00     0.198 A 
ATOM     67  F   UNL A   1      43.240  25.485  35.151  1.00  0.00    -0.203 F 
ATOM     68  F   UNL A   1      48.089  27.985  34.947  1.00  0.00    -0.200 F 
ATOM     69  C   UNL A   1      46.739  26.217  35.740  1.00  0.00     0.200 A 
ATOM     70  F   UNL A   1      45.357  24.455  36.492  1.00  0.00    -0.200 F 
ATOM     71  F   UNL A   1      47.789  25.685  36.381  1.00  0.00    -0.200 F 
ENDBRANCH  38  61
ENDBRANCH  12  13
ENDBRANCH   5   7
ENDBRANCH   2   3
ENDBRANCH   1   2
BRANCH   1  72
ATOM     72  C   UNL A   1      31.465  27.457  26.479  1.00  0.00     0.023 C 
BRANCH  72  73
ATOM     73  C   UNL A   1      30.812  26.349  25.649  1.00  0.00     0.116 C 
BRANCH  73  74
ATOM     74  N   UNL A   1      30.465  25.247  26.499  1.00  0.00    -0.356 N 
ATOM     75  C   UNL A   1      31.063  24.037  26.649  1.00  0.00     0.224 C 
ATOM     76  H   UNL A   1      29.669  25.390  27.062  1.00  0.00     0.163 HD
ATOM     77  O   UNL A   1      30.470  23.199  27.328  1.00  0.00    -0.275 OA
BRANCH  75  78
ATOM     78  C   UNL A   1      32.414  23.680  26.131  1.00  0.00     0.095 C 
ATOM     79  C   UNL A   1      32.222  22.781  24.912  1.00  0.00     0.032 C 
ATOM     80  C   UNL A   1      33.316  23.825  24.886  1.00  0.00     0.033 C 
BRANCH  80  81
ATOM     81  C   UNL A   1      33.176  24.930  23.816  1.00  0.00    -0.037 A 
ATOM     82  C   UNL A   1      33.859  26.158  23.929  1.00  0.00     0.004 A 
ATOM     83  C   UNL A   1      32.253  24.834  22.750  1.00  0.00     0.004 A 
ATOM     84  C   UNL A   1      33.650  27.212  23.030  1.00  0.00     0.000 A 
ATOM     85  C   UNL A   1      32.018  25.892  21.863  1.00  0.00     0.000 A 
ATOM     86  C   UNL A   1      32.726  27.080  21.999  1.00  0.00     0.000 A 
ENDBRANCH  80  81
BRANCH  80  87
ATOM     87  C   UNL A   1      34.804  23.276  25.064  1.00  0.00    -0.037 A 
ATOM     88  C   UNL A   1      35.173  21.955  24.731  1.00  0.00     0.004 A 
ATOM     89  C   UNL A   1      35.857  24.076  25.564  1.00  0.00     0.004 A 
ATOM     90  C   UNL A   1      36.472  21.459  24.904  1.00  0.00     0.000 A 
ATOM     91  C   UNL A   1      37.161  23.590  25.740  1.00  0.00     0.000 A 
ATOM     92  C   UNL A   1      37.468  22.278  25.413  1.00  0.00     0.000 A 
ENDBRANCH  80  87
ENDBRANCH  75  78
ENDBRANCH  73  74
ENDBRANCH  72  73
ENDBRANCH   1  72
TORSDOF 13
ENDMDL
MODEL 2
REMARK VINA RESULT:     -13.0      1.245      2.952
REMARK SMILES O=C(NCCCCNC(=O)[C@H]1CC1(c1ccccc1)c1ccccc1)c1ccc(-c2c3nc(c(-c4c(F)c(F)c(F)c(F)c4F)c4ccc([nH]4)c(-c4c(F)c(F)c(F)c(F)c4F)c4nc(c(-c5c(F)c(F)c(F)c(F)c5F)c5ccc2[nH]5)C=C4)C=C3)cc1
REMARK SMILES IDX 5 1 4 2 3 3 1 4 2 5 26 7 27 8 88 9 28 10 87 11 29 12 30 13
REMARK SMILES IDX 31 14 81 15 32 16 86 17 80 18 82 19 33 20 85 21 79 22 78 23
REMARK SMILES IDX 34 25 66 26 46 27 65 28 47 29 50 30 64 31 83 32 48 33 49 34
REMARK SMILES IDX 63 36 84 37 51 38 35 39 36 40 44 41 37 42 38 43 42 44 45 45
REMARK SMILES IDX 39 46 40 47 43 48 41 49 67 50 68 51 76 52 69 53 70 54 74 55
REMARK SMILES IDX 77 56 71 57 72 58 75 59 73 60 52 61 53 62 61 63 54 64 55 65
REMARK SMILES IDX 59 66 62 67 56 68 57 69 60 70 58 71 6 72 7 73 8 74 9 75
REMARK SMILES IDX 10 77 11 78 12 79 13 80 14 81 15 82 19 83 16 84 18 85 17 86
REMARK SMILES IDX 20 87 21 88 25 89 22 90 24 91 23 92
REMARK H PARENT 3 6 82 24 50 35 8 76
REMARK Flexibility Score: inf
ROOT
ATOM      1  C   UNL A   1      31.982  28.971  24.791  1.00  0.00     0.023 C 
ENDROOT
BRANCH   1   2
ATOM      2  C   UNL A   1      32.926  29.588  25.814  1.00  0.00     0.116 C 
BRANCH   2   3
ATOM      3  N   UNL A   1      32.452  30.824  26.424  1.00  0.00    -0.352 N 
ATOM      4  O   UNL A   1      32.643  32.666  27.744  1.00  0.00    -0.269 OA
ATOM      5  C   UNL A   1      33.155  31.665  27.261  1.00  0.00     0.251 C 
ATOM      6  H   UNL A   1      31.527  31.090  26.214  1.00  0.00     0.163 HD
BRANCH   5   7
ATOM      7  C   UNL A   1      34.537  31.277  27.614  1.00  0.00     0.039 A 
ATOM      8  C   UNL A   1      34.803  29.966  28.006  1.00  0.00     0.014 A 
ATOM      9  C   UNL A   1      35.518  32.266  27.714  1.00  0.00     0.014 A 
ATOM     10  C   UNL A   1      35.977  29.692  28.690  1.00  0.00     0.010 A 
ATOM     11  C   UNL A   1      36.744  31.960  28.313  1.00  0.00     0.010 A 
ATOM     12  C   UNL A   1      36.957  30.686  28.863  1.00  0.00    -0.014 A 
BRANCH  12  13
ATOM     13  C   UNL A   1      38.185  30.345  29.627  1.00  0.00     0.031 A 
ATOM     14  C   UNL A   1      38.357  30.762  31.063  1.00  0.00     0.074 A 
ATOM     15  C   UNL A   1      39.106  29.561  29.036  1.00  0.00     0.049 A 
ATOM     16  N   UNL A   1      39.333  30.478  31.891  1.00  0.00    -0.248 NA
ATOM     17  C   UNL A   1      37.309  31.612  31.649  1.00  0.00     0.031 C 
ATOM     18  C   UNL A   1      39.049  29.105  27.646  1.00  0.00     0.029 A 
ATOM     19  N   UNL A   1      40.237  28.969  29.535  1.00  0.00    -0.354 N 
ATOM     20  C   UNL A   1      39.034  31.135  33.077  1.00  0.00     0.074 A 
ATOM     21  C   UNL A   1      37.790  31.843  32.864  1.00  0.00     0.031 C 
ATOM     22  C   UNL A   1      40.050  28.241  27.426  1.00  0.00     0.029 A 
ATOM     23  C   UNL A   1      40.853  28.132  28.638  1.00  0.00     0.049 A 
ATOM     24  H   UNL A   1      40.573  29.129  30.446  1.00  0.00     0.167 HD
ATOM     25  C   UNL A   1      39.736  31.143  34.237  1.00  0.00     0.037 A 
ATOM     26  C   UNL A   1      41.944  27.357  28.775  1.00  0.00     0.037 A 
ATOM     27  C   UNL A   1      40.957  30.412  34.455  1.00  0.00     0.049 A 
ATOM     28  C   UNL A   1      42.668  27.344  30.087  1.00  0.00     0.074 A 
ATOM     29  C   UNL A   1      41.746  30.364  35.593  1.00  0.00     0.029 A 
ATOM     30  N   UNL A   1      41.560  29.586  33.518  1.00  0.00    -0.354 N 
ATOM     31  N   UNL A   1      42.384  27.992  31.191  1.00  0.00    -0.248 NA
ATOM     32  C   UNL A   1      43.867  26.502  30.172  1.00  0.00     0.031 C 
ATOM     33  C   UNL A   1      42.838  29.524  35.335  1.00  0.00     0.029 A 
ATOM     34  C   UNL A   1      42.710  29.026  34.050  1.00  0.00     0.049 A 
ATOM     35  H   UNL A   1      41.220  29.422  32.608  1.00  0.00     0.167 HD
ATOM     36  C   UNL A   1      43.378  27.651  32.095  1.00  0.00     0.074 A 
ATOM     37  C   UNL A   1      44.246  26.703  31.426  1.00  0.00     0.031 C 
ATOM     38  C   UNL A   1      43.568  28.099  33.360  1.00  0.00     0.037 A 
BRANCH  25  39
ATOM     39  C   UNL A   1      39.211  31.980  35.365  1.00  0.00     0.064 A 
ATOM     40  C   UNL A   1      38.423  31.429  36.386  1.00  0.00     0.173 A 
ATOM     41  C   UNL A   1      39.557  33.337  35.463  1.00  0.00     0.173 A 
ATOM     42  F   UNL A   1      38.056  30.139  36.331  1.00  0.00    -0.203 F 
ATOM     43  C   UNL A   1      37.993  32.206  37.459  1.00  0.00     0.198 A 
ATOM     44  C   UNL A   1      39.141  34.107  36.548  1.00  0.00     0.198 A 
ATOM     45  F   UNL A   1      40.311  33.912  34.516  1.00  0.00    -0.203 F 
ATOM     46  F   UNL A   1      37.220  31.664  38.410  1.00  0.00    -0.200 F 
ATOM     47  C   UNL A   1      38.359  33.542  37.542  1.00  0.00     0.200 A 
ATOM     48  F   UNL A   1      39.503  35.394  36.632  1.00  0.00    -0.200 F 
ATOM     49  F   UNL A   1      37.954  34.286  38.582  1.00  0.00    -0.200 F 
ENDBRANCH  25  39
BRANCH  26  50
ATOM     50  C   UNL A   1      42.402  26.535  27.629  1.00  0.00     0.064 A 
ATOM     51  C   UNL A   1      43.392  27.001  26.756  1.00  0.00     0.173 A 
ATOM     52  C   UNL A   1      41.887  25.248  27.412  1.00  0.00     0.173 A 
ATOM     53  F   UNL A   1      43.902  28.231  26.916  1.00  0.00    -0.203 F 
ATOM     54  C   UNL A   1      43.849  26.210  25.703  1.00  0.00     0.198 A 
ATOM     55  C   UNL A   1      42.363  24.449  26.377  1.00  0.00     0.198 A 
ATOM     56  F   UNL A   1      40.943  24.756  28.228  1.00  0.00    -0.203 F 
ATOM     57  F   UNL A   1      44.780  26.688  24.866  1.00  0.00    -0.200 F 
ATOM     58  C   UNL A   1      43.341  24.933  25.521  1.00  0.00     0.200 A 
ATOM     59  F   UNL A   1      41.883  23.209  26.216  1.00  0.00    -0.200 F 
ATOM     60  F   UNL A   1      43.793  24.167  24.518  1.00  0.00    -0.200 F 
ENDBRANCH  26  50
BRANCH  38  61
ATOM     61  C   UNL A   1      44.772  27.578  34.082  1.00  0.00     0.064 A 
ATOM     62  C   UNL A   1      44.708  26.396  34.835  1.00  0.00     0.173 A 
ATOM     63  C   UNL A   1      45.996  28.258  34.019  1.00  0.00     0.173 A 
ATOM     64  F   UNL A   1      43.553  25.722  34.936  1.00  0.00    -0.203 F 
ATOM     65  C   UNL A   1      45.823  25.929  35.524  1.00  0.00     0.198 A 
ATOM     66  C   UNL A   1      47.114  27.776  34.693  1.00  0.00     0.198 A 
ATOM     67  F   UNL A   1      46.104  29.392  33.309  1.00  0.00    -0.203 F 
ATOM     68  F   UNL A   1      45.729  24.824  36.276  1.00  0.00    -0.200 F 
ATOM     69  C   UNL A   1      47.025  26.618  35.451  1.00  0.00     0.200 A 
ATOM     70  F   UNL A   1      48.276  28.440  34.619  1.00  0.00    -0.200 F 
ATOM     71  F   UNL A   1      48.095  26.170  36.121  1.00  0.00    -0.200 F 
ENDBRANCH  38  61
ENDBRANCH  12  13
ENDBRANCH   5   7
ENDBRANCH   2   3
ENDBRANCH   1   2
BRANCH   1  72
ATOM     72  C   UNL A   1      32.417  29.147  23.342  1.00  0.00     0.023 C 
BRANCH  72  73
ATOM     73  C   UNL A   1      33.728  28.449  22.969  1.00  0.00     0.116 C 
BRANCH  73  74
ATOM     74  N   UNL A   1      33.540  27.669  21.780  1.00  0.00    -0.356 N 
ATOM     75  C   UNL A   1      33.214  26.358  21.637  1.00  0.00     0.224 C 
ATOM     76  H   UNL A   1      33.668  28.160  20.936  1.00  0.00     0.163 HD
ATOM     77  O   UNL A   1      33.275  25.887  20.502  1.00  0.00    -0.275 OA
BRANCH  75  78
ATOM     78  C   UNL A   1      32.703  25.480  22.728  1.00  0.00     0.095 C 
ATOM     79  C   UNL A   1      32.738  24.041  22.218  1.00  0.00     0.032 C 
ATOM     80  C   UNL A   1      33.129  24.318  23.652  1.00  0.00     0.033 C 
BRANCH  80  81
ATOM     81  C   UNL A   1      34.587  23.982  24.037  1.00  0.00    -0.037 A 
ATOM     82  C   UNL A   1      35.396  23.165  23.221  1.00  0.00     0.004 A 
ATOM     83  C   UNL A   1      35.140  24.348  25.285  1.00  0.00     0.004 A 
ATOM     84  C   UNL A   1      36.677  22.757  23.615  1.00  0.00     0.000 A 
ATOM     85  C   UNL A   1      36.409  23.922  25.698  1.00  0.00     0.000 A 
ATOM     86  C   UNL A   1      37.182  23.132  24.855  1.00  0.00     0.000 A 
ENDBRANCH  80  81
BRANCH  80  87
ATOM     87  C   UNL A   1      32.054  23.909  24.759  1.00  0.00    -0.037 A 
ATOM     88  C   UNL A   1      31.314  24.863  25.490  1.00  0.00     0.004 A 
ATOM     89  C   UNL A   1      31.765  22.564  25.081  1.00  0.00     0.004 A 
ATOM     90  C   UNL A   1      30.383  24.513  26.477  1.00  0.00     0.000 A 
ATOM     91  C   UNL A   1      30.835  22.202  26.066  1.00  0.00     0.000 A 
ATOM     92  C   UNL A   1      30.146  23.179  26.768  1.00  0.00     0.000 A 
ENDBRANCH  80  87
ENDBRANCH  75  78
ENDBRANCH  73  74
ENDBRANCH  72  73
ENDBRANCH   1  72
TORSDOF 13
ENDMDL
MODEL 3
REMARK VINA RESULT:     -13.0      0.241      1.768
REMARK SMILES O=C(NCCCCNC(=O)[C@H]1CC1(c1ccccc1)c1ccccc1)c1ccc(-c2c3nc(c(-c4c(F)c(F)c(F)c(F)c4F)c4ccc([nH]4)c(-c4c(F)c(F)c(F)c(F)c4F)c4nc(c(-c5c(F)c(F)c(F)c(F)c5F)c5ccc2[nH]5)C=C4)C=C3)cc1
REMARK SMILES IDX 5 1 4 2 3 3 1 4 2 5 26 7 27 8 88 9 28 10 87 11 29 12 30 13
REMARK SMILES IDX 31 14 81 15 32 16 86 17 80 18 82 19 33 20 85 21 79 22 78 23
REMARK SMILES IDX 34 25 66 26 46 27 65 28 47 29 50 30 64 31 83 32 48 33 49 34
REMARK SMILES IDX 63 36 84 37 51 38 35 39 36 40 44 41 37 42 38 43 42 44 45 45
REMARK SMILES IDX 39 46 40 47 43 48 41 49 67 50 68 51 76 52 69 53 70 54 74 55
REMARK SMILES IDX 77 56 71 57 72 58 75 59 73 60 52 61 53 62 61 63 54 64 55 65
REMARK SMILES IDX 59 66 62 67 56 68 57 69 60 70 58 71 6 72 7 73 8 74 9 75
REMARK SMILES IDX 10 77 11 78 12 79 13 80 14 81 15 82 19 83 16 84 18 85 17 86
REMARK SMILES IDX 20 87 21 88 25 89 22 90 24 91 23 92
REMARK H PARENT 3 6 82 24 50 35 8 76
REMARK Flexibility Score: inf
ROOT
ATOM      1  C   UNL A   1      31.647  28.680  25.816  1.00  0.00     0.023 C 
ENDROOT
BRANCH   1   2
ATOM      2  C   UNL A   1      32.794  29.505  26.381  1.00  0.00     0.116 C 
BRANCH   2   3
ATOM      3  N   UNL A   1      32.452  30.876  26.738  1.00  0.00    -0.352 N 
ATOM      4  O   UNL A   1      32.862  32.929  27.625  1.00  0.00    -0.269 OA
ATOM      5  C   UNL A   1      33.268  31.810  27.340  1.00  0.00     0.251 C 
ATOM      6  H   UNL A   1      31.535  31.168  26.527  1.00  0.00     0.163 HD
BRANCH   5   7
ATOM      7  C   UNL A   1      34.640  31.392  27.693  1.00  0.00     0.039 A 
ATOM      8  C   UNL A   1      34.887  30.061  28.027  1.00  0.00     0.014 A 
ATOM      9  C   UNL A   1      35.631  32.364  27.852  1.00  0.00     0.014 A 
ATOM     10  C   UNL A   1      36.049  29.742  28.714  1.00  0.00     0.010 A 
ATOM     11  C   UNL A   1      36.845  32.016  28.453  1.00  0.00     0.010 A 
ATOM     12  C   UNL A   1      37.037  30.716  28.946  1.00  0.00    -0.014 A 
BRANCH  12  13
ATOM     13  C   UNL A   1      38.250  30.327  29.709  1.00  0.00     0.031 A 
ATOM     14  C   UNL A   1      38.437  30.734  31.147  1.00  0.00     0.074 A 
ATOM     15  C   UNL A   1      39.140  29.508  29.118  1.00  0.00     0.049 A 
ATOM     16  N   UNL A   1      39.401  30.410  31.974  1.00  0.00    -0.248 NA
ATOM     17  C   UNL A   1      37.422  31.623  31.734  1.00  0.00     0.031 C 
ATOM     18  C   UNL A   1      39.066  29.057  27.727  1.00  0.00     0.029 A 
ATOM     19  N   UNL A   1      40.247  28.872  29.616  1.00  0.00    -0.354 N 
ATOM     20  C   UNL A   1      39.128  31.077  33.162  1.00  0.00     0.074 A 
ATOM     21  C   UNL A   1      37.912  31.833  32.949  1.00  0.00     0.031 C 
ATOM     22  C   UNL A   1      40.033  28.156  27.506  1.00  0.00     0.029 A 
ATOM     23  C   UNL A   1      40.830  28.013  28.718  1.00  0.00     0.049 A 
ATOM     24  H   UNL A   1      40.589  29.017  30.528  1.00  0.00     0.167 HD
ATOM     25  C   UNL A   1      39.828  31.055  34.322  1.00  0.00     0.037 A 
ATOM     26  C   UNL A   1      41.891  27.197  28.854  1.00  0.00     0.037 A 
ATOM     27  C   UNL A   1      41.020  30.277  34.539  1.00  0.00     0.049 A 
ATOM     28  C   UNL A   1      42.613  27.153  30.167  1.00  0.00     0.074 A 
ATOM     29  C   UNL A   1      41.806  30.196  35.677  1.00  0.00     0.029 A 
ATOM     30  N   UNL A   1      41.591  29.430  33.600  1.00  0.00    -0.354 N 
ATOM     31  N   UNL A   1      42.354  27.809  31.272  1.00  0.00    -0.248 NA
ATOM     32  C   UNL A   1      43.778  26.264  30.250  1.00  0.00     0.031 C 
ATOM     33  C   UNL A   1      42.864  29.315  35.419  1.00  0.00     0.029 A 
ATOM     34  C   UNL A   1      42.718  28.825  34.132  1.00  0.00     0.049 A 
ATOM     35  H   UNL A   1      41.246  29.281  32.690  1.00  0.00     0.167 HD
ATOM     36  C   UNL A   1      43.334  27.428  32.176  1.00  0.00     0.074 A 
ATOM     37  C   UNL A   1      44.164  26.448  31.505  1.00  0.00     0.031 C 
ATOM     38  C   UNL A   1      43.540  27.866  33.441  1.00  0.00     0.037 A 
BRANCH  25  39
ATOM     39  C   UNL A   1      39.335  31.910  35.452  1.00  0.00     0.064 A 
ATOM     40  C   UNL A   1      39.653  33.273  35.535  1.00  0.00     0.173 A 
ATOM     41  C   UNL A   1      38.477  31.375  36.425  1.00  0.00     0.173 A 
ATOM     42  F   UNL A   1      40.480  33.829  34.636  1.00  0.00    -0.203 F 
ATOM     43  C   UNL A   1      39.139  34.067  36.557  1.00  0.00     0.198 A 
ATOM     44  C   UNL A   1      37.949  32.176  37.435  1.00  0.00     0.198 A 
ATOM     45  F   UNL A   1      38.138  30.078  36.388  1.00  0.00    -0.203 F 
ATOM     46  F   UNL A   1      39.477  35.362  36.633  1.00  0.00    -0.200 F 
ATOM     47  C   UNL A   1      38.282  33.520  37.501  1.00  0.00     0.200 A 
ATOM     48  F   UNL A   1      37.113  31.649  38.340  1.00  0.00    -0.200 F 
ATOM     49  F   UNL A   1      37.778  34.289  38.477  1.00  0.00    -0.200 F 
ENDBRANCH  25  39
BRANCH  26  50
ATOM     50  C   UNL A   1      42.317  26.359  27.707  1.00  0.00     0.064 A 
ATOM     51  C   UNL A   1      43.340  26.778  26.848  1.00  0.00     0.173 A 
ATOM     52  C   UNL A   1      41.737  25.103  27.475  1.00  0.00     0.173 A 
ATOM     53  F   UNL A   1      43.911  27.979  27.021  1.00  0.00    -0.203 F 
ATOM     54  C   UNL A   1      43.766  25.972  25.794  1.00  0.00     0.198 A 
ATOM     55  C   UNL A   1      42.182  24.287  26.439  1.00  0.00     0.198 A 
ATOM     56  F   UNL A   1      40.760  24.656  28.277  1.00  0.00    -0.203 F 
ATOM     57  F   UNL A   1      44.728  26.406  24.969  1.00  0.00    -0.200 F 
ATOM     58  C   UNL A   1      43.193  24.724  25.597  1.00  0.00     0.200 A 
ATOM     59  F   UNL A   1      41.639  23.075  26.264  1.00  0.00    -0.200 F 
ATOM     60  F   UNL A   1      43.615  23.943  24.593  1.00  0.00    -0.200 F 
ENDBRANCH  26  50
BRANCH  38  61
ATOM     61  C   UNL A   1      44.722  27.298  34.162  1.00  0.00     0.064 A 
ATOM     62  C   UNL A   1      45.978  27.922  34.097  1.00  0.00     0.173 A 
ATOM     63  C   UNL A   1      44.603  26.129  34.926  1.00  0.00     0.173 A 
ATOM     64  F   UNL A   1      46.141  29.033  33.364  1.00  0.00    -0.203 F 
ATOM     65  C   UNL A   1      47.079  27.377  34.749  1.00  0.00     0.198 A 
ATOM     66  C   UNL A   1      45.703  25.599  35.594  1.00  0.00     0.198 A 
ATOM     67  F   UNL A   1      43.421  25.500  35.019  1.00  0.00    -0.203 F 
ATOM     68  F   UNL A   1      48.279  27.961  34.635  1.00  0.00    -0.200 F 
ATOM     69  C   UNL A   1      46.940  26.218  35.499  1.00  0.00     0.200 A 
ATOM     70  F   UNL A   1      45.568  24.481  36.321  1.00  0.00    -0.200 F 
ATOM     71  F   UNL A   1      48.004  25.690  36.120  1.00  0.00    -0.200 F 
ENDBRANCH  38  61
ENDBRANCH  12  13
ENDBRANCH   5   7
ENDBRANCH   2   3
ENDBRANCH   1   2
BRANCH   1  72
ATOM     72  C   UNL A   1      31.465  27.316  26.472  1.00  0.00     0.023 C 
BRANCH  72  73
ATOM     73  C   UNL A   1      30.599  26.329  25.685  1.00  0.00     0.116 C 
BRANCH  73  74
ATOM     74  N   UNL A   1      30.304  25.186  26.501  1.00  0.00    -0.356 N 
ATOM     75  C   UNL A   1      30.947  23.993  26.597  1.00  0.00     0.224 C 
ATOM     76  H   UNL A   1      29.514  25.281  27.081  1.00  0.00     0.163 HD
ATOM     77  O   UNL A   1      30.394  23.112  27.256  1.00  0.00    -0.275 OA
BRANCH  75  78
ATOM     78  C   UNL A   1      32.301  23.703  26.047  1.00  0.00     0.095 C 
ATOM     79  C   UNL A   1      32.119  22.852  24.793  1.00  0.00     0.032 C 
ATOM     80  C   UNL A   1      33.179  23.930  24.797  1.00  0.00     0.033 C 
BRANCH  80  81
ATOM     81  C   UNL A   1      32.988  25.076  23.778  1.00  0.00    -0.037 A 
ATOM     82  C   UNL A   1      32.188  24.915  22.629  1.00  0.00     0.004 A 
ATOM     83  C   UNL A   1      33.714  26.285  23.860  1.00  0.00     0.004 A 
ATOM     84  C   UNL A   1      32.101  25.903  21.638  1.00  0.00     0.000 A 
ATOM     85  C   UNL A   1      33.654  27.266  22.862  1.00  0.00     0.000 A 
ATOM     86  C   UNL A   1      32.838  27.077  21.754  1.00  0.00     0.000 A 
ENDBRANCH  80  81
BRANCH  80  87
ATOM     87  C   UNL A   1      34.687  23.423  24.931  1.00  0.00    -0.037 A 
ATOM     88  C   UNL A   1      35.639  24.078  25.742  1.00  0.00     0.004 A 
ATOM     89  C   UNL A   1      35.172  22.284  24.251  1.00  0.00     0.004 A 
ATOM     90  C   UNL A   1      36.970  23.652  25.849  1.00  0.00     0.000 A 
ATOM     91  C   UNL A   1      36.501  21.848  24.353  1.00  0.00     0.000 A 
ATOM     92  C   UNL A   1      37.403  22.537  25.150  1.00  0.00     0.000 A 
ENDBRANCH  80  87
ENDBRANCH  75  78
ENDBRANCH  73  74
ENDBRANCH  72  73
ENDBRANCH   1  72
TORSDOF 13
ENDMDL
