MODEL 1
REMARK VINA RESULT:     -10.6      0.000      0.000
REMARK SMILES C=CCN1C(=O)/C(=C\c2cccn2-c2ccc(C(=O)NCCCCNC(=O)c3ccc(-c4c5nc(c(-c6c(F)c(F)c(F)c(F)c6F)c6ccc([nH]6)c(-c6c(F)c(F)c(F)c(F)c6F)c6nc(c(-c7c(F)c(F)c(F)c(F)c7F)c7ccc4[nH]7)C=C6)C=C5)cc3)cc2)C(O)=NC1=S
REMARK SMILES IDX 21 1 20 2 18 3 19 4 17 6 14 7 15 8 92 9 16 10 91 11 13 12
REMARK SMILES IDX 9 13 10 14 11 15 12 16 8 17 4 18 5 19 96 20 6 21 7 22 95 23
REMARK SMILES IDX 97 24 93 25 3 26 2 27 1 28 94 29 22 31 23 32 24 33 25 34
REMARK SMILES IDX 26 35 27 37 28 38 29 39 90 40 30 41 89 42 31 43 32 44 33 45
REMARK SMILES IDX 83 46 34 47 88 48 82 49 84 50 35 51 87 52 81 53 80 54 36 56
REMARK SMILES IDX 68 57 48 58 67 59 49 60 52 61 66 62 85 63 50 64 51 65 65 67
REMARK SMILES IDX 86 68 53 69 37 70 38 71 46 72 39 73 40 74 44 75 47 76 41 77
REMARK SMILES IDX 42 78 45 79 43 80 69 81 70 82 78 83 71 84 72 85 76 86 79 87
REMARK SMILES IDX 73 88 74 89 77 90 75 91 54 92 55 93 63 94 56 95 57 96 61 97
REMARK SMILES IDX 64 98 58 99 59 100 62 101 60 102
REMARK H PARENT 20 5 94 30 25 36 84 55 52 66
REMARK Flexibility Score: inf
ROOT
ATOM      1  C   UNL A   1      42.957  31.677  34.542  1.00  0.00     0.116 C 
ENDROOT
BRANCH   1   2
ATOM      2  N   UNL A   1      43.249  32.602  33.463  1.00  0.00    -0.352 N 
ATOM      3  C   UNL A   1      43.014  32.572  32.112  1.00  0.00     0.251 C 
ATOM      4  O   UNL A   1      43.384  33.549  31.459  1.00  0.00    -0.269 OA
ATOM      5  H   UNL A   1      43.711  33.417  33.762  1.00  0.00     0.163 HD
BRANCH   3   6
ATOM      6  C   UNL A   1      42.296  31.467  31.412  1.00  0.00     0.039 A 
ATOM      7  C   UNL A   1      41.074  29.241  30.207  1.00  0.00     0.046 A 
ATOM      8  C   UNL A   1      41.565  29.133  31.509  1.00  0.00     0.027 A 
ATOM      9  C   UNL A   1      41.119  30.464  29.538  1.00  0.00     0.027 A 
ATOM     10  C   UNL A   1      42.199  30.237  32.091  1.00  0.00     0.016 A 
ATOM     11  C   UNL A   1      41.689  31.578  30.160  1.00  0.00     0.016 A 
BRANCH   7  12
ATOM     12  N   UNL A   1      40.458  28.130  29.584  1.00  0.00    -0.317 N 
ATOM     13  C   UNL A   1      39.379  27.381  30.047  1.00  0.00     0.047 A 
ATOM     14  C   UNL A   1      39.211  26.311  29.183  1.00  0.00     0.028 A 
ATOM     15  C   UNL A   1      40.180  26.421  28.162  1.00  0.00     0.020 A 
ATOM     16  C   UNL A   1      40.895  27.572  28.400  1.00  0.00     0.092 A 
BRANCH  13  17
ATOM     17  C   UNL A   1      38.586  27.815  31.145  1.00  0.00     0.046 C 
ATOM     18  N   UNL A   1      36.596  30.666  29.935  1.00  0.00    -0.279 N 
ATOM     19  C   UNL A   1      37.256  29.446  29.796  1.00  0.00     0.265 C 
ATOM     20  C   UNL A   1      36.123  31.152  31.164  1.00  0.00     0.206 C 
ATOM     21  O   UNL A   1      37.454  28.916  28.705  1.00  0.00    -0.268 OA
ATOM     22  C   UNL A   1      37.649  28.783  31.069  1.00  0.00     0.104 C 
ATOM     23  N   UNL A   1      36.258  30.369  32.283  1.00  0.00    -0.184 NA
ATOM     24  S   UNL A   1      35.364  32.656  31.360  1.00  0.00    -0.038 S 
ATOM     25  C   UNL A   1      36.954  29.296  32.252  1.00  0.00     0.226 C 
BRANCH  18  26
ATOM     26  C   UNL A   1      36.382  31.389  28.676  1.00  0.00     0.155 C 
BRANCH  26  27
ATOM     27  C   UNL A   1      35.028  31.039  28.118  1.00  0.00    -0.013 C 
ATOM     28  C   UNL A   1      34.055  31.927  27.877  1.00  0.00     0.006 C 
ENDBRANCH  26  27
ENDBRANCH  18  26
BRANCH  25  29
ATOM     29  O   UNL A   1      37.013  28.593  33.396  1.00  0.00    -0.493 OA
ATOM     30  H   UNL A   1      37.100  29.039  34.216  1.00  0.00     0.295 HD
ENDBRANCH  25  29
ENDBRANCH  13  17
ENDBRANCH   7  12
ENDBRANCH   3   6
ENDBRANCH   1   2
BRANCH   1  31
ATOM     31  C   UNL A   1      44.219  30.921  34.966  1.00  0.00     0.023 C 
BRANCH  31  32
ATOM     32  C   UNL A   1      44.082  30.181  36.306  1.00  0.00     0.023 C 
BRANCH  32  33
ATOM     33  C   UNL A   1      45.319  29.376  36.706  1.00  0.00     0.116 C 
BRANCH  33  34
ATOM     34  N   UNL A   1      44.955  28.062  37.207  1.00  0.00    -0.352 N 
ATOM     35  C   UNL A   1      44.422  26.988  36.541  1.00  0.00     0.251 C 
ATOM     36  H   UNL A   1      45.114  27.921  38.168  1.00  0.00     0.163 HD
ATOM     37  O   UNL A   1      43.828  26.120  37.169  1.00  0.00    -0.269 OA
BRANCH  35  38
ATOM     38  C   UNL A   1      44.541  26.864  35.074  1.00  0.00     0.039 A 
ATOM     39  C   UNL A   1      43.380  27.000  34.307  1.00  0.00     0.014 A 
ATOM     40  C   UNL A   1      45.757  26.529  34.466  1.00  0.00     0.014 A 
ATOM     41  C   UNL A   1      43.448  26.863  32.925  1.00  0.00     0.010 A 
ATOM     42  C   UNL A   1      45.836  26.422  33.081  1.00  0.00     0.010 A 
ATOM     43  C   UNL A   1      44.681  26.602  32.311  1.00  0.00    -0.014 A 
BRANCH  43  44
ATOM     44  C   UNL A   1      44.759  26.698  30.835  1.00  0.00     0.031 A 
ATOM     45  C   UNL A   1      44.927  28.166  30.382  1.00  0.00     0.074 A 
ATOM     46  C   UNL A   1      44.624  25.531  30.132  1.00  0.00     0.049 A 
ATOM     47  N   UNL A   1      44.530  28.765  29.301  1.00  0.00    -0.248 NA
ATOM     48  C   UNL A   1      45.575  29.135  31.314  1.00  0.00     0.031 C 
ATOM     49  C   UNL A   1      44.544  24.187  30.744  1.00  0.00     0.029 A 
ATOM     50  N   UNL A   1      44.521  25.219  28.788  1.00  0.00    -0.354 N 
ATOM     51  C   UNL A   1      45.021  30.094  29.335  1.00  0.00     0.074 A 
ATOM     52  C   UNL A   1      45.553  30.291  30.647  1.00  0.00     0.031 C 
ATOM     53  C   UNL A   1      44.325  23.238  29.809  1.00  0.00     0.029 A 
ATOM     54  C   UNL A   1      44.235  23.853  28.501  1.00  0.00     0.049 A 
ATOM     55  H   UNL A   1      44.636  25.894  28.080  1.00  0.00     0.167 HD
ATOM     56  C   UNL A   1      45.075  30.898  28.229  1.00  0.00     0.037 A 
ATOM     57  C   UNL A   1      43.888  23.273  27.306  1.00  0.00     0.037 A 
ATOM     58  C   UNL A   1      44.512  30.214  27.117  1.00  0.00     0.049 A 
ATOM     59  C   UNL A   1      44.013  24.348  26.317  1.00  0.00     0.074 A 
ATOM     60  C   UNL A   1      43.222  29.897  26.788  1.00  0.00     0.029 A 
ATOM     61  N   UNL A   1      45.372  29.455  26.363  1.00  0.00    -0.354 N 
ATOM     62  N   UNL A   1      45.141  24.809  25.867  1.00  0.00    -0.248 NA
ATOM     63  C   UNL A   1      42.794  25.030  25.864  1.00  0.00     0.031 C 
ATOM     64  C   UNL A   1      43.345  28.618  26.210  1.00  0.00     0.029 A 
ATOM     65  C   UNL A   1      44.696  28.321  26.000  1.00  0.00     0.049 A 
ATOM     66  H   UNL A   1      46.300  29.684  26.128  1.00  0.00     0.167 HD
ATOM     67  C   UNL A   1      44.766  26.029  25.358  1.00  0.00     0.074 A 
ATOM     68  C   UNL A   1      43.348  25.954  25.086  1.00  0.00     0.031 C 
ATOM     69  C   UNL A   1      45.465  27.136  25.708  1.00  0.00     0.037 A 
BRANCH  56  70
ATOM     70  C   UNL A   1      45.801  32.182  27.919  1.00  0.00     0.064 A 
ATOM     71  C   UNL A   1      45.025  33.330  27.599  1.00  0.00     0.173 A 
ATOM     72  C   UNL A   1      47.151  32.237  27.555  1.00  0.00     0.173 A 
ATOM     73  F   UNL A   1      43.734  33.409  27.959  1.00  0.00    -0.203 F 
ATOM     74  C   UNL A   1      45.526  34.373  26.824  1.00  0.00     0.198 A 
ATOM     75  C   UNL A   1      47.664  33.314  26.820  1.00  0.00     0.198 A 
ATOM     76  F   UNL A   1      47.978  31.214  27.804  1.00  0.00    -0.203 F 
ATOM     77  F   UNL A   1      44.709  35.355  26.415  1.00  0.00    -0.200 F 
ATOM     78  C   UNL A   1      46.842  34.353  26.415  1.00  0.00     0.200 A 
ATOM     79  F   UNL A   1      48.948  33.299  26.435  1.00  0.00    -0.200 F 
ATOM     80  F   UNL A   1      47.312  35.312  25.606  1.00  0.00    -0.200 F 
ENDBRANCH  56  70
BRANCH  57  81
ATOM     81  C   UNL A   1      43.346  21.952  26.788  1.00  0.00     0.064 A 
ATOM     82  C   UNL A   1      43.879  21.188  25.744  1.00  0.00     0.173 A 
ATOM     83  C   UNL A   1      42.225  21.341  27.430  1.00  0.00     0.173 A 
ATOM     84  F   UNL A   1      44.831  21.680  24.946  1.00  0.00    -0.203 F 
ATOM     85  C   UNL A   1      43.422  19.882  25.462  1.00  0.00     0.198 A 
ATOM     86  C   UNL A   1      41.807  20.033  27.190  1.00  0.00     0.198 A 
ATOM     87  F   UNL A   1      41.479  21.999  28.327  1.00  0.00    -0.203 F 
ATOM     88  F   UNL A   1      43.972  19.188  24.456  1.00  0.00    -0.200 F 
ATOM     89  C   UNL A   1      42.422  19.290  26.215  1.00  0.00     0.200 A 
ATOM     90  F   UNL A   1      40.819  19.505  27.928  1.00  0.00    -0.200 F 
ATOM     91  F   UNL A   1      42.041  18.026  25.991  1.00  0.00    -0.200 F 
ENDBRANCH  57  81
BRANCH  69  92
ATOM     92  C   UNL A   1      46.896  26.854  26.127  1.00  0.00     0.064 A 
ATOM     93  C   UNL A   1      47.840  26.481  25.159  1.00  0.00     0.173 A 
ATOM     94  C   UNL A   1      47.335  26.813  27.462  1.00  0.00     0.173 A 
ATOM     95  F   UNL A   1      47.508  26.509  23.859  1.00  0.00    -0.203 F 
ATOM     96  C   UNL A   1      49.130  26.071  25.506  1.00  0.00     0.198 A 
ATOM     97  C   UNL A   1      48.627  26.411  27.813  1.00  0.00     0.198 A 
ATOM     98  F   UNL A   1      46.522  27.160  28.457  1.00  0.00    -0.203 F 
ATOM     99  F   UNL A   1      49.998  25.716  24.548  1.00  0.00    -0.200 F 
ATOM    100  C   UNL A   1      49.523  26.034  26.833  1.00  0.00     0.200 A 
ATOM    101  F   UNL A   1      48.998  26.397  29.104  1.00  0.00    -0.200 F 
ATOM    102  F   UNL A   1      50.764  25.651  27.166  1.00  0.00    -0.200 F 
ENDBRANCH  69  92
ENDBRANCH  43  44
ENDBRANCH  35  38
ENDBRANCH  33  34
ENDBRANCH  32  33
ENDBRANCH  31  32
ENDBRANCH   1  31
TORSDOF 16
ENDMDL
MODEL 2
REMARK VINA RESULT:     -10.5      5.234     10.156
REMARK SMILES C=CCN1C(=O)/C(=C\c2cccn2-c2ccc(C(=O)NCCCCNC(=O)c3ccc(-c4c5nc(c(-c6c(F)c(F)c(F)c(F)c6F)c6ccc([nH]6)c(-c6c(F)c(F)c(F)c(F)c6F)c6nc(c(-c7c(F)c(F)c(F)c(F)c7F)c7ccc4[nH]7)C=C6)C=C5)cc3)cc2)C(O)=NC1=S
REMARK SMILES IDX 21 1 20 2 18 3 19 4 17 6 14 7 15 8 92 9 16 10 91 11 13 12
REMARK SMILES IDX 9 13 10 14 11 15 12 16 8 17 4 18 5 19 96 20 6 21 7 22 95 23
REMARK SMILES IDX 97 24 93 25 3 26 2 27 1 28 94 29 22 31 23 32 24 33 25 34
REMARK SMILES IDX 26 35 27 37 28 38 29 39 90 40 30 41 89 42 31 43 32 44 33 45
REMARK SMILES IDX 83 46 34 47 88 48 82 49 84 50 35 51 87 52 81 53 80 54 36 56
REMARK SMILES IDX 68 57 48 58 67 59 49 60 52 61 66 62 85 63 50 64 51 65 65 67
REMARK SMILES IDX 86 68 53 69 37 70 38 71 46 72 39 73 40 74 44 75 47 76 41 77
REMARK SMILES IDX 42 78 45 79 43 80 69 81 70 82 78 83 71 84 72 85 76 86 79 87
REMARK SMILES IDX 73 88 74 89 77 90 75 91 54 92 55 93 63 94 56 95 57 96 61 97
REMARK SMILES IDX 64 98 58 99 59 100 62 101 60 102
REMARK H PARENT 20 5 94 30 25 36 84 55 52 66
REMARK Flexibility Score: inf
ROOT
ATOM      1  C   UNL A   1      39.977  21.728  26.584  1.00  0.00     0.116 C 
ENDROOT
BRANCH   1   2
ATOM      2  N   UNL A   1      39.674  23.127  26.826  1.00  0.00    -0.352 N 
ATOM      3  C   UNL A   1      38.611  23.928  26.491  1.00  0.00     0.251 C 
ATOM      4  O   UNL A   1      38.655  25.099  26.870  1.00  0.00    -0.269 OA
ATOM      5  H   UNL A   1      40.374  23.595  27.334  1.00  0.00     0.163 HD
BRANCH   3   6
ATOM      6  C   UNL A   1      37.403  23.451  25.756  1.00  0.00     0.039 A 
ATOM      7  C   UNL A   1      35.046  22.486  24.570  1.00  0.00     0.046 A 
ATOM      8  C   UNL A   1      35.002  22.996  25.867  1.00  0.00     0.027 A 
ATOM      9  C   UNL A   1      36.233  22.527  23.838  1.00  0.00     0.027 A 
ATOM     10  C   UNL A   1      36.185  23.447  26.463  1.00  0.00     0.016 A 
ATOM     11  C   UNL A   1      37.392  23.048  24.420  1.00  0.00     0.016 A 
BRANCH   7  12
ATOM     12  N   UNL A   1      33.869  21.995  23.957  1.00  0.00    -0.317 N 
ATOM     13  C   UNL A   1      32.985  22.682  23.130  1.00  0.00     0.047 A 
ATOM     14  C   UNL A   1      31.908  21.848  22.882  1.00  0.00     0.028 A 
ATOM     15  C   UNL A   1      32.146  20.623  23.541  1.00  0.00     0.020 A 
ATOM     16  C   UNL A   1      33.379  20.718  24.146  1.00  0.00     0.092 A 
BRANCH  13  17
ATOM     17  C   UNL A   1      33.307  23.959  22.592  1.00  0.00     0.046 C 
ATOM     18  N   UNL A   1      31.496  26.439  24.620  1.00  0.00    -0.279 N 
ATOM     19  C   UNL A   1      32.170  25.237  24.414  1.00  0.00     0.265 C 
ATOM     20  C   UNL A   1      31.664  27.569  23.804  1.00  0.00     0.206 C 
ATOM     21  O   UNL A   1      32.205  24.340  25.253  1.00  0.00    -0.268 OA
ATOM     22  C   UNL A   1      32.911  25.132  23.127  1.00  0.00     0.104 C 
ATOM     23  N   UNL A   1      32.580  27.519  22.784  1.00  0.00    -0.184 NA
ATOM     24  S   UNL A   1      30.815  29.022  24.010  1.00  0.00    -0.038 S 
ATOM     25  C   UNL A   1      33.147  26.417  22.465  1.00  0.00     0.226 C 
BRANCH  18  26
ATOM     26  C   UNL A   1      30.625  26.453  25.802  1.00  0.00     0.155 C 
BRANCH  26  27
ATOM     27  C   UNL A   1      31.416  26.892  27.006  1.00  0.00    -0.013 C 
ATOM     28  C   UNL A   1      31.205  28.031  27.677  1.00  0.00     0.006 C 
ENDBRANCH  26  27
ENDBRANCH  18  26
BRANCH  25  29
ATOM     29  O   UNL A   1      34.039  26.476  21.461  1.00  0.00    -0.493 OA
ATOM     30  H   UNL A   1      34.057  27.222  20.894  1.00  0.00     0.295 HD
ENDBRANCH  25  29
ENDBRANCH  13  17
ENDBRANCH   7  12
ENDBRANCH   3   6
ENDBRANCH   1   2
BRANCH   1  31
ATOM     31  C   UNL A   1      41.209  21.294  27.383  1.00  0.00     0.023 C 
BRANCH  31  32
ATOM     32  C   UNL A   1      42.486  21.169  26.537  1.00  0.00     0.023 C 
BRANCH  32  33
ATOM     33  C   UNL A   1      42.533  22.108  25.332  1.00  0.00     0.116 C 
BRANCH  33  34
ATOM     34  N   UNL A   1      43.890  22.550  25.058  1.00  0.00    -0.352 N 
ATOM     35  C   UNL A   1      44.443  23.800  25.170  1.00  0.00     0.251 C 
ATOM     36  H   UNL A   1      44.505  21.847  24.746  1.00  0.00     0.163 HD
ATOM     37  O   UNL A   1      45.461  24.069  24.545  1.00  0.00    -0.269 OA
BRANCH  35  38
ATOM     38  C   UNL A   1      43.824  24.834  26.025  1.00  0.00     0.039 A 
ATOM     39  C   UNL A   1      43.004  24.413  27.076  1.00  0.00     0.014 A 
ATOM     40  C   UNL A   1      43.973  26.197  25.744  1.00  0.00     0.014 A 
ATOM     41  C   UNL A   1      42.383  25.357  27.885  1.00  0.00     0.010 A 
ATOM     42  C   UNL A   1      43.378  27.147  26.569  1.00  0.00     0.010 A 
ATOM     43  C   UNL A   1      42.593  26.723  27.648  1.00  0.00    -0.014 A 
BRANCH  43  44
ATOM     44  C   UNL A   1      42.114  27.689  28.664  1.00  0.00     0.031 A 
ATOM     45  C   UNL A   1      42.917  27.557  29.978  1.00  0.00     0.074 A 
ATOM     46  C   UNL A   1      41.049  28.475  28.315  1.00  0.00     0.049 A 
ATOM     47  N   UNL A   1      42.560  27.765  31.208  1.00  0.00    -0.248 NA
ATOM     48  C   UNL A   1      44.316  27.042  29.915  1.00  0.00     0.031 C 
ATOM     49  C   UNL A   1      40.445  28.519  26.966  1.00  0.00     0.029 A 
ATOM     50  N   UNL A   1      40.255  29.382  28.993  1.00  0.00    -0.354 N 
ATOM     51  C   UNL A   1      43.702  27.589  32.029  1.00  0.00     0.074 A 
ATOM     52  C   UNL A   1      44.716  27.033  31.189  1.00  0.00     0.031 C 
ATOM     53  C   UNL A   1      39.357  29.318  26.945  1.00  0.00     0.029 A 
ATOM     54  C   UNL A   1      39.133  29.873  28.264  1.00  0.00     0.049 A 
ATOM     55  H   UNL A   1      40.450  29.668  29.915  1.00  0.00     0.167 HD
ATOM     56  C   UNL A   1      43.771  28.042  33.318  1.00  0.00     0.037 A 
ATOM     57  C   UNL A   1      38.069  30.618  28.708  1.00  0.00     0.037 A 
ATOM     58  C   UNL A   1      42.528  28.627  33.683  1.00  0.00     0.049 A 
ATOM     59  C   UNL A   1      38.395  30.945  30.100  1.00  0.00     0.074 A 
ATOM     60  C   UNL A   1      41.305  28.084  33.971  1.00  0.00     0.029 A 
ATOM     61  N   UNL A   1      42.381  29.967  33.430  1.00  0.00    -0.354 N 
ATOM     62  N   UNL A   1      39.278  31.826  30.463  1.00  0.00    -0.248 NA
ATOM     63  C   UNL A   1      37.763  30.165  31.171  1.00  0.00     0.031 C 
ATOM     64  C   UNL A   1      40.405  29.005  33.399  1.00  0.00     0.029 A 
ATOM     65  C   UNL A   1      41.092  30.159  33.008  1.00  0.00     0.049 A 
ATOM     66  H   UNL A   1      43.073  30.661  33.532  1.00  0.00     0.167 HD
ATOM     67  C   UNL A   1      39.532  31.455  31.761  1.00  0.00     0.074 A 
ATOM     68  C   UNL A   1      38.385  30.701  32.215  1.00  0.00     0.031 C 
ATOM     69  C   UNL A   1      40.816  31.297  32.167  1.00  0.00     0.037 A 
BRANCH  56  70
ATOM     70  C   UNL A   1      44.914  28.262  34.276  1.00  0.00     0.064 A 
ATOM     71  C   UNL A   1      44.892  27.566  35.516  1.00  0.00     0.173 A 
ATOM     72  C   UNL A   1      45.778  29.361  34.207  1.00  0.00     0.173 A 
ATOM     73  F   UNL A   1      44.146  26.461  35.671  1.00  0.00    -0.203 F 
ATOM     74  C   UNL A   1      45.554  28.040  36.646  1.00  0.00     0.198 A 
ATOM     75  C   UNL A   1      46.484  29.803  35.334  1.00  0.00     0.198 A 
ATOM     76  F   UNL A   1      45.882  30.092  33.091  1.00  0.00    -0.203 F 
ATOM     77  F   UNL A   1      45.372  27.438  37.830  1.00  0.00    -0.200 F 
ATOM     78  C   UNL A   1      46.334  29.174  36.559  1.00  0.00     0.200 A 
ATOM     79  F   UNL A   1      47.253  30.898  35.244  1.00  0.00    -0.200 F 
ATOM     80  F   UNL A   1      46.912  29.681  37.657  1.00  0.00    -0.200 F 
ENDBRANCH  56  70
BRANCH  57  81
ATOM     81  C   UNL A   1      36.702  31.067  28.222  1.00  0.00     0.064 A 
ATOM     82  C   UNL A   1      35.659  30.238  27.796  1.00  0.00     0.173 A 
ATOM     83  C   UNL A   1      36.359  32.454  28.243  1.00  0.00     0.173 A 
ATOM     84  F   UNL A   1      35.859  28.935  27.577  1.00  0.00    -0.203 F 
ATOM     85  C   UNL A   1      34.360  30.735  27.548  1.00  0.00     0.198 A 
ATOM     86  C   UNL A   1      35.066  32.940  28.050  1.00  0.00     0.198 A 
ATOM     87  F   UNL A   1      37.277  33.407  28.451  1.00  0.00    -0.203 F 
ATOM     88  F   UNL A   1      33.394  29.896  27.150  1.00  0.00    -0.200 F 
ATOM     89  C   UNL A   1      34.056  32.074  27.722  1.00  0.00     0.200 A 
ATOM     90  F   UNL A   1      34.818  34.249  28.207  1.00  0.00    -0.200 F 
ATOM     91  F   UNL A   1      32.807  32.529  27.555  1.00  0.00    -0.200 F 
ENDBRANCH  57  81
BRANCH  69  92
ATOM     92  C   UNL A   1      41.819  32.095  31.356  1.00  0.00     0.064 A 
ATOM     93  C   UNL A   1      41.816  33.496  31.436  1.00  0.00     0.173 A 
ATOM     94  C   UNL A   1      42.695  31.536  30.410  1.00  0.00     0.173 A 
ATOM     95  F   UNL A   1      41.022  34.111  32.326  1.00  0.00    -0.203 F 
ATOM     96  C   UNL A   1      42.618  34.285  30.606  1.00  0.00     0.198 A 
ATOM     97  C   UNL A   1      43.505  32.320  29.583  1.00  0.00     0.198 A 
ATOM     98  F   UNL A   1      42.785  30.216  30.263  1.00  0.00    -0.203 F 
ATOM     99  F   UNL A   1      42.578  35.620  30.711  1.00  0.00    -0.200 F 
ATOM    100  C   UNL A   1      43.461  33.696  29.677  1.00  0.00     0.200 A 
ATOM    101  F   UNL A   1      44.329  31.734  28.699  1.00  0.00    -0.200 F 
ATOM    102  F   UNL A   1      44.238  34.451  28.889  1.00  0.00    -0.200 F 
ENDBRANCH  69  92
ENDBRANCH  43  44
ENDBRANCH  35  38
ENDBRANCH  33  34
ENDBRANCH  32  33
ENDBRANCH  31  32
ENDBRANCH   1  31
TORSDOF 16
ENDMDL
MODEL 3
REMARK VINA RESULT:     -10.2      2.843      8.915
REMARK SMILES C=CCN1C(=O)/C(=C\c2cccn2-c2ccc(C(=O)NCCCCNC(=O)c3ccc(-c4c5nc(c(-c6c(F)c(F)c(F)c(F)c6F)c6ccc([nH]6)c(-c6c(F)c(F)c(F)c(F)c6F)c6nc(c(-c7c(F)c(F)c(F)c(F)c7F)c7ccc4[nH]7)C=C6)C=C5)cc3)cc2)C(O)=NC1=S
REMARK SMILES IDX 21 1 20 2 18 3 19 4 17 6 14 7 15 8 92 9 16 10 91 11 13 12
REMARK SMILES IDX 9 13 10 14 11 15 12 16 8 17 4 18 5 19 96 20 6 21 7 22 95 23
REMARK SMILES IDX 97 24 93 25 3 26 2 27 1 28 94 29 22 31 23 32 24 33 25 34
REMARK SMILES IDX 26 35 27 37 28 38 29 39 90 40 30 41 89 42 31 43 32 44 33 45
REMARK SMILES IDX 83 46 34 47 88 48 82 49 84 50 35 51 87 52 81 53 80 54 36 56
REMARK SMILES IDX 68 57 48 58 67 59 49 60 52 61 66 62 85 63 50 64 51 65 65 67
REMARK SMILES IDX 86 68 53 69 37 70 38 71 46 72 39 73 40 74 44 75 47 76 41 77
REMARK SMILES IDX 42 78 45 79 43 80 69 81 70 82 78 83 71 84 72 85 76 86 79 87
REMARK SMILES IDX 73 88 74 89 77 90 75 91 54 92 55 93 63 94 56 95 57 96 61 97
REMARK SMILES IDX 64 98 58 99 59 100 62 101 60 102
REMARK H PARENT 20 5 94 30 25 36 84 55 52 66
REMARK Flexibility Score: inf
ROOT
ATOM      1  C   UNL A   1      35.189  33.898  31.038  1.00  0.00     0.116 C 
ENDROOT
BRANCH   1   2
ATOM      2  N   UNL A   1      35.368  33.635  29.622  1.00  0.00    -0.352 N 
ATOM      3  C   UNL A   1      36.474  33.560  28.814  1.00  0.00     0.251 C 
ATOM      4  O   UNL A   1      36.280  33.297  27.626  1.00  0.00    -0.269 OA
ATOM      5  H   UNL A   1      34.522  33.479  29.144  1.00  0.00     0.163 HD
BRANCH   3   6
ATOM      6  C   UNL A   1      37.876  33.719  29.299  1.00  0.00     0.039 A 
ATOM      7  C   UNL A   1      40.478  33.848  30.352  1.00  0.00     0.046 A 
ATOM      8  C   UNL A   1      39.830  32.615  30.274  1.00  0.00     0.027 A 
ATOM      9  C   UNL A   1      39.871  34.995  29.840  1.00  0.00     0.027 A 
ATOM     10  C   UNL A   1      38.523  32.563  29.776  1.00  0.00     0.016 A 
ATOM     11  C   UNL A   1      38.594  34.916  29.279  1.00  0.00     0.016 A 
BRANCH   7  12
ATOM     12  N   UNL A   1      41.788  33.931  30.880  1.00  0.00    -0.317 N 
ATOM     13  C   UNL A   1      42.184  34.467  32.103  1.00  0.00     0.047 A 
ATOM     14  C   UNL A   1      43.568  34.462  32.134  1.00  0.00     0.028 A 
ATOM     15  C   UNL A   1      44.029  33.891  30.928  1.00  0.00     0.020 A 
ATOM     16  C   UNL A   1      42.919  33.523  30.201  1.00  0.00     0.092 A 
BRANCH  13  17
ATOM     17  C   UNL A   1      41.238  34.797  33.113  1.00  0.00     0.046 C 
ATOM     18  N   UNL A   1      40.421  31.657  34.850  1.00  0.00    -0.279 N 
ATOM     19  C   UNL A   1      41.261  32.527  34.158  1.00  0.00     0.265 C 
ATOM     20  C   UNL A   1      39.296  32.083  35.575  1.00  0.00     0.206 C 
ATOM     21  O   UNL A   1      42.363  32.190  33.731  1.00  0.00    -0.268 OA
ATOM     22  C   UNL A   1      40.767  33.925  34.028  1.00  0.00     0.104 C 
ATOM     23  N   UNL A   1      39.035  33.427  35.663  1.00  0.00    -0.184 NA
ATOM     24  S   UNL A   1      38.235  31.034  36.380  1.00  0.00    -0.038 S 
ATOM     25  C   UNL A   1      39.692  34.270  34.961  1.00  0.00     0.226 C 
BRANCH  18  26
ATOM     26  C   UNL A   1      40.835  30.250  34.809  1.00  0.00     0.155 C 
BRANCH  26  27
ATOM     27  C   UNL A   1      40.394  29.632  33.509  1.00  0.00    -0.013 C 
ATOM     28  C   UNL A   1      40.316  28.315  33.283  1.00  0.00     0.006 C 
ENDBRANCH  26  27
ENDBRANCH  18  26
BRANCH  25  29
ATOM     29  O   UNL A   1      39.369  35.564  35.129  1.00  0.00    -0.493 OA
ATOM     30  H   UNL A   1      38.679  35.945  34.622  1.00  0.00     0.295 HD
ENDBRANCH  25  29
ENDBRANCH  13  17
ENDBRANCH   7  12
ENDBRANCH   3   6
ENDBRANCH   1   2
BRANCH   1  31
ATOM     31  C   UNL A   1      34.892  32.602  31.797  1.00  0.00     0.023 C 
BRANCH  31  32
ATOM     32  C   UNL A   1      36.145  31.895  32.336  1.00  0.00     0.023 C 
BRANCH  32  33
ATOM     33  C   UNL A   1      36.336  30.473  31.809  1.00  0.00     0.116 C 
BRANCH  33  34
ATOM     34  N   UNL A   1      35.736  30.312  30.496  1.00  0.00    -0.352 N 
ATOM     35  C   UNL A   1      36.315  29.942  29.308  1.00  0.00     0.251 C 
ATOM     36  H   UNL A   1      34.770  30.495  30.451  1.00  0.00     0.163 HD
ATOM     37  O   UNL A   1      35.764  30.227  28.252  1.00  0.00    -0.269 OA
BRANCH  35  38
ATOM     38  C   UNL A   1      37.600  29.214  29.279  1.00  0.00     0.039 A 
ATOM     39  C   UNL A   1      38.498  29.508  28.249  1.00  0.00     0.014 A 
ATOM     40  C   UNL A   1      37.881  28.194  30.195  1.00  0.00     0.014 A 
ATOM     41  C   UNL A   1      39.706  28.824  28.173  1.00  0.00     0.010 A 
ATOM     42  C   UNL A   1      39.102  27.529  30.142  1.00  0.00     0.010 A 
ATOM     43  C   UNL A   1      40.019  27.855  29.136  1.00  0.00    -0.014 A 
BRANCH  43  44
ATOM     44  C   UNL A   1      41.400  27.321  29.165  1.00  0.00     0.031 A 
ATOM     45  C   UNL A   1      41.461  25.906  28.547  1.00  0.00     0.074 A 
ATOM     46  C   UNL A   1      42.355  28.107  29.753  1.00  0.00     0.049 A 
ATOM     47  N   UNL A   1      42.243  24.904  28.811  1.00  0.00    -0.248 NA
ATOM     48  C   UNL A   1      40.443  25.524  27.525  1.00  0.00     0.031 C 
ATOM     49  C   UNL A   1      42.126  29.487  30.232  1.00  0.00     0.029 A 
ATOM     50  N   UNL A   1      43.687  27.928  30.078  1.00  0.00    -0.354 N 
ATOM     51  C   UNL A   1      41.944  23.865  27.895  1.00  0.00     0.074 A 
ATOM     52  C   UNL A   1      40.754  24.264  27.210  1.00  0.00     0.031 C 
ATOM     53  C   UNL A   1      43.224  29.978  30.846  1.00  0.00     0.029 A 
ATOM     54  C   UNL A   1      44.274  28.980  30.838  1.00  0.00     0.049 A 
ATOM     55  H   UNL A   1      44.194  27.129  29.805  1.00  0.00     0.167 HD
ATOM     56  C   UNL A   1      42.779  22.805  27.670  1.00  0.00     0.037 A 
ATOM     57  C   UNL A   1      45.493  29.018  31.470  1.00  0.00     0.037 A 
ATOM     58  C   UNL A   1      43.907  22.898  28.531  1.00  0.00     0.049 A 
ATOM     59  C   UNL A   1      46.158  27.772  31.075  1.00  0.00     0.074 A 
ATOM     60  C   UNL A   1      44.057  22.694  29.876  1.00  0.00     0.029 A 
ATOM     61  N   UNL A   1      44.988  23.596  28.055  1.00  0.00    -0.354 N 
ATOM     62  N   UNL A   1      46.673  27.549  29.903  1.00  0.00    -0.248 NA
ATOM     63  C   UNL A   1      46.167  26.651  32.023  1.00  0.00     0.031 C 
ATOM     64  C   UNL A   1      44.973  23.698  30.251  1.00  0.00     0.029 A 
ATOM     65  C   UNL A   1      45.510  24.300  29.107  1.00  0.00     0.049 A 
ATOM     66  H   UNL A   1      45.325  23.592  27.129  1.00  0.00     0.167 HD
ATOM     67  C   UNL A   1      46.750  26.178  29.884  1.00  0.00     0.074 A 
ATOM     68  C   UNL A   1      46.757  25.737  31.260  1.00  0.00     0.031 C 
ATOM     69  C   UNL A   1      46.252  25.502  28.819  1.00  0.00     0.037 A 
BRANCH  56  70
ATOM     70  C   UNL A   1      42.862  21.767  26.580  1.00  0.00     0.064 A 
ATOM     71  C   UNL A   1      42.326  20.476  26.842  1.00  0.00     0.173 A 
ATOM     72  C   UNL A   1      43.745  21.853  25.497  1.00  0.00     0.173 A 
ATOM     73  F   UNL A   1      41.422  20.292  27.818  1.00  0.00    -0.203 F 
ATOM     74  C   UNL A   1      42.773  19.336  26.178  1.00  0.00     0.198 A 
ATOM     75  C   UNL A   1      44.152  20.710  24.797  1.00  0.00     0.198 A 
ATOM     76  F   UNL A   1      44.313  23.017  25.157  1.00  0.00    -0.203 F 
ATOM     77  F   UNL A   1      42.355  18.125  26.571  1.00  0.00    -0.200 F 
ATOM     78  C   UNL A   1      43.705  19.452  25.168  1.00  0.00     0.200 A 
ATOM     79  F   UNL A   1      45.048  20.827  23.807  1.00  0.00    -0.200 F 
ATOM     80  F   UNL A   1      44.199  18.356  24.577  1.00  0.00    -0.200 F 
ENDBRANCH  56  70
BRANCH  57  81
ATOM     81  C   UNL A   1      46.236  29.880  32.476  1.00  0.00     0.064 A 
ATOM     82  C   UNL A   1      47.525  30.404  32.327  1.00  0.00     0.173 A 
ATOM     83  C   UNL A   1      45.587  30.288  33.681  1.00  0.00     0.173 A 
ATOM     84  F   UNL A   1      48.323  30.003  31.333  1.00  0.00    -0.203 F 
ATOM     85  C   UNL A   1      48.056  31.352  33.228  1.00  0.00     0.198 A 
ATOM     86  C   UNL A   1      46.087  31.263  34.544  1.00  0.00     0.198 A 
ATOM     87  F   UNL A   1      44.427  29.748  34.078  1.00  0.00    -0.203 F 
ATOM     88  F   UNL A   1      49.293  31.830  33.036  1.00  0.00    -0.200 F 
ATOM     89  C   UNL A   1      47.319  31.815  34.306  1.00  0.00     0.200 A 
ATOM     90  F   UNL A   1      45.349  31.667  35.589  1.00  0.00    -0.200 F 
ATOM     91  F   UNL A   1      47.799  32.767  35.117  1.00  0.00    -0.200 F 
ENDBRANCH  57  81
BRANCH  69  92
ATOM     92  C   UNL A   1      46.207  26.316  27.540  1.00  0.00     0.064 A 
ATOM     93  C   UNL A   1      47.406  26.714  26.929  1.00  0.00     0.173 A 
ATOM     94  C   UNL A   1      45.028  26.824  26.968  1.00  0.00     0.173 A 
ATOM     95  F   UNL A   1      48.577  26.260  27.401  1.00  0.00    -0.203 F 
ATOM     96  C   UNL A   1      47.423  27.582  25.834  1.00  0.00     0.198 A 
ATOM     97  C   UNL A   1      45.040  27.686  25.868  1.00  0.00     0.198 A 
ATOM     98  F   UNL A   1      43.836  26.497  27.462  1.00  0.00    -0.203 F 
ATOM     99  F   UNL A   1      48.592  27.943  25.287  1.00  0.00    -0.200 F 
ATOM    100  C   UNL A   1      46.240  28.071  25.305  1.00  0.00     0.200 A 
ATOM    101  F   UNL A   1      43.883  28.138  25.356  1.00  0.00    -0.200 F 
ATOM    102  F   UNL A   1      46.256  28.895  24.248  1.00  0.00    -0.200 F 
ENDBRANCH  69  92
ENDBRANCH  43  44
ENDBRANCH  35  38
ENDBRANCH  33  34
ENDBRANCH  32  33
ENDBRANCH  31  32
ENDBRANCH   1  31
TORSDOF 16
ENDMDL
