MODEL 1
REMARK VINA RESULT:      -9.6      0.000      0.000
REMARK SMILES CC/C=C/C/C=C/C/C=C/C/C=C/CCSCCCC(=O)NCCCCNC(=O)c1ccc(-c2c3nc(c(-c4c(F)c(F)c(F)c(F)c4F)c4ccc([nH]4)c(-c4c(F)c(F)c(F)c(F)c4F)c4nc(c(-c5c(F)c(F)c(F)c(F)c5F)c5ccc2[nH]5)C=C4)C=C3)cc1
REMARK SMILES IDX 17 1 16 2 15 3 14 4 13 5 12 6 11 7 10 8 9 9 8 10 7 11 6 12
REMARK SMILES IDX 5 13 4 14 3 15 2 16 1 17 18 18 19 19 20 20 21 21 22 22 23 24
REMARK SMILES IDX 24 25 25 26 26 27 27 28 28 29 29 31 30 32 31 33 92 34 32 35
REMARK SMILES IDX 91 36 33 37 34 38 35 39 85 40 36 41 90 42 84 43 86 44 37 45
REMARK SMILES IDX 89 46 83 47 82 48 38 50 70 51 50 52 69 53 51 54 54 55 68 56
REMARK SMILES IDX 87 57 52 58 53 59 67 61 88 62 55 63 39 64 40 65 48 66 41 67
REMARK SMILES IDX 42 68 46 69 49 70 43 71 44 72 47 73 45 74 71 75 72 76 80 77
REMARK SMILES IDX 73 78 74 79 78 80 81 81 75 82 76 83 79 84 77 85 56 86 57 87
REMARK SMILES IDX 65 88 58 89 59 90 63 91 66 92 60 93 61 94 64 95 62 96
REMARK H PARENT 22 23 27 30 86 49 54 60
REMARK Flexibility Score: inf
ROOT
ATOM      1  C   UNL A   1      32.896  25.341  24.410  1.00  0.00     0.070 C 
ENDROOT
BRANCH   1   2
ATOM      2  S   UNL A   1      33.158  26.497  22.996  1.00  0.00    -0.162 SA
BRANCH   2   3
ATOM      3  C   UNL A   1      31.548  27.183  22.425  1.00  0.00     0.073 C 
BRANCH   3   4
ATOM      4  C   UNL A   1      31.011  28.418  23.198  1.00  0.00     0.038 C 
BRANCH   4   5
ATOM      5  C   UNL A   1      31.506  28.570  24.609  1.00  0.00    -0.030 C 
ATOM      6  C   UNL A   1      31.772  29.697  25.291  1.00  0.00    -0.027 C 
BRANCH   6   7
ATOM      7  C   UNL A   1      32.027  29.690  26.785  1.00  0.00     0.054 C 
BRANCH   7   8
ATOM      8  C   UNL A   1      32.868  30.832  27.279  1.00  0.00    -0.027 C 
ATOM      9  C   UNL A   1      34.196  30.740  27.458  1.00  0.00    -0.027 C 
BRANCH   9  10
ATOM     10  C   UNL A   1      35.060  31.841  28.005  1.00  0.00     0.054 C 
BRANCH  10  11
ATOM     11  C   UNL A   1      34.277  33.120  27.973  1.00  0.00    -0.027 C 
ATOM     12  C   UNL A   1      34.081  33.921  29.031  1.00  0.00    -0.027 C 
BRANCH  12  13
ATOM     13  C   UNL A   1      33.124  35.078  29.024  1.00  0.00     0.054 C 
BRANCH  13  14
ATOM     14  C   UNL A   1      33.041  35.660  30.406  1.00  0.00    -0.027 C 
ATOM     15  C   UNL A   1      33.835  35.300  31.426  1.00  0.00    -0.031 C 
BRANCH  15  16
ATOM     16  C   UNL A   1      33.670  35.813  32.827  1.00  0.00     0.023 C 
ATOM     17  C   UNL A   1      34.842  35.378  33.695  1.00  0.00     0.008 C 
ENDBRANCH  15  16
ENDBRANCH  13  14
ENDBRANCH  12  13
ENDBRANCH  10  11
ENDBRANCH   9  10
ENDBRANCH   7   8
ENDBRANCH   6   7
ENDBRANCH   4   5
ENDBRANCH   3   4
ENDBRANCH   2   3
ENDBRANCH   1   2
BRANCH   1  18
ATOM     18  C   UNL A   1      33.843  24.248  24.892  1.00  0.00     0.021 C 
BRANCH  18  19
ATOM     19  C   UNL A   1      33.464  22.788  24.737  1.00  0.00     0.101 C 
BRANCH  19  20
ATOM     20  C   UNL A   1      33.556  21.869  25.946  1.00  0.00     0.220 C 
ATOM     21  O   UNL A   1      32.930  22.159  26.971  1.00  0.00    -0.275 OA
ATOM     22  N   UNL A   1      34.241  20.700  25.973  1.00  0.00    -0.356 N 
ATOM     23  H   UNL A   1      34.401  20.360  26.883  1.00  0.00     0.163 HD
BRANCH  22  24
ATOM     24  C   UNL A   1      34.784  19.849  24.934  1.00  0.00     0.116 C 
BRANCH  24  25
ATOM     25  C   UNL A   1      36.313  19.827  24.910  1.00  0.00     0.023 C 
BRANCH  25  26
ATOM     26  C   UNL A   1      36.895  21.151  24.400  1.00  0.00     0.023 C 
BRANCH  26  27
ATOM     27  C   UNL A   1      37.890  21.813  25.355  1.00  0.00     0.116 C 
BRANCH  27  28
ATOM     28  N   UNL A   1      38.868  20.876  25.887  1.00  0.00    -0.352 N 
ATOM     29  C   UNL A   1      40.016  21.119  26.609  1.00  0.00     0.251 C 
ATOM     30  H   UNL A   1      38.680  19.927  25.703  1.00  0.00     0.163 HD
ATOM     31  O   UNL A   1      40.806  20.220  26.848  1.00  0.00    -0.269 OA
BRANCH  29  32
ATOM     32  C   UNL A   1      40.312  22.496  27.062  1.00  0.00     0.039 A 
ATOM     33  C   UNL A   1      41.309  22.690  28.022  1.00  0.00     0.014 A 
ATOM     34  C   UNL A   1      39.638  23.590  26.515  1.00  0.00     0.014 A 
ATOM     35  C   UNL A   1      41.712  23.988  28.346  1.00  0.00     0.010 A 
ATOM     36  C   UNL A   1      40.084  24.881  26.790  1.00  0.00     0.010 A 
ATOM     37  C   UNL A   1      41.147  25.091  27.685  1.00  0.00    -0.014 A 
BRANCH  37  38
ATOM     38  C   UNL A   1      41.701  26.461  27.849  1.00  0.00     0.031 A 
ATOM     39  C   UNL A   1      43.078  26.793  27.351  1.00  0.00     0.074 A 
ATOM     40  C   UNL A   1      40.998  27.375  28.550  1.00  0.00     0.049 A 
ATOM     41  N   UNL A   1      43.776  27.888  27.519  1.00  0.00    -0.248 NA
ATOM     42  C   UNL A   1      43.775  25.750  26.582  1.00  0.00     0.031 C 
ATOM     43  C   UNL A   1      39.671  27.158  29.131  1.00  0.00     0.029 A 
ATOM     44  N   UNL A   1      41.312  28.661  28.919  1.00  0.00    -0.354 N 
ATOM     45  C   UNL A   1      44.997  27.659  26.899  1.00  0.00     0.074 A 
ATOM     46  C   UNL A   1      44.960  26.311  26.375  1.00  0.00     0.031 C 
ATOM     47  C   UNL A   1      39.286  28.267  29.781  1.00  0.00     0.029 A 
ATOM     48  C   UNL A   1      40.354  29.258  29.706  1.00  0.00     0.049 A 
ATOM     49  H   UNL A   1      42.144  29.113  28.648  1.00  0.00     0.167 HD
ATOM     50  C   UNL A   1      46.046  28.504  26.771  1.00  0.00     0.037 A 
ATOM     51  C   UNL A   1      40.348  30.456  30.321  1.00  0.00     0.037 A 
ATOM     52  C   UNL A   1      46.065  29.859  27.260  1.00  0.00     0.049 A 
ATOM     53  C   UNL A   1      41.536  31.367  30.168  1.00  0.00     0.074 A 
ATOM     54  C   UNL A   1      47.040  30.824  27.082  1.00  0.00     0.029 A 
ATOM     55  N   UNL A   1      45.068  30.435  28.032  1.00  0.00    -0.354 N 
ATOM     56  N   UNL A   1      42.645  31.175  29.494  1.00  0.00    -0.248 NA
ATOM     57  C   UNL A   1      41.477  32.663  30.861  1.00  0.00     0.031 C 
ATOM     58  C   UNL A   1      46.662  31.965  27.795  1.00  0.00     0.029 A 
ATOM     59  C   UNL A   1      45.427  31.729  28.374  1.00  0.00     0.049 A 
ATOM     60  H   UNL A   1      44.230  29.991  28.297  1.00  0.00     0.167 HD
ATOM     61  C   UNL A   1      43.400  32.327  29.666  1.00  0.00     0.074 A 
ATOM     62  C   UNL A   1      42.617  33.224  30.488  1.00  0.00     0.031 C 
ATOM     63  C   UNL A   1      44.637  32.612  29.191  1.00  0.00     0.037 A 
BRANCH  50  64
ATOM     64  C   UNL A   1      47.277  28.005  26.073  1.00  0.00     0.064 A 
ATOM     65  C   UNL A   1      48.384  27.523  26.787  1.00  0.00     0.173 A 
ATOM     66  C   UNL A   1      47.309  27.921  24.673  1.00  0.00     0.173 A 
ATOM     67  F   UNL A   1      48.403  27.588  28.126  1.00  0.00    -0.203 F 
ATOM     68  C   UNL A   1      49.482  26.983  26.122  1.00  0.00     0.198 A 
ATOM     69  C   UNL A   1      48.398  27.357  24.013  1.00  0.00     0.198 A 
ATOM     70  F   UNL A   1      46.272  28.363  23.944  1.00  0.00    -0.203 F 
ATOM     71  F   UNL A   1      50.539  26.550  26.822  1.00  0.00    -0.200 F 
ATOM     72  C   UNL A   1      49.484  26.891  24.738  1.00  0.00     0.200 A 
ATOM     73  F   UNL A   1      48.391  27.255  22.677  1.00  0.00    -0.200 F 
ATOM     74  F   UNL A   1      50.533  26.350  24.103  1.00  0.00    -0.200 F 
ENDBRANCH  50  64
BRANCH  51  75
ATOM     75  C   UNL A   1      39.193  30.862  31.166  1.00  0.00     0.064 A 
ATOM     76  C   UNL A   1      38.173  31.677  30.655  1.00  0.00     0.173 A 
ATOM     77  C   UNL A   1      39.104  30.478  32.513  1.00  0.00     0.173 A 
ATOM     78  F   UNL A   1      38.223  32.090  29.380  1.00  0.00    -0.203 F 
ATOM     79  C   UNL A   1      37.129  32.118  31.465  1.00  0.00     0.198 A 
ATOM     80  C   UNL A   1      38.042  30.893  33.314  1.00  0.00     0.198 A 
ATOM     81  F   UNL A   1      40.052  29.696  33.052  1.00  0.00    -0.203 F 
ATOM     82  F   UNL A   1      36.203  32.948  30.967  1.00  0.00    -0.200 F 
ATOM     83  C   UNL A   1      37.062  31.723  32.793  1.00  0.00     0.200 A 
ATOM     84  F   UNL A   1      37.975  30.497  34.592  1.00  0.00    -0.200 F 
ATOM     85  F   UNL A   1      36.061  32.153  33.573  1.00  0.00    -0.200 F 
ENDBRANCH  51  75
BRANCH  63  86
ATOM     86  C   UNL A   1      45.216  33.954  29.533  1.00  0.00     0.064 A 
ATOM     87  C   UNL A   1      44.987  35.076  28.725  1.00  0.00     0.173 A 
ATOM     88  C   UNL A   1      45.962  34.129  30.709  1.00  0.00     0.173 A 
ATOM     89  F   UNL A   1      44.295  34.955  27.581  1.00  0.00    -0.203 F 
ATOM     90  C   UNL A   1      45.499  36.323  29.072  1.00  0.00     0.198 A 
ATOM     91  C   UNL A   1      46.446  35.384  31.068  1.00  0.00     0.198 A 
ATOM     92  F   UNL A   1      46.204  33.088  31.519  1.00  0.00    -0.203 F 
ATOM     93  F   UNL A   1      45.304  37.374  28.262  1.00  0.00    -0.200 F 
ATOM     94  C   UNL A   1      46.220  36.478  30.247  1.00  0.00     0.200 A 
ATOM     95  F   UNL A   1      47.129  35.534  32.211  1.00  0.00    -0.200 F 
ATOM     96  F   UNL A   1      46.701  37.682  30.586  1.00  0.00    -0.200 F 
ENDBRANCH  63  86
ENDBRANCH  37  38
ENDBRANCH  29  32
ENDBRANCH  27  28
ENDBRANCH  26  27
ENDBRANCH  25  26
ENDBRANCH  24  25
ENDBRANCH  22  24
ENDBRANCH  19  20
ENDBRANCH  18  19
ENDBRANCH   1  18
TORSDOF 24
ENDMDL
MODEL 2
REMARK VINA RESULT:      -9.6      0.927      2.162
REMARK SMILES CC/C=C/C/C=C/C/C=C/C/C=C/CCSCCCC(=O)NCCCCNC(=O)c1ccc(-c2c3nc(c(-c4c(F)c(F)c(F)c(F)c4F)c4ccc([nH]4)c(-c4c(F)c(F)c(F)c(F)c4F)c4nc(c(-c5c(F)c(F)c(F)c(F)c5F)c5ccc2[nH]5)C=C4)C=C3)cc1
REMARK SMILES IDX 17 1 16 2 15 3 14 4 13 5 12 6 11 7 10 8 9 9 8 10 7 11 6 12
REMARK SMILES IDX 5 13 4 14 3 15 2 16 1 17 18 18 19 19 20 20 21 21 22 22 23 24
REMARK SMILES IDX 24 25 25 26 26 27 27 28 28 29 29 31 30 32 31 33 92 34 32 35
REMARK SMILES IDX 91 36 33 37 34 38 35 39 85 40 36 41 90 42 84 43 86 44 37 45
REMARK SMILES IDX 89 46 83 47 82 48 38 50 70 51 50 52 69 53 51 54 54 55 68 56
REMARK SMILES IDX 87 57 52 58 53 59 67 61 88 62 55 63 39 64 40 65 48 66 41 67
REMARK SMILES IDX 42 68 46 69 49 70 43 71 44 72 47 73 45 74 71 75 72 76 80 77
REMARK SMILES IDX 73 78 74 79 78 80 81 81 75 82 76 83 79 84 77 85 56 86 57 87
REMARK SMILES IDX 65 88 58 89 59 90 63 91 66 92 60 93 61 94 64 95 62 96
REMARK H PARENT 22 23 27 30 86 49 54 60
REMARK Flexibility Score: inf
ROOT
ATOM      1  C   UNL A   1      32.672  25.928  25.819  1.00  0.00     0.070 C 
ENDROOT
BRANCH   1   2
ATOM      2  S   UNL A   1      33.222  27.462  24.953  1.00  0.00    -0.162 SA
BRANCH   2   3
ATOM      3  C   UNL A   1      31.785  28.570  24.642  1.00  0.00     0.073 C 
BRANCH   3   4
ATOM      4  C   UNL A   1      31.520  29.670  25.704  1.00  0.00     0.038 C 
BRANCH   4   5
ATOM      5  C   UNL A   1      32.691  30.035  26.572  1.00  0.00    -0.030 C 
ATOM      6  C   UNL A   1      33.166  31.254  26.878  1.00  0.00    -0.027 C 
BRANCH   6   7
ATOM      7  C   UNL A   1      34.202  31.464  27.964  1.00  0.00     0.054 C 
BRANCH   7   8
ATOM      8  C   UNL A   1      34.092  32.778  28.684  1.00  0.00    -0.027 C 
ATOM      9  C   UNL A   1      33.718  33.916  28.077  1.00  0.00    -0.027 C 
BRANCH   9  10
ATOM     10  C   UNL A   1      33.654  35.259  28.750  1.00  0.00     0.054 C 
BRANCH  10  11
ATOM     11  C   UNL A   1      33.258  35.054  30.182  1.00  0.00    -0.027 C 
ATOM     12  C   UNL A   1      33.929  35.543  31.236  1.00  0.00    -0.027 C 
BRANCH  12  13
ATOM     13  C   UNL A   1      33.635  35.151  32.655  1.00  0.00     0.054 C 
BRANCH  13  14
ATOM     14  C   UNL A   1      34.928  34.977  33.399  1.00  0.00    -0.027 C 
ATOM     15  C   UNL A   1      36.135  34.926  32.813  1.00  0.00    -0.031 C 
BRANCH  15  16
ATOM     16  C   UNL A   1      37.407  34.645  33.557  1.00  0.00     0.023 C 
ATOM     17  C   UNL A   1      38.585  34.586  32.596  1.00  0.00     0.008 C 
ENDBRANCH  15  16
ENDBRANCH  13  14
ENDBRANCH  12  13
ENDBRANCH  10  11
ENDBRANCH   9  10
ENDBRANCH   7   8
ENDBRANCH   6   7
ENDBRANCH   4   5
ENDBRANCH   3   4
ENDBRANCH   2   3
ENDBRANCH   1   2
BRANCH   1  18
ATOM     18  C   UNL A   1      33.504  24.682  26.098  1.00  0.00     0.021 C 
BRANCH  18  19
ATOM     19  C   UNL A   1      32.943  23.307  25.792  1.00  0.00     0.101 C 
BRANCH  19  20
ATOM     20  C   UNL A   1      32.986  22.235  26.870  1.00  0.00     0.220 C 
ATOM     21  O   UNL A   1      32.577  22.505  28.004  1.00  0.00    -0.275 OA
ATOM     22  N   UNL A   1      33.394  20.958  26.670  1.00  0.00    -0.356 N 
ATOM     23  H   UNL A   1      33.592  20.474  27.504  1.00  0.00     0.163 HD
BRANCH  22  24
ATOM     24  C   UNL A   1      33.597  20.162  25.477  1.00  0.00     0.116 C 
BRANCH  24  25
ATOM     25  C   UNL A   1      35.072  19.982  25.115  1.00  0.00     0.023 C 
BRANCH  25  26
ATOM     26  C   UNL A   1      35.668  21.253  24.499  1.00  0.00     0.023 C 
BRANCH  26  27
ATOM     27  C   UNL A   1      36.894  21.797  25.235  1.00  0.00     0.116 C 
BRANCH  27  28
ATOM     28  N   UNL A   1      37.913  20.782  25.457  1.00  0.00    -0.352 N 
ATOM     29  C   UNL A   1      39.182  20.909  25.980  1.00  0.00     0.251 C 
ATOM     30  H   UNL A   1      37.657  19.868  25.194  1.00  0.00     0.163 HD
ATOM     31  O   UNL A   1      39.964  19.973  25.955  1.00  0.00    -0.269 OA
BRANCH  29  32
ATOM     32  C   UNL A   1      39.610  22.210  26.538  1.00  0.00     0.039 A 
ATOM     33  C   UNL A   1      40.786  22.266  27.291  1.00  0.00     0.014 A 
ATOM     34  C   UNL A   1      38.878  23.373  26.288  1.00  0.00     0.014 A 
ATOM     35  C   UNL A   1      41.291  23.506  27.692  1.00  0.00     0.010 A 
ATOM     36  C   UNL A   1      39.415  24.612  26.632  1.00  0.00     0.010 A 
ATOM     37  C   UNL A   1      40.642  24.692  27.310  1.00  0.00    -0.014 A 
BRANCH  37  38
ATOM     38  C   UNL A   1      41.266  26.023  27.535  1.00  0.00     0.031 A 
ATOM     39  C   UNL A   1      42.655  26.309  27.044  1.00  0.00     0.074 A 
ATOM     40  C   UNL A   1      40.613  26.936  28.283  1.00  0.00     0.049 A 
ATOM     41  N   UNL A   1      43.408  27.358  27.258  1.00  0.00    -0.248 NA
ATOM     42  C   UNL A   1      43.296  25.269  26.221  1.00  0.00     0.031 C 
ATOM     43  C   UNL A   1      39.279  26.759  28.862  1.00  0.00     0.029 A 
ATOM     44  N   UNL A   1      40.993  28.186  28.710  1.00  0.00    -0.354 N 
ATOM     45  C   UNL A   1      44.614  27.099  26.620  1.00  0.00     0.074 A 
ATOM     46  C   UNL A   1      44.506  25.780  26.034  1.00  0.00     0.031 C 
ATOM     47  C   UNL A   1      38.953  27.854  29.567  1.00  0.00     0.029 A 
ATOM     48  C   UNL A   1      40.069  28.793  29.531  1.00  0.00     0.049 A 
ATOM     49  H   UNL A   1      41.844  28.608  28.454  1.00  0.00     0.167 HD
ATOM     50  C   UNL A   1      45.703  27.895  26.525  1.00  0.00     0.037 A 
ATOM     51  C   UNL A   1      40.126  29.959  30.202  1.00  0.00     0.037 A 
ATOM     52  C   UNL A   1      45.792  29.222  27.077  1.00  0.00     0.049 A 
ATOM     53  C   UNL A   1      41.358  30.816  30.083  1.00  0.00     0.074 A 
ATOM     54  C   UNL A   1      46.814  30.145  26.938  1.00  0.00     0.029 A 
ATOM     55  N   UNL A   1      44.829  29.811  27.881  1.00  0.00    -0.354 N 
ATOM     56  N   UNL A   1      42.452  30.601  29.393  1.00  0.00    -0.248 NA
ATOM     57  C   UNL A   1      41.367  32.079  30.837  1.00  0.00     0.031 C 
ATOM     58  C   UNL A   1      46.497  31.269  27.706  1.00  0.00     0.029 A 
ATOM     59  C   UNL A   1      45.254  31.067  28.281  1.00  0.00     0.049 A 
ATOM     60  H   UNL A   1      43.971  29.397  28.131  1.00  0.00     0.167 HD
ATOM     61  C   UNL A   1      43.266  31.704  29.614  1.00  0.00     0.074 A 
ATOM     62  C   UNL A   1      42.532  32.599  30.483  1.00  0.00     0.031 C 
ATOM     63  C   UNL A   1      44.513  31.949  29.145  1.00  0.00     0.037 A 
BRANCH  50  64
ATOM     64  C   UNL A   1      46.904  27.369  25.796  1.00  0.00     0.064 A 
ATOM     65  C   UNL A   1      47.123  27.651  24.439  1.00  0.00     0.173 A 
ATOM     66  C   UNL A   1      47.894  26.655  26.488  1.00  0.00     0.173 A 
ATOM     67  F   UNL A   1      46.204  28.324  23.733  1.00  0.00    -0.203 F 
ATOM     68  C   UNL A   1      48.286  27.228  23.801  1.00  0.00     0.198 A 
ATOM     69  C   UNL A   1      49.068  26.257  25.853  1.00  0.00     0.198 A 
ATOM     70  F   UNL A   1      47.735  26.366  27.789  1.00  0.00    -0.203 F 
ATOM     71  F   UNL A   1      48.466  27.487  22.499  1.00  0.00    -0.200 F 
ATOM     72  C   UNL A   1      49.262  26.541  24.510  1.00  0.00     0.200 A 
ATOM     73  F   UNL A   1      50.014  25.607  26.544  1.00  0.00    -0.200 F 
ATOM     74  F   UNL A   1      50.390  26.155  23.898  1.00  0.00    -0.200 F 
ENDBRANCH  50  64
BRANCH  51  75
ATOM     75  C   UNL A   1      38.997  30.382  31.073  1.00  0.00     0.064 A 
ATOM     76  C   UNL A   1      37.959  31.183  30.575  1.00  0.00     0.173 A 
ATOM     77  C   UNL A   1      38.951  30.028  32.430  1.00  0.00     0.173 A 
ATOM     78  F   UNL A   1      37.969  31.568  29.290  1.00  0.00    -0.203 F 
ATOM     79  C   UNL A   1      36.940  31.641  31.407  1.00  0.00     0.198 A 
ATOM     80  C   UNL A   1      37.913  30.459  33.254  1.00  0.00     0.198 A 
ATOM     81  F   UNL A   1      39.916  29.260  32.957  1.00  0.00    -0.203 F 
ATOM     82  F   UNL A   1      35.997  32.458  30.919  1.00  0.00    -0.200 F 
ATOM     83  C   UNL A   1      36.915  31.276  32.745  1.00  0.00     0.200 A 
ATOM     84  F   UNL A   1      37.886  30.091  34.541  1.00  0.00    -0.200 F 
ATOM     85  F   UNL A   1      35.937  31.721  33.545  1.00  0.00    -0.200 F 
ENDBRANCH  51  75
BRANCH  63  86
ATOM     86  C   UNL A   1      45.160  33.242  29.546  1.00  0.00     0.064 A 
ATOM     87  C   UNL A   1      45.795  33.388  30.787  1.00  0.00     0.173 A 
ATOM     88  C   UNL A   1      45.191  34.330  28.659  1.00  0.00     0.173 A 
ATOM     89  F   UNL A   1      45.777  32.382  31.677  1.00  0.00    -0.203 F 
ATOM     90  C   UNL A   1      46.423  34.580  31.134  1.00  0.00     0.198 A 
ATOM     91  C   UNL A   1      45.847  35.510  28.997  1.00  0.00     0.198 A 
ATOM     92  F   UNL A   1      44.603  34.240  27.457  1.00  0.00    -0.203 F 
ATOM     93  F   UNL A   1      46.988  34.711  32.343  1.00  0.00    -0.200 F 
ATOM     94  C   UNL A   1      46.456  35.637  30.235  1.00  0.00     0.200 A 
ATOM     95  F   UNL A   1      45.890  36.524  28.122  1.00  0.00    -0.200 F 
ATOM     96  F   UNL A   1      47.073  36.780  30.565  1.00  0.00    -0.200 F 
ENDBRANCH  63  86
ENDBRANCH  37  38
ENDBRANCH  29  32
ENDBRANCH  27  28
ENDBRANCH  26  27
ENDBRANCH  25  26
ENDBRANCH  24  25
ENDBRANCH  22  24
ENDBRANCH  19  20
ENDBRANCH  18  19
ENDBRANCH   1  18
TORSDOF 24
ENDMDL
MODEL 3
REMARK VINA RESULT:      -9.6      2.418      4.222
REMARK SMILES CC/C=C/C/C=C/C/C=C/C/C=C/CCSCCCC(=O)NCCCCNC(=O)c1ccc(-c2c3nc(c(-c4c(F)c(F)c(F)c(F)c4F)c4ccc([nH]4)c(-c4c(F)c(F)c(F)c(F)c4F)c4nc(c(-c5c(F)c(F)c(F)c(F)c5F)c5ccc2[nH]5)C=C4)C=C3)cc1
REMARK SMILES IDX 17 1 16 2 15 3 14 4 13 5 12 6 11 7 10 8 9 9 8 10 7 11 6 12
REMARK SMILES IDX 5 13 4 14 3 15 2 16 1 17 18 18 19 19 20 20 21 21 22 22 23 24
REMARK SMILES IDX 24 25 25 26 26 27 27 28 28 29 29 31 30 32 31 33 92 34 32 35
REMARK SMILES IDX 91 36 33 37 34 38 35 39 85 40 36 41 90 42 84 43 86 44 37 45
REMARK SMILES IDX 89 46 83 47 82 48 38 50 70 51 50 52 69 53 51 54 54 55 68 56
REMARK SMILES IDX 87 57 52 58 53 59 67 61 88 62 55 63 39 64 40 65 48 66 41 67
REMARK SMILES IDX 42 68 46 69 49 70 43 71 44 72 47 73 45 74 71 75 72 76 80 77
REMARK SMILES IDX 73 78 74 79 78 80 81 81 75 82 76 83 79 84 77 85 56 86 57 87
REMARK SMILES IDX 65 88 58 89 59 90 63 91 66 92 60 93 61 94 64 95 62 96
REMARK H PARENT 22 23 27 30 86 49 54 60
REMARK Flexibility Score: inf
ROOT
ATOM      1  C   UNL A   1      34.614  23.197  26.667  1.00  0.00     0.070 C 
ENDROOT
BRANCH   1   2
ATOM      2  S   UNL A   1      33.027  22.256  26.666  1.00  0.00    -0.162 SA
BRANCH   2   3
ATOM      3  C   UNL A   1      33.220  20.680  25.735  1.00  0.00     0.073 C 
BRANCH   3   4
ATOM      4  C   UNL A   1      33.064  20.765  24.194  1.00  0.00     0.038 C 
BRANCH   4   5
ATOM      5  C   UNL A   1      33.240  22.132  23.595  1.00  0.00    -0.030 C 
ATOM      6  C   UNL A   1      32.884  22.570  22.375  1.00  0.00    -0.027 C 
BRANCH   6   7
ATOM      7  C   UNL A   1      32.907  24.041  22.012  1.00  0.00     0.054 C 
BRANCH   7   8
ATOM      8  C   UNL A   1      32.586  24.969  23.149  1.00  0.00    -0.027 C 
ATOM      9  C   UNL A   1      31.335  25.351  23.451  1.00  0.00    -0.027 C 
BRANCH   9  10
ATOM     10  C   UNL A   1      30.982  26.323  24.542  1.00  0.00     0.054 C 
BRANCH  10  11
ATOM     11  C   UNL A   1      32.214  26.592  25.355  1.00  0.00    -0.027 C 
ATOM     12  C   UNL A   1      32.375  27.648  26.167  1.00  0.00    -0.027 C 
BRANCH  12  13
ATOM     13  C   UNL A   1      33.687  28.006  26.804  1.00  0.00     0.054 C 
BRANCH  13  14
ATOM     14  C   UNL A   1      33.539  29.300  27.550  1.00  0.00    -0.027 C 
ATOM     15  C   UNL A   1      33.987  30.485  27.106  1.00  0.00    -0.031 C 
BRANCH  15  16
ATOM     16  C   UNL A   1      33.927  31.750  27.910  1.00  0.00     0.023 C 
ATOM     17  C   UNL A   1      35.312  32.363  28.045  1.00  0.00     0.008 C 
ENDBRANCH  15  16
ENDBRANCH  13  14
ENDBRANCH  12  13
ENDBRANCH  10  11
ENDBRANCH   9  10
ENDBRANCH   7   8
ENDBRANCH   6   7
ENDBRANCH   4   5
ENDBRANCH   3   4
ENDBRANCH   2   3
ENDBRANCH   1   2
BRANCH   1  18
ATOM     18  C   UNL A   1      35.076  24.223  25.639  1.00  0.00     0.021 C 
BRANCH  18  19
ATOM     19  C   UNL A   1      36.432  24.082  24.976  1.00  0.00     0.101 C 
BRANCH  19  20
ATOM     20  C   UNL A   1      36.652  22.956  23.978  1.00  0.00     0.220 C 
ATOM     21  O   UNL A   1      36.561  23.198  22.769  1.00  0.00    -0.275 OA
ATOM     22  N   UNL A   1      37.004  21.690  24.310  1.00  0.00    -0.356 N 
ATOM     23  H   UNL A   1      36.866  21.041  23.583  1.00  0.00     0.163 HD
BRANCH  22  24
ATOM     24  C   UNL A   1      37.542  21.100  25.518  1.00  0.00     0.116 C 
BRANCH  24  25
ATOM     25  C   UNL A   1      38.962  20.560  25.346  1.00  0.00     0.023 C 
BRANCH  25  26
ATOM     26  C   UNL A   1      39.936  21.180  26.353  1.00  0.00     0.023 C 
BRANCH  26  27
ATOM     27  C   UNL A   1      40.777  20.163  27.128  1.00  0.00     0.116 C 
BRANCH  27  28
ATOM     28  N   UNL A   1      41.609  19.344  26.260  1.00  0.00    -0.352 N 
ATOM     29  C   UNL A   1      42.749  19.681  25.560  1.00  0.00     0.251 C 
ATOM     30  H   UNL A   1      41.314  18.411  26.157  1.00  0.00     0.163 HD
ATOM     31  O   UNL A   1      43.239  18.906  24.755  1.00  0.00    -0.269 OA
BRANCH  29  32
ATOM     32  C   UNL A   1      43.356  21.015  25.760  1.00  0.00     0.039 A 
ATOM     33  C   UNL A   1      43.414  21.898  24.679  1.00  0.00     0.014 A 
ATOM     34  C   UNL A   1      43.830  21.405  27.015  1.00  0.00     0.014 A 
ATOM     35  C   UNL A   1      43.838  23.214  24.885  1.00  0.00     0.010 A 
ATOM     36  C   UNL A   1      44.190  22.733  27.232  1.00  0.00     0.010 A 
ATOM     37  C   UNL A   1      44.168  23.658  26.176  1.00  0.00    -0.014 A 
BRANCH  37  38
ATOM     38  C   UNL A   1      44.412  25.097  26.461  1.00  0.00     0.031 A 
ATOM     39  C   UNL A   1      45.801  25.664  26.398  1.00  0.00     0.074 A 
ATOM     40  C   UNL A   1      43.387  25.866  26.885  1.00  0.00     0.049 A 
ATOM     41  N   UNL A   1      46.223  26.855  26.739  1.00  0.00    -0.248 NA
ATOM     42  C   UNL A   1      46.862  24.768  25.911  1.00  0.00     0.031 C 
ATOM     43  C   UNL A   1      42.001  25.419  27.038  1.00  0.00     0.029 A 
ATOM     44  N   UNL A   1      43.357  27.177  27.294  1.00  0.00    -0.354 N 
ATOM     45  C   UNL A   1      47.596  26.847  26.531  1.00  0.00     0.074 A 
ATOM     46  C   UNL A   1      47.944  25.522  26.061  1.00  0.00     0.031 C 
ATOM     47  C   UNL A   1      41.258  26.434  27.505  1.00  0.00     0.029 A 
ATOM     48  C   UNL A   1      42.119  27.590  27.731  1.00  0.00     0.049 A 
ATOM     49  H   UNL A   1      44.145  27.767  27.276  1.00  0.00     0.167 HD
ATOM     50  C   UNL A   1      48.480  27.856  26.704  1.00  0.00     0.037 A 
ATOM     51  C   UNL A   1      41.727  28.756  28.279  1.00  0.00     0.037 A 
ATOM     52  C   UNL A   1      48.123  29.184  27.135  1.00  0.00     0.049 A 
ATOM     53  C   UNL A   1      42.738  29.855  28.469  1.00  0.00     0.074 A 
ATOM     54  C   UNL A   1      48.934  30.301  27.235  1.00  0.00     0.029 A 
ATOM     55  N   UNL A   1      46.858  29.570  27.546  1.00  0.00    -0.354 N 
ATOM     56  N   UNL A   1      44.015  29.864  28.173  1.00  0.00    -0.248 NA
ATOM     57  C   UNL A   1      42.256  31.107  29.071  1.00  0.00     0.031 C 
ATOM     58  C   UNL A   1      48.173  31.348  27.763  1.00  0.00     0.029 A 
ATOM     59  C   UNL A   1      46.876  30.897  27.942  1.00  0.00     0.049 A 
ATOM     60  H   UNL A   1      46.064  28.987  27.555  1.00  0.00     0.167 HD
ATOM     61  C   UNL A   1      44.481  31.122  28.534  1.00  0.00     0.074 A 
ATOM     62  C   UNL A   1      43.347  31.858  29.049  1.00  0.00     0.031 C 
ATOM     63  C   UNL A   1      45.739  31.619  28.452  1.00  0.00     0.037 A 
BRANCH  50  64
ATOM     64  C   UNL A   1      49.929  27.584  26.432  1.00  0.00     0.064 A 
ATOM     65  C   UNL A   1      50.827  27.275  27.464  1.00  0.00     0.173 A 
ATOM     66  C   UNL A   1      50.404  27.540  25.112  1.00  0.00     0.173 A 
ATOM     67  F   UNL A   1      50.423  27.310  28.742  1.00  0.00    -0.203 F 
ATOM     68  C   UNL A   1      52.149  26.939  27.184  1.00  0.00     0.198 A 
ATOM     69  C   UNL A   1      51.719  27.179  24.834  1.00  0.00     0.198 A 
ATOM     70  F   UNL A   1      49.583  27.821  24.088  1.00  0.00    -0.203 F 
ATOM     71  F   UNL A   1      52.997  26.670  28.187  1.00  0.00    -0.200 F 
ATOM     72  C   UNL A   1      52.591  26.882  25.871  1.00  0.00     0.200 A 
ATOM     73  F   UNL A   1      52.140  27.110  23.564  1.00  0.00    -0.200 F 
ATOM     74  F   UNL A   1      53.859  26.537  25.604  1.00  0.00    -0.200 F 
ENDBRANCH  50  64
BRANCH  51  75
ATOM     75  C   UNL A   1      40.318  28.946  28.717  1.00  0.00     0.064 A 
ATOM     76  C   UNL A   1      39.948  28.779  30.059  1.00  0.00     0.173 A 
ATOM     77  C   UNL A   1      39.304  29.258  27.798  1.00  0.00     0.173 A 
ATOM     78  F   UNL A   1      40.876  28.457  30.973  1.00  0.00    -0.203 F 
ATOM     79  C   UNL A   1      38.618  28.883  30.459  1.00  0.00     0.198 A 
ATOM     80  C   UNL A   1      37.979  29.395  28.204  1.00  0.00     0.198 A 
ATOM     81  F   UNL A   1      39.603  29.432  26.502  1.00  0.00    -0.203 F 
ATOM     82  F   UNL A   1      38.285  28.656  31.736  1.00  0.00    -0.200 F 
ATOM     83  C   UNL A   1      37.634  29.195  29.532  1.00  0.00     0.200 A 
ATOM     84  F   UNL A   1      37.035  29.711  27.307  1.00  0.00    -0.200 F 
ATOM     85  F   UNL A   1      36.354  29.290  29.916  1.00  0.00    -0.200 F 
ENDBRANCH  51  75
BRANCH  63  86
ATOM     86  C   UNL A   1      45.956  33.030  28.914  1.00  0.00     0.064 A 
ATOM     87  C   UNL A   1      45.725  34.121  28.065  1.00  0.00     0.173 A 
ATOM     88  C   UNL A   1      46.346  33.295  30.236  1.00  0.00     0.173 A 
ATOM     89  F   UNL A   1      45.368  33.918  26.787  1.00  0.00    -0.203 F 
ATOM     90  C   UNL A   1      45.895  35.427  28.516  1.00  0.00     0.198 A 
ATOM     91  C   UNL A   1      46.485  34.602  30.692  1.00  0.00     0.198 A 
ATOM     92  F   UNL A   1      46.574  32.286  31.090  1.00  0.00    -0.203 F 
ATOM     93  F   UNL A   1      45.710  36.453  27.674  1.00  0.00    -0.200 F 
ATOM     94  C   UNL A   1      46.266  35.666  29.831  1.00  0.00     0.200 A 
ATOM     95  F   UNL A   1      46.829  34.832  31.967  1.00  0.00    -0.200 F 
ATOM     96  F   UNL A   1      46.415  36.925  30.268  1.00  0.00    -0.200 F 
ENDBRANCH  63  86
ENDBRANCH  37  38
ENDBRANCH  29  32
ENDBRANCH  27  28
ENDBRANCH  26  27
ENDBRANCH  25  26
ENDBRANCH  24  25
ENDBRANCH  22  24
ENDBRANCH  19  20
ENDBRANCH  18  19
ENDBRANCH   1  18
TORSDOF 24
ENDMDL
