MODEL 1
REMARK VINA RESULT:     -13.4      0.000      0.000
REMARK SMILES Cc1nn(C)c(=O)c(C(=O)N2CC[C@@H](C(=O)NCCCCNC(=O)c3ccc(-c4c5nc(c(-c6c(F)c(F)c(F)c(F)c6F)c6ccc([nH]6)c(-c6c(F)c(F)c(F)c(F)c6F)c6nc(c(-c7c(F)c(F)c(F)c(F)c7F)c7ccc4[nH]7)C=C6)C=C5)cc3)[C@@H]2C)c1C
REMARK SMILES IDX 19 1 18 2 17 3 15 4 16 5 14 7 11 8 12 9 88 10 13 11 89 12
REMARK SMILES IDX 9 13 10 14 8 15 1 16 2 17 3 18 90 19 4 20 91 21 5 22 6 23
REMARK SMILES IDX 7 24 20 25 21 26 22 27 23 28 24 30 25 31 26 32 87 33 27 34
REMARK SMILES IDX 86 35 28 36 29 37 30 38 80 39 31 40 85 41 79 42 81 43 32 44
REMARK SMILES IDX 84 45 78 46 77 47 33 49 65 50 45 51 64 52 46 53 49 54 63 55
REMARK SMILES IDX 82 56 47 57 48 58 62 60 83 61 50 62 34 63 35 64 43 65 36 66
REMARK SMILES IDX 37 67 41 68 44 69 38 70 39 71 42 72 40 73 66 74 67 75 75 76
REMARK SMILES IDX 68 77 69 78 73 79 76 80 70 81 71 82 74 83 72 84 51 85 52 86
REMARK SMILES IDX 60 87 53 88 54 89 58 90 61 91 55 92 56 93 59 94 57 95
REMARK H PARENT 17 6 22 29 81 48 49 59
REMARK Flexibility Score: inf
ROOT
ATOM      1  C   UNL A   1      31.522  30.627  26.497  1.00  0.00     0.023 C 
ENDROOT
BRANCH   1   2
ATOM      2  C   UNL A   1      32.890  29.981  26.316  1.00  0.00     0.116 C 
BRANCH   2   3
ATOM      3  N   UNL A   1      33.231  29.851  24.914  1.00  0.00    -0.356 N 
ATOM      4  C   UNL A   1      33.268  28.769  24.094  1.00  0.00     0.225 C 
ATOM      5  O   UNL A   1      33.672  28.963  22.943  1.00  0.00    -0.275 OA
ATOM      6  H   UNL A   1      33.482  30.698  24.478  1.00  0.00     0.163 HD
BRANCH   4   7
ATOM      7  C   UNL A   1      32.900  27.355  24.532  1.00  0.00     0.102 C 
ATOM      8  N   UNL A   1      33.864  25.373  23.595  1.00  0.00    -0.335 N 
ATOM      9  C   UNL A   1      34.080  25.299  25.032  1.00  0.00     0.121 C 
ATOM     10  C   UNL A   1      32.824  26.381  23.345  1.00  0.00     0.094 C 
ATOM     11  C   UNL A   1      33.803  26.697  25.574  1.00  0.00     0.037 C 
ATOM     12  C   UNL A   1      31.416  25.787  23.225  1.00  0.00     0.032 C 
BRANCH   8  13
ATOM     13  C   UNL A   1      33.881  24.167  22.886  1.00  0.00     0.260 C 
ATOM     14  O   UNL A   1      33.599  24.101  21.695  1.00  0.00    -0.269 OA
BRANCH  13  15
ATOM     15  C   UNL A   1      34.187  22.945  23.693  1.00  0.00     0.111 A 
ATOM     16  C   UNL A   1      36.858  21.264  25.663  1.00  0.00     0.069 C 
ATOM     17  C   UNL A   1      35.605  21.374  24.821  1.00  0.00     0.062 A 
ATOM     18  N   UNL A   1      34.685  20.492  25.030  1.00  0.00    -0.175 NA
ATOM     19  C   UNL A   1      35.448  22.519  23.888  1.00  0.00    -0.010 A 
ATOM     20  N   UNL A   1      33.466  20.733  24.459  1.00  0.00    -0.232 N 
ATOM     21  C   UNL A   1      36.653  22.953  23.126  1.00  0.00     0.047 C 
ATOM     22  C   UNL A   1      32.528  19.626  24.505  1.00  0.00     0.178 C 
ATOM     23  C   UNL A   1      33.070  22.001  24.029  1.00  0.00     0.279 A 
ATOM     24  O   UNL A   1      31.896  22.319  23.862  1.00  0.00    -0.267 OA
ENDBRANCH  13  15
ENDBRANCH   8  13
ENDBRANCH   4   7
ENDBRANCH   2   3
ENDBRANCH   1   2
BRANCH   1  25
ATOM     25  C   UNL A   1      31.491  32.146  26.500  1.00  0.00     0.023 C 
BRANCH  25  26
ATOM     26  C   UNL A   1      32.623  32.818  27.260  1.00  0.00     0.116 C 
BRANCH  26  27
ATOM     27  N   UNL A   1      32.353  34.203  27.626  1.00  0.00    -0.352 N 
ATOM     28  C   UNL A   1      32.952  34.993  28.583  1.00  0.00     0.251 C 
ATOM     29  H   UNL A   1      31.636  34.640  27.112  1.00  0.00     0.163 HD
ATOM     30  O   UNL A   1      32.528  36.123  28.805  1.00  0.00    -0.269 OA
BRANCH  28  31
ATOM     31  C   UNL A   1      34.076  34.456  29.378  1.00  0.00     0.039 A 
ATOM     32  C   UNL A   1      33.807  33.783  30.574  1.00  0.00     0.014 A 
ATOM     33  C   UNL A   1      35.385  34.555  28.908  1.00  0.00     0.014 A 
ATOM     34  C   UNL A   1      34.839  33.109  31.233  1.00  0.00     0.010 A 
ATOM     35  C   UNL A   1      36.382  33.791  29.497  1.00  0.00     0.010 A 
ATOM     36  C   UNL A   1      36.120  33.054  30.662  1.00  0.00    -0.014 A 
BRANCH  36  37
ATOM     37  C   UNL A   1      37.223  32.251  31.251  1.00  0.00     0.031 A 
ATOM     38  C   UNL A   1      37.723  32.589  32.629  1.00  0.00     0.074 A 
ATOM     39  C   UNL A   1      37.846  31.310  30.517  1.00  0.00     0.049 A 
ATOM     40  N   UNL A   1      38.806  32.184  33.243  1.00  0.00    -0.248 NA
ATOM     41  C   UNL A   1      36.922  33.554  33.399  1.00  0.00     0.031 C 
ATOM     42  C   UNL A   1      37.483  30.913  29.155  1.00  0.00     0.029 A 
ATOM     43  N   UNL A   1      38.934  30.524  30.810  1.00  0.00    -0.354 N 
ATOM     44  C   UNL A   1      38.833  32.874  34.447  1.00  0.00     0.074 A 
ATOM     45  C   UNL A   1      37.691  33.762  34.456  1.00  0.00     0.031 C 
ATOM     46  C   UNL A   1      38.312  29.940  28.743  1.00  0.00     0.029 A 
ATOM     47  C   UNL A   1      39.296  29.679  29.790  1.00  0.00     0.049 A 
ATOM     48  H   UNL A   1      39.410  30.564  31.670  1.00  0.00     0.167 HD
ATOM     49  C   UNL A   1      39.717  32.759  35.466  1.00  0.00     0.037 A 
ATOM     50  C   UNL A   1      40.312  28.799  29.706  1.00  0.00     0.037 A 
ATOM     51  C   UNL A   1      40.818  31.834  35.475  1.00  0.00     0.049 A 
ATOM     52  C   UNL A   1      41.260  28.664  30.865  1.00  0.00     0.074 A 
ATOM     53  C   UNL A   1      41.752  31.612  36.471  1.00  0.00     0.029 A 
ATOM     54  N   UNL A   1      41.117  30.957  34.442  1.00  0.00    -0.354 N 
ATOM     55  N   UNL A   1      41.278  29.321  32.000  1.00  0.00    -0.248 NA
ATOM     56  C   UNL A   1      42.329  27.664  30.734  1.00  0.00     0.031 C 
ATOM     57  C   UNL A   1      42.628  30.614  36.033  1.00  0.00     0.029 A 
ATOM     58  C   UNL A   1      42.216  30.186  34.781  1.00  0.00     0.049 A 
ATOM     59  H   UNL A   1      40.620  30.892  33.594  1.00  0.00     0.167 HD
ATOM     60  C   UNL A   1      42.338  28.798  32.727  1.00  0.00     0.074 A 
ATOM     61  C   UNL A   1      42.934  27.761  31.910  1.00  0.00     0.031 C 
ATOM     62  C   UNL A   1      42.779  29.147  33.960  1.00  0.00     0.037 A 
BRANCH  49  63
ATOM     63  C   UNL A   1      39.515  33.642  36.661  1.00  0.00     0.064 A 
ATOM     64  C   UNL A   1      40.060  34.934  36.718  1.00  0.00     0.173 A 
ATOM     65  C   UNL A   1      38.746  33.207  37.751  1.00  0.00     0.173 A 
ATOM     66  F   UNL A   1      40.818  35.391  35.709  1.00  0.00    -0.203 F 
ATOM     67  C   UNL A   1      39.865  35.746  37.832  1.00  0.00     0.198 A 
ATOM     68  C   UNL A   1      38.527  34.034  38.850  1.00  0.00     0.198 A 
ATOM     69  F   UNL A   1      38.202  31.980  37.748  1.00  0.00    -0.203 F 
ATOM     70  F   UNL A   1      40.439  36.956  37.884  1.00  0.00    -0.200 F 
ATOM     71  C   UNL A   1      39.093  35.300  38.892  1.00  0.00     0.200 A 
ATOM     72  F   UNL A   1      37.772  33.604  39.870  1.00  0.00    -0.200 F 
ATOM     73  F   UNL A   1      38.900  36.086  39.960  1.00  0.00    -0.200 F 
ENDBRANCH  49  63
BRANCH  50  74
ATOM     74  C   UNL A   1      40.454  27.945  28.498  1.00  0.00     0.064 A 
ATOM     75  C   UNL A   1      41.210  28.385  27.402  1.00  0.00     0.173 A 
ATOM     76  C   UNL A   1      39.865  26.676  28.418  1.00  0.00     0.173 A 
ATOM     77  F   UNL A   1      41.776  29.601  27.426  1.00  0.00    -0.203 F 
ATOM     78  C   UNL A   1      41.360  27.593  26.265  1.00  0.00     0.198 A 
ATOM     79  C   UNL A   1      40.036  25.874  27.290  1.00  0.00     0.198 A 
ATOM     80  F   UNL A   1      39.137  26.206  29.442  1.00  0.00    -0.203 F 
ATOM     81  F   UNL A   1      42.060  28.054  25.219  1.00  0.00    -0.200 F 
ATOM     82  C   UNL A   1      40.779  26.336  26.213  1.00  0.00     0.200 A 
ATOM     83  F   UNL A   1      39.485  24.654  27.248  1.00  0.00    -0.200 F 
ATOM     84  F   UNL A   1      40.933  25.570  25.124  1.00  0.00    -0.200 F 
ENDBRANCH  50  74
BRANCH  62  85
ATOM     85  C   UNL A   1      43.935  28.374  34.521  1.00  0.00     0.064 A 
ATOM     86  C   UNL A   1      45.257  28.809  34.361  1.00  0.00     0.173 A 
ATOM     87  C   UNL A   1      43.708  27.214  35.275  1.00  0.00     0.173 A 
ATOM     88  F   UNL A   1      45.524  29.906  33.637  1.00  0.00    -0.203 F 
ATOM     89  C   UNL A   1      46.315  28.097  34.920  1.00  0.00     0.198 A 
ATOM     90  C   UNL A   1      44.765  26.519  35.855  1.00  0.00     0.198 A 
ATOM     91  F   UNL A   1      42.458  26.763  35.464  1.00  0.00    -0.203 F 
ATOM     92  F   UNL A   1      47.576  28.509  34.724  1.00  0.00    -0.200 F 
ATOM     93  C   UNL A   1      46.067  26.958  35.673  1.00  0.00     0.200 A 
ATOM     94  F   UNL A   1      44.524  25.427  36.593  1.00  0.00    -0.200 F 
ATOM     95  F   UNL A   1      47.086  26.280  36.218  1.00  0.00    -0.200 F 
ENDBRANCH  62  85
ENDBRANCH  36  37
ENDBRANCH  28  31
ENDBRANCH  26  27
ENDBRANCH  25  26
ENDBRANCH   1  25
TORSDOF 13
ENDMDL
MODEL 2
REMARK VINA RESULT:     -13.2      0.594      7.341
REMARK SMILES Cc1nn(C)c(=O)c(C(=O)N2CC[C@@H](C(=O)NCCCCNC(=O)c3ccc(-c4c5nc(c(-c6c(F)c(F)c(F)c(F)c6F)c6ccc([nH]6)c(-c6c(F)c(F)c(F)c(F)c6F)c6nc(c(-c7c(F)c(F)c(F)c(F)c7F)c7ccc4[nH]7)C=C6)C=C5)cc3)[C@@H]2C)c1C
REMARK SMILES IDX 19 1 18 2 17 3 15 4 16 5 14 7 11 8 12 9 88 10 13 11 89 12
REMARK SMILES IDX 9 13 10 14 8 15 1 16 2 17 3 18 90 19 4 20 91 21 5 22 6 23
REMARK SMILES IDX 7 24 20 25 21 26 22 27 23 28 24 30 25 31 26 32 87 33 27 34
REMARK SMILES IDX 86 35 28 36 29 37 30 38 80 39 31 40 85 41 79 42 81 43 32 44
REMARK SMILES IDX 84 45 78 46 77 47 33 49 65 50 45 51 64 52 46 53 49 54 63 55
REMARK SMILES IDX 82 56 47 57 48 58 62 60 83 61 50 62 34 63 35 64 43 65 36 66
REMARK SMILES IDX 37 67 41 68 44 69 38 70 39 71 42 72 40 73 66 74 67 75 75 76
REMARK SMILES IDX 68 77 69 78 73 79 76 80 70 81 71 82 74 83 72 84 51 85 52 86
REMARK SMILES IDX 60 87 53 88 54 89 58 90 61 91 55 92 56 93 59 94 57 95
REMARK H PARENT 17 6 22 29 81 48 49 59
REMARK Flexibility Score: inf
ROOT
ATOM      1  C   UNL A   1      32.147  30.175  26.911  1.00  0.00     0.023 C 
ENDROOT
BRANCH   1   2
ATOM      2  C   UNL A   1      33.506  29.734  26.382  1.00  0.00     0.116 C 
BRANCH   2   3
ATOM      3  N   UNL A   1      33.522  29.694  24.933  1.00  0.00    -0.356 N 
ATOM      4  C   UNL A   1      33.273  28.686  24.059  1.00  0.00     0.225 C 
ATOM      5  O   UNL A   1      33.436  28.942  22.861  1.00  0.00    -0.275 OA
ATOM      6  H   UNL A   1      33.756  30.550  24.508  1.00  0.00     0.163 HD
BRANCH   4   7
ATOM      7  C   UNL A   1      32.868  27.276  24.477  1.00  0.00     0.102 C 
ATOM      8  N   UNL A   1      33.833  25.283  23.561  1.00  0.00    -0.335 N 
ATOM      9  C   UNL A   1      33.999  25.199  25.004  1.00  0.00     0.121 C 
ATOM     10  C   UNL A   1      32.817  26.308  23.283  1.00  0.00     0.094 C 
ATOM     11  C   UNL A   1      33.726  26.598  25.544  1.00  0.00     0.037 C 
ATOM     12  C   UNL A   1      31.405  25.737  23.113  1.00  0.00     0.032 C 
BRANCH   8  13
ATOM     13  C   UNL A   1      33.854  24.080  22.846  1.00  0.00     0.260 C 
ATOM     14  O   UNL A   1      33.564  24.018  21.657  1.00  0.00    -0.269 OA
BRANCH  13  15
ATOM     15  C   UNL A   1      34.176  22.858  23.646  1.00  0.00     0.111 A 
ATOM     16  C   UNL A   1      36.869  21.201  25.608  1.00  0.00     0.069 C 
ATOM     17  C   UNL A   1      35.615  21.299  24.765  1.00  0.00     0.062 A 
ATOM     18  N   UNL A   1      34.707  20.403  24.967  1.00  0.00    -0.175 NA
ATOM     19  C   UNL A   1      35.443  22.448  23.840  1.00  0.00    -0.010 A 
ATOM     20  N   UNL A   1      33.485  20.630  24.396  1.00  0.00    -0.232 N 
ATOM     21  C   UNL A   1      36.643  22.904  23.082  1.00  0.00     0.047 C 
ATOM     22  C   UNL A   1      32.563  19.511  24.433  1.00  0.00     0.178 C 
ATOM     23  C   UNL A   1      33.073  21.896  23.974  1.00  0.00     0.279 A 
ATOM     24  O   UNL A   1      31.894  22.198  23.807  1.00  0.00    -0.267 OA
ENDBRANCH  13  15
ENDBRANCH   8  13
ENDBRANCH   4   7
ENDBRANCH   2   3
ENDBRANCH   1   2
BRANCH   1  25
ATOM     25  C   UNL A   1      31.854  31.665  26.849  1.00  0.00     0.023 C 
BRANCH  25  26
ATOM     26  C   UNL A   1      32.929  32.564  27.434  1.00  0.00     0.116 C 
BRANCH  26  27
ATOM     27  N   UNL A   1      32.491  33.932  27.682  1.00  0.00    -0.352 N 
ATOM     28  C   UNL A   1      32.990  34.871  28.557  1.00  0.00     0.251 C 
ATOM     29  H   UNL A   1      31.723  34.230  27.142  1.00  0.00     0.163 HD
ATOM     30  O   UNL A   1      32.430  35.956  28.686  1.00  0.00    -0.269 OA
BRANCH  28  31
ATOM     31  C   UNL A   1      34.175  34.550  29.380  1.00  0.00     0.039 A 
ATOM     32  C   UNL A   1      33.995  34.068  30.680  1.00  0.00     0.014 A 
ATOM     33  C   UNL A   1      35.457  34.657  28.844  1.00  0.00     0.014 A 
ATOM     34  C   UNL A   1      35.093  33.583  31.394  1.00  0.00     0.010 A 
ATOM     35  C   UNL A   1      36.526  34.070  29.505  1.00  0.00     0.010 A 
ATOM     36  C   UNL A   1      36.356  33.520  30.786  1.00  0.00    -0.014 A 
BRANCH  36  37
ATOM     37  C   UNL A   1      37.533  32.902  31.449  1.00  0.00     0.031 A 
ATOM     38  C   UNL A   1      38.243  31.761  30.773  1.00  0.00     0.074 A 
ATOM     39  C   UNL A   1      37.889  33.280  32.691  1.00  0.00     0.049 A 
ATOM     40  N   UNL A   1      39.133  30.933  31.256  1.00  0.00    -0.248 NA
ATOM     41  C   UNL A   1      37.859  31.484  29.379  1.00  0.00     0.031 C 
ATOM     42  C   UNL A   1      37.260  34.346  33.471  1.00  0.00     0.029 A 
ATOM     43  N   UNL A   1      38.864  32.792  33.528  1.00  0.00    -0.354 N 
ATOM     44  C   UNL A   1      39.382  30.018  30.242  1.00  0.00     0.074 A 
ATOM     45  C   UNL A   1      38.513  30.358  29.137  1.00  0.00     0.031 C 
ATOM     46  C   UNL A   1      37.881  34.453  34.657  1.00  0.00     0.029 A 
ATOM     47  C   UNL A   1      38.919  33.430  34.743  1.00  0.00     0.049 A 
ATOM     48  H   UNL A   1      39.466  32.053  33.280  1.00  0.00     0.167 HD
ATOM     49  C   UNL A   1      40.274  29.000  30.224  1.00  0.00     0.037 A 
ATOM     50  C   UNL A   1      39.712  33.208  35.808  1.00  0.00     0.037 A 
ATOM     51  C   UNL A   1      41.176  28.701  31.303  1.00  0.00     0.049 A 
ATOM     52  C   UNL A   1      40.721  32.094  35.750  1.00  0.00     0.074 A 
ATOM     53  C   UNL A   1      42.143  27.715  31.373  1.00  0.00     0.029 A 
ATOM     54  N   UNL A   1      41.236  29.408  32.496  1.00  0.00    -0.354 N 
ATOM     55  N   UNL A   1      40.949  31.234  34.787  1.00  0.00    -0.248 NA
ATOM     56  C   UNL A   1      41.584  31.920  36.927  1.00  0.00     0.031 C 
ATOM     57  C   UNL A   1      42.776  27.812  32.616  1.00  0.00     0.029 A 
ATOM     58  C   UNL A   1      42.230  28.884  33.305  1.00  0.00     0.049 A 
ATOM     59  H   UNL A   1      40.657  30.169  32.732  1.00  0.00     0.167 HD
ATOM     60  C   UNL A   1      41.995  30.436  35.227  1.00  0.00     0.074 A 
ATOM     61  C   UNL A   1      42.366  30.921  36.541  1.00  0.00     0.031 C 
ATOM     62  C   UNL A   1      42.594  29.394  34.600  1.00  0.00     0.037 A 
BRANCH  49  63
ATOM     63  C   UNL A   1      40.330  28.150  28.989  1.00  0.00     0.064 A 
ATOM     64  C   UNL A   1      41.117  28.515  27.885  1.00  0.00     0.173 A 
ATOM     65  C   UNL A   1      39.616  26.946  28.916  1.00  0.00     0.173 A 
ATOM     66  F   UNL A   1      41.805  29.666  27.898  1.00  0.00    -0.203 F 
ATOM     67  C   UNL A   1      41.164  27.718  26.744  1.00  0.00     0.198 A 
ATOM     68  C   UNL A   1      39.690  26.136  27.785  1.00  0.00     0.198 A 
ATOM     69  F   UNL A   1      38.849  26.550  29.944  1.00  0.00    -0.203 F 
ATOM     70  F   UNL A   1      41.881  28.113  25.683  1.00  0.00    -0.200 F 
ATOM     71  C   UNL A   1      40.458  26.526  26.698  1.00  0.00     0.200 A 
ATOM     72  F   UNL A   1      39.015  24.978  27.747  1.00  0.00    -0.200 F 
ATOM     73  F   UNL A   1      40.511  25.756  25.602  1.00  0.00    -0.200 F 
ENDBRANCH  49  63
BRANCH  50  74
ATOM     74  C   UNL A   1      39.616  34.091  37.000  1.00  0.00     0.064 A 
ATOM     75  C   UNL A   1      38.843  33.709  38.106  1.00  0.00     0.173 A 
ATOM     76  C   UNL A   1      40.301  35.312  37.072  1.00  0.00     0.173 A 
ATOM     77  F   UNL A   1      38.155  32.558  38.075  1.00  0.00    -0.203 F 
ATOM     78  C   UNL A   1      38.748  34.521  39.234  1.00  0.00     0.198 A 
ATOM     79  C   UNL A   1      40.225  36.112  38.211  1.00  0.00     0.198 A 
ATOM     80  F   UNL A   1      41.058  35.720  36.043  1.00  0.00    -0.203 F 
ATOM     81  F   UNL A   1      37.975  34.146  40.263  1.00  0.00    -0.200 F 
ATOM     82  C   UNL A   1      39.445  35.717  39.289  1.00  0.00     0.200 A 
ATOM     83  F   UNL A   1      40.910  37.262  38.267  1.00  0.00    -0.200 F 
ATOM     84  F   UNL A   1      39.363  36.493  40.379  1.00  0.00    -0.200 F 
ENDBRANCH  50  74
BRANCH  62  85
ATOM     85  C   UNL A   1      43.741  28.734  35.306  1.00  0.00     0.064 A 
ATOM     86  C   UNL A   1      43.540  27.687  36.214  1.00  0.00     0.173 A 
ATOM     87  C   UNL A   1      45.059  29.121  35.023  1.00  0.00     0.173 A 
ATOM     88  F   UNL A   1      42.297  27.291  36.525  1.00  0.00    -0.203 F 
ATOM     89  C   UNL A   1      44.620  27.062  36.832  1.00  0.00     0.198 A 
ATOM     90  C   UNL A   1      46.137  28.477  35.622  1.00  0.00     0.198 A 
ATOM     91  F   UNL A   1      45.302  30.114  34.153  1.00  0.00    -0.203 F 
ATOM     92  F   UNL A   1      44.406  26.087  37.727  1.00  0.00    -0.200 F 
ATOM     93  C   UNL A   1      45.917  27.452  36.529  1.00  0.00     0.200 A 
ATOM     94  F   UNL A   1      47.390  28.845  35.319  1.00  0.00    -0.200 F 
ATOM     95  F   UNL A   1      46.955  26.843  37.118  1.00  0.00    -0.200 F 
ENDBRANCH  62  85
ENDBRANCH  36  37
ENDBRANCH  28  31
ENDBRANCH  26  27
ENDBRANCH  25  26
ENDBRANCH   1  25
TORSDOF 13
ENDMDL
MODEL 3
REMARK VINA RESULT:     -13.2      5.143     11.014
REMARK SMILES Cc1nn(C)c(=O)c(C(=O)N2CC[C@@H](C(=O)NCCCCNC(=O)c3ccc(-c4c5nc(c(-c6c(F)c(F)c(F)c(F)c6F)c6ccc([nH]6)c(-c6c(F)c(F)c(F)c(F)c6F)c6nc(c(-c7c(F)c(F)c(F)c(F)c7F)c7ccc4[nH]7)C=C6)C=C5)cc3)[C@@H]2C)c1C
REMARK SMILES IDX 19 1 18 2 17 3 15 4 16 5 14 7 11 8 12 9 88 10 13 11 89 12
REMARK SMILES IDX 9 13 10 14 8 15 1 16 2 17 3 18 90 19 4 20 91 21 5 22 6 23
REMARK SMILES IDX 7 24 20 25 21 26 22 27 23 28 24 30 25 31 26 32 87 33 27 34
REMARK SMILES IDX 86 35 28 36 29 37 30 38 80 39 31 40 85 41 79 42 81 43 32 44
REMARK SMILES IDX 84 45 78 46 77 47 33 49 65 50 45 51 64 52 46 53 49 54 63 55
REMARK SMILES IDX 82 56 47 57 48 58 62 60 83 61 50 62 34 63 35 64 43 65 36 66
REMARK SMILES IDX 37 67 41 68 44 69 38 70 39 71 42 72 40 73 66 74 67 75 75 76
REMARK SMILES IDX 68 77 69 78 73 79 76 80 70 81 71 82 74 83 72 84 51 85 52 86
REMARK SMILES IDX 60 87 53 88 54 89 58 90 61 91 55 92 56 93 59 94 57 95
REMARK H PARENT 17 6 22 29 81 48 49 59
REMARK Flexibility Score: inf
ROOT
ATOM      1  C   UNL A   1      37.088  21.034  24.843  1.00  0.00     0.023 C 
ENDROOT
BRANCH   1   2
ATOM      2  C   UNL A   1      35.627  20.630  24.994  1.00  0.00     0.116 C 
BRANCH   2   3
ATOM      3  N   UNL A   1      35.091  21.049  26.273  1.00  0.00    -0.356 N 
ATOM      4  C   UNL A   1      34.315  22.109  26.620  1.00  0.00     0.225 C 
ATOM      5  O   UNL A   1      34.071  22.243  27.823  1.00  0.00    -0.275 OA
ATOM      6  H   UNL A   1      35.332  20.461  27.025  1.00  0.00     0.163 HD
BRANCH   4   7
ATOM      7  C   UNL A   1      33.795  23.144  25.628  1.00  0.00     0.102 C 
ATOM      8  N   UNL A   1      32.277  24.904  26.208  1.00  0.00    -0.335 N 
ATOM      9  C   UNL A   1      33.437  25.541  25.603  1.00  0.00     0.121 C 
ATOM     10  C   UNL A   1      32.312  23.477  25.860  1.00  0.00     0.094 C 
ATOM     11  C   UNL A   1      34.533  24.481  25.572  1.00  0.00     0.037 C 
ATOM     12  C   UNL A   1      31.482  23.131  24.619  1.00  0.00     0.032 C 
BRANCH   8  13
ATOM     13  C   UNL A   1      31.075  25.620  26.186  1.00  0.00     0.260 C 
ATOM     14  O   UNL A   1      30.021  25.146  26.594  1.00  0.00    -0.269 OA
BRANCH  13  15
ATOM     15  C   UNL A   1      31.140  26.975  25.557  1.00  0.00     0.111 A 
ATOM     16  C   UNL A   1      32.612  30.372  25.937  1.00  0.00     0.069 C 
ATOM     17  C   UNL A   1      31.618  29.325  25.481  1.00  0.00     0.062 A 
ATOM     18  N   UNL A   1      31.012  29.547  24.362  1.00  0.00    -0.175 NA
ATOM     19  C   UNL A   1      31.461  28.073  26.265  1.00  0.00    -0.010 A 
ATOM     20  N   UNL A   1      30.310  28.501  23.828  1.00  0.00    -0.232 N 
ATOM     21  C   UNL A   1      31.485  28.188  27.752  1.00  0.00     0.047 C 
ATOM     22  C   UNL A   1      29.450  28.835  22.709  1.00  0.00     0.178 C 
ATOM     23  C   UNL A   1      30.537  27.173  24.198  1.00  0.00     0.279 A 
ATOM     24  O   UNL A   1      30.205  26.216  23.503  1.00  0.00    -0.267 OA
ENDBRANCH  13  15
ENDBRANCH   8  13
ENDBRANCH   4   7
ENDBRANCH   2   3
ENDBRANCH   1   2
BRANCH   1  25
ATOM     25  C   UNL A   1      38.111  19.919  24.977  1.00  0.00     0.023 C 
BRANCH  25  26
ATOM     26  C   UNL A   1      39.272  20.209  25.913  1.00  0.00     0.116 C 
BRANCH  26  27
ATOM     27  N   UNL A   1      40.284  19.161  25.948  1.00  0.00    -0.352 N 
ATOM     28  C   UNL A   1      41.647  19.259  26.124  1.00  0.00     0.251 C 
ATOM     29  H   UNL A   1      39.943  18.245  25.830  1.00  0.00     0.163 HD
ATOM     30  O   UNL A   1      42.354  18.260  26.040  1.00  0.00    -0.269 OA
BRANCH  28  31
ATOM     31  C   UNL A   1      42.262  20.581  26.362  1.00  0.00     0.039 A 
ATOM     32  C   UNL A   1      42.655  21.360  25.270  1.00  0.00     0.014 A 
ATOM     33  C   UNL A   1      42.384  21.080  27.659  1.00  0.00     0.014 A 
ATOM     34  C   UNL A   1      43.059  22.682  25.475  1.00  0.00     0.010 A 
ATOM     35  C   UNL A   1      42.671  22.424  27.850  1.00  0.00     0.010 A 
ATOM     36  C   UNL A   1      43.006  23.243  26.760  1.00  0.00    -0.014 A 
BRANCH  36  37
ATOM     37  C   UNL A   1      43.303  24.675  27.021  1.00  0.00     0.031 A 
ATOM     38  C   UNL A   1      44.696  25.191  26.788  1.00  0.00     0.074 A 
ATOM     39  C   UNL A   1      42.368  25.474  27.569  1.00  0.00     0.049 A 
ATOM     40  N   UNL A   1      45.235  26.325  27.155  1.00  0.00    -0.248 NA
ATOM     41  C   UNL A   1      45.623  24.284  26.091  1.00  0.00     0.031 C 
ATOM     42  C   UNL A   1      40.991  25.087  27.879  1.00  0.00     0.029 A 
ATOM     43  N   UNL A   1      42.442  26.783  27.981  1.00  0.00    -0.354 N 
ATOM     44  C   UNL A   1      46.567  26.248  26.772  1.00  0.00     0.074 A 
ATOM     45  C   UNL A   1      46.769  24.939  26.192  1.00  0.00     0.031 C 
ATOM     46  C   UNL A   1      40.343  26.140  28.402  1.00  0.00     0.029 A 
ATOM     47  C   UNL A   1      41.270  27.262  28.513  1.00  0.00     0.049 A 
ATOM     48  H   UNL A   1      43.260  27.326  27.903  1.00  0.00     0.167 HD
ATOM     49  C   UNL A   1      47.530  27.194  26.871  1.00  0.00     0.037 A 
ATOM     50  C   UNL A   1      40.981  28.468  29.038  1.00  0.00     0.037 A 
ATOM     51  C   UNL A   1      47.309  28.515  27.396  1.00  0.00     0.049 A 
ATOM     52  C   UNL A   1      42.058  29.515  29.105  1.00  0.00     0.074 A 
ATOM     53  C   UNL A   1      48.207  29.561  27.510  1.00  0.00     0.029 A 
ATOM     54  N   UNL A   1      46.092  28.977  27.876  1.00  0.00    -0.354 N 
ATOM     55  N   UNL A   1      43.314  29.433  28.740  1.00  0.00    -0.248 NA
ATOM     56  C   UNL A   1      41.677  30.823  29.655  1.00  0.00     0.031 C 
ATOM     57  C   UNL A   1      47.538  30.651  28.074  1.00  0.00     0.029 A 
ATOM     58  C   UNL A   1      46.213  30.296  28.278  1.00  0.00     0.049 A 
ATOM     59  H   UNL A   1      45.264  28.445  27.922  1.00  0.00     0.167 HD
ATOM     60  C   UNL A   1      43.867  30.681  28.989  1.00  0.00     0.074 A 
ATOM     61  C   UNL A   1      42.806  31.507  29.527  1.00  0.00     0.031 C 
ATOM     62  C   UNL A   1      45.139  31.104  28.792  1.00  0.00     0.037 A 
BRANCH  49  63
ATOM     63  C   UNL A   1      48.902  26.840  26.381  1.00  0.00     0.064 A 
ATOM     64  C   UNL A   1      49.861  26.274  27.236  1.00  0.00     0.173 A 
ATOM     65  C   UNL A   1      49.258  27.040  25.039  1.00  0.00     0.173 A 
ATOM     66  F   UNL A   1      49.577  26.079  28.533  1.00  0.00    -0.203 F 
ATOM     67  C   UNL A   1      51.132  25.947  26.771  1.00  0.00     0.198 A 
ATOM     68  C   UNL A   1      50.520  26.682  24.570  1.00  0.00     0.198 A 
ATOM     69  F   UNL A   1      48.378  27.577  24.180  1.00  0.00    -0.203 F 
ATOM     70  F   UNL A   1      52.047  25.456  27.619  1.00  0.00    -0.200 F 
ATOM     71  C   UNL A   1      51.457  26.143  25.439  1.00  0.00     0.200 A 
ATOM     72  F   UNL A   1      50.829  26.863  23.279  1.00  0.00    -0.200 F 
ATOM     73  F   UNL A   1      52.679  25.820  24.991  1.00  0.00    -0.200 F 
ENDBRANCH  49  63
BRANCH  50  74
ATOM     74  C   UNL A   1      39.598  28.762  29.499  1.00  0.00     0.064 A 
ATOM     75  C   UNL A   1      39.213  28.481  30.817  1.00  0.00     0.173 A 
ATOM     76  C   UNL A   1      38.646  29.345  28.650  1.00  0.00     0.173 A 
ATOM     77  F   UNL A   1      40.085  27.906  31.659  1.00  0.00    -0.203 F 
ATOM     78  C   UNL A   1      37.924  28.759  31.266  1.00  0.00     0.198 A 
ATOM     79  C   UNL A   1      37.364  29.644  29.108  1.00  0.00     0.198 A 
ATOM     80  F   UNL A   1      38.967  29.639  27.382  1.00  0.00    -0.203 F 
ATOM     81  F   UNL A   1      37.574  28.447  32.522  1.00  0.00    -0.200 F 
ATOM     82  C   UNL A   1      37.004  29.347  30.414  1.00  0.00     0.200 A 
ATOM     83  F   UNL A   1      36.481  30.226  28.286  1.00  0.00    -0.200 F 
ATOM     84  F   UNL A   1      35.767  29.624  30.849  1.00  0.00    -0.200 F 
ENDBRANCH  50  74
BRANCH  62  85
ATOM     85  C   UNL A   1      45.446  32.535  29.118  1.00  0.00     0.064 A 
ATOM     86  C   UNL A   1      45.944  32.913  30.372  1.00  0.00     0.173 A 
ATOM     87  C   UNL A   1      45.291  33.530  28.141  1.00  0.00     0.173 A 
ATOM     88  F   UNL A   1      46.097  31.998  31.341  1.00  0.00    -0.203 F 
ATOM     89  C   UNL A   1      46.258  34.242  30.644  1.00  0.00     0.198 A 
ATOM     90  C   UNL A   1      45.631  34.853  28.408  1.00  0.00     0.198 A 
ATOM     91  F   UNL A   1      44.826  33.215  26.922  1.00  0.00    -0.203 F 
ATOM     92  F   UNL A   1      46.698  34.589  31.862  1.00  0.00    -0.200 F 
ATOM     93  C   UNL A   1      46.109  35.208  29.659  1.00  0.00     0.200 A 
ATOM     94  F   UNL A   1      45.499  35.783  27.452  1.00  0.00    -0.200 F 
ATOM     95  F   UNL A   1      46.421  36.485  29.921  1.00  0.00    -0.200 F 
ENDBRANCH  62  85
ENDBRANCH  36  37
ENDBRANCH  28  31
ENDBRANCH  26  27
ENDBRANCH  25  26
ENDBRANCH   1  25
TORSDOF 13
ENDMDL
