MODEL 1
REMARK VINA RESULT:     -13.6      0.000      0.000
REMARK SMILES O=C(NCCCCNC(=O)c1cccn1CC(=O)N1CCc2ccccc2C1)c1ccc(-c2c3nc(c(-c4c(F)c(F)c(F)c(F)c4F)c4ccc([nH]4)c(-c4c(F)c(F)c(F)c(F)c4F)c4nc(c(-c5c(F)c(F)c(F)c(F)c5F)c5ccc2[nH]5)C=C4)C=C3)cc1
REMARK SMILES IDX 6 1 5 2 4 3 3 4 1 5 2 6 29 8 30 9 91 10 31 11 90 12 32 13
REMARK SMILES IDX 33 14 34 15 84 16 35 17 89 18 83 19 85 20 36 21 88 22 82 23
REMARK SMILES IDX 81 24 37 26 69 27 49 28 68 29 50 30 53 31 67 32 86 33 51 34
REMARK SMILES IDX 52 35 66 37 87 38 54 39 38 40 39 41 47 42 40 43 41 44 45 45
REMARK SMILES IDX 48 46 42 47 43 48 46 49 44 50 70 51 71 52 79 53 72 54 73 55
REMARK SMILES IDX 77 56 80 57 74 58 75 59 78 60 76 61 55 62 56 63 64 64 57 65
REMARK SMILES IDX 58 66 62 67 65 68 59 69 60 70 63 71 61 72 7 73 8 74 9 75
REMARK SMILES IDX 10 77 11 78 12 79 15 80 13 81 14 82 16 83 17 84 18 85 19 86
REMARK SMILES IDX 20 87 28 88 21 89 27 90 22 91 26 92 23 93 25 94 24 95
REMARK H PARENT 3 7 85 25 53 36 8 76
REMARK Flexibility Score: inf
ROOT
ATOM      1  C   UNL A   1      32.418  29.343  25.528  1.00  0.00     0.023 C 
ENDROOT
BRANCH   1   2
ATOM      2  C   UNL A   1      33.073  28.586  26.683  1.00  0.00     0.023 C 
BRANCH   2   3
ATOM      3  C   UNL A   1      34.542  28.920  26.925  1.00  0.00     0.116 C 
BRANCH   3   4
ATOM      4  N   UNL A   1      34.790  29.896  27.970  1.00  0.00    -0.352 N 
ATOM      5  O   UNL A   1      35.781  31.250  29.427  1.00  0.00    -0.269 OA
ATOM      6  C   UNL A   1      35.903  30.285  28.671  1.00  0.00     0.251 C 
ATOM      7  H   UNL A   1      33.980  30.389  28.233  1.00  0.00     0.163 HD
BRANCH   6   8
ATOM      8  C   UNL A   1      37.216  29.587  28.616  1.00  0.00     0.039 A 
ATOM      9  C   UNL A   1      38.145  29.741  27.589  1.00  0.00     0.014 A 
ATOM     10  C   UNL A   1      37.543  28.751  29.702  1.00  0.00     0.014 A 
ATOM     11  C   UNL A   1      39.339  29.028  27.605  1.00  0.00     0.010 A 
ATOM     12  C   UNL A   1      38.756  28.058  29.744  1.00  0.00     0.010 A 
ATOM     13  C   UNL A   1      39.657  28.201  28.689  1.00  0.00    -0.014 A 
BRANCH  13  14
ATOM     14  C   UNL A   1      41.049  27.696  28.738  1.00  0.00     0.031 A 
ATOM     15  C   UNL A   1      41.142  26.257  28.218  1.00  0.00     0.074 A 
ATOM     16  C   UNL A   1      41.984  28.480  29.350  1.00  0.00     0.049 A 
ATOM     17  N   UNL A   1      41.867  25.262  28.634  1.00  0.00    -0.248 NA
ATOM     18  C   UNL A   1      40.216  25.834  27.133  1.00  0.00     0.031 C 
ATOM     19  C   UNL A   1      41.766  29.887  29.731  1.00  0.00     0.029 A 
ATOM     20  N   UNL A   1      43.278  28.267  29.791  1.00  0.00    -0.354 N 
ATOM     21  C   UNL A   1      41.627  24.173  27.766  1.00  0.00     0.074 A 
ATOM     22  C   UNL A   1      40.515  24.548  26.947  1.00  0.00     0.031 C 
ATOM     23  C   UNL A   1      42.832  30.372  30.403  1.00  0.00     0.029 A 
ATOM     24  C   UNL A   1      43.843  29.339  30.534  1.00  0.00     0.049 A 
ATOM     25  H   UNL A   1      43.770  27.435  29.605  1.00  0.00     0.167 HD
ATOM     26  C   UNL A   1      42.452  23.087  27.687  1.00  0.00     0.037 A 
ATOM     27  C   UNL A   1      45.011  29.383  31.250  1.00  0.00     0.037 A 
ATOM     28  C   UNL A   1      43.493  23.191  28.650  1.00  0.00     0.049 A 
ATOM     29  C   UNL A   1      45.658  28.083  31.031  1.00  0.00     0.074 A 
ATOM     30  C   UNL A   1      43.541  23.029  30.009  1.00  0.00     0.029 A 
ATOM     31  N   UNL A   1      44.659  23.778  28.232  1.00  0.00    -0.354 N 
ATOM     32  N   UNL A   1      46.304  27.753  29.953  1.00  0.00    -0.248 NA
ATOM     33  C   UNL A   1      45.541  27.048  32.068  1.00  0.00     0.031 C 
ATOM     34  C   UNL A   1      44.582  23.887  30.424  1.00  0.00     0.029 A 
ATOM     35  C   UNL A   1      45.188  24.457  29.299  1.00  0.00     0.049 A 
ATOM     36  H   UNL A   1      45.047  23.721  27.329  1.00  0.00     0.167 HD
ATOM     37  C   UNL A   1      46.374  26.385  30.067  1.00  0.00     0.074 A 
ATOM     38  C   UNL A   1      46.217  26.074  31.468  1.00  0.00     0.031 C 
ATOM     39  C   UNL A   1      46.002  25.615  29.015  1.00  0.00     0.037 A 
BRANCH  26  40
ATOM     40  C   UNL A   1      42.599  22.001  26.646  1.00  0.00     0.064 A 
ATOM     41  C   UNL A   1      42.125  20.701  26.967  1.00  0.00     0.173 A 
ATOM     42  C   UNL A   1      43.467  22.082  25.551  1.00  0.00     0.173 A 
ATOM     43  F   UNL A   1      41.243  20.512  27.960  1.00  0.00    -0.203 F 
ATOM     44  C   UNL A   1      42.614  19.556  26.338  1.00  0.00     0.198 A 
ATOM     45  C   UNL A   1      43.911  20.933  24.886  1.00  0.00     0.198 A 
ATOM     46  F   UNL A   1      43.989  23.250  25.158  1.00  0.00    -0.203 F 
ATOM     47  F   UNL A   1      42.253  18.344  26.783  1.00  0.00    -0.200 F 
ATOM     48  C   UNL A   1      43.524  19.673  25.309  1.00  0.00     0.200 A 
ATOM     49  F   UNL A   1      44.784  21.051  23.875  1.00  0.00    -0.200 F 
ATOM     50  F   UNL A   1      44.053  18.577  24.748  1.00  0.00    -0.200 F 
ENDBRANCH  26  40
BRANCH  27  51
ATOM     51  C   UNL A   1      45.730  30.327  32.196  1.00  0.00     0.064 A 
ATOM     52  C   UNL A   1      46.784  31.185  31.861  1.00  0.00     0.173 A 
ATOM     53  C   UNL A   1      45.343  30.405  33.569  1.00  0.00     0.173 A 
ATOM     54  F   UNL A   1      47.356  31.140  30.654  1.00  0.00    -0.203 F 
ATOM     55  C   UNL A   1      47.322  32.109  32.780  1.00  0.00     0.198 A 
ATOM     56  C   UNL A   1      45.853  31.339  34.472  1.00  0.00     0.198 A 
ATOM     57  F   UNL A   1      44.448  29.565  34.104  1.00  0.00    -0.203 F 
ATOM     58  F   UNL A   1      48.323  32.916  32.400  1.00  0.00    -0.200 F 
ATOM     59  C   UNL A   1      46.836  32.207  34.072  1.00  0.00     0.200 A 
ATOM     60  F   UNL A   1      45.371  31.385  35.723  1.00  0.00    -0.200 F 
ATOM     61  F   UNL A   1      47.322  33.115  34.928  1.00  0.00    -0.200 F 
ENDBRANCH  27  51
BRANCH  39  62
ATOM     62  C   UNL A   1      46.094  26.342  27.688  1.00  0.00     0.064 A 
ATOM     63  C   UNL A   1      44.925  26.706  27.004  1.00  0.00     0.173 A 
ATOM     64  C   UNL A   1      47.303  26.544  27.000  1.00  0.00     0.173 A 
ATOM     65  F   UNL A   1      43.730  26.549  27.594  1.00  0.00    -0.203 F 
ATOM     66  C   UNL A   1      44.967  27.219  25.705  1.00  0.00     0.198 A 
ATOM     67  C   UNL A   1      47.350  27.066  25.707  1.00  0.00     0.198 A 
ATOM     68  F   UNL A   1      48.464  26.227  27.568  1.00  0.00    -0.203 F 
ATOM     69  F   UNL A   1      43.827  27.541  25.078  1.00  0.00    -0.200 F 
ATOM     70  C   UNL A   1      46.178  27.395  25.055  1.00  0.00     0.200 A 
ATOM     71  F   UNL A   1      48.533  27.245  25.099  1.00  0.00    -0.200 F 
ATOM     72  F   UNL A   1      46.217  27.892  23.811  1.00  0.00    -0.200 F 
ENDBRANCH  39  62
ENDBRANCH  13  14
ENDBRANCH   6   8
ENDBRANCH   3   4
ENDBRANCH   2   3
ENDBRANCH   1   2
BRANCH   1  73
ATOM     73  C   UNL A   1      32.877  28.960  24.122  1.00  0.00     0.116 C 
BRANCH  73  74
ATOM     74  N   UNL A   1      31.926  29.364  23.102  1.00  0.00    -0.351 N 
ATOM     75  C   UNL A   1      30.818  28.715  22.611  1.00  0.00     0.267 C 
ATOM     76  H   UNL A   1      32.103  30.244  22.696  1.00  0.00     0.163 HD
ATOM     77  O   UNL A   1      30.250  29.214  21.650  1.00  0.00    -0.268 OA
BRANCH  75  78
ATOM     78  C   UNL A   1      30.407  27.461  23.213  1.00  0.00     0.107 A 
ATOM     79  C   UNL A   1      29.508  27.248  24.247  1.00  0.00     0.033 A 
ATOM     80  N   UNL A   1      30.828  26.205  22.794  1.00  0.00    -0.334 N 
ATOM     81  C   UNL A   1      29.399  25.857  24.466  1.00  0.00     0.020 A 
ATOM     82  C   UNL A   1      30.213  25.236  23.547  1.00  0.00     0.087 A 
BRANCH  80  83
ATOM     83  C   UNL A   1      31.728  25.938  21.677  1.00  0.00     0.222 C 
BRANCH  83  84
ATOM     84  C   UNL A   1      33.196  25.665  21.980  1.00  0.00     0.242 C 
ATOM     85  O   UNL A   1      34.023  26.530  21.663  1.00  0.00    -0.273 OA
BRANCH  84  86
ATOM     86  N   UNL A   1      33.576  24.575  22.761  1.00  0.00    -0.336 N 
ATOM     87  C   UNL A   1      33.269  23.185  22.430  1.00  0.00     0.124 C 
ATOM     88  C   UNL A   1      34.445  24.846  23.913  1.00  0.00     0.155 C 
ATOM     89  C   UNL A   1      33.477  22.171  23.548  1.00  0.00     0.057 C 
ATOM     90  C   UNL A   1      35.252  23.676  24.416  1.00  0.00    -0.025 A 
ATOM     91  C   UNL A   1      34.793  22.365  24.230  1.00  0.00    -0.041 A 
ATOM     92  C   UNL A   1      36.421  23.884  25.159  1.00  0.00     0.006 A 
ATOM     93  C   UNL A   1      35.509  21.280  24.747  1.00  0.00     0.004 A 
ATOM     94  C   UNL A   1      37.135  22.802  25.675  1.00  0.00     0.000 A 
ATOM     95  C   UNL A   1      36.684  21.501  25.462  1.00  0.00     0.000 A 
ENDBRANCH  84  86
ENDBRANCH  83  84
ENDBRANCH  80  83
ENDBRANCH  75  78
ENDBRANCH  73  74
ENDBRANCH   1  73
TORSDOF 14
ENDMDL
MODEL 2
REMARK VINA RESULT:     -13.4      0.548      1.656
REMARK SMILES O=C(NCCCCNC(=O)c1cccn1CC(=O)N1CCc2ccccc2C1)c1ccc(-c2c3nc(c(-c4c(F)c(F)c(F)c(F)c4F)c4ccc([nH]4)c(-c4c(F)c(F)c(F)c(F)c4F)c4nc(c(-c5c(F)c(F)c(F)c(F)c5F)c5ccc2[nH]5)C=C4)C=C3)cc1
REMARK SMILES IDX 6 1 5 2 4 3 3 4 1 5 2 6 29 8 30 9 91 10 31 11 90 12 32 13
REMARK SMILES IDX 33 14 34 15 84 16 35 17 89 18 83 19 85 20 36 21 88 22 82 23
REMARK SMILES IDX 81 24 37 26 69 27 49 28 68 29 50 30 53 31 67 32 86 33 51 34
REMARK SMILES IDX 52 35 66 37 87 38 54 39 38 40 39 41 47 42 40 43 41 44 45 45
REMARK SMILES IDX 48 46 42 47 43 48 46 49 44 50 70 51 71 52 79 53 72 54 73 55
REMARK SMILES IDX 77 56 80 57 74 58 75 59 78 60 76 61 55 62 56 63 64 64 57 65
REMARK SMILES IDX 58 66 62 67 65 68 59 69 60 70 63 71 61 72 7 73 8 74 9 75
REMARK SMILES IDX 10 77 11 78 12 79 15 80 13 81 14 82 16 83 17 84 18 85 19 86
REMARK SMILES IDX 20 87 28 88 21 89 27 90 22 91 26 92 23 93 25 94 24 95
REMARK H PARENT 3 7 85 25 53 36 8 76
REMARK Flexibility Score: inf
ROOT
ATOM      1  C   UNL A   1      32.831  30.026  25.738  1.00  0.00     0.023 C 
ENDROOT
BRANCH   1   2
ATOM      2  C   UNL A   1      33.782  28.833  25.820  1.00  0.00     0.023 C 
BRANCH   2   3
ATOM      3  C   UNL A   1      34.385  28.579  27.199  1.00  0.00     0.116 C 
BRANCH   3   4
ATOM      4  N   UNL A   1      34.748  29.770  27.942  1.00  0.00    -0.352 N 
ATOM      5  O   UNL A   1      35.898  31.410  28.907  1.00  0.00    -0.269 OA
ATOM      6  C   UNL A   1      35.934  30.289  28.396  1.00  0.00     0.251 C 
ATOM      7  H   UNL A   1      33.972  30.331  28.171  1.00  0.00     0.163 HD
BRANCH   6   8
ATOM      8  C   UNL A   1      37.235  29.567  28.360  1.00  0.00     0.039 A 
ATOM      9  C   UNL A   1      38.159  29.665  27.322  1.00  0.00     0.014 A 
ATOM     10  C   UNL A   1      37.556  28.768  29.476  1.00  0.00     0.014 A 
ATOM     11  C   UNL A   1      39.342  28.933  27.358  1.00  0.00     0.010 A 
ATOM     12  C   UNL A   1      38.758  28.057  29.536  1.00  0.00     0.010 A 
ATOM     13  C   UNL A   1      39.653  28.144  28.470  1.00  0.00    -0.014 A 
BRANCH  13  14
ATOM     14  C   UNL A   1      41.037  27.617  28.531  1.00  0.00     0.031 A 
ATOM     15  C   UNL A   1      41.102  26.158  28.065  1.00  0.00     0.074 A 
ATOM     16  C   UNL A   1      41.989  28.408  29.105  1.00  0.00     0.049 A 
ATOM     17  N   UNL A   1      41.813  25.167  28.515  1.00  0.00    -0.248 NA
ATOM     18  C   UNL A   1      40.162  25.710  27.003  1.00  0.00     0.031 C 
ATOM     19  C   UNL A   1      41.798  29.833  29.434  1.00  0.00     0.029 A 
ATOM     20  N   UNL A   1      43.283  28.191  29.546  1.00  0.00    -0.354 N 
ATOM     21  C   UNL A   1      41.549  24.050  27.691  1.00  0.00     0.074 A 
ATOM     22  C   UNL A   1      40.437  24.413  26.865  1.00  0.00     0.031 C 
ATOM     23  C   UNL A   1      42.876  30.325  30.079  1.00  0.00     0.029 A 
ATOM     24  C   UNL A   1      43.870  29.281  30.243  1.00  0.00     0.049 A 
ATOM     25  H   UNL A   1      43.759  27.344  29.389  1.00  0.00     0.167 HD
ATOM     26  C   UNL A   1      42.355  22.948  27.649  1.00  0.00     0.037 A 
ATOM     27  C   UNL A   1      45.044  29.332  30.949  1.00  0.00     0.037 A 
ATOM     28  C   UNL A   1      43.404  23.072  28.600  1.00  0.00     0.049 A 
ATOM     29  C   UNL A   1      45.668  28.014  30.777  1.00  0.00     0.074 A 
ATOM     30  C   UNL A   1      43.459  22.961  29.964  1.00  0.00     0.029 A 
ATOM     31  N   UNL A   1      44.577  23.622  28.152  1.00  0.00    -0.354 N 
ATOM     32  N   UNL A   1      46.300  27.632  29.708  1.00  0.00    -0.248 NA
ATOM     33  C   UNL A   1      45.541  27.022  31.853  1.00  0.00     0.031 C 
ATOM     34  C   UNL A   1      44.518  23.817  30.339  1.00  0.00     0.029 A 
ATOM     35  C   UNL A   1      45.125  24.332  29.189  1.00  0.00     0.049 A 
ATOM     36  H   UNL A   1      44.958  23.524  27.250  1.00  0.00     0.167 HD
ATOM     37  C   UNL A   1      46.349  26.268  29.874  1.00  0.00     0.074 A 
ATOM     38  C   UNL A   1      46.196  26.014  31.287  1.00  0.00     0.031 C 
ATOM     39  C   UNL A   1      45.956  25.465  28.855  1.00  0.00     0.037 A 
BRANCH  26  40
ATOM     40  C   UNL A   1      42.476  21.821  26.650  1.00  0.00     0.064 A 
ATOM     41  C   UNL A   1      41.907  20.564  26.989  1.00  0.00     0.173 A 
ATOM     42  C   UNL A   1      43.394  21.810  25.592  1.00  0.00     0.173 A 
ATOM     43  F   UNL A   1      40.973  20.465  27.947  1.00  0.00    -0.203 F 
ATOM     44  C   UNL A   1      42.348  19.371  26.418  1.00  0.00     0.198 A 
ATOM     45  C   UNL A   1      43.792  20.614  24.983  1.00  0.00     0.198 A 
ATOM     46  F   UNL A   1      44.005  22.929  25.187  1.00  0.00    -0.203 F 
ATOM     47  F   UNL A   1      41.891  18.199  26.884  1.00  0.00    -0.200 F 
ATOM     48  C   UNL A   1      43.306  19.395  25.427  1.00  0.00     0.200 A 
ATOM     49  F   UNL A   1      44.712  20.643  24.010  1.00  0.00    -0.200 F 
ATOM     50  F   UNL A   1      43.787  18.250  24.925  1.00  0.00    -0.200 F 
ENDBRANCH  26  40
BRANCH  27  51
ATOM     51  C   UNL A   1      45.786  30.299  31.854  1.00  0.00     0.064 A 
ATOM     52  C   UNL A   1      45.394  30.690  33.140  1.00  0.00     0.173 A 
ATOM     53  C   UNL A   1      47.008  30.900  31.422  1.00  0.00     0.173 A 
ATOM     54  F   UNL A   1      44.209  30.327  33.642  1.00  0.00    -0.203 F 
ATOM     55  C   UNL A   1      46.200  31.510  33.956  1.00  0.00     0.198 A 
ATOM     56  C   UNL A   1      47.821  31.687  32.237  1.00  0.00     0.198 A 
ATOM     57  F   UNL A   1      47.468  30.753  30.173  1.00  0.00    -0.203 F 
ATOM     58  F   UNL A   1      45.780  31.841  35.184  1.00  0.00    -0.200 F 
ATOM     59  C   UNL A   1      47.425  31.980  33.516  1.00  0.00     0.200 A 
ATOM     60  F   UNL A   1      48.991  32.144  31.765  1.00  0.00    -0.200 F 
ATOM     61  F   UNL A   1      48.206  32.725  34.310  1.00  0.00    -0.200 F 
ENDBRANCH  27  51
BRANCH  39  62
ATOM     62  C   UNL A   1      46.051  26.139  27.501  1.00  0.00     0.064 A 
ATOM     63  C   UNL A   1      47.306  26.454  26.959  1.00  0.00     0.173 A 
ATOM     64  C   UNL A   1      44.934  26.628  26.801  1.00  0.00     0.173 A 
ATOM     65  F   UNL A   1      48.422  26.020  27.565  1.00  0.00    -0.203 F 
ATOM     66  C   UNL A   1      47.431  27.227  25.802  1.00  0.00     0.198 A 
ATOM     67  C   UNL A   1      45.055  27.391  25.639  1.00  0.00     0.198 A 
ATOM     68  F   UNL A   1      43.703  26.381  27.239  1.00  0.00    -0.203 F 
ATOM     69  F   UNL A   1      48.648  27.520  25.324  1.00  0.00    -0.200 F 
ATOM     70  C   UNL A   1      46.306  27.699  25.145  1.00  0.00     0.200 A 
ATOM     71  F   UNL A   1      43.953  27.826  25.007  1.00  0.00    -0.200 F 
ATOM     72  F   UNL A   1      46.426  28.437  24.032  1.00  0.00    -0.200 F 
ENDBRANCH  39  62
ENDBRANCH  13  14
ENDBRANCH   6   8
ENDBRANCH   3   4
ENDBRANCH   2   3
ENDBRANCH   1   2
BRANCH   1  73
ATOM     73  C   UNL A   1      31.380  29.712  25.376  1.00  0.00     0.116 C 
BRANCH  73  74
ATOM     74  N   UNL A   1      31.080  30.012  23.988  1.00  0.00    -0.351 N 
ATOM     75  C   UNL A   1      30.580  29.209  22.991  1.00  0.00     0.267 C 
ATOM     76  H   UNL A   1      31.267  30.940  23.716  1.00  0.00     0.163 HD
ATOM     77  O   UNL A   1      30.540  29.669  21.859  1.00  0.00    -0.268 OA
BRANCH  75  78
ATOM     78  C   UNL A   1      30.173  27.854  23.311  1.00  0.00     0.107 A 
ATOM     79  C   UNL A   1      28.903  27.371  23.592  1.00  0.00     0.033 A 
ATOM     80  N   UNL A   1      31.024  26.756  23.338  1.00  0.00    -0.334 N 
ATOM     81  C   UNL A   1      28.990  25.978  23.806  1.00  0.00     0.020 A 
ATOM     82  C   UNL A   1      30.308  25.621  23.631  1.00  0.00     0.087 A 
BRANCH  80  83
ATOM     83  C   UNL A   1      32.450  26.777  23.032  1.00  0.00     0.222 C 
BRANCH  83  84
ATOM     84  C   UNL A   1      33.054  25.578  22.313  1.00  0.00     0.242 C 
ATOM     85  O   UNL A   1      33.282  25.684  21.101  1.00  0.00    -0.273 OA
BRANCH  84  86
ATOM     86  N   UNL A   1      33.517  24.473  23.026  1.00  0.00    -0.336 N 
ATOM     87  C   UNL A   1      33.156  23.091  22.718  1.00  0.00     0.124 C 
ATOM     88  C   UNL A   1      34.525  24.720  24.065  1.00  0.00     0.155 C 
ATOM     89  C   UNL A   1      33.491  22.059  23.787  1.00  0.00     0.057 C 
ATOM     90  C   UNL A   1      35.376  23.535  24.448  1.00  0.00    -0.025 A 
ATOM     91  C   UNL A   1      34.883  22.232  24.303  1.00  0.00    -0.041 A 
ATOM     92  C   UNL A   1      36.630  23.722  25.042  1.00  0.00     0.006 A 
ATOM     93  C   UNL A   1      35.646  21.133  24.713  1.00  0.00     0.004 A 
ATOM     94  C   UNL A   1      37.391  22.626  25.451  1.00  0.00     0.000 A 
ATOM     95  C   UNL A   1      36.903  21.333  25.278  1.00  0.00     0.000 A 
ENDBRANCH  84  86
ENDBRANCH  83  84
ENDBRANCH  80  83
ENDBRANCH  75  78
ENDBRANCH  73  74
ENDBRANCH   1  73
TORSDOF 14
ENDMDL
MODEL 3
REMARK VINA RESULT:     -13.4      4.812      9.612
REMARK SMILES O=C(NCCCCNC(=O)c1cccn1CC(=O)N1CCc2ccccc2C1)c1ccc(-c2c3nc(c(-c4c(F)c(F)c(F)c(F)c4F)c4ccc([nH]4)c(-c4c(F)c(F)c(F)c(F)c4F)c4nc(c(-c5c(F)c(F)c(F)c(F)c5F)c5ccc2[nH]5)C=C4)C=C3)cc1
REMARK SMILES IDX 6 1 5 2 4 3 3 4 1 5 2 6 29 8 30 9 91 10 31 11 90 12 32 13
REMARK SMILES IDX 33 14 34 15 84 16 35 17 89 18 83 19 85 20 36 21 88 22 82 23
REMARK SMILES IDX 81 24 37 26 69 27 49 28 68 29 50 30 53 31 67 32 86 33 51 34
REMARK SMILES IDX 52 35 66 37 87 38 54 39 38 40 39 41 47 42 40 43 41 44 45 45
REMARK SMILES IDX 48 46 42 47 43 48 46 49 44 50 70 51 71 52 79 53 72 54 73 55
REMARK SMILES IDX 77 56 80 57 74 58 75 59 78 60 76 61 55 62 56 63 64 64 57 65
REMARK SMILES IDX 58 66 62 67 65 68 59 69 60 70 63 71 61 72 7 73 8 74 9 75
REMARK SMILES IDX 10 77 11 78 12 79 15 80 13 81 14 82 16 83 17 84 18 85 19 86
REMARK SMILES IDX 20 87 28 88 21 89 27 90 22 91 26 92 23 93 25 94 24 95
REMARK H PARENT 3 7 85 25 53 36 8 76
REMARK Flexibility Score: inf
ROOT
ATOM      1  C   UNL A   1      37.039  22.176  24.326  1.00  0.00     0.023 C 
ENDROOT
BRANCH   1   2
ATOM      2  C   UNL A   1      36.551  23.501  24.910  1.00  0.00     0.023 C 
BRANCH   2   3
ATOM      3  C   UNL A   1      37.312  23.984  26.143  1.00  0.00     0.116 C 
BRANCH   3   4
ATOM      4  N   UNL A   1      38.751  23.808  26.088  1.00  0.00    -0.352 N 
ATOM      5  O   UNL A   1      40.929  23.943  26.506  1.00  0.00    -0.269 OA
ATOM      6  C   UNL A   1      39.814  24.433  26.689  1.00  0.00     0.251 C 
ATOM      7  H   UNL A   1      39.025  23.078  25.487  1.00  0.00     0.163 HD
BRANCH   6   8
ATOM      8  C   UNL A   1      39.709  25.680  27.494  1.00  0.00     0.039 A 
ATOM      9  C   UNL A   1      39.284  25.726  28.820  1.00  0.00     0.014 A 
ATOM     10  C   UNL A   1      40.109  26.879  26.872  1.00  0.00     0.014 A 
ATOM     11  C   UNL A   1      39.191  26.942  29.490  1.00  0.00     0.010 A 
ATOM     12  C   UNL A   1      40.052  28.101  27.548  1.00  0.00     0.010 A 
ATOM     13  C   UNL A   1      39.592  28.128  28.865  1.00  0.00    -0.014 A 
BRANCH  13  14
ATOM     14  C   UNL A   1      39.704  29.321  29.737  1.00  0.00     0.031 A 
ATOM     15  C   UNL A   1      38.516  30.271  29.542  1.00  0.00     0.074 A 
ATOM     16  C   UNL A   1      40.860  29.479  30.444  1.00  0.00     0.049 A 
ATOM     17  N   UNL A   1      38.477  31.570  29.528  1.00  0.00    -0.248 NA
ATOM     18  C   UNL A   1      37.188  29.687  29.216  1.00  0.00     0.031 C 
ATOM     19  C   UNL A   1      41.888  28.435  30.601  1.00  0.00     0.029 A 
ATOM     20  N   UNL A   1      41.419  30.530  31.150  1.00  0.00    -0.354 N 
ATOM     21  C   UNL A   1      37.125  31.950  29.380  1.00  0.00     0.074 A 
ATOM     22  C   UNL A   1      36.403  30.754  29.067  1.00  0.00     0.031 C 
ATOM     23  C   UNL A   1      42.959  28.912  31.269  1.00  0.00     0.029 A 
ATOM     24  C   UNL A   1      42.746  30.307  31.609  1.00  0.00     0.049 A 
ATOM     25  H   UNL A   1      40.935  31.370  31.320  1.00  0.00     0.167 HD
ATOM     26  C   UNL A   1      36.669  33.206  29.661  1.00  0.00     0.037 A 
ATOM     27  C   UNL A   1      43.633  31.187  32.172  1.00  0.00     0.037 A 
ATOM     28  C   UNL A   1      37.753  34.052  30.022  1.00  0.00     0.049 A 
ATOM     29  C   UNL A   1      42.902  32.454  32.307  1.00  0.00     0.074 A 
ATOM     30  C   UNL A   1      38.752  34.660  29.310  1.00  0.00     0.029 A 
ATOM     31  N   UNL A   1      38.043  34.142  31.359  1.00  0.00    -0.354 N 
ATOM     32  N   UNL A   1      42.029  32.705  33.234  1.00  0.00    -0.248 NA
ATOM     33  C   UNL A   1      43.120  33.509  31.307  1.00  0.00     0.031 C 
ATOM     34  C   UNL A   1      39.821  34.759  30.227  1.00  0.00     0.029 A 
ATOM     35  C   UNL A   1      39.399  34.301  31.480  1.00  0.00     0.049 A 
ATOM     36  H   UNL A   1      37.394  34.102  32.098  1.00  0.00     0.167 HD
ATOM     37  C   UNL A   1      41.377  33.804  32.726  1.00  0.00     0.074 A 
ATOM     38  C   UNL A   1      42.275  34.420  31.778  1.00  0.00     0.031 C 
ATOM     39  C   UNL A   1      40.022  33.809  32.686  1.00  0.00     0.037 A 
BRANCH  26  40
ATOM     40  C   UNL A   1      35.279  33.747  29.902  1.00  0.00     0.064 A 
ATOM     41  C   UNL A   1      34.705  34.582  28.907  1.00  0.00     0.173 A 
ATOM     42  C   UNL A   1      34.663  33.785  31.160  1.00  0.00     0.173 A 
ATOM     43  F   UNL A   1      35.177  34.583  27.651  1.00  0.00    -0.203 F 
ATOM     44  C   UNL A   1      33.697  35.501  29.197  1.00  0.00     0.198 A 
ATOM     45  C   UNL A   1      33.612  34.670  31.431  1.00  0.00     0.198 A 
ATOM     46  F   UNL A   1      35.118  33.053  32.182  1.00  0.00    -0.203 F 
ATOM     47  F   UNL A   1      33.299  36.374  28.260  1.00  0.00    -0.200 F 
ATOM     48  C   UNL A   1      33.163  35.557  30.467  1.00  0.00     0.200 A 
ATOM     49  F   UNL A   1      33.086  34.711  32.663  1.00  0.00    -0.200 F 
ATOM     50  F   UNL A   1      32.246  36.484  30.774  1.00  0.00    -0.200 F 
ENDBRANCH  26  40
BRANCH  27  51
ATOM     51  C   UNL A   1      45.089  31.217  32.600  1.00  0.00     0.064 A 
ATOM     52  C   UNL A   1      46.171  31.627  31.812  1.00  0.00     0.173 A 
ATOM     53  C   UNL A   1      45.462  30.809  33.917  1.00  0.00     0.173 A 
ATOM     54  F   UNL A   1      46.015  31.911  30.515  1.00  0.00    -0.203 F 
ATOM     55  C   UNL A   1      47.480  31.727  32.326  1.00  0.00     0.198 A 
ATOM     56  C   UNL A   1      46.751  30.935  34.437  1.00  0.00     0.198 A 
ATOM     57  F   UNL A   1      44.585  30.258  34.765  1.00  0.00    -0.203 F 
ATOM     58  F   UNL A   1      48.476  32.137  31.529  1.00  0.00    -0.200 F 
ATOM     59  C   UNL A   1      47.762  31.411  33.644  1.00  0.00     0.200 A 
ATOM     60  F   UNL A   1      46.988  30.596  35.713  1.00  0.00    -0.200 F 
ATOM     61  F   UNL A   1      49.000  31.547  34.139  1.00  0.00    -0.200 F 
ENDBRANCH  27  51
BRANCH  39  62
ATOM     62  C   UNL A   1      39.398  32.870  33.699  1.00  0.00     0.064 A 
ATOM     63  C   UNL A   1      39.476  33.162  35.068  1.00  0.00     0.173 A 
ATOM     64  C   UNL A   1      38.870  31.612  33.363  1.00  0.00     0.173 A 
ATOM     65  F   UNL A   1      39.964  34.346  35.472  1.00  0.00    -0.203 F 
ATOM     66  C   UNL A   1      39.069  32.242  36.038  1.00  0.00     0.198 A 
ATOM     67  C   UNL A   1      38.452  30.694  34.328  1.00  0.00     0.198 A 
ATOM     68  F   UNL A   1      38.758  31.245  32.089  1.00  0.00    -0.203 F 
ATOM     69  F   UNL A   1      39.172  32.552  37.337  1.00  0.00    -0.200 F 
ATOM     70  C   UNL A   1      38.561  31.007  35.667  1.00  0.00     0.200 A 
ATOM     71  F   UNL A   1      37.948  29.508  33.951  1.00  0.00    -0.200 F 
ATOM     72  F   UNL A   1      38.166  30.126  36.598  1.00  0.00    -0.200 F 
ENDBRANCH  39  62
ENDBRANCH  13  14
ENDBRANCH   6   8
ENDBRANCH   3   4
ENDBRANCH   2   3
ENDBRANCH   1   2
BRANCH   1  73
ATOM     73  C   UNL A   1      36.578  20.909  25.044  1.00  0.00     0.116 C 
BRANCH  73  74
ATOM     74  N   UNL A   1      35.694  21.198  26.159  1.00  0.00    -0.351 N 
ATOM     75  C   UNL A   1      34.330  21.067  26.271  1.00  0.00     0.267 C 
ATOM     76  H   UNL A   1      36.143  21.543  26.964  1.00  0.00     0.163 HD
ATOM     77  O   UNL A   1      33.801  21.506  27.282  1.00  0.00    -0.268 OA
BRANCH  75  78
ATOM     78  C   UNL A   1      33.584  20.467  25.181  1.00  0.00     0.107 A 
ATOM     79  C   UNL A   1      33.372  19.124  24.908  1.00  0.00     0.033 A 
ATOM     80  N   UNL A   1      32.882  21.179  24.216  1.00  0.00    -0.334 N 
ATOM     81  C   UNL A   1      32.553  19.023  23.763  1.00  0.00     0.020 A 
ATOM     82  C   UNL A   1      32.253  20.306  23.363  1.00  0.00     0.087 A 
BRANCH  80  83
ATOM     83  C   UNL A   1      32.761  22.631  24.149  1.00  0.00     0.222 C 
BRANCH  83  84
ATOM     84  C   UNL A   1      31.634  23.300  24.926  1.00  0.00     0.242 C 
ATOM     85  O   UNL A   1      30.852  22.574  25.553  1.00  0.00    -0.273 OA
BRANCH  84  86
ATOM     86  N   UNL A   1      31.599  24.684  25.089  1.00  0.00    -0.336 N 
ATOM     87  C   UNL A   1      30.384  25.443  25.375  1.00  0.00     0.124 C 
ATOM     88  C   UNL A   1      32.886  25.392  25.097  1.00  0.00     0.155 C 
ATOM     89  C   UNL A   1      30.483  26.954  25.199  1.00  0.00     0.057 C 
ATOM     90  C   UNL A   1      32.890  26.740  25.772  1.00  0.00    -0.025 A 
ATOM     91  C   UNL A   1      31.717  27.503  25.838  1.00  0.00    -0.041 A 
ATOM     92  C   UNL A   1      34.083  27.289  26.257  1.00  0.00     0.006 A 
ATOM     93  C   UNL A   1      31.731  28.779  26.412  1.00  0.00     0.004 A 
ATOM     94  C   UNL A   1      34.097  28.562  26.829  1.00  0.00     0.000 A 
ATOM     95  C   UNL A   1      32.920  29.302  26.914  1.00  0.00     0.000 A 
ENDBRANCH  84  86
ENDBRANCH  83  84
ENDBRANCH  80  83
ENDBRANCH  75  78
ENDBRANCH  73  74
ENDBRANCH   1  73
TORSDOF 14
ENDMDL
