MODEL 1
REMARK VINA RESULT:     -12.6      0.000      0.000
REMARK SMILES CCN(Cc1ccccn1)c1nc(C)cc(C)c1C(=O)NCCCCNC(=O)c1ccc(-c2c3nc(c(-c4c(F)c(F)c(F)c(F)c4F)c4ccc([nH]4)c(-c4c(F)c(F)c(F)c(F)c4F)c4nc(c(-c5c(F)c(F)c(F)c(F)c5F)c5ccc2[nH]5)C=C4)C=C3)cc1
REMARK SMILES IDX 23 1 22 2 21 3 19 4 20 5 18 7 11 8 12 9 13 10 16 11 14 12
REMARK SMILES IDX 15 13 17 14 3 15 2 16 1 17 4 18 5 19 6 20 10 21 7 22 9 23
REMARK SMILES IDX 8 24 24 25 25 26 26 27 27 28 28 30 29 31 30 32 91 33 31 34
REMARK SMILES IDX 90 35 32 36 33 37 34 38 84 39 35 40 89 41 83 42 85 43 36 44
REMARK SMILES IDX 88 45 82 46 81 47 37 49 69 50 49 51 68 52 50 53 53 54 67 55
REMARK SMILES IDX 86 56 51 57 52 58 66 60 87 61 54 62 38 63 39 64 47 65 40 66
REMARK SMILES IDX 41 67 45 68 48 69 42 70 43 71 46 72 44 73 70 74 71 75 79 76
REMARK SMILES IDX 72 77 73 78 77 79 80 80 74 81 75 82 78 83 76 84 55 85 56 86
REMARK SMILES IDX 64 87 57 88 58 89 62 90 65 91 59 92 60 93 63 94 61 95
REMARK H PARENT 21 6 26 29 85 48 53 59
REMARK Flexibility Score: inf
ROOT
ATOM      1  C   UNL A   1      31.745  30.516  26.633  1.00  0.00     0.023 C 
ENDROOT
BRANCH   1   2
ATOM      2  C   UNL A   1      31.406  29.961  25.255  1.00  0.00     0.116 C 
BRANCH   2   3
ATOM      3  N   UNL A   1      32.487  29.887  24.296  1.00  0.00    -0.352 N 
ATOM      4  C   UNL A   1      33.129  28.768  23.787  1.00  0.00     0.255 C 
ATOM      5  O   UNL A   1      33.798  28.908  22.765  1.00  0.00    -0.269 OA
ATOM      6  H   UNL A   1      32.813  30.752  23.957  1.00  0.00     0.163 HD
BRANCH   4   7
ATOM      7  C   UNL A   1      33.025  27.432  24.439  1.00  0.00     0.085 A 
ATOM      8  C   UNL A   1      32.121  26.481  23.921  1.00  0.00     0.142 A 
ATOM      9  N   UNL A   1      31.981  25.269  24.511  1.00  0.00    -0.235 NA
ATOM     10  C   UNL A   1      32.665  24.957  25.624  1.00  0.00     0.040 A 
ATOM     11  C   UNL A   1      33.697  27.126  25.648  1.00  0.00    -0.033 A 
ATOM     12  C   UNL A   1      32.342  23.638  26.254  1.00  0.00     0.067 C 
ATOM     13  C   UNL A   1      33.531  25.853  26.215  1.00  0.00     0.028 A 
ATOM     14  C   UNL A   1      34.566  28.080  26.415  1.00  0.00     0.045 C 
BRANCH   8  15
ATOM     15  N   UNL A   1      31.284  26.708  22.832  1.00  0.00    -0.350 N 
BRANCH  15  16
ATOM     16  C   UNL A   1      31.567  25.969  21.606  1.00  0.00     0.115 C 
ATOM     17  C   UNL A   1      33.066  25.770  21.436  1.00  0.00     0.027 C 
ENDBRANCH  15  16
BRANCH  15  18
ATOM     18  C   UNL A   1      29.861  26.950  23.145  1.00  0.00     0.174 C 
BRANCH  18  19
ATOM     19  C   UNL A   1      29.305  28.325  22.767  1.00  0.00     0.060 A 
ATOM     20  C   UNL A   1      28.016  28.678  23.181  1.00  0.00     0.026 A 
ATOM     21  N   UNL A   1      30.076  29.166  22.021  1.00  0.00    -0.259 NA
ATOM     22  C   UNL A   1      27.476  29.895  22.772  1.00  0.00     0.004 A 
ATOM     23  C   UNL A   1      29.510  30.326  21.616  1.00  0.00     0.111 A 
ATOM     24  C   UNL A   1      28.229  30.729  21.959  1.00  0.00     0.020 A 
ENDBRANCH  18  19
ENDBRANCH  15  18
ENDBRANCH   8  15
ENDBRANCH   4   7
ENDBRANCH   2   3
ENDBRANCH   1   2
BRANCH   1  25
ATOM     25  C   UNL A   1      31.497  32.001  26.891  1.00  0.00     0.023 C 
BRANCH  25  26
ATOM     26  C   UNL A   1      32.688  32.874  27.273  1.00  0.00     0.116 C 
BRANCH  26  27
ATOM     27  N   UNL A   1      32.352  34.226  27.697  1.00  0.00    -0.352 N 
ATOM     28  C   UNL A   1      32.978  35.059  28.601  1.00  0.00     0.251 C 
ATOM     29  H   UNL A   1      31.551  34.606  27.269  1.00  0.00     0.163 HD
ATOM     30  O   UNL A   1      32.527  36.175  28.818  1.00  0.00    -0.269 OA
BRANCH  28  31
ATOM     31  C   UNL A   1      34.158  34.583  29.361  1.00  0.00     0.039 A 
ATOM     32  C   UNL A   1      33.958  34.043  30.635  1.00  0.00     0.014 A 
ATOM     33  C   UNL A   1      35.441  34.620  28.814  1.00  0.00     0.014 A 
ATOM     34  C   UNL A   1      35.022  33.430  31.304  1.00  0.00     0.010 A 
ATOM     35  C   UNL A   1      36.477  33.931  29.439  1.00  0.00     0.010 A 
ATOM     36  C   UNL A   1      36.275  33.312  30.683  1.00  0.00    -0.014 A 
BRANCH  36  37
ATOM     37  C   UNL A   1      37.377  32.526  31.298  1.00  0.00     0.031 A 
ATOM     38  C   UNL A   1      37.881  32.873  32.671  1.00  0.00     0.074 A 
ATOM     39  C   UNL A   1      37.985  31.555  30.587  1.00  0.00     0.049 A 
ATOM     40  N   UNL A   1      38.894  32.374  33.334  1.00  0.00    -0.248 NA
ATOM     41  C   UNL A   1      37.170  33.948  33.380  1.00  0.00     0.031 C 
ATOM     42  C   UNL A   1      37.634  31.158  29.222  1.00  0.00     0.029 A 
ATOM     43  N   UNL A   1      39.037  30.732  30.908  1.00  0.00    -0.354 N 
ATOM     44  C   UNL A   1      38.952  33.086  34.524  1.00  0.00     0.074 A 
ATOM     45  C   UNL A   1      37.912  34.090  34.469  1.00  0.00     0.031 C 
ATOM     46  C   UNL A   1      38.437  30.154  28.833  1.00  0.00     0.029 A 
ATOM     47  C   UNL A   1      39.385  29.862  29.904  1.00  0.00     0.049 A 
ATOM     48  H   UNL A   1      39.499  30.764  31.777  1.00  0.00     0.167 HD
ATOM     49  C   UNL A   1      39.781  32.904  35.581  1.00  0.00     0.037 A 
ATOM     50  C   UNL A   1      40.360  28.935  29.850  1.00  0.00     0.037 A 
ATOM     51  C   UNL A   1      40.796  31.886  35.648  1.00  0.00     0.049 A 
ATOM     52  C   UNL A   1      41.262  28.744  31.039  1.00  0.00     0.074 A 
ATOM     53  C   UNL A   1      41.648  31.584  36.697  1.00  0.00     0.029 A 
ATOM     54  N   UNL A   1      41.096  31.001  34.623  1.00  0.00    -0.354 N 
ATOM     55  N   UNL A   1      41.267  29.382  32.184  1.00  0.00    -0.248 NA
ATOM     56  C   UNL A   1      42.291  27.700  30.931  1.00  0.00     0.031 C 
ATOM     57  C   UNL A   1      42.488  30.542  36.291  1.00  0.00     0.029 A 
ATOM     58  C   UNL A   1      42.129  30.162  35.009  1.00  0.00     0.049 A 
ATOM     59  H   UNL A   1      40.642  30.974  33.750  1.00  0.00     0.167 HD
ATOM     60  C   UNL A   1      42.275  28.801  32.940  1.00  0.00     0.074 A 
ATOM     61  C   UNL A   1      42.853  27.749  32.130  1.00  0.00     0.031 C 
ATOM     62  C   UNL A   1      42.686  29.113  34.194  1.00  0.00     0.037 A 
BRANCH  49  63
ATOM     63  C   UNL A   1      39.611  33.819  36.758  1.00  0.00     0.064 A 
ATOM     64  C   UNL A   1      38.831  33.453  37.866  1.00  0.00     0.173 A 
ATOM     65  C   UNL A   1      40.253  35.066  36.792  1.00  0.00     0.173 A 
ATOM     66  F   UNL A   1      38.185  32.276  37.877  1.00  0.00    -0.203 F 
ATOM     67  C   UNL A   1      38.673  34.312  38.948  1.00  0.00     0.198 A 
ATOM     68  C   UNL A   1      40.118  35.911  37.892  1.00  0.00     0.198 A 
ATOM     69  F   UNL A   1      41.016  35.464  35.763  1.00  0.00    -0.203 F 
ATOM     70  F   UNL A   1      37.879  33.963  39.969  1.00  0.00    -0.200 F 
ATOM     71  C   UNL A   1      39.322  35.538  38.964  1.00  0.00     0.200 A 
ATOM     72  F   UNL A   1      40.757  37.089  37.911  1.00  0.00    -0.200 F 
ATOM     73  F   UNL A   1      39.173  36.363  40.009  1.00  0.00    -0.200 F 
ENDBRANCH  49  63
BRANCH  50  74
ATOM     74  C   UNL A   1      40.516  28.090  28.636  1.00  0.00     0.064 A 
ATOM     75  C   UNL A   1      41.307  28.519  27.560  1.00  0.00     0.173 A 
ATOM     76  C   UNL A   1      39.881  26.845  28.522  1.00  0.00     0.173 A 
ATOM     77  F   UNL A   1      41.916  29.713  27.613  1.00  0.00    -0.203 F 
ATOM     78  C   UNL A   1      41.444  27.743  26.411  1.00  0.00     0.198 A 
ATOM     79  C   UNL A   1      40.040  26.057  27.383  1.00  0.00     0.198 A 
ATOM     80  F   UNL A   1      39.116  26.387  29.524  1.00  0.00    -0.203 F 
ATOM     81  F   UNL A   1      42.171  28.197  25.382  1.00  0.00    -0.200 F 
ATOM     82  C   UNL A   1      40.814  26.510  26.326  1.00  0.00     0.200 A 
ATOM     83  F   UNL A   1      39.442  24.860  27.310  1.00  0.00    -0.200 F 
ATOM     84  F   UNL A   1      40.950  25.763  25.223  1.00  0.00    -0.200 F 
ENDBRANCH  50  74
BRANCH  62  85
ATOM     85  C   UNL A   1      43.788  28.284  34.783  1.00  0.00     0.064 A 
ATOM     86  C   UNL A   1      43.526  27.092  35.476  1.00  0.00     0.173 A 
ATOM     87  C   UNL A   1      45.129  28.663  34.614  1.00  0.00     0.173 A 
ATOM     88  F   UNL A   1      42.261  26.695  35.678  1.00  0.00    -0.203 F 
ATOM     89  C   UNL A   1      44.563  26.323  35.996  1.00  0.00     0.198 A 
ATOM     90  C   UNL A   1      46.165  27.877  35.108  1.00  0.00     0.198 A 
ATOM     91  F   UNL A   1      45.434  29.791  33.953  1.00  0.00    -0.203 F 
ATOM     92  F   UNL A   1      44.288  25.212  36.691  1.00  0.00    -0.200 F 
ATOM     93  C   UNL A   1      45.881  26.712  35.805  1.00  0.00     0.200 A 
ATOM     94  F   UNL A   1      47.438  28.247  34.913  1.00  0.00    -0.200 F 
ATOM     95  F   UNL A   1      46.879  25.965  36.298  1.00  0.00    -0.200 F 
ENDBRANCH  62  85
ENDBRANCH  36  37
ENDBRANCH  28  31
ENDBRANCH  26  27
ENDBRANCH  25  26
ENDBRANCH   1  25
TORSDOF 15
ENDMDL
MODEL 2
REMARK VINA RESULT:     -12.3      5.972     10.433
REMARK SMILES CCN(Cc1ccccn1)c1nc(C)cc(C)c1C(=O)NCCCCNC(=O)c1ccc(-c2c3nc(c(-c4c(F)c(F)c(F)c(F)c4F)c4ccc([nH]4)c(-c4c(F)c(F)c(F)c(F)c4F)c4nc(c(-c5c(F)c(F)c(F)c(F)c5F)c5ccc2[nH]5)C=C4)C=C3)cc1
REMARK SMILES IDX 23 1 22 2 21 3 19 4 20 5 18 7 11 8 12 9 13 10 16 11 14 12
REMARK SMILES IDX 15 13 17 14 3 15 2 16 1 17 4 18 5 19 6 20 10 21 7 22 9 23
REMARK SMILES IDX 8 24 24 25 25 26 26 27 27 28 28 30 29 31 30 32 91 33 31 34
REMARK SMILES IDX 90 35 32 36 33 37 34 38 84 39 35 40 89 41 83 42 85 43 36 44
REMARK SMILES IDX 88 45 82 46 81 47 37 49 69 50 49 51 68 52 50 53 53 54 67 55
REMARK SMILES IDX 86 56 51 57 52 58 66 60 87 61 54 62 38 63 39 64 47 65 40 66
REMARK SMILES IDX 41 67 45 68 48 69 42 70 43 71 46 72 44 73 70 74 71 75 79 76
REMARK SMILES IDX 72 77 73 78 77 79 80 80 74 81 75 82 78 83 76 84 55 85 56 86
REMARK SMILES IDX 64 87 57 88 58 89 62 90 65 91 59 92 60 93 63 94 61 95
REMARK H PARENT 21 6 26 29 85 48 53 59
REMARK Flexibility Score: inf
ROOT
ATOM      1  C   UNL A   1      37.114  19.796  24.845  1.00  0.00     0.023 C 
ENDROOT
BRANCH   1   2
ATOM      2  C   UNL A   1      35.709  20.381  24.914  1.00  0.00     0.116 C 
BRANCH   2   3
ATOM      3  N   UNL A   1      35.236  20.793  26.218  1.00  0.00    -0.352 N 
ATOM      4  C   UNL A   1      34.416  21.859  26.554  1.00  0.00     0.255 C 
ATOM      5  O   UNL A   1      33.889  21.847  27.665  1.00  0.00    -0.269 OA
ATOM      6  H   UNL A   1      35.540  20.239  26.974  1.00  0.00     0.163 HD
BRANCH   4   7
ATOM      7  C   UNL A   1      34.167  22.990  25.616  1.00  0.00     0.085 A 
ATOM      8  C   UNL A   1      32.998  22.984  24.825  1.00  0.00     0.142 A 
ATOM      9  N   UNL A   1      32.759  23.983  23.940  1.00  0.00    -0.235 NA
ATOM     10  C   UNL A   1      33.643  24.978  23.763  1.00  0.00     0.040 A 
ATOM     11  C   UNL A   1      35.127  24.005  25.382  1.00  0.00    -0.033 A 
ATOM     12  C   UNL A   1      33.330  25.959  22.677  1.00  0.00     0.067 C 
ATOM     13  C   UNL A   1      34.829  25.025  24.466  1.00  0.00     0.028 A 
ATOM     14  C   UNL A   1      36.485  24.068  26.019  1.00  0.00     0.045 C 
BRANCH   8  15
ATOM     15  N   UNL A   1      32.047  21.968  24.840  1.00  0.00    -0.350 N 
BRANCH  15  16
ATOM     16  C   UNL A   1      30.710  22.311  25.311  1.00  0.00     0.115 C 
ATOM     17  C   UNL A   1      30.771  22.898  26.714  1.00  0.00     0.027 C 
ENDBRANCH  15  16
BRANCH  15  18
ATOM     18  C   UNL A   1      32.129  20.985  23.740  1.00  0.00     0.174 C 
BRANCH  18  19
ATOM     19  C   UNL A   1      32.484  19.549  24.137  1.00  0.00     0.060 A 
ATOM     20  C   UNL A   1      32.889  18.648  23.146  1.00  0.00     0.026 A 
ATOM     21  N   UNL A   1      32.381  19.181  25.445  1.00  0.00    -0.259 NA
ATOM     22  C   UNL A   1      33.136  17.322  23.489  1.00  0.00     0.004 A 
ATOM     23  C   UNL A   1      32.598  17.879  25.738  1.00  0.00     0.111 A 
ATOM     24  C   UNL A   1      32.971  16.922  24.808  1.00  0.00     0.020 A 
ENDBRANCH  18  19
ENDBRANCH  15  18
ENDBRANCH   8  15
ENDBRANCH   4   7
ENDBRANCH   2   3
ENDBRANCH   1   2
BRANCH   1  25
ATOM     25  C   UNL A   1      38.299  20.752  24.963  1.00  0.00     0.023 C 
BRANCH  25  26
ATOM     26  C   UNL A   1      39.265  20.563  26.128  1.00  0.00     0.116 C 
BRANCH  26  27
ATOM     27  N   UNL A   1      40.194  19.451  25.986  1.00  0.00    -0.352 N 
ATOM     28  C   UNL A   1      41.565  19.410  26.127  1.00  0.00     0.251 C 
ATOM     29  H   UNL A   1      39.776  18.590  25.752  1.00  0.00     0.163 HD
ATOM     30  O   UNL A   1      42.167  18.358  25.961  1.00  0.00    -0.269 OA
BRANCH  28  31
ATOM     31  C   UNL A   1      42.323  20.650  26.415  1.00  0.00     0.039 A 
ATOM     32  C   UNL A   1      42.766  21.428  25.340  1.00  0.00     0.014 A 
ATOM     33  C   UNL A   1      42.556  21.076  27.723  1.00  0.00     0.014 A 
ATOM     34  C   UNL A   1      43.329  22.685  25.577  1.00  0.00     0.010 A 
ATOM     35  C   UNL A   1      43.031  22.364  27.955  1.00  0.00     0.010 A 
ATOM     36  C   UNL A   1      43.407  23.190  26.884  1.00  0.00    -0.014 A 
BRANCH  36  37
ATOM     37  C   UNL A   1      43.849  24.585  27.153  1.00  0.00     0.031 A 
ATOM     38  C   UNL A   1      42.866  25.611  27.643  1.00  0.00     0.074 A 
ATOM     39  C   UNL A   1      45.116  24.951  26.873  1.00  0.00     0.049 A 
ATOM     40  N   UNL A   1      43.035  26.894  27.838  1.00  0.00    -0.248 NA
ATOM     41  C   UNL A   1      41.502  25.136  27.920  1.00  0.00     0.031 C 
ATOM     42  C   UNL A   1      46.154  24.068  26.336  1.00  0.00     0.029 A 
ATOM     43  N   UNL A   1      45.746  26.166  26.987  1.00  0.00    -0.354 N 
ATOM     44  C   UNL A   1      41.798  27.380  28.239  1.00  0.00     0.074 A 
ATOM     45  C   UNL A   1      40.875  26.267  28.204  1.00  0.00     0.031 C 
ATOM     46  C   UNL A   1      47.295  24.763  26.192  1.00  0.00     0.029 A 
ATOM     47  C   UNL A   1      47.060  26.149  26.588  1.00  0.00     0.049 A 
ATOM     48  H   UNL A   1      45.296  26.975  27.323  1.00  0.00     0.167 HD
ATOM     49  C   UNL A   1      41.466  28.635  28.629  1.00  0.00     0.037 A 
ATOM     50  C   UNL A   1      47.973  27.137  26.542  1.00  0.00     0.037 A 
ATOM     51  C   UNL A   1      42.391  29.735  28.692  1.00  0.00     0.049 A 
ATOM     52  C   UNL A   1      47.583  28.521  26.988  1.00  0.00     0.074 A 
ATOM     53  C   UNL A   1      42.165  31.030  29.127  1.00  0.00     0.029 A 
ATOM     54  N   UNL A   1      43.724  29.669  28.311  1.00  0.00    -0.354 N 
ATOM     55  N   UNL A   1      46.426  28.954  27.425  1.00  0.00    -0.248 NA
ATOM     56  C   UNL A   1      48.629  29.553  26.940  1.00  0.00     0.031 C 
ATOM     57  C   UNL A   1      43.350  31.756  28.973  1.00  0.00     0.029 A 
ATOM     58  C   UNL A   1      44.328  30.903  28.488  1.00  0.00     0.049 A 
ATOM     59  H   UNL A   1      44.172  28.864  27.965  1.00  0.00     0.167 HD
ATOM     60  C   UNL A   1      46.610  30.295  27.729  1.00  0.00     0.074 A 
ATOM     61  C   UNL A   1      47.995  30.603  27.440  1.00  0.00     0.031 C 
ATOM     62  C   UNL A   1      45.711  31.191  28.205  1.00  0.00     0.037 A 
BRANCH  49  63
ATOM     63  C   UNL A   1      40.040  28.879  29.030  1.00  0.00     0.064 A 
ATOM     64  C   UNL A   1      39.076  29.286  28.096  1.00  0.00     0.173 A 
ATOM     65  C   UNL A   1      39.626  28.680  30.356  1.00  0.00     0.173 A 
ATOM     66  F   UNL A   1      39.423  29.502  26.818  1.00  0.00    -0.203 F 
ATOM     67  C   UNL A   1      37.758  29.518  28.479  1.00  0.00     0.198 A 
ATOM     68  C   UNL A   1      38.300  28.883  30.729  1.00  0.00     0.198 A 
ATOM     69  F   UNL A   1      40.506  28.285  31.288  1.00  0.00    -0.203 F 
ATOM     70  F   UNL A   1      36.868  29.959  27.580  1.00  0.00    -0.200 F 
ATOM     71  C   UNL A   1      37.370  29.310  29.793  1.00  0.00     0.200 A 
ATOM     72  F   UNL A   1      37.923  28.668  31.998  1.00  0.00    -0.200 F 
ATOM     73  F   UNL A   1      36.099  29.529  30.161  1.00  0.00    -0.200 F 
ENDBRANCH  49  63
BRANCH  50  74
ATOM     74  C   UNL A   1      49.358  26.849  26.085  1.00  0.00     0.064 A 
ATOM     75  C   UNL A   1      49.710  26.983  24.734  1.00  0.00     0.173 A 
ATOM     76  C   UNL A   1      50.355  26.435  26.981  1.00  0.00     0.173 A 
ATOM     77  F   UNL A   1      48.786  27.355  23.836  1.00  0.00    -0.203 F 
ATOM     78  C   UNL A   1      51.001  26.697  24.294  1.00  0.00     0.198 A 
ATOM     79  C   UNL A   1      51.652  26.175  26.544  1.00  0.00     0.198 A 
ATOM     80  F   UNL A   1      50.070  26.295  28.284  1.00  0.00    -0.203 F 
ATOM     81  F   UNL A   1      51.298  26.792  22.991  1.00  0.00    -0.200 F 
ATOM     82  C   UNL A   1      51.972  26.298  25.200  1.00  0.00     0.200 A 
ATOM     83  F   UNL A   1      52.592  25.804  27.424  1.00  0.00    -0.200 F 
ATOM     84  F   UNL A   1      53.214  26.028  24.777  1.00  0.00    -0.200 F 
ENDBRANCH  50  74
BRANCH  62  85
ATOM     85  C   UNL A   1      46.203  32.581  28.478  1.00  0.00     0.064 A 
ATOM     86  C   UNL A   1      46.138  33.592  27.506  1.00  0.00     0.173 A 
ATOM     87  C   UNL A   1      46.705  32.920  29.744  1.00  0.00     0.173 A 
ATOM     88  F   UNL A   1      45.680  33.314  26.277  1.00  0.00    -0.203 F 
ATOM     89  C   UNL A   1      46.578  34.882  27.785  1.00  0.00     0.198 A 
ATOM     90  C   UNL A   1      47.116  34.218  30.029  1.00  0.00     0.198 A 
ATOM     91  F   UNL A   1      46.782  31.992  30.711  1.00  0.00    -0.203 F 
ATOM     92  F   UNL A   1      46.547  35.820  26.829  1.00  0.00    -0.200 F 
ATOM     93  C   UNL A   1      47.059  35.196  29.048  1.00  0.00     0.200 A 
ATOM     94  F   UNL A   1      47.569  34.524  31.253  1.00  0.00    -0.200 F 
ATOM     95  F   UNL A   1      47.473  36.442  29.317  1.00  0.00    -0.200 F 
ENDBRANCH  62  85
ENDBRANCH  36  37
ENDBRANCH  28  31
ENDBRANCH  26  27
ENDBRANCH  25  26
ENDBRANCH   1  25
TORSDOF 15
ENDMDL
MODEL 3
REMARK VINA RESULT:     -12.2      5.487      9.680
REMARK SMILES CCN(Cc1ccccn1)c1nc(C)cc(C)c1C(=O)NCCCCNC(=O)c1ccc(-c2c3nc(c(-c4c(F)c(F)c(F)c(F)c4F)c4ccc([nH]4)c(-c4c(F)c(F)c(F)c(F)c4F)c4nc(c(-c5c(F)c(F)c(F)c(F)c5F)c5ccc2[nH]5)C=C4)C=C3)cc1
REMARK SMILES IDX 23 1 22 2 21 3 19 4 20 5 18 7 11 8 12 9 13 10 16 11 14 12
REMARK SMILES IDX 15 13 17 14 3 15 2 16 1 17 4 18 5 19 6 20 10 21 7 22 9 23
REMARK SMILES IDX 8 24 24 25 25 26 26 27 27 28 28 30 29 31 30 32 91 33 31 34
REMARK SMILES IDX 90 35 32 36 33 37 34 38 84 39 35 40 89 41 83 42 85 43 36 44
REMARK SMILES IDX 88 45 82 46 81 47 37 49 69 50 49 51 68 52 50 53 53 54 67 55
REMARK SMILES IDX 86 56 51 57 52 58 66 60 87 61 54 62 38 63 39 64 47 65 40 66
REMARK SMILES IDX 41 67 45 68 48 69 42 70 43 71 46 72 44 73 70 74 71 75 79 76
REMARK SMILES IDX 72 77 73 78 77 79 80 80 74 81 75 82 78 83 76 84 55 85 56 86
REMARK SMILES IDX 64 87 57 88 58 89 62 90 65 91 59 92 60 93 63 94 61 95
REMARK H PARENT 21 6 26 29 85 48 53 59
REMARK Flexibility Score: inf
ROOT
ATOM      1  C   UNL A   1      36.447  21.361  25.554  1.00  0.00     0.023 C 
ENDROOT
BRANCH   1   2
ATOM      2  C   UNL A   1      36.178  22.739  24.964  1.00  0.00     0.116 C 
BRANCH   2   3
ATOM      3  N   UNL A   1      35.670  22.782  23.610  1.00  0.00    -0.352 N 
ATOM      4  C   UNL A   1      34.379  23.028  23.168  1.00  0.00     0.255 C 
ATOM      5  O   UNL A   1      34.226  23.324  21.984  1.00  0.00    -0.269 OA
ATOM      6  H   UNL A   1      36.334  22.614  22.902  1.00  0.00     0.163 HD
BRANCH   4   7
ATOM      7  C   UNL A   1      33.202  22.941  24.078  1.00  0.00     0.085 A 
ATOM      8  C   UNL A   1      32.696  24.121  24.662  1.00  0.00     0.142 A 
ATOM      9  N   UNL A   1      31.646  24.072  25.519  1.00  0.00    -0.235 NA
ATOM     10  C   UNL A   1      31.090  22.899  25.866  1.00  0.00     0.040 A 
ATOM     11  C   UNL A   1      32.656  21.702  24.494  1.00  0.00    -0.033 A 
ATOM     12  C   UNL A   1      30.017  22.956  26.908  1.00  0.00     0.067 C 
ATOM     13  C   UNL A   1      31.562  21.702  25.372  1.00  0.00     0.028 A 
ATOM     14  C   UNL A   1      33.181  20.354  24.096  1.00  0.00     0.045 C 
BRANCH   8  15
ATOM     15  N   UNL A   1      33.236  25.389  24.463  1.00  0.00    -0.350 N 
BRANCH  15  16
ATOM     16  C   UNL A   1      32.508  26.295  23.582  1.00  0.00     0.115 C 
ATOM     17  C   UNL A   1      33.390  26.737  22.423  1.00  0.00     0.027 C 
ENDBRANCH  15  16
BRANCH  15  18
ATOM     18  C   UNL A   1      33.910  25.998  25.628  1.00  0.00     0.174 C 
BRANCH  18  19
ATOM     19  C   UNL A   1      33.304  27.300  26.160  1.00  0.00     0.060 A 
ATOM     20  C   UNL A   1      33.984  28.505  25.950  1.00  0.00     0.026 A 
ATOM     21  N   UNL A   1      32.124  27.250  26.840  1.00  0.00    -0.259 NA
ATOM     22  C   UNL A   1      33.478  29.679  26.500  1.00  0.00     0.004 A 
ATOM     23  C   UNL A   1      31.677  28.403  27.386  1.00  0.00     0.111 A 
ATOM     24  C   UNL A   1      32.311  29.628  27.248  1.00  0.00     0.020 A 
ENDBRANCH  18  19
ENDBRANCH  15  18
ENDBRANCH   8  15
ENDBRANCH   4   7
ENDBRANCH   2   3
ENDBRANCH   1   2
BRANCH   1  25
ATOM     25  C   UNL A   1      37.664  20.587  25.051  1.00  0.00     0.023 C 
BRANCH  25  26
ATOM     26  C   UNL A   1      38.993  20.788  25.770  1.00  0.00     0.116 C 
BRANCH  26  27
ATOM     27  N   UNL A   1      39.888  19.640  25.747  1.00  0.00    -0.352 N 
ATOM     28  C   UNL A   1      41.218  19.537  26.098  1.00  0.00     0.251 C 
ATOM     29  H   UNL A   1      39.478  18.802  25.430  1.00  0.00     0.163 HD
ATOM     30  O   UNL A   1      41.796  18.464  26.002  1.00  0.00    -0.269 OA
BRANCH  28  31
ATOM     31  C   UNL A   1      41.970  20.739  26.530  1.00  0.00     0.039 A 
ATOM     32  C   UNL A   1      42.539  21.559  25.550  1.00  0.00     0.014 A 
ATOM     33  C   UNL A   1      42.077  21.087  27.877  1.00  0.00     0.014 A 
ATOM     34  C   UNL A   1      43.104  22.785  25.913  1.00  0.00     0.010 A 
ATOM     35  C   UNL A   1      42.556  22.347  28.227  1.00  0.00     0.010 A 
ATOM     36  C   UNL A   1      43.058  23.218  27.247  1.00  0.00    -0.014 A 
BRANCH  36  37
ATOM     37  C   UNL A   1      43.503  24.583  27.637  1.00  0.00     0.031 A 
ATOM     38  C   UNL A   1      42.491  25.640  27.980  1.00  0.00     0.074 A 
ATOM     39  C   UNL A   1      44.814  24.897  27.599  1.00  0.00     0.049 A 
ATOM     40  N   UNL A   1      42.675  26.909  28.244  1.00  0.00    -0.248 NA
ATOM     41  C   UNL A   1      41.081  25.222  27.994  1.00  0.00     0.031 C 
ATOM     42  C   UNL A   1      45.893  23.981  27.225  1.00  0.00     0.029 A 
ATOM     43  N   UNL A   1      45.462  26.078  27.863  1.00  0.00    -0.354 N 
ATOM     44  C   UNL A   1      41.407  27.441  28.436  1.00  0.00     0.074 A 
ATOM     45  C   UNL A   1      40.460  26.374  28.200  1.00  0.00     0.031 C 
ATOM     46  C   UNL A   1      47.069  24.626  27.309  1.00  0.00     0.029 A 
ATOM     47  C   UNL A   1      46.824  26.010  27.703  1.00  0.00     0.049 A 
ATOM     48  H   UNL A   1      44.993  26.898  28.141  1.00  0.00     0.167 HD
ATOM     49  C   UNL A   1      41.063  28.700  28.803  1.00  0.00     0.037 A 
ATOM     50  C   UNL A   1      47.771  26.956  27.853  1.00  0.00     0.037 A 
ATOM     51  C   UNL A   1      42.007  29.754  29.066  1.00  0.00     0.049 A 
ATOM     52  C   UNL A   1      47.365  28.344  28.269  1.00  0.00     0.074 A 
ATOM     53  C   UNL A   1      41.760  31.046  29.497  1.00  0.00     0.029 A 
ATOM     54  N   UNL A   1      43.382  29.636  28.925  1.00  0.00    -0.354 N 
ATOM     55  N   UNL A   1      46.167  28.819  28.508  1.00  0.00    -0.248 NA
ATOM     56  C   UNL A   1      48.444  29.327  28.442  1.00  0.00     0.031 C 
ATOM     57  C   UNL A   1      42.983  31.720  29.580  1.00  0.00     0.029 A 
ATOM     58  C   UNL A   1      43.995  30.836  29.247  1.00  0.00     0.049 A 
ATOM     59  H   UNL A   1      43.852  28.820  28.637  1.00  0.00     0.167 HD
ATOM     60  C   UNL A   1      46.349  30.142  28.885  1.00  0.00     0.074 A 
ATOM     61  C   UNL A   1      47.775  30.393  28.856  1.00  0.00     0.031 C 
ATOM     62  C   UNL A   1      45.417  31.066  29.224  1.00  0.00     0.037 A 
BRANCH  49  63
ATOM     63  C   UNL A   1      39.600  29.000  28.953  1.00  0.00     0.064 A 
ATOM     64  C   UNL A   1      38.811  29.371  27.853  1.00  0.00     0.173 A 
ATOM     65  C   UNL A   1      38.972  28.891  30.202  1.00  0.00     0.173 A 
ATOM     66  F   UNL A   1      39.367  29.502  26.638  1.00  0.00    -0.203 F 
ATOM     67  C   UNL A   1      37.458  29.655  28.003  1.00  0.00     0.198 A 
ATOM     68  C   UNL A   1      37.610  29.146  30.344  1.00  0.00     0.198 A 
ATOM     69  F   UNL A   1      39.677  28.533  31.286  1.00  0.00    -0.203 F 
ATOM     70  F   UNL A   1      36.738  30.061  26.949  1.00  0.00    -0.200 F 
ATOM     71  C   UNL A   1      36.856  29.536  29.247  1.00  0.00     0.200 A 
ATOM     72  F   UNL A   1      37.028  29.016  31.544  1.00  0.00    -0.200 F 
ATOM     73  F   UNL A   1      35.551  29.805  29.390  1.00  0.00    -0.200 F 
ENDBRANCH  49  63
BRANCH  50  74
ATOM     74  C   UNL A   1      49.202  26.615  27.639  1.00  0.00     0.064 A 
ATOM     75  C   UNL A   1      50.052  26.372  28.729  1.00  0.00     0.173 A 
ATOM     76  C   UNL A   1      49.752  26.526  26.352  1.00  0.00     0.173 A 
ATOM     77  F   UNL A   1      49.577  26.467  29.980  1.00  0.00    -0.203 F 
ATOM     78  C   UNL A   1      51.398  26.070  28.540  1.00  0.00     0.198 A 
ATOM     79  C   UNL A   1      51.093  26.198  26.163  1.00  0.00     0.198 A 
ATOM     80  F   UNL A   1      48.981  26.746  25.277  1.00  0.00    -0.203 F 
ATOM     81  F   UNL A   1      52.196  25.885  29.600  1.00  0.00    -0.200 F 
ATOM     82  C   UNL A   1      51.917  25.978  27.257  1.00  0.00     0.200 A 
ATOM     83  F   UNL A   1      51.587  26.096  24.922  1.00  0.00    -0.200 F 
ATOM     84  F   UNL A   1      53.211  25.684  27.076  1.00  0.00    -0.200 F 
ENDBRANCH  50  74
BRANCH  62  85
ATOM     85  C   UNL A   1      45.910  32.425  29.627  1.00  0.00     0.064 A 
ATOM     86  C   UNL A   1      46.229  32.728  30.959  1.00  0.00     0.173 A 
ATOM     87  C   UNL A   1      46.108  33.423  28.660  1.00  0.00     0.173 A 
ATOM     88  F   UNL A   1      46.042  31.813  31.922  1.00  0.00    -0.203 F 
ATOM     89  C   UNL A   1      46.707  33.987  31.311  1.00  0.00     0.198 A 
ATOM     90  C   UNL A   1      46.614  34.670  29.011  1.00  0.00     0.198 A 
ATOM     91  F   UNL A   1      45.824  33.181  27.371  1.00  0.00    -0.203 F 
ATOM     92  F   UNL A   1      46.965  34.269  32.595  1.00  0.00    -0.200 F 
ATOM     93  C   UNL A   1      46.907  34.954  30.336  1.00  0.00     0.200 A 
ATOM     94  F   UNL A   1      46.818  35.600  28.067  1.00  0.00    -0.200 F 
ATOM     95  F   UNL A   1      47.376  36.162  30.676  1.00  0.00    -0.200 F 
ENDBRANCH  62  85
ENDBRANCH  36  37
ENDBRANCH  28  31
ENDBRANCH  26  27
ENDBRANCH  25  26
ENDBRANCH   1  25
TORSDOF 15
ENDMDL
