MODEL 1
REMARK VINA RESULT:     -12.9      0.000      0.000
REMARK SMILES C[C@H]1[C@H]([NH+]2CCC(CC(=O)NCCCCNC(=O)c3ccc(-c4c5nc(c(-c6c(F)c(F)c(F)c(F)c6F)c6ccc([nH]6)c(-c6c(F)c(F)c(F)c(F)c6F)c6nc(c(-c7c(F)c(F)c(F)c(F)c7F)c7ccc4[nH]7)C=C6)C=C5)cc3)CC2)CCC[C@@H]1C
REMARK SMILES IDX 13 1 12 2 11 3 9 4 10 5 8 7 7 8 4 9 5 10 83 11 6 13 82 14
REMARK SMILES IDX 3 15 1 16 2 17 87 18 84 19 86 20 88 21 85 22 14 23 15 24
REMARK SMILES IDX 16 25 17 26 18 28 19 29 20 30 81 31 21 32 80 33 22 34 23 35
REMARK SMILES IDX 24 36 74 37 25 38 79 39 73 40 75 41 26 42 78 43 72 44 71 45
REMARK SMILES IDX 27 47 59 48 39 49 58 50 40 51 43 52 57 53 76 54 41 55 42 56
REMARK SMILES IDX 56 58 77 59 44 60 28 61 29 62 37 63 30 64 31 65 35 66 38 67
REMARK SMILES IDX 32 68 33 69 36 70 34 71 60 72 61 73 69 74 62 75 63 76 67 77
REMARK SMILES IDX 70 78 64 79 65 80 68 81 66 82 45 83 46 84 54 85 47 86 48 87
REMARK SMILES IDX 52 88 55 89 49 90 50 91 53 92 51 93
REMARK H PARENT 11 6 4 12 16 27 75 46 43 57
REMARK Flexibility Score: inf
ROOT
ATOM      1  C   UNL A   1      33.320  29.325  24.756  1.00  0.00     0.023 C 
ENDROOT
BRANCH   1   2
ATOM      2  C   UNL A   1      33.117  28.961  23.280  1.00  0.00     0.116 C 
BRANCH   2   3
ATOM      3  N   UNL A   1      31.742  29.175  22.864  1.00  0.00    -0.356 N 
ATOM      4  C   UNL A   1      30.808  28.304  22.384  1.00  0.00     0.220 C 
ATOM      5  O   UNL A   1      29.719  28.760  22.030  1.00  0.00    -0.275 OA
ATOM      6  H   UNL A   1      31.431  30.106  22.941  1.00  0.00     0.163 HD
BRANCH   4   7
ATOM      7  C   UNL A   1      31.085  26.813  22.302  1.00  0.00     0.104 C 
BRANCH   7   8
ATOM      8  C   UNL A   1      30.374  25.961  23.381  1.00  0.00     0.009 C 
ATOM      9  N   UNL A   1      31.273  24.469  25.805  1.00  0.00    -0.332 N 
ATOM     10  C   UNL A   1      30.485  25.688  25.943  1.00  0.00     0.262 C 
ATOM     11  C   UNL A   1      30.869  23.713  24.637  1.00  0.00     0.262 C 
ATOM     12  H   UNL A   1      31.011  23.908  26.615  1.00  0.00     0.348 HD
ATOM     13  C   UNL A   1      30.557  26.636  24.749  1.00  0.00     0.066 C 
ATOM     14  C   UNL A   1      30.882  24.519  23.346  1.00  0.00     0.066 C 
BRANCH   9  15
ATOM     15  C   UNL A   1      32.683  24.423  26.257  1.00  0.00     0.187 C 
ATOM     16  C   UNL A   1      32.948  22.363  27.780  1.00  0.00     0.014 C 
ATOM     17  C   UNL A   1      33.345  23.014  26.438  1.00  0.00     0.047 C 
ATOM     18  C   UNL A   1      34.898  22.970  26.358  1.00  0.00    -0.006 C 
ATOM     19  C   UNL A   1      33.481  25.386  25.348  1.00  0.00     0.065 C 
ATOM     20  C   UNL A   1      35.474  23.913  25.308  1.00  0.00     0.004 C 
ATOM     21  C   UNL A   1      35.406  21.535  26.117  1.00  0.00     0.008 C 
ATOM     22  C   UNL A   1      34.984  25.326  25.563  1.00  0.00     0.006 C 
ENDBRANCH   9  15
ENDBRANCH   7   8
ENDBRANCH   4   7
ENDBRANCH   2   3
ENDBRANCH   1   2
BRANCH   1  23
ATOM     23  C   UNL A   1      32.103  29.922  25.441  1.00  0.00     0.023 C 
BRANCH  23  24
ATOM     24  C   UNL A   1      32.349  30.331  26.883  1.00  0.00     0.116 C 
BRANCH  24  25
ATOM     25  N   UNL A   1      32.252  31.770  27.110  1.00  0.00    -0.352 N 
ATOM     26  C   UNL A   1      33.218  32.635  27.575  1.00  0.00     0.251 C 
ATOM     27  H   UNL A   1      31.379  32.178  26.902  1.00  0.00     0.163 HD
ATOM     28  O   UNL A   1      32.965  33.816  27.786  1.00  0.00    -0.269 OA
BRANCH  26  29
ATOM     29  C   UNL A   1      34.558  32.093  27.876  1.00  0.00     0.039 A 
ATOM     30  C   UNL A   1      35.638  32.973  27.967  1.00  0.00     0.014 A 
ATOM     31  C   UNL A   1      34.703  30.748  28.220  1.00  0.00     0.014 A 
ATOM     32  C   UNL A   1      36.835  32.529  28.533  1.00  0.00     0.010 A 
ATOM     33  C   UNL A   1      35.859  30.336  28.871  1.00  0.00     0.010 A 
ATOM     34  C   UNL A   1      36.926  31.230  29.057  1.00  0.00    -0.014 A 
BRANCH  34  35
ATOM     35  C   UNL A   1      38.099  30.788  29.854  1.00  0.00     0.031 A 
ATOM     36  C   UNL A   1      39.061  29.790  29.276  1.00  0.00     0.074 A 
ATOM     37  C   UNL A   1      38.229  31.194  31.134  1.00  0.00     0.049 A 
ATOM     38  N   UNL A   1      40.055  29.168  29.856  1.00  0.00    -0.248 NA
ATOM     39  C   UNL A   1      38.854  29.411  27.869  1.00  0.00     0.031 C 
ATOM     40  C   UNL A   1      37.326  32.110  31.833  1.00  0.00     0.029 A 
ATOM     41  N   UNL A   1      39.165  30.867  32.085  1.00  0.00    -0.354 N 
ATOM     42  C   UNL A   1      40.565  28.302  28.899  1.00  0.00     0.074 A 
ATOM     43  C   UNL A   1      39.749  28.446  27.714  1.00  0.00     0.031 C 
ATOM     44  C   UNL A   1      37.764  32.292  33.089  1.00  0.00     0.029 A 
ATOM     45  C   UNL A   1      38.950  31.469  33.302  1.00  0.00     0.049 A 
ATOM     46  H   UNL A   1      39.919  30.259  31.913  1.00  0.00     0.167 HD
ATOM     47  C   UNL A   1      41.634  27.478  28.995  1.00  0.00     0.037 A 
ATOM     48  C   UNL A   1      39.625  31.360  34.462  1.00  0.00     0.037 A 
ATOM     49  C   UNL A   1      42.484  27.388  30.151  1.00  0.00     0.049 A 
ATOM     50  C   UNL A   1      40.815  30.441  34.534  1.00  0.00     0.074 A 
ATOM     51  C   UNL A   1      43.666  26.682  30.297  1.00  0.00     0.029 A 
ATOM     52  N   UNL A   1      42.242  28.025  31.358  1.00  0.00    -0.354 N 
ATOM     53  N   UNL A   1      41.342  29.697  33.593  1.00  0.00    -0.248 NA
ATOM     54  C   UNL A   1      41.497  30.338  35.833  1.00  0.00     0.031 C 
ATOM     55  C   UNL A   1      44.119  26.860  31.608  1.00  0.00     0.029 A 
ATOM     56  C   UNL A   1      43.237  27.701  32.267  1.00  0.00     0.049 A 
ATOM     57  H   UNL A   1      41.478  28.618  31.542  1.00  0.00     0.167 HD
ATOM     58  C   UNL A   1      42.426  29.055  34.178  1.00  0.00     0.074 A 
ATOM     59  C   UNL A   1      42.491  29.509  35.551  1.00  0.00     0.031 C 
ATOM     60  C   UNL A   1      43.286  28.166  33.628  1.00  0.00     0.037 A 
BRANCH  47  61
ATOM     61  C   UNL A   1      41.961  26.617  27.813  1.00  0.00     0.064 A 
ATOM     62  C   UNL A   1      42.924  27.002  26.869  1.00  0.00     0.173 A 
ATOM     63  C   UNL A   1      41.345  25.368  27.655  1.00  0.00     0.173 A 
ATOM     64  F   UNL A   1      43.531  28.194  26.972  1.00  0.00    -0.203 F 
ATOM     65  C   UNL A   1      43.245  26.173  25.797  1.00  0.00     0.198 A 
ATOM     66  C   UNL A   1      41.687  24.531  26.596  1.00  0.00     0.198 A 
ATOM     67  F   UNL A   1      40.418  24.954  28.533  1.00  0.00    -0.203 F 
ATOM     68  F   UNL A   1      44.143  26.577  24.888  1.00  0.00    -0.200 F 
ATOM     69  C   UNL A   1      42.633  24.937  25.666  1.00  0.00     0.200 A 
ATOM     70  F   UNL A   1      41.100  23.332  26.475  1.00  0.00    -0.200 F 
ATOM     71  F   UNL A   1      42.953  24.136  24.641  1.00  0.00    -0.200 F 
ENDBRANCH  47  61
BRANCH  48  72
ATOM     72  C   UNL A   1      39.204  32.139  35.656  1.00  0.00     0.064 A 
ATOM     73  C   UNL A   1      39.691  33.436  35.870  1.00  0.00     0.173 A 
ATOM     74  C   UNL A   1      38.335  31.601  36.616  1.00  0.00     0.173 A 
ATOM     75  F   UNL A   1      40.544  33.984  34.992  1.00  0.00    -0.203 F 
ATOM     76  C   UNL A   1      39.344  34.157  37.011  1.00  0.00     0.198 A 
ATOM     77  C   UNL A   1      37.969  32.332  37.744  1.00  0.00     0.198 A 
ATOM     78  F   UNL A   1      37.841  30.365  36.457  1.00  0.00    -0.203 F 
ATOM     79  F   UNL A   1      39.863  35.375  37.215  1.00  0.00    -0.200 F 
ATOM     80  C   UNL A   1      38.480  33.606  37.946  1.00  0.00     0.200 A 
ATOM     81  F   UNL A   1      37.127  31.800  38.640  1.00  0.00    -0.200 F 
ATOM     82  F   UNL A   1      38.149  34.297  39.044  1.00  0.00    -0.200 F 
ENDBRANCH  48  72
BRANCH  60  83
ATOM     83  C   UNL A   1      44.378  27.634  34.505  1.00  0.00     0.064 A 
ATOM     84  C   UNL A   1      45.591  28.320  34.654  1.00  0.00     0.173 A 
ATOM     85  C   UNL A   1      44.188  26.457  35.244  1.00  0.00     0.173 A 
ATOM     86  F   UNL A   1      45.822  29.441  33.954  1.00  0.00    -0.203 F 
ATOM     87  C   UNL A   1      46.583  27.839  35.505  1.00  0.00     0.198 A 
ATOM     88  C   UNL A   1      45.172  25.992  36.111  1.00  0.00     0.198 A 
ATOM     89  F   UNL A   1      43.041  25.767  35.137  1.00  0.00    -0.203 F 
ATOM     90  F   UNL A   1      47.747  28.492  35.607  1.00  0.00    -0.200 F 
ATOM     91  C   UNL A   1      46.369  26.681  36.238  1.00  0.00     0.200 A 
ATOM     92  F   UNL A   1      44.961  24.879  36.828  1.00  0.00    -0.200 F 
ATOM     93  F   UNL A   1      47.321  26.226  37.064  1.00  0.00    -0.200 F 
ENDBRANCH  60  83
ENDBRANCH  34  35
ENDBRANCH  26  29
ENDBRANCH  24  25
ENDBRANCH  23  24
ENDBRANCH   1  23
TORSDOF 13
ENDMDL
MODEL 2
REMARK VINA RESULT:     -12.8      1.637      7.815
REMARK SMILES C[C@H]1[C@H]([NH+]2CCC(CC(=O)NCCCCNC(=O)c3ccc(-c4c5nc(c(-c6c(F)c(F)c(F)c(F)c6F)c6ccc([nH]6)c(-c6c(F)c(F)c(F)c(F)c6F)c6nc(c(-c7c(F)c(F)c(F)c(F)c7F)c7ccc4[nH]7)C=C6)C=C5)cc3)CC2)CCC[C@@H]1C
REMARK SMILES IDX 13 1 12 2 11 3 9 4 10 5 8 7 7 8 4 9 5 10 83 11 6 13 82 14
REMARK SMILES IDX 3 15 1 16 2 17 87 18 84 19 86 20 88 21 85 22 14 23 15 24
REMARK SMILES IDX 16 25 17 26 18 28 19 29 20 30 81 31 21 32 80 33 22 34 23 35
REMARK SMILES IDX 24 36 74 37 25 38 79 39 73 40 75 41 26 42 78 43 72 44 71 45
REMARK SMILES IDX 27 47 59 48 39 49 58 50 40 51 43 52 57 53 76 54 41 55 42 56
REMARK SMILES IDX 56 58 77 59 44 60 28 61 29 62 37 63 30 64 31 65 35 66 38 67
REMARK SMILES IDX 32 68 33 69 36 70 34 71 60 72 61 73 69 74 62 75 63 76 67 77
REMARK SMILES IDX 70 78 64 79 65 80 68 81 66 82 45 83 46 84 54 85 47 86 48 87
REMARK SMILES IDX 52 88 55 89 49 90 50 91 53 92 51 93
REMARK H PARENT 11 6 4 12 16 27 75 46 43 57
REMARK Flexibility Score: inf
ROOT
ATOM      1  C   UNL A   1      32.260  30.303  26.895  1.00  0.00     0.023 C 
ENDROOT
BRANCH   1   2
ATOM      2  C   UNL A   1      32.577  29.702  25.519  1.00  0.00     0.116 C 
BRANCH   2   3
ATOM      3  N   UNL A   1      31.513  29.968  24.566  1.00  0.00    -0.356 N 
ATOM      4  C   UNL A   1      30.652  29.123  23.930  1.00  0.00     0.220 C 
ATOM      5  O   UNL A   1      29.878  29.604  23.100  1.00  0.00    -0.275 OA
ATOM      6  H   UNL A   1      31.395  30.919  24.341  1.00  0.00     0.163 HD
BRANCH   4   7
ATOM      7  C   UNL A   1      30.626  27.637  24.241  1.00  0.00     0.104 C 
BRANCH   7   8
ATOM      8  C   UNL A   1      31.033  26.721  23.061  1.00  0.00     0.009 C 
ATOM      9  N   UNL A   1      33.238  24.765  22.588  1.00  0.00    -0.332 N 
ATOM     10  C   UNL A   1      31.866  24.300  22.756  1.00  0.00     0.262 C 
ATOM     11  C   UNL A   1      33.279  26.036  21.894  1.00  0.00     0.262 C 
ATOM     12  H   UNL A   1      33.660  24.082  21.960  1.00  0.00     0.348 HD
ATOM     13  C   UNL A   1      30.954  25.256  23.518  1.00  0.00     0.066 C 
ATOM     14  C   UNL A   1      32.411  27.114  22.529  1.00  0.00     0.066 C 
BRANCH   9  15
ATOM     15  C   UNL A   1      34.275  24.447  23.596  1.00  0.00     0.187 C 
ATOM     16  C   UNL A   1      33.623  25.625  25.791  1.00  0.00     0.014 C 
ATOM     17  C   UNL A   1      33.817  24.267  25.083  1.00  0.00     0.047 C 
ATOM     18  C   UNL A   1      34.751  23.416  25.992  1.00  0.00    -0.006 C 
ATOM     19  C   UNL A   1      35.097  23.261  23.038  1.00  0.00     0.065 C 
ATOM     20  C   UNL A   1      35.365  22.221  25.272  1.00  0.00     0.004 C 
ATOM     21  C   UNL A   1      34.019  22.949  27.265  1.00  0.00     0.008 C 
ATOM     22  C   UNL A   1      36.098  22.691  24.029  1.00  0.00     0.006 C 
ENDBRANCH   9  15
ENDBRANCH   7   8
ENDBRANCH   4   7
ENDBRANCH   2   3
ENDBRANCH   1   2
BRANCH   1  23
ATOM     23  C   UNL A   1      31.854  31.766  26.875  1.00  0.00     0.023 C 
BRANCH  23  24
ATOM     24  C   UNL A   1      32.915  32.705  27.423  1.00  0.00     0.116 C 
BRANCH  24  25
ATOM     25  N   UNL A   1      32.433  34.064  27.655  1.00  0.00    -0.352 N 
ATOM     26  C   UNL A   1      32.905  35.003  28.546  1.00  0.00     0.251 C 
ATOM     27  H   UNL A   1      31.670  34.347  27.101  1.00  0.00     0.163 HD
ATOM     28  O   UNL A   1      32.347  36.086  28.682  1.00  0.00    -0.269 OA
BRANCH  26  29
ATOM     29  C   UNL A   1      34.068  34.652  29.386  1.00  0.00     0.039 A 
ATOM     30  C   UNL A   1      33.848  34.203  30.689  1.00  0.00     0.014 A 
ATOM     31  C   UNL A   1      35.346  34.621  28.826  1.00  0.00     0.014 A 
ATOM     32  C   UNL A   1      34.893  33.594  31.387  1.00  0.00     0.010 A 
ATOM     33  C   UNL A   1      36.355  33.930  29.483  1.00  0.00     0.010 A 
ATOM     34  C   UNL A   1      36.131  33.387  30.758  1.00  0.00    -0.014 A 
BRANCH  34  35
ATOM     35  C   UNL A   1      37.196  32.559  31.382  1.00  0.00     0.031 A 
ATOM     36  C   UNL A   1      37.712  32.911  32.748  1.00  0.00     0.074 A 
ATOM     37  C   UNL A   1      37.777  31.571  30.671  1.00  0.00     0.049 A 
ATOM     38  N   UNL A   1      38.731  32.414  33.400  1.00  0.00    -0.248 NA
ATOM     39  C   UNL A   1      37.014  33.994  33.459  1.00  0.00     0.031 C 
ATOM     40  C   UNL A   1      37.412  31.173  29.310  1.00  0.00     0.029 A 
ATOM     41  N   UNL A   1      38.818  30.733  30.989  1.00  0.00    -0.354 N 
ATOM     42  C   UNL A   1      38.815  33.144  34.577  1.00  0.00     0.074 A 
ATOM     43  C   UNL A   1      37.773  34.147  34.534  1.00  0.00     0.031 C 
ATOM     44  C   UNL A   1      38.196  30.155  28.921  1.00  0.00     0.029 A 
ATOM     45  C   UNL A   1      39.151  29.858  29.983  1.00  0.00     0.049 A 
ATOM     46  H   UNL A   1      39.282  30.756  31.857  1.00  0.00     0.167 HD
ATOM     47  C   UNL A   1      39.672  32.979  35.610  1.00  0.00     0.037 A 
ATOM     48  C   UNL A   1      40.126  28.931  29.918  1.00  0.00     0.037 A 
ATOM     49  C   UNL A   1      40.662  31.938  35.681  1.00  0.00     0.049 A 
ATOM     50  C   UNL A   1      41.058  28.764  31.089  1.00  0.00     0.074 A 
ATOM     51  C   UNL A   1      41.487  31.605  36.741  1.00  0.00     0.029 A 
ATOM     52  N   UNL A   1      40.958  31.063  34.648  1.00  0.00    -0.354 N 
ATOM     53  N   UNL A   1      41.068  29.401  32.234  1.00  0.00    -0.248 NA
ATOM     54  C   UNL A   1      42.120  27.757  30.952  1.00  0.00     0.031 C 
ATOM     55  C   UNL A   1      42.313  30.552  36.335  1.00  0.00     0.029 A 
ATOM     56  C   UNL A   1      41.979  30.210  35.035  1.00  0.00     0.049 A 
ATOM     57  H   UNL A   1      40.511  31.049  33.772  1.00  0.00     0.167 HD
ATOM     58  C   UNL A   1      42.121  28.860  32.960  1.00  0.00     0.074 A 
ATOM     59  C   UNL A   1      42.716  27.832  32.133  1.00  0.00     0.031 C 
ATOM     60  C   UNL A   1      42.557  29.190  34.199  1.00  0.00     0.037 A 
BRANCH  47  61
ATOM     61  C   UNL A   1      39.570  33.930  36.763  1.00  0.00     0.064 A 
ATOM     62  C   UNL A   1      38.819  33.620  37.906  1.00  0.00     0.173 A 
ATOM     63  C   UNL A   1      40.279  35.140  36.748  1.00  0.00     0.173 A 
ATOM     64  F   UNL A   1      38.114  32.481  37.962  1.00  0.00    -0.203 F 
ATOM     65  C   UNL A   1      38.765  34.498  38.986  1.00  0.00     0.198 A 
ATOM     66  C   UNL A   1      40.242  36.004  37.839  1.00  0.00     0.198 A 
ATOM     67  F   UNL A   1      41.014  35.480  35.678  1.00  0.00    -0.203 F 
ATOM     68  F   UNL A   1      38.012  34.198  40.053  1.00  0.00    -0.200 F 
ATOM     69  C   UNL A   1      39.483  35.684  38.955  1.00  0.00     0.200 A 
ATOM     70  F   UNL A   1      40.944  37.146  37.812  1.00  0.00    -0.200 F 
ATOM     71  F   UNL A   1      39.439  36.521  40.000  1.00  0.00    -0.200 F 
ENDBRANCH  47  61
BRANCH  48  72
ATOM     72  C   UNL A   1      40.277  28.079  28.709  1.00  0.00     0.064 A 
ATOM     73  C   UNL A   1      39.671  26.817  28.645  1.00  0.00     0.173 A 
ATOM     74  C   UNL A   1      41.047  28.491  27.613  1.00  0.00     0.173 A 
ATOM     75  F   UNL A   1      38.945  26.369  29.680  1.00  0.00    -0.203 F 
ATOM     76  C   UNL A   1      39.848  25.989  27.539  1.00  0.00     0.198 A 
ATOM     77  C   UNL A   1      41.203  27.671  26.496  1.00  0.00     0.198 A 
ATOM     78  F   UNL A   1      41.648  29.689  27.625  1.00  0.00    -0.203 F 
ATOM     79  F   UNL A   1      39.297  24.767  27.524  1.00  0.00    -0.200 F 
ATOM     80  C   UNL A   1      40.611  26.418  26.463  1.00  0.00     0.200 A 
ATOM     81  F   UNL A   1      41.934  28.094  25.455  1.00  0.00    -0.200 F 
ATOM     82  F   UNL A   1      40.784  25.620  25.401  1.00  0.00    -0.200 F 
ENDBRANCH  48  72
BRANCH  60  83
ATOM     83  C   UNL A   1      43.726  28.426  34.741  1.00  0.00     0.064 A 
ATOM     84  C   UNL A   1      43.551  27.210  35.415  1.00  0.00     0.173 A 
ATOM     85  C   UNL A   1      45.035  28.887  34.537  1.00  0.00     0.173 A 
ATOM     86  F   UNL A   1      42.316  26.740  35.648  1.00  0.00    -0.203 F 
ATOM     87  C   UNL A   1      44.646  26.486  35.878  1.00  0.00     0.198 A 
ATOM     88  C   UNL A   1      46.128  28.150  34.980  1.00  0.00     0.198 A 
ATOM     89  F   UNL A   1      45.253  30.044  33.893  1.00  0.00    -0.203 F 
ATOM     90  F   UNL A   1      44.455  25.343  36.549  1.00  0.00    -0.200 F 
ATOM     91  C   UNL A   1      45.933  26.953  35.653  1.00  0.00     0.200 A 
ATOM     92  F   UNL A   1      47.372  28.594  34.752  1.00  0.00    -0.200 F 
ATOM     93  F   UNL A   1      46.987  26.249  36.090  1.00  0.00    -0.200 F 
ENDBRANCH  60  83
ENDBRANCH  34  35
ENDBRANCH  26  29
ENDBRANCH  24  25
ENDBRANCH  23  24
ENDBRANCH   1  23
TORSDOF 13
ENDMDL
MODEL 3
REMARK VINA RESULT:     -12.8      1.638      2.877
REMARK SMILES C[C@H]1[C@H]([NH+]2CCC(CC(=O)NCCCCNC(=O)c3ccc(-c4c5nc(c(-c6c(F)c(F)c(F)c(F)c6F)c6ccc([nH]6)c(-c6c(F)c(F)c(F)c(F)c6F)c6nc(c(-c7c(F)c(F)c(F)c(F)c7F)c7ccc4[nH]7)C=C6)C=C5)cc3)CC2)CCC[C@@H]1C
REMARK SMILES IDX 13 1 12 2 11 3 9 4 10 5 8 7 7 8 4 9 5 10 83 11 6 13 82 14
REMARK SMILES IDX 3 15 1 16 2 17 87 18 84 19 86 20 88 21 85 22 14 23 15 24
REMARK SMILES IDX 16 25 17 26 18 28 19 29 20 30 81 31 21 32 80 33 22 34 23 35
REMARK SMILES IDX 24 36 74 37 25 38 79 39 73 40 75 41 26 42 78 43 72 44 71 45
REMARK SMILES IDX 27 47 59 48 39 49 58 50 40 51 43 52 57 53 76 54 41 55 42 56
REMARK SMILES IDX 56 58 77 59 44 60 28 61 29 62 37 63 30 64 31 65 35 66 38 67
REMARK SMILES IDX 32 68 33 69 36 70 34 71 60 72 61 73 69 74 62 75 63 76 67 77
REMARK SMILES IDX 70 78 64 79 65 80 68 81 66 82 45 83 46 84 54 85 47 86 48 87
REMARK SMILES IDX 52 88 55 89 49 90 50 91 53 92 51 93
REMARK H PARENT 11 6 4 12 16 27 75 46 43 57
REMARK Flexibility Score: inf
ROOT
ATOM      1  C   UNL A   1      33.030  29.825  26.629  1.00  0.00     0.023 C 
ENDROOT
BRANCH   1   2
ATOM      2  C   UNL A   1      33.026  29.387  25.158  1.00  0.00     0.116 C 
BRANCH   2   3
ATOM      3  N   UNL A   1      31.781  29.747  24.500  1.00  0.00    -0.356 N 
ATOM      4  C   UNL A   1      30.732  28.978  24.091  1.00  0.00     0.220 C 
ATOM      5  O   UNL A   1      29.813  29.529  23.483  1.00  0.00    -0.275 OA
ATOM      6  H   UNL A   1      31.679  30.709  24.319  1.00  0.00     0.163 HD
BRANCH   4   7
ATOM      7  C   UNL A   1      30.679  27.489  24.387  1.00  0.00     0.104 C 
BRANCH   7   8
ATOM      8  C   UNL A   1      31.040  26.577  23.189  1.00  0.00     0.009 C 
ATOM      9  N   UNL A   1      33.250  24.659  22.604  1.00  0.00    -0.332 N 
ATOM     10  C   UNL A   1      31.898  24.170  22.844  1.00  0.00     0.262 C 
ATOM     11  C   UNL A   1      33.233  25.929  21.907  1.00  0.00     0.262 C 
ATOM     12  H   UNL A   1      33.651  23.981  21.956  1.00  0.00     0.348 HD
ATOM     13  C   UNL A   1      31.010  25.113  23.652  1.00  0.00     0.066 C 
ATOM     14  C   UNL A   1      32.381  26.993  22.584  1.00  0.00     0.066 C 
BRANCH   9  15
ATOM     15  C   UNL A   1      34.345  24.361  23.557  1.00  0.00     0.187 C 
ATOM     16  C   UNL A   1      33.817  25.581  25.762  1.00  0.00     0.014 C 
ATOM     17  C   UNL A   1      33.974  24.210  25.071  1.00  0.00     0.047 C 
ATOM     18  C   UNL A   1      34.960  23.378  25.940  1.00  0.00    -0.006 C 
ATOM     19  C   UNL A   1      35.137  23.167  22.975  1.00  0.00     0.065 C 
ATOM     20  C   UNL A   1      35.535  22.170  25.209  1.00  0.00     0.004 C 
ATOM     21  C   UNL A   1      34.305  22.935  27.263  1.00  0.00     0.008 C 
ATOM     22  C   UNL A   1      36.194  22.617  23.918  1.00  0.00     0.006 C 
ENDBRANCH   9  15
ENDBRANCH   7   8
ENDBRANCH   4   7
ENDBRANCH   2   3
ENDBRANCH   1   2
BRANCH   1  23
ATOM     23  C   UNL A   1      32.355  31.158  26.901  1.00  0.00     0.023 C 
BRANCH  23  24
ATOM     24  C   UNL A   1      33.249  32.167  27.602  1.00  0.00     0.116 C 
BRANCH  24  25
ATOM     25  N   UNL A   1      32.667  33.503  27.694  1.00  0.00    -0.352 N 
ATOM     26  C   UNL A   1      33.063  34.561  28.481  1.00  0.00     0.251 C 
ATOM     27  H   UNL A   1      31.887  33.670  27.115  1.00  0.00     0.163 HD
ATOM     28  O   UNL A   1      32.426  35.609  28.505  1.00  0.00    -0.269 OA
BRANCH  26  29
ATOM     29  C   UNL A   1      34.245  34.386  29.350  1.00  0.00     0.039 A 
ATOM     30  C   UNL A   1      34.067  33.870  30.634  1.00  0.00     0.014 A 
ATOM     31  C   UNL A   1      35.525  34.586  28.831  1.00  0.00     0.014 A 
ATOM     32  C   UNL A   1      35.180  33.425  31.351  1.00  0.00     0.010 A 
ATOM     33  C   UNL A   1      36.618  34.055  29.503  1.00  0.00     0.010 A 
ATOM     34  C   UNL A   1      36.452  33.446  30.758  1.00  0.00    -0.014 A 
BRANCH  34  35
ATOM     35  C   UNL A   1      37.624  32.791  31.396  1.00  0.00     0.031 A 
ATOM     36  C   UNL A   1      38.275  31.612  30.731  1.00  0.00     0.074 A 
ATOM     37  C   UNL A   1      38.022  33.183  32.624  1.00  0.00     0.049 A 
ATOM     38  N   UNL A   1      39.204  30.814  31.190  1.00  0.00    -0.248 NA
ATOM     39  C   UNL A   1      37.788  31.259  29.388  1.00  0.00     0.031 C 
ATOM     40  C   UNL A   1      37.431  34.273  33.403  1.00  0.00     0.029 A 
ATOM     41  N   UNL A   1      39.009  32.692  33.444  1.00  0.00    -0.354 N 
ATOM     42  C   UNL A   1      39.386  29.849  30.209  1.00  0.00     0.074 A 
ATOM     43  C   UNL A   1      38.444  30.133  29.149  1.00  0.00     0.031 C 
ATOM     44  C   UNL A   1      38.080  34.383  34.573  1.00  0.00     0.029 A 
ATOM     45  C   UNL A   1      39.102  33.344  34.650  1.00  0.00     0.049 A 
ATOM     46  H   UNL A   1      39.595  31.943  33.192  1.00  0.00     0.167 HD
ATOM     47  C   UNL A   1      40.275  28.830  30.187  1.00  0.00     0.037 A 
ATOM     48  C   UNL A   1      39.909  33.121  35.704  1.00  0.00     0.037 A 
ATOM     49  C   UNL A   1      41.256  28.590  31.210  1.00  0.00     0.049 A 
ATOM     50  C   UNL A   1      40.895  31.985  35.645  1.00  0.00     0.074 A 
ATOM     51  C   UNL A   1      42.286  27.666  31.216  1.00  0.00     0.029 A 
ATOM     52  N   UNL A   1      41.328  29.282  32.409  1.00  0.00    -0.354 N 
ATOM     53  N   UNL A   1      41.119  31.135  34.673  1.00  0.00    -0.248 NA
ATOM     54  C   UNL A   1      41.732  31.770  36.835  1.00  0.00     0.031 C 
ATOM     55  C   UNL A   1      42.958  27.771  32.438  1.00  0.00     0.029 A 
ATOM     56  C   UNL A   1      42.366  28.781  33.178  1.00  0.00     0.049 A 
ATOM     57  H   UNL A   1      40.731  30.018  32.674  1.00  0.00     0.167 HD
ATOM     58  C   UNL A   1      42.132  30.300  35.123  1.00  0.00     0.074 A 
ATOM     59  C   UNL A   1      42.491  30.754  36.450  1.00  0.00     0.031 C 
ATOM     60  C   UNL A   1      42.710  29.249  34.495  1.00  0.00     0.037 A 
BRANCH  47  61
ATOM     61  C   UNL A   1      40.246  27.902  29.010  1.00  0.00     0.064 A 
ATOM     62  C   UNL A   1      40.984  28.168  27.848  1.00  0.00     0.173 A 
ATOM     63  C   UNL A   1      39.518  26.705  29.070  1.00  0.00     0.173 A 
ATOM     64  F   UNL A   1      41.686  29.306  27.739  1.00  0.00    -0.203 F 
ATOM     65  C   UNL A   1      40.978  27.277  26.778  1.00  0.00     0.198 A 
ATOM     66  C   UNL A   1      39.535  25.805  28.008  1.00  0.00     0.198 A 
ATOM     67  F   UNL A   1      38.799  26.404  30.162  1.00  0.00    -0.203 F 
ATOM     68  F   UNL A   1      41.661  27.569  25.662  1.00  0.00    -0.200 F 
ATOM     69  C   UNL A   1      40.261  26.093  26.862  1.00  0.00     0.200 A 
ATOM     70  F   UNL A   1      38.848  24.657  28.094  1.00  0.00    -0.200 F 
ATOM     71  F   UNL A   1      40.266  25.232  25.836  1.00  0.00    -0.200 F 
ENDBRANCH  47  61
BRANCH  48  72
ATOM     72  C   UNL A   1      39.833  33.988  36.909  1.00  0.00     0.064 A 
ATOM     73  C   UNL A   1      39.026  33.629  37.997  1.00  0.00     0.173 A 
ATOM     74  C   UNL A   1      40.536  35.199  36.988  1.00  0.00     0.173 A 
ATOM     75  F   UNL A   1      38.315  32.493  37.957  1.00  0.00    -0.203 F 
ATOM     76  C   UNL A   1      38.906  34.459  39.110  1.00  0.00     0.198 A 
ATOM     77  C   UNL A   1      40.435  36.016  38.113  1.00  0.00     0.198 A 
ATOM     78  F   UNL A   1      41.322  35.588  35.974  1.00  0.00    -0.203 F 
ATOM     79  F   UNL A   1      38.090  34.115  40.115  1.00  0.00    -0.200 F 
ATOM     80  C   UNL A   1      39.614  35.650  39.169  1.00  0.00     0.200 A 
ATOM     81  F   UNL A   1      41.127  37.162  38.169  1.00  0.00    -0.200 F 
ATOM     82  F   UNL A   1      39.496  36.450  40.237  1.00  0.00    -0.200 F 
ENDBRANCH  48  72
BRANCH  60  83
ATOM     83  C   UNL A   1      43.797  28.524  35.228  1.00  0.00     0.064 A 
ATOM     84  C   UNL A   1      43.507  27.454  36.086  1.00  0.00     0.173 A 
ATOM     85  C   UNL A   1      45.142  28.866  35.029  1.00  0.00     0.173 A 
ATOM     86  F   UNL A   1      42.234  27.102  36.320  1.00  0.00    -0.203 F 
ATOM     87  C   UNL A   1      44.527  26.759  36.730  1.00  0.00     0.198 A 
ATOM     88  C   UNL A   1      46.160  28.155  35.656  1.00  0.00     0.198 A 
ATOM     89  F   UNL A   1      45.469  29.881  34.214  1.00  0.00    -0.203 F 
ATOM     90  F   UNL A   1      44.227  25.761  37.571  1.00  0.00    -0.200 F 
ATOM     91  C   UNL A   1      45.853  27.105  36.507  1.00  0.00     0.200 A 
ATOM     92  F   UNL A   1      47.441  28.482  35.431  1.00  0.00    -0.200 F 
ATOM     93  F   UNL A   1      46.833  26.428  37.120  1.00  0.00    -0.200 F 
ENDBRANCH  60  83
ENDBRANCH  34  35
ENDBRANCH  26  29
ENDBRANCH  24  25
ENDBRANCH  23  24
ENDBRANCH   1  23
TORSDOF 13
ENDMDL
