MODEL 1
REMARK VINA RESULT:     -11.7      0.000      0.000
REMARK SMILES COc1cc(OC)cc(C(=O)C[C@H](C)CC(=O)NCCCCNC(=O)c2ccc(-c3c4nc(c(-c5c(F)c(F)c(F)c(F)c5F)c5ccc([nH]5)c(-c5c(F)c(F)c(F)c(F)c5F)c5nc(c(-c6c(F)c(F)c(F)c(F)c6F)c6ccc3[nH]6)C=C5)C=C4)cc2)c1
REMARK SMILES IDX 19 1 18 2 16 3 17 4 15 6 13 7 14 8 12 9 10 10 11 11 9 12
REMARK SMILES IDX 3 13 4 14 89 15 5 16 8 17 2 18 1 19 6 20 7 21 20 22 21 23
REMARK SMILES IDX 22 24 23 25 24 26 25 28 26 29 27 30 88 31 28 32 87 33 29 34
REMARK SMILES IDX 30 35 31 36 81 37 32 38 86 39 80 40 82 41 33 42 85 43 79 44
REMARK SMILES IDX 78 45 34 47 66 48 46 49 65 50 47 51 50 52 64 53 83 54 48 55
REMARK SMILES IDX 49 56 63 58 84 59 51 60 35 61 36 62 44 63 37 64 38 65 42 66
REMARK SMILES IDX 45 67 39 68 40 69 43 70 41 71 67 72 68 73 76 74 69 75 70 76
REMARK SMILES IDX 74 77 77 78 71 79 72 80 75 81 73 82 52 83 53 84 61 85 54 86
REMARK SMILES IDX 55 87 59 88 62 89 56 90 57 91 60 92 58 93
REMARK H PARENT 18 5 23 27 82 46 50 57
REMARK Flexibility Score: inf
ROOT
ATOM      1  C   UNL A   1      33.331  29.731  26.160  1.00  0.00     0.116 C 
ENDROOT
BRANCH   1   2
ATOM      2  N   UNL A   1      33.204  29.776  24.719  1.00  0.00    -0.356 N 
ATOM      3  C   UNL A   1      32.827  28.783  23.870  1.00  0.00     0.220 C 
ATOM      4  O   UNL A   1      32.930  28.966  22.655  1.00  0.00    -0.275 OA
ATOM      5  H   UNL A   1      33.418  30.640  24.299  1.00  0.00     0.163 HD
BRANCH   3   6
ATOM      6  C   UNL A   1      32.279  27.475  24.410  1.00  0.00     0.103 C 
BRANCH   6   7
ATOM      7  C   UNL A   1      33.269  26.306  24.268  1.00  0.00     0.003 C 
ATOM      8  C   UNL A   1      34.066  26.023  25.546  1.00  0.00     0.008 C 
BRANCH   7   9
ATOM      9  C   UNL A   1      32.523  25.027  23.847  1.00  0.00     0.085 C 
BRANCH   9  10
ATOM     10  C   UNL A   1      33.467  24.066  23.148  1.00  0.00     0.163 C 
ATOM     11  O   UNL A   1      33.942  24.341  22.048  1.00  0.00    -0.294 OA
BRANCH  10  12
ATOM     12  C   UNL A   1      33.795  22.757  23.798  1.00  0.00     0.025 A 
ATOM     13  C   UNL A   1      35.351  21.202  24.813  1.00  0.00     0.123 A 
ATOM     14  C   UNL A   1      34.308  20.293  24.987  1.00  0.00     0.092 A 
ATOM     15  C   UNL A   1      35.096  22.428  24.201  1.00  0.00     0.058 A 
ATOM     16  C   UNL A   1      33.007  20.606  24.586  1.00  0.00     0.123 A 
ATOM     17  C   UNL A   1      32.750  21.847  24.006  1.00  0.00     0.058 A 
BRANCH  13  18
ATOM     18  O   UNL A   1      36.583  20.779  25.231  1.00  0.00    -0.497 OA
ATOM     19  C   UNL A   1      37.664  21.679  24.997  1.00  0.00     0.278 C 
ENDBRANCH  13  18
BRANCH  16  20
ATOM     20  O   UNL A   1      32.079  19.628  24.817  1.00  0.00    -0.497 OA
ATOM     21  C   UNL A   1      32.491  18.289  24.562  1.00  0.00     0.278 C 
ENDBRANCH  16  20
ENDBRANCH  10  12
ENDBRANCH   9  10
ENDBRANCH   7   9
ENDBRANCH   6   7
ENDBRANCH   3   6
ENDBRANCH   1   2
BRANCH   1  22
ATOM     22  C   UNL A   1      32.060  30.253  26.825  1.00  0.00     0.023 C 
BRANCH  22  23
ATOM     23  C   UNL A   1      31.830  31.752  26.696  1.00  0.00     0.023 C 
BRANCH  23  24
ATOM     24  C   UNL A   1      32.861  32.620  27.395  1.00  0.00     0.116 C 
BRANCH  24  25
ATOM     25  N   UNL A   1      32.420  33.987  27.637  1.00  0.00    -0.352 N 
ATOM     26  C   UNL A   1      32.949  34.898  28.521  1.00  0.00     0.251 C 
ATOM     27  H   UNL A   1      31.651  34.296  27.105  1.00  0.00     0.163 HD
ATOM     28  O   UNL A   1      32.435  35.999  28.679  1.00  0.00    -0.269 OA
BRANCH  26  29
ATOM     29  C   UNL A   1      34.125  34.499  29.318  1.00  0.00     0.039 A 
ATOM     30  C   UNL A   1      33.923  33.885  30.555  1.00  0.00     0.014 A 
ATOM     31  C   UNL A   1      35.410  34.640  28.790  1.00  0.00     0.014 A 
ATOM     32  C   UNL A   1      35.014  33.339  31.232  1.00  0.00     0.010 A 
ATOM     33  C   UNL A   1      36.479  34.020  29.422  1.00  0.00     0.010 A 
ATOM     34  C   UNL A   1      36.292  33.364  30.649  1.00  0.00    -0.014 A 
BRANCH  34  35
ATOM     35  C   UNL A   1      37.454  32.719  31.307  1.00  0.00     0.031 A 
ATOM     36  C   UNL A   1      38.147  31.571  30.629  1.00  0.00     0.074 A 
ATOM     37  C   UNL A   1      37.821  33.105  32.544  1.00  0.00     0.049 A 
ATOM     38  N   UNL A   1      39.112  30.808  31.075  1.00  0.00    -0.248 NA
ATOM     39  C   UNL A   1      37.664  31.204  29.287  1.00  0.00     0.031 C 
ATOM     40  C   UNL A   1      37.174  34.154  33.334  1.00  0.00     0.029 A 
ATOM     41  N   UNL A   1      38.819  32.642  33.365  1.00  0.00    -0.354 N 
ATOM     42  C   UNL A   1      39.324  29.856  30.087  1.00  0.00     0.074 A 
ATOM     43  C   UNL A   1      38.361  30.106  29.037  1.00  0.00     0.031 C 
ATOM     44  C   UNL A   1      37.800  34.265  34.518  1.00  0.00     0.029 A 
ATOM     45  C   UNL A   1      38.872  33.276  34.583  1.00  0.00     0.049 A 
ATOM     46  H   UNL A   1      39.439  31.923  33.106  1.00  0.00     0.167 HD
ATOM     47  C   UNL A   1      40.257  28.876  30.050  1.00  0.00     0.037 A 
ATOM     48  C   UNL A   1      39.690  33.077  35.632  1.00  0.00     0.037 A 
ATOM     49  C   UNL A   1      41.255  28.676  31.064  1.00  0.00     0.049 A 
ATOM     50  C   UNL A   1      40.762  32.024  35.533  1.00  0.00     0.074 A 
ATOM     51  C   UNL A   1      42.313  27.785  31.068  1.00  0.00     0.029 A 
ATOM     52  N   UNL A   1      41.323  29.386  32.253  1.00  0.00    -0.354 N 
ATOM     53  N   UNL A   1      41.016  31.192  34.551  1.00  0.00    -0.248 NA
ATOM     54  C   UNL A   1      41.669  31.888  36.682  1.00  0.00     0.031 C 
ATOM     55  C   UNL A   1      43.002  27.931  32.277  1.00  0.00     0.029 A 
ATOM     56  C   UNL A   1      42.395  28.941  33.007  1.00  0.00     0.049 A 
ATOM     57  H   UNL A   1      40.701  30.101  32.521  1.00  0.00     0.167 HD
ATOM     58  C   UNL A   1      42.123  30.457  34.951  1.00  0.00     0.074 A 
ATOM     59  C   UNL A   1      42.504  30.951  36.257  1.00  0.00     0.031 C 
ATOM     60  C   UNL A   1      42.766  29.459  34.298  1.00  0.00     0.037 A 
BRANCH  47  61
ATOM     61  C   UNL A   1      40.257  27.953  28.868  1.00  0.00     0.064 A 
ATOM     62  C   UNL A   1      40.978  28.251  27.703  1.00  0.00     0.173 A 
ATOM     63  C   UNL A   1      39.576  26.729  28.926  1.00  0.00     0.173 A 
ATOM     64  F   UNL A   1      41.633  29.417  27.593  1.00  0.00    -0.203 F 
ATOM     65  C   UNL A   1      41.000  27.365  26.630  1.00  0.00     0.198 A 
ATOM     66  C   UNL A   1      39.623  25.832  27.862  1.00  0.00     0.198 A 
ATOM     67  F   UNL A   1      38.873  26.396  30.020  1.00  0.00    -0.203 F 
ATOM     68  F   UNL A   1      41.664  27.687  25.511  1.00  0.00    -0.200 F 
ATOM     69  C   UNL A   1      40.331  26.153  26.714  1.00  0.00     0.200 A 
ATOM     70  F   UNL A   1      38.984  24.658  27.948  1.00  0.00    -0.200 F 
ATOM     71  F   UNL A   1      40.366  25.294  25.685  1.00  0.00    -0.200 F 
ENDBRANCH  47  61
BRANCH  48  72
ATOM     72  C   UNL A   1      39.551  33.901  36.860  1.00  0.00     0.064 A 
ATOM     73  C   UNL A   1      38.781  33.455  37.944  1.00  0.00     0.173 A 
ATOM     74  C   UNL A   1      40.160  35.159  36.967  1.00  0.00     0.173 A 
ATOM     75  F   UNL A   1      38.162  32.267  37.881  1.00  0.00    -0.203 F 
ATOM     76  C   UNL A   1      38.600  34.250  39.075  1.00  0.00     0.198 A 
ATOM     77  C   UNL A   1      40.001  35.941  38.110  1.00  0.00     0.198 A 
ATOM     78  F   UNL A   1      40.913  35.629  35.962  1.00  0.00    -0.203 F 
ATOM     79  F   UNL A   1      37.813  33.822  40.072  1.00  0.00    -0.200 F 
ATOM     80  C   UNL A   1      39.212  35.490  39.158  1.00  0.00     0.200 A 
ATOM     81  F   UNL A   1      40.605  37.134  38.192  1.00  0.00    -0.200 F 
ATOM     82  F   UNL A   1      39.034  36.257  40.243  1.00  0.00    -0.200 F 
ENDBRANCH  48  72
BRANCH  60  83
ATOM     83  C   UNL A   1      43.965  28.861  34.967  1.00  0.00     0.064 A 
ATOM     84  C   UNL A   1      43.857  27.730  35.788  1.00  0.00     0.173 A 
ATOM     85  C   UNL A   1      45.242  29.395  34.745  1.00  0.00     0.173 A 
ATOM     86  F   UNL A   1      42.654  27.192  36.042  1.00  0.00    -0.203 F 
ATOM     87  C   UNL A   1      44.983  27.168  36.382  1.00  0.00     0.198 A 
ATOM     88  C   UNL A   1      46.370  28.815  35.318  1.00  0.00     0.198 A 
ATOM     89  F   UNL A   1      45.397  30.472  33.959  1.00  0.00    -0.203 F 
ATOM     90  F   UNL A   1      44.853  26.113  37.197  1.00  0.00    -0.200 F 
ATOM     91  C   UNL A   1      46.239  27.707  36.139  1.00  0.00     0.200 A 
ATOM     92  F   UNL A   1      47.583  29.328  35.072  1.00  0.00    -0.200 F 
ATOM     93  F   UNL A   1      47.323  27.160  36.706  1.00  0.00    -0.200 F 
ENDBRANCH  60  83
ENDBRANCH  34  35
ENDBRANCH  26  29
ENDBRANCH  24  25
ENDBRANCH  23  24
ENDBRANCH  22  23
ENDBRANCH   1  22
TORSDOF 17
ENDMDL
MODEL 2
REMARK VINA RESULT:     -11.4      0.881      2.247
REMARK SMILES COc1cc(OC)cc(C(=O)C[C@H](C)CC(=O)NCCCCNC(=O)c2ccc(-c3c4nc(c(-c5c(F)c(F)c(F)c(F)c5F)c5ccc([nH]5)c(-c5c(F)c(F)c(F)c(F)c5F)c5nc(c(-c6c(F)c(F)c(F)c(F)c6F)c6ccc3[nH]6)C=C5)C=C4)cc2)c1
REMARK SMILES IDX 19 1 18 2 16 3 17 4 15 6 13 7 14 8 12 9 10 10 11 11 9 12
REMARK SMILES IDX 3 13 4 14 89 15 5 16 8 17 2 18 1 19 6 20 7 21 20 22 21 23
REMARK SMILES IDX 22 24 23 25 24 26 25 28 26 29 27 30 88 31 28 32 87 33 29 34
REMARK SMILES IDX 30 35 31 36 81 37 32 38 86 39 80 40 82 41 33 42 85 43 79 44
REMARK SMILES IDX 78 45 34 47 66 48 46 49 65 50 47 51 50 52 64 53 83 54 48 55
REMARK SMILES IDX 49 56 63 58 84 59 51 60 35 61 36 62 44 63 37 64 38 65 42 66
REMARK SMILES IDX 45 67 39 68 40 69 43 70 41 71 67 72 68 73 76 74 69 75 70 76
REMARK SMILES IDX 74 77 77 78 71 79 72 80 75 81 73 82 52 83 53 84 61 85 54 86
REMARK SMILES IDX 55 87 59 88 62 89 56 90 57 91 60 92 58 93
REMARK H PARENT 18 5 23 27 82 46 50 57
REMARK Flexibility Score: inf
ROOT
ATOM      1  C   UNL A   1      33.005  29.412  27.260  1.00  0.00     0.116 C 
ENDROOT
BRANCH   1   2
ATOM      2  N   UNL A   1      32.175  28.233  27.387  1.00  0.00    -0.356 N 
ATOM      3  C   UNL A   1      32.297  27.037  26.751  1.00  0.00     0.220 C 
ATOM      4  O   UNL A   1      31.398  26.203  26.872  1.00  0.00    -0.275 OA
ATOM      5  H   UNL A   1      31.422  28.308  28.018  1.00  0.00     0.163 HD
BRANCH   3   6
ATOM      6  C   UNL A   1      33.526  26.733  25.915  1.00  0.00     0.103 C 
BRANCH   6   7
ATOM      7  C   UNL A   1      33.185  26.365  24.460  1.00  0.00     0.003 C 
ATOM      8  C   UNL A   1      33.646  27.414  23.441  1.00  0.00     0.008 C 
BRANCH   7   9
ATOM      9  C   UNL A   1      33.806  25.004  24.097  1.00  0.00     0.085 C 
BRANCH   9  10
ATOM     10  C   UNL A   1      32.783  23.894  24.250  1.00  0.00     0.163 C 
ATOM     11  O   UNL A   1      31.579  24.140  24.205  1.00  0.00    -0.294 OA
BRANCH  10  12
ATOM     12  C   UNL A   1      33.251  22.492  24.489  1.00  0.00     0.025 A 
ATOM     13  C   UNL A   1      32.856  20.113  24.714  1.00  0.00     0.123 A 
ATOM     14  C   UNL A   1      34.216  19.923  24.953  1.00  0.00     0.092 A 
ATOM     15  C   UNL A   1      32.371  21.401  24.500  1.00  0.00     0.058 A 
ATOM     16  C   UNL A   1      35.104  21.001  24.949  1.00  0.00     0.123 A 
ATOM     17  C   UNL A   1      34.621  22.284  24.700  1.00  0.00     0.058 A 
BRANCH  13  18
ATOM     18  O   UNL A   1      32.082  18.984  24.758  1.00  0.00    -0.497 OA
ATOM     19  C   UNL A   1      32.659  17.859  25.417  1.00  0.00     0.278 C 
ENDBRANCH  13  18
BRANCH  16  20
ATOM     20  O   UNL A   1      36.410  20.676  25.194  1.00  0.00    -0.497 OA
ATOM     21  C   UNL A   1      37.392  21.592  24.720  1.00  0.00     0.278 C 
ENDBRANCH  16  20
ENDBRANCH  10  12
ENDBRANCH   9  10
ENDBRANCH   7   9
ENDBRANCH   6   7
ENDBRANCH   3   6
ENDBRANCH   1   2
BRANCH   1  22
ATOM     22  C   UNL A   1      32.386  30.398  26.274  1.00  0.00     0.023 C 
BRANCH  22  23
ATOM     23  C   UNL A   1      31.868  31.691  26.888  1.00  0.00     0.023 C 
BRANCH  23  24
ATOM     24  C   UNL A   1      32.941  32.613  27.439  1.00  0.00     0.116 C 
BRANCH  24  25
ATOM     25  N   UNL A   1      32.487  33.974  27.683  1.00  0.00    -0.352 N 
ATOM     26  C   UNL A   1      33.002  34.886  28.573  1.00  0.00     0.251 C 
ATOM     27  H   UNL A   1      31.718  34.277  27.148  1.00  0.00     0.163 HD
ATOM     28  O   UNL A   1      32.476  35.982  28.732  1.00  0.00    -0.269 OA
BRANCH  26  29
ATOM     29  C   UNL A   1      34.177  34.496  29.375  1.00  0.00     0.039 A 
ATOM     30  C   UNL A   1      33.976  33.957  30.647  1.00  0.00     0.014 A 
ATOM     31  C   UNL A   1      35.458  34.568  28.822  1.00  0.00     0.014 A 
ATOM     32  C   UNL A   1      35.060  33.415  31.338  1.00  0.00     0.010 A 
ATOM     33  C   UNL A   1      36.518  33.951  29.473  1.00  0.00     0.010 A 
ATOM     34  C   UNL A   1      36.329  33.369  30.738  1.00  0.00    -0.014 A 
BRANCH  34  35
ATOM     35  C   UNL A   1      37.481  32.726  31.414  1.00  0.00     0.031 A 
ATOM     36  C   UNL A   1      38.173  31.565  30.757  1.00  0.00     0.074 A 
ATOM     37  C   UNL A   1      37.839  33.125  32.650  1.00  0.00     0.049 A 
ATOM     38  N   UNL A   1      39.130  30.802  31.221  1.00  0.00    -0.248 NA
ATOM     39  C   UNL A   1      37.701  31.184  29.416  1.00  0.00     0.031 C 
ATOM     40  C   UNL A   1      37.191  34.188  33.420  1.00  0.00     0.029 A 
ATOM     41  N   UNL A   1      38.827  32.667  33.485  1.00  0.00    -0.354 N 
ATOM     42  C   UNL A   1      39.346  29.836  30.248  1.00  0.00     0.074 A 
ATOM     43  C   UNL A   1      38.394  30.079  29.186  1.00  0.00     0.031 C 
ATOM     44  C   UNL A   1      37.806  34.310  34.608  1.00  0.00     0.029 A 
ATOM     45  C   UNL A   1      38.872  33.315  34.695  1.00  0.00     0.049 A 
ATOM     46  H   UNL A   1      39.445  31.941  33.241  1.00  0.00     0.167 HD
ATOM     47  C   UNL A   1      40.272  28.851  30.231  1.00  0.00     0.037 A 
ATOM     48  C   UNL A   1      39.680  33.125  35.755  1.00  0.00     0.037 A 
ATOM     49  C   UNL A   1      41.260  28.658  31.257  1.00  0.00     0.049 A 
ATOM     50  C   UNL A   1      40.746  32.064  35.679  1.00  0.00     0.074 A 
ATOM     51  C   UNL A   1      42.313  27.761  31.282  1.00  0.00     0.029 A 
ATOM     52  N   UNL A   1      41.321  29.382  32.438  1.00  0.00    -0.354 N 
ATOM     53  N   UNL A   1      41.004  31.219  34.710  1.00  0.00    -0.248 NA
ATOM     54  C   UNL A   1      41.641  31.938  36.838  1.00  0.00     0.031 C 
ATOM     55  C   UNL A   1      42.991  27.917  32.495  1.00  0.00     0.029 A 
ATOM     56  C   UNL A   1      42.383  28.940  33.207  1.00  0.00     0.049 A 
ATOM     57  H   UNL A   1      40.702  30.104  32.691  1.00  0.00     0.167 HD
ATOM     58  C   UNL A   1      42.102  30.482  35.129  1.00  0.00     0.074 A 
ATOM     59  C   UNL A   1      42.475  30.990  36.433  1.00  0.00     0.031 C 
ATOM     60  C   UNL A   1      42.745  29.473  34.495  1.00  0.00     0.037 A 
BRANCH  47  61
ATOM     61  C   UNL A   1      40.278  27.913  29.061  1.00  0.00     0.064 A 
ATOM     62  C   UNL A   1      39.538  26.723  29.070  1.00  0.00     0.173 A 
ATOM     63  C   UNL A   1      40.987  28.240  27.896  1.00  0.00     0.173 A 
ATOM     64  F   UNL A   1      38.855  26.358  30.166  1.00  0.00    -0.203 F 
ATOM     65  C   UNL A   1      39.522  25.883  27.959  1.00  0.00     0.198 A 
ATOM     66  C   UNL A   1      40.947  27.411  26.778  1.00  0.00     0.198 A 
ATOM     67  F   UNL A   1      41.709  29.369  27.838  1.00  0.00    -0.203 F 
ATOM     68  F   UNL A   1      38.838  24.731  28.003  1.00  0.00    -0.200 F 
ATOM     69  C   UNL A   1      40.218  26.232  26.813  1.00  0.00     0.200 A 
ATOM     70  F   UNL A   1      41.613  27.755  25.667  1.00  0.00    -0.200 F 
ATOM     71  F   UNL A   1      40.190  25.429  25.739  1.00  0.00    -0.200 F 
ENDBRANCH  47  61
BRANCH  48  72
ATOM     72  C   UNL A   1      39.534  33.965  36.971  1.00  0.00     0.064 A 
ATOM     73  C   UNL A   1      38.793  33.515  38.074  1.00  0.00     0.173 A 
ATOM     74  C   UNL A   1      40.108  35.241  37.049  1.00  0.00     0.173 A 
ATOM     75  F   UNL A   1      38.207  32.309  38.039  1.00  0.00    -0.203 F 
ATOM     76  C   UNL A   1      38.605  34.324  39.194  1.00  0.00     0.198 A 
ATOM     77  C   UNL A   1      39.942  36.038  38.180  1.00  0.00     0.198 A 
ATOM     78  F   UNL A   1      40.833  35.716  36.025  1.00  0.00    -0.203 F 
ATOM     79  F   UNL A   1      37.845  33.890  40.209  1.00  0.00    -0.200 F 
ATOM     80  C   UNL A   1      39.182  35.582  39.248  1.00  0.00     0.200 A 
ATOM     81  F   UNL A   1      40.513  37.249  38.234  1.00  0.00    -0.200 F 
ATOM     82  F   UNL A   1      38.997  36.361  40.323  1.00  0.00    -0.200 F 
ENDBRANCH  48  72
BRANCH  60  83
ATOM     83  C   UNL A   1      43.935  28.875  35.182  1.00  0.00     0.064 A 
ATOM     84  C   UNL A   1      45.223  29.399  35.004  1.00  0.00     0.173 A 
ATOM     85  C   UNL A   1      43.776  27.798  36.066  1.00  0.00     0.173 A 
ATOM     86  F   UNL A   1      45.426  30.419  34.157  1.00  0.00    -0.203 F 
ATOM     87  C   UNL A   1      46.315  28.850  35.670  1.00  0.00     0.198 A 
ATOM     88  C   UNL A   1      44.866  27.269  36.752  1.00  0.00     0.198 A 
ATOM     89  F   UNL A   1      42.561  27.268  36.276  1.00  0.00    -0.203 F 
ATOM     90  F   UNL A   1      47.544  29.337  35.454  1.00  0.00    -0.200 F 
ATOM     91  C   UNL A   1      46.134  27.791  36.549  1.00  0.00     0.200 A 
ATOM     92  F   UNL A   1      44.687  26.256  37.611  1.00  0.00    -0.200 F 
ATOM     93  F   UNL A   1      47.185  27.270  37.196  1.00  0.00    -0.200 F 
ENDBRANCH  60  83
ENDBRANCH  34  35
ENDBRANCH  26  29
ENDBRANCH  24  25
ENDBRANCH  23  24
ENDBRANCH  22  23
ENDBRANCH   1  22
TORSDOF 17
ENDMDL
MODEL 3
REMARK VINA RESULT:     -11.4      1.192      7.505
REMARK SMILES COc1cc(OC)cc(C(=O)C[C@H](C)CC(=O)NCCCCNC(=O)c2ccc(-c3c4nc(c(-c5c(F)c(F)c(F)c(F)c5F)c5ccc([nH]5)c(-c5c(F)c(F)c(F)c(F)c5F)c5nc(c(-c6c(F)c(F)c(F)c(F)c6F)c6ccc3[nH]6)C=C5)C=C4)cc2)c1
REMARK SMILES IDX 19 1 18 2 16 3 17 4 15 6 13 7 14 8 12 9 10 10 11 11 9 12
REMARK SMILES IDX 3 13 4 14 89 15 5 16 8 17 2 18 1 19 6 20 7 21 20 22 21 23
REMARK SMILES IDX 22 24 23 25 24 26 25 28 26 29 27 30 88 31 28 32 87 33 29 34
REMARK SMILES IDX 30 35 31 36 81 37 32 38 86 39 80 40 82 41 33 42 85 43 79 44
REMARK SMILES IDX 78 45 34 47 66 48 46 49 65 50 47 51 50 52 64 53 83 54 48 55
REMARK SMILES IDX 49 56 63 58 84 59 51 60 35 61 36 62 44 63 37 64 38 65 42 66
REMARK SMILES IDX 45 67 39 68 40 69 43 70 41 71 67 72 68 73 76 74 69 75 70 76
REMARK SMILES IDX 74 77 77 78 71 79 72 80 75 81 73 82 52 83 53 84 61 85 54 86
REMARK SMILES IDX 55 87 59 88 62 89 56 90 57 91 60 92 58 93
REMARK H PARENT 18 5 23 27 82 46 50 57
REMARK Flexibility Score: inf
ROOT
ATOM      1  C   UNL A   1      32.350  29.461  27.251  1.00  0.00     0.116 C 
ENDROOT
BRANCH   1   2
ATOM      2  N   UNL A   1      31.448  28.329  27.236  1.00  0.00    -0.356 N 
ATOM      3  C   UNL A   1      31.504  27.209  26.466  1.00  0.00     0.220 C 
ATOM      4  O   UNL A   1      30.554  26.424  26.486  1.00  0.00    -0.275 OA
ATOM      5  H   UNL A   1      30.694  28.376  27.868  1.00  0.00     0.163 HD
BRANCH   3   6
ATOM      6  C   UNL A   1      32.721  26.927  25.605  1.00  0.00     0.103 C 
BRANCH   6   7
ATOM      7  C   UNL A   1      32.799  25.463  25.138  1.00  0.00     0.003 C 
ATOM      8  C   UNL A   1      33.400  25.301  23.737  1.00  0.00     0.008 C 
BRANCH   7   9
ATOM      9  C   UNL A   1      33.621  24.631  26.137  1.00  0.00     0.085 C 
BRANCH   9  10
ATOM     10  C   UNL A   1      32.902  23.336  26.469  1.00  0.00     0.163 C 
ATOM     11  O   UNL A   1      31.922  23.334  27.211  1.00  0.00    -0.294 OA
BRANCH  10  12
ATOM     12  C   UNL A   1      33.415  22.047  25.907  1.00  0.00     0.025 A 
ATOM     13  C   UNL A   1      35.209  20.606  25.146  1.00  0.00     0.123 A 
ATOM     14  C   UNL A   1      34.271  19.619  24.847  1.00  0.00     0.092 A 
ATOM     15  C   UNL A   1      34.778  21.828  25.659  1.00  0.00     0.058 A 
ATOM     16  C   UNL A   1      32.910  19.824  25.084  1.00  0.00     0.123 A 
ATOM     17  C   UNL A   1      32.486  21.035  25.630  1.00  0.00     0.058 A 
BRANCH  13  18
ATOM     18  O   UNL A   1      36.510  20.296  24.857  1.00  0.00    -0.497 OA
ATOM     19  C   UNL A   1      37.429  21.387  24.871  1.00  0.00     0.278 C 
ENDBRANCH  13  18
BRANCH  16  20
ATOM     20  O   UNL A   1      32.099  18.775  24.749  1.00  0.00    -0.497 OA
ATOM     21  C   UNL A   1      32.462  17.501  25.271  1.00  0.00     0.278 C 
ENDBRANCH  16  20
ENDBRANCH  10  12
ENDBRANCH   9  10
ENDBRANCH   7   9
ENDBRANCH   6   7
ENDBRANCH   3   6
ENDBRANCH   1   2
BRANCH   1  22
ATOM     22  C   UNL A   1      31.887  30.526  26.261  1.00  0.00     0.023 C 
BRANCH  22  23
ATOM     23  C   UNL A   1      31.534  31.872  26.876  1.00  0.00     0.023 C 
BRANCH  23  24
ATOM     24  C   UNL A   1      32.723  32.736  27.253  1.00  0.00     0.116 C 
BRANCH  24  25
ATOM     25  N   UNL A   1      32.380  34.116  27.566  1.00  0.00    -0.352 N 
ATOM     26  C   UNL A   1      32.964  34.938  28.501  1.00  0.00     0.251 C 
ATOM     27  H   UNL A   1      31.640  34.508  27.047  1.00  0.00     0.163 HD
ATOM     28  O   UNL A   1      32.529  36.063  28.715  1.00  0.00    -0.269 OA
BRANCH  26  29
ATOM     29  C   UNL A   1      34.100  34.413  29.282  1.00  0.00     0.039 A 
ATOM     30  C   UNL A   1      33.839  33.630  30.408  1.00  0.00     0.014 A 
ATOM     31  C   UNL A   1      35.409  34.611  28.836  1.00  0.00     0.014 A 
ATOM     32  C   UNL A   1      34.894  32.977  31.046  1.00  0.00     0.010 A 
ATOM     33  C   UNL A   1      36.444  33.892  29.418  1.00  0.00     0.010 A 
ATOM     34  C   UNL A   1      36.197  33.069  30.529  1.00  0.00    -0.014 A 
BRANCH  34  35
ATOM     35  C   UNL A   1      37.324  32.321  31.136  1.00  0.00     0.031 A 
ATOM     36  C   UNL A   1      37.813  32.698  32.506  1.00  0.00     0.074 A 
ATOM     37  C   UNL A   1      37.959  31.372  30.421  1.00  0.00     0.049 A 
ATOM     38  N   UNL A   1      38.842  32.240  33.172  1.00  0.00    -0.248 NA
ATOM     39  C   UNL A   1      37.072  33.761  33.205  1.00  0.00     0.031 C 
ATOM     40  C   UNL A   1      37.625  30.974  29.052  1.00  0.00     0.029 A 
ATOM     41  N   UNL A   1      39.035  30.583  30.741  1.00  0.00    -0.354 N 
ATOM     42  C   UNL A   1      38.890  32.981  34.345  1.00  0.00     0.074 A 
ATOM     43  C   UNL A   1      37.816  33.948  34.284  1.00  0.00     0.031 C 
ATOM     44  C   UNL A   1      38.468  30.006  28.655  1.00  0.00     0.029 A 
ATOM     45  C   UNL A   1      39.421  29.737  29.729  1.00  0.00     0.049 A 
ATOM     46  H   UNL A   1      39.489  30.620  31.613  1.00  0.00     0.167 HD
ATOM     47  C   UNL A   1      39.739  32.849  35.389  1.00  0.00     0.037 A 
ATOM     48  C   UNL A   1      40.431  28.849  29.675  1.00  0.00     0.037 A 
ATOM     49  C   UNL A   1      40.760  31.841  35.473  1.00  0.00     0.049 A 
ATOM     50  C   UNL A   1      41.317  28.677  30.880  1.00  0.00     0.074 A 
ATOM     51  C   UNL A   1      41.599  31.550  36.535  1.00  0.00     0.029 A 
ATOM     52  N   UNL A   1      41.075  30.952  34.457  1.00  0.00    -0.354 N 
ATOM     53  N   UNL A   1      41.291  29.318  32.024  1.00  0.00    -0.248 NA
ATOM     54  C   UNL A   1      42.366  27.651  30.792  1.00  0.00     0.031 C 
ATOM     55  C   UNL A   1      42.446  30.507  36.148  1.00  0.00     0.029 A 
ATOM     56  C   UNL A   1      42.107  30.123  34.860  1.00  0.00     0.049 A 
ATOM     57  H   UNL A   1      40.629  30.915  33.580  1.00  0.00     0.167 HD
ATOM     58  C   UNL A   1      42.296  28.757  32.799  1.00  0.00     0.074 A 
ATOM     59  C   UNL A   1      42.904  27.712  32.002  1.00  0.00     0.031 C 
ATOM     60  C   UNL A   1      42.685  29.078  34.056  1.00  0.00     0.037 A 
BRANCH  47  61
ATOM     61  C   UNL A   1      39.594  33.803  36.537  1.00  0.00     0.064 A 
ATOM     62  C   UNL A   1      38.817  33.488  37.661  1.00  0.00     0.173 A 
ATOM     63  C   UNL A   1      40.288  35.021  36.537  1.00  0.00     0.173 A 
ATOM     64  F   UNL A   1      38.121  32.341  37.702  1.00  0.00    -0.203 F 
ATOM     65  C   UNL A   1      38.724  34.368  38.735  1.00  0.00     0.198 A 
ATOM     66  C   UNL A   1      40.215  35.887  37.625  1.00  0.00     0.198 A 
ATOM     67  F   UNL A   1      41.046  35.368  35.485  1.00  0.00    -0.203 F 
ATOM     68  F   UNL A   1      37.946  34.064  39.783  1.00  0.00    -0.200 F 
ATOM     69  C   UNL A   1      39.431  35.561  38.720  1.00  0.00     0.200 A 
ATOM     70  F   UNL A   1      40.906  37.035  37.613  1.00  0.00    -0.200 F 
ATOM     71  F   UNL A   1      39.352  36.401  39.763  1.00  0.00    -0.200 F 
ENDBRANCH  47  61
BRANCH  48  72
ATOM     72  C   UNL A   1      40.651  28.036  28.452  1.00  0.00     0.064 A 
ATOM     73  C   UNL A   1      41.451  28.513  27.404  1.00  0.00     0.173 A 
ATOM     74  C   UNL A   1      40.048  26.781  28.292  1.00  0.00     0.173 A 
ATOM     75  F   UNL A   1      42.033  29.717  27.501  1.00  0.00    -0.203 F 
ATOM     76  C   UNL A   1      41.614  27.779  26.229  1.00  0.00     0.198 A 
ATOM     77  C   UNL A   1      40.234  26.035  27.129  1.00  0.00     0.198 A 
ATOM     78  F   UNL A   1      39.279  26.276  29.268  1.00  0.00    -0.203 F 
ATOM     79  F   UNL A   1      42.339  28.284  25.222  1.00  0.00    -0.200 F 
ATOM     80  C   UNL A   1      41.007  26.540  26.095  1.00  0.00     0.200 A 
ATOM     81  F   UNL A   1      39.656  24.832  27.008  1.00  0.00    -0.200 F 
ATOM     82  F   UNL A   1      41.160  25.836  24.964  1.00  0.00    -0.200 F 
ENDBRANCH  48  72
BRANCH  60  83
ATOM     83  C   UNL A   1      43.794  28.272  34.659  1.00  0.00     0.064 A 
ATOM     84  C   UNL A   1      43.543  27.064  35.326  1.00  0.00     0.173 A 
ATOM     85  C   UNL A   1      45.127  28.689  34.528  1.00  0.00     0.173 A 
ATOM     86  F   UNL A   1      42.283  26.633  35.489  1.00  0.00    -0.203 F 
ATOM     87  C   UNL A   1      44.586  26.313  35.859  1.00  0.00     0.198 A 
ATOM     88  C   UNL A   1      46.170  27.921  35.038  1.00  0.00     0.198 A 
ATOM     89  F   UNL A   1      45.419  29.833  33.891  1.00  0.00    -0.203 F 
ATOM     90  F   UNL A   1      44.321  25.183  36.528  1.00  0.00    -0.200 F 
ATOM     91  C   UNL A   1      45.898  26.738  35.707  1.00  0.00     0.200 A 
ATOM     92  F   UNL A   1      47.438  28.325  34.879  1.00  0.00    -0.200 F 
ATOM     93  F   UNL A   1      46.902  26.008  36.214  1.00  0.00    -0.200 F 
ENDBRANCH  60  83
ENDBRANCH  34  35
ENDBRANCH  26  29
ENDBRANCH  24  25
ENDBRANCH  23  24
ENDBRANCH  22  23
ENDBRANCH   1  22
TORSDOF 17
ENDMDL
