MODEL 1
REMARK VINA RESULT:     -12.2      0.000      0.000
REMARK SMILES C=CCN(CC(=O)NCCCCNC(=O)c1ccc(-c2c3nc(c(-c4c(F)c(F)c(F)c(F)c4F)c4ccc([nH]4)c(-c4c(F)c(F)c(F)c(F)c4F)c4nc(c(-c5c(F)c(F)c(F)c(F)c5F)c5ccc2[nH]5)C=C4)C=C3)cc1)C(=O)NC1CC[NH+](CCC)CC1
REMARK SMILES IDX 9 1 8 2 6 3 7 4 5 6 4 7 3 8 2 9 1 10 79 11 80 12 81 13 82 15
REMARK SMILES IDX 83 16 90 17 84 18 89 19 85 20 86 22 87 23 88 24 10 25 11 26
REMARK SMILES IDX 12 27 13 28 14 29 15 31 16 32 17 33 78 34 18 35 77 36 19 37
REMARK SMILES IDX 20 38 21 39 71 40 22 41 76 42 70 43 72 44 23 45 75 46 69 47
REMARK SMILES IDX 68 48 24 50 56 51 36 52 55 53 37 54 40 55 54 56 73 57 38 58
REMARK SMILES IDX 39 59 53 61 74 62 41 63 25 64 26 65 34 66 27 67 28 68 32 69
REMARK SMILES IDX 35 70 29 71 30 72 33 73 31 74 57 75 58 76 66 77 59 78 60 79
REMARK SMILES IDX 64 80 67 81 61 82 62 83 65 84 63 85 42 86 43 87 51 88 44 89
REMARK SMILES IDX 45 90 49 91 52 92 46 93 47 94 50 95 48 96
REMARK H PARENT 8 5 81 14 85 21 13 30 72 49 40 60
REMARK Flexibility Score: inf
ROOT
ATOM      1  C   UNL A   1      29.899  31.184  24.318  1.00  0.00     0.116 C 
ENDROOT
BRANCH   1   2
ATOM      2  N   UNL A   1      29.938  30.190  23.206  1.00  0.00    -0.355 N 
ATOM      3  C   UNL A   1      29.993  28.818  22.885  1.00  0.00     0.239 C 
ATOM      4  O   UNL A   1      29.780  29.014  21.635  1.00  0.00    -0.273 OA
ATOM      5  H   UNL A   1      29.916  30.691  22.358  1.00  0.00     0.163 HD
BRANCH   3   6
ATOM      6  C   UNL A   1      30.357  26.965  23.805  1.00  0.00     0.221 C 
BRANCH   6   7
ATOM      7  N   UNL A   1      31.166  26.343  24.953  1.00  0.00    -0.312 N 
BRANCH   7   8
ATOM      8  C   UNL A   1      32.233  27.227  25.485  1.00  0.00     0.149 C 
BRANCH   8   9
ATOM      9  C   UNL A   1      32.455  27.411  26.937  1.00  0.00    -0.013 C 
ATOM     10  C   UNL A   1      31.759  28.323  27.636  1.00  0.00     0.006 C 
ENDBRANCH   8   9
ENDBRANCH   7   8
BRANCH   7  11
ATOM     11  C   UNL A   1      30.510  25.375  25.689  1.00  0.00     0.318 C 
ATOM     12  O   UNL A   1      29.599  25.562  26.483  1.00  0.00    -0.249 OA
ATOM     13  N   UNL A   1      31.013  24.108  25.472  1.00  0.00    -0.335 N 
ATOM     14  H   UNL A   1      30.475  23.323  25.720  1.00  0.00     0.165 HD
BRANCH  13  15
ATOM     15  C   UNL A   1      32.343  23.919  24.877  1.00  0.00     0.095 C 
ATOM     16  C   UNL A   1      31.912  22.987  23.261  1.00  0.00     0.086 C 
ATOM     17  C   UNL A   1      33.705  23.114  26.053  1.00  0.00     0.086 C 
ATOM     18  C   UNL A   1      32.221  21.114  23.206  1.00  0.00     0.264 C 
ATOM     19  C   UNL A   1      34.150  21.217  25.757  1.00  0.00     0.264 C 
ATOM     20  N   UNL A   1      33.392  20.258  24.328  1.00  0.00    -0.335 N 
ATOM     21  H   UNL A   1      34.168  20.180  23.670  1.00  0.00     0.348 HD
BRANCH  20  22
ATOM     22  C   UNL A   1      33.011  18.881  24.725  1.00  0.00     0.261 C 
BRANCH  22  23
ATOM     23  C   UNL A   1      33.931  17.647  24.537  1.00  0.00     0.058 C 
ATOM     24  C   UNL A   1      34.139  16.975  23.186  1.00  0.00     0.010 C 
ENDBRANCH  22  23
ENDBRANCH  20  22
ENDBRANCH  13  15
ENDBRANCH   7  11
ENDBRANCH   6   7
ENDBRANCH   3   6
ENDBRANCH   1   2
BRANCH   1  25
ATOM     25  C   UNL A   1      30.990  30.982  25.371  1.00  0.00     0.023 C 
BRANCH  25  26
ATOM     26  C   UNL A   1      31.074  31.936  26.530  1.00  0.00     0.023 C 
BRANCH  26  27
ATOM     27  C   UNL A   1      32.454  32.425  26.842  1.00  0.00     0.116 C 
BRANCH  27  28
ATOM     28  N   UNL A   1      32.526  33.700  27.551  1.00  0.00    -0.352 N 
ATOM     29  C   UNL A   1      33.597  34.148  28.305  1.00  0.00     0.251 C 
ATOM     30  H   UNL A   1      31.742  34.293  27.487  1.00  0.00     0.163 HD
ATOM     31  O   UNL A   1      33.587  35.217  28.899  1.00  0.00    -0.269 OA
BRANCH  29  32
ATOM     32  C   UNL A   1      34.748  33.227  28.401  1.00  0.00     0.039 A 
ATOM     33  C   UNL A   1      36.031  33.729  28.170  1.00  0.00     0.014 A 
ATOM     34  C   UNL A   1      34.551  32.021  29.074  1.00  0.00     0.014 A 
ATOM     35  C   UNL A   1      37.126  33.058  28.717  1.00  0.00     0.010 A 
ATOM     36  C   UNL A   1      35.621  31.471  29.762  1.00  0.00     0.010 A 
ATOM     37  C   UNL A   1      36.924  31.960  29.570  1.00  0.00    -0.014 A 
BRANCH  37  38
ATOM     38  C   UNL A   1      38.054  31.247  30.220  1.00  0.00     0.031 A 
ATOM     39  C   UNL A   1      38.365  31.568  31.660  1.00  0.00     0.074 A 
ATOM     40  C   UNL A   1      38.826  30.382  29.531  1.00  0.00     0.049 A 
ATOM     41  N   UNL A   1      39.361  31.167  32.407  1.00  0.00    -0.248 NA
ATOM     42  C   UNL A   1      37.468  32.525  32.333  1.00  0.00     0.031 C 
ATOM     43  C   UNL A   1      38.677  30.038  28.114  1.00  0.00     0.029 A 
ATOM     44  N   UNL A   1      39.900  29.626  29.937  1.00  0.00    -0.354 N 
ATOM     45  C   UNL A   1      39.218  31.848  33.609  1.00  0.00     0.074 A 
ATOM     46  C   UNL A   1      38.123  32.773  33.453  1.00  0.00     0.031 C 
ATOM     47  C   UNL A   1      39.586  29.103  27.787  1.00  0.00     0.029 A 
ATOM     48  C   UNL A   1      40.408  28.807  28.955  1.00  0.00     0.049 A 
ATOM     49  H   UNL A   1      40.272  29.667  30.848  1.00  0.00     0.167 HD
ATOM     50  C   UNL A   1      39.890  31.673  34.768  1.00  0.00     0.037 A 
ATOM     51  C   UNL A   1      41.417  27.915  29.007  1.00  0.00     0.037 A 
ATOM     52  C   UNL A   1      40.931  30.701  34.939  1.00  0.00     0.049 A 
ATOM     53  C   UNL A   1      42.148  27.728  30.314  1.00  0.00     0.074 A 
ATOM     54  C   UNL A   1      41.648  30.394  36.079  1.00  0.00     0.029 A 
ATOM     55  N   UNL A   1      41.390  29.864  33.932  1.00  0.00    -0.354 N 
ATOM     56  N   UNL A   1      41.957  28.326  31.466  1.00  0.00    -0.248 NA
ATOM     57  C   UNL A   1      43.230  26.733  30.331  1.00  0.00     0.031 C 
ATOM     58  C   UNL A   1      42.570  29.396  35.752  1.00  0.00     0.029 A 
ATOM     59  C   UNL A   1      42.389  29.045  34.422  1.00  0.00     0.049 A 
ATOM     60  H   UNL A   1      41.054  29.855  33.007  1.00  0.00     0.167 HD
ATOM     61  C   UNL A   1      42.864  27.757  32.350  1.00  0.00     0.074 A 
ATOM     62  C   UNL A   1      43.595  26.753  31.605  1.00  0.00     0.031 C 
ATOM     63  C   UNL A   1      43.078  28.037  33.660  1.00  0.00     0.037 A 
BRANCH  50  64
ATOM     64  C   UNL A   1      39.485  32.527  35.934  1.00  0.00     0.064 A 
ATOM     65  C   UNL A   1      40.057  33.792  36.153  1.00  0.00     0.173 A 
ATOM     66  C   UNL A   1      38.524  32.077  36.851  1.00  0.00     0.173 A 
ATOM     67  F   UNL A   1      40.998  34.262  35.320  1.00  0.00    -0.203 F 
ATOM     68  C   UNL A   1      39.715  34.552  37.268  1.00  0.00     0.198 A 
ATOM     69  C   UNL A   1      38.156  32.857  37.944  1.00  0.00     0.198 A 
ATOM     70  F   UNL A   1      37.948  30.876  36.692  1.00  0.00    -0.203 F 
ATOM     71  F   UNL A   1      40.331  35.720  37.494  1.00  0.00    -0.200 F 
ATOM     72  C   UNL A   1      38.759  34.087  38.158  1.00  0.00     0.200 A 
ATOM     73  F   UNL A   1      37.224  32.412  38.798  1.00  0.00    -0.200 F 
ATOM     74  F   UNL A   1      38.428  34.821  39.229  1.00  0.00    -0.200 F 
ENDBRANCH  50  64
BRANCH  51  75
ATOM     75  C   UNL A   1      41.771  27.093  27.816  1.00  0.00     0.064 A 
ATOM     76  C   UNL A   1      41.186  25.834  27.611  1.00  0.00     0.173 A 
ATOM     77  C   UNL A   1      42.721  27.524  26.879  1.00  0.00     0.173 A 
ATOM     78  F   UNL A   1      40.286  25.364  28.488  1.00  0.00    -0.203 F 
ATOM     79  C   UNL A   1      41.560  25.027  26.537  1.00  0.00     0.198 A 
ATOM     80  C   UNL A   1      43.072  26.729  25.788  1.00  0.00     0.198 A 
ATOM     81  F   UNL A   1      43.311  28.721  27.021  1.00  0.00    -0.203 F 
ATOM     82  F   UNL A   1      41.027  23.805  26.403  1.00  0.00    -0.200 F 
ATOM     83  C   UNL A   1      42.500  25.477  25.624  1.00  0.00     0.200 A 
ATOM     84  F   UNL A   1      43.973  27.173  24.900  1.00  0.00    -0.200 F 
ATOM     85  F   UNL A   1      42.864  24.700  24.594  1.00  0.00    -0.200 F 
ENDBRANCH  51  75
BRANCH  63  86
ATOM     86  C   UNL A   1      44.104  27.214  34.382  1.00  0.00     0.064 A 
ATOM     87  C   UNL A   1      45.436  27.635  34.502  1.00  0.00     0.173 A 
ATOM     88  C   UNL A   1      43.730  26.018  35.013  1.00  0.00     0.173 A 
ATOM     89  F   UNL A   1      45.842  28.767  33.907  1.00  0.00    -0.203 F 
ATOM     90  C   UNL A   1      46.364  26.873  35.206  1.00  0.00     0.198 A 
ATOM     91  C   UNL A   1      44.652  25.277  35.745  1.00  0.00     0.198 A 
ATOM     92  F   UNL A   1      42.464  25.579  34.938  1.00  0.00    -0.203 F 
ATOM     93  F   UNL A   1      47.641  27.269  35.268  1.00  0.00    -0.200 F 
ATOM     94  C   UNL A   1      45.969  25.701  35.834  1.00  0.00     0.200 A 
ATOM     95  F   UNL A   1      44.264  24.156  36.368  1.00  0.00    -0.200 F 
ATOM     96  F   UNL A   1      46.861  24.976  36.523  1.00  0.00    -0.200 F 
ENDBRANCH  63  86
ENDBRANCH  37  38
ENDBRANCH  29  32
ENDBRANCH  27  28
ENDBRANCH  26  27
ENDBRANCH  25  26
ENDBRANCH   1  25
TORSDOF 18
ENDMDL
MODEL 2
REMARK VINA RESULT:     -12.0      4.899     11.078
REMARK SMILES C=CCN(CC(=O)NCCCCNC(=O)c1ccc(-c2c3nc(c(-c4c(F)c(F)c(F)c(F)c4F)c4ccc([nH]4)c(-c4c(F)c(F)c(F)c(F)c4F)c4nc(c(-c5c(F)c(F)c(F)c(F)c5F)c5ccc2[nH]5)C=C4)C=C3)cc1)C(=O)NC1CC[NH+](CCC)CC1
REMARK SMILES IDX 9 1 8 2 6 3 7 4 5 6 4 7 3 8 2 9 1 10 79 11 80 12 81 13 82 15
REMARK SMILES IDX 83 16 90 17 84 18 89 19 85 20 86 22 87 23 88 24 10 25 11 26
REMARK SMILES IDX 12 27 13 28 14 29 15 31 16 32 17 33 78 34 18 35 77 36 19 37
REMARK SMILES IDX 20 38 21 39 71 40 22 41 76 42 70 43 72 44 23 45 75 46 69 47
REMARK SMILES IDX 68 48 24 50 56 51 36 52 55 53 37 54 40 55 54 56 73 57 38 58
REMARK SMILES IDX 39 59 53 61 74 62 41 63 25 64 26 65 34 66 27 67 28 68 32 69
REMARK SMILES IDX 35 70 29 71 30 72 33 73 31 74 57 75 58 76 66 77 59 78 60 79
REMARK SMILES IDX 64 80 67 81 61 82 62 83 65 84 63 85 42 86 43 87 51 88 44 89
REMARK SMILES IDX 45 90 49 91 52 92 46 93 47 94 50 95 48 96
REMARK H PARENT 8 5 81 14 85 21 13 30 72 49 40 60
REMARK Flexibility Score: inf
ROOT
ATOM      1  C   UNL A   1      37.559  23.763  26.100  1.00  0.00     0.116 C 
ENDROOT
BRANCH   1   2
ATOM      2  N   UNL A   1      36.405  22.848  26.343  1.00  0.00    -0.355 N 
ATOM      3  C   UNL A   1      34.999  22.744  26.366  1.00  0.00     0.239 C 
ATOM      4  O   UNL A   1      35.011  21.468  26.499  1.00  0.00    -0.273 OA
ATOM      5  H   UNL A   1      36.772  21.966  26.582  1.00  0.00     0.163 HD
BRANCH   3   6
ATOM      6  C   UNL A   1      33.295  23.971  26.325  1.00  0.00     0.221 C 
BRANCH   6   7
ATOM      7  N   UNL A   1      32.032  24.228  25.490  1.00  0.00    -0.312 N 
BRANCH   7   8
ATOM      8  C   UNL A   1      31.872  23.304  24.340  1.00  0.00     0.149 C 
BRANCH   8   9
ATOM      9  C   UNL A   1      32.337  23.651  22.977  1.00  0.00    -0.013 C 
ATOM     10  C   UNL A   1      33.320  22.957  22.381  1.00  0.00     0.006 C 
ENDBRANCH   8   9
ENDBRANCH   7   8
BRANCH   7  11
ATOM     11  C   UNL A   1      30.986  24.832  26.162  1.00  0.00     0.318 C 
ATOM     12  O   UNL A   1      30.164  24.273  26.876  1.00  0.00    -0.249 OA
ATOM     13  N   UNL A   1      30.914  26.189  25.925  1.00  0.00    -0.335 N 
ATOM     14  H   UNL A   1      30.398  26.762  26.537  1.00  0.00     0.165 HD
BRANCH  13  15
ATOM     15  C   UNL A   1      31.597  26.789  24.770  1.00  0.00     0.095 C 
ATOM     16  C   UNL A   1      32.282  28.408  25.528  1.00  0.00     0.086 C 
ATOM     17  C   UNL A   1      30.528  26.940  23.121  1.00  0.00     0.086 C 
ATOM     18  C   UNL A   1      31.371  30.028  25.137  1.00  0.00     0.264 C 
ATOM     19  C   UNL A   1      29.828  28.722  22.656  1.00  0.00     0.264 C 
ATOM     20  N   UNL A   1      30.272  30.234  23.683  1.00  0.00    -0.335 N 
ATOM     21  H   UNL A   1      30.938  30.725  23.087  1.00  0.00     0.348 HD
BRANCH  20  22
ATOM     22  C   UNL A   1      29.109  31.133  23.879  1.00  0.00     0.261 C 
BRANCH  22  23
ATOM     23  C   UNL A   1      28.837  32.388  23.012  1.00  0.00     0.058 C 
ATOM     24  C   UNL A   1      28.281  32.303  21.596  1.00  0.00     0.010 C 
ENDBRANCH  22  23
ENDBRANCH  20  22
ENDBRANCH  13  15
ENDBRANCH   7  11
ENDBRANCH   6   7
ENDBRANCH   3   6
ENDBRANCH   1   2
BRANCH   1  25
ATOM     25  C   UNL A   1      38.926  23.095  26.258  1.00  0.00     0.023 C 
BRANCH  25  26
ATOM     26  C   UNL A   1      39.072  21.638  25.917  1.00  0.00     0.023 C 
BRANCH  26  27
ATOM     27  C   UNL A   1      39.908  20.850  26.877  1.00  0.00     0.116 C 
BRANCH  27  28
ATOM     28  N   UNL A   1      40.579  19.681  26.316  1.00  0.00    -0.352 N 
ATOM     29  C   UNL A   1      41.912  19.612  25.946  1.00  0.00     0.251 C 
ATOM     30  H   UNL A   1      40.036  18.870  26.189  1.00  0.00     0.163 HD
ATOM     31  O   UNL A   1      42.412  18.610  25.455  1.00  0.00    -0.269 OA
BRANCH  29  32
ATOM     32  C   UNL A   1      42.696  20.851  26.125  1.00  0.00     0.039 A 
ATOM     33  C   UNL A   1      42.758  21.766  25.072  1.00  0.00     0.014 A 
ATOM     34  C   UNL A   1      43.017  21.225  27.430  1.00  0.00     0.014 A 
ATOM     35  C   UNL A   1      43.044  23.102  25.355  1.00  0.00     0.010 A 
ATOM     36  C   UNL A   1      43.117  22.576  27.721  1.00  0.00     0.010 A 
ATOM     37  C   UNL A   1      43.163  23.529  26.689  1.00  0.00    -0.014 A 
BRANCH  37  38
ATOM     38  C   UNL A   1      43.413  24.950  27.045  1.00  0.00     0.031 A 
ATOM     39  C   UNL A   1      44.765  25.536  26.728  1.00  0.00     0.074 A 
ATOM     40  C   UNL A   1      42.485  25.685  27.693  1.00  0.00     0.049 A 
ATOM     41  N   UNL A   1      45.260  26.706  27.040  1.00  0.00    -0.248 NA
ATOM     42  C   UNL A   1      45.717  24.660  26.020  1.00  0.00     0.031 C 
ATOM     43  C   UNL A   1      41.164  25.215  28.121  1.00  0.00     0.029 A 
ATOM     44  N   UNL A   1      42.513  26.996  28.104  1.00  0.00    -0.354 N 
ATOM     45  C   UNL A   1      46.575  26.680  26.594  1.00  0.00     0.074 A 
ATOM     46  C   UNL A   1      46.840  25.348  26.106  1.00  0.00     0.031 C 
ATOM     47  C   UNL A   1      40.493  26.235  28.684  1.00  0.00     0.029 A 
ATOM     48  C   UNL A   1      41.345  27.419  28.693  1.00  0.00     0.049 A 
ATOM     49  H   UNL A   1      43.299  27.578  27.988  1.00  0.00     0.167 HD
ATOM     50  C   UNL A   1      47.469  27.692  26.528  1.00  0.00     0.037 A 
ATOM     51  C   UNL A   1      41.006  28.633  29.172  1.00  0.00     0.037 A 
ATOM     52  C   UNL A   1      47.177  29.031  26.949  1.00  0.00     0.049 A 
ATOM     53  C   UNL A   1      42.015  29.752  29.080  1.00  0.00     0.074 A 
ATOM     54  C   UNL A   1      47.982  30.153  26.882  1.00  0.00     0.029 A 
ATOM     55  N   UNL A   1      45.969  29.430  27.503  1.00  0.00    -0.354 N 
ATOM     56  N   UNL A   1      43.232  29.734  28.590  1.00  0.00    -0.248 NA
ATOM     57  C   UNL A   1      41.599  31.063  29.598  1.00  0.00     0.031 C 
ATOM     58  C   UNL A   1      47.273  31.224  27.433  1.00  0.00     0.029 A 
ATOM     59  C   UNL A   1      46.009  30.781  27.793  1.00  0.00     0.049 A 
ATOM     60  H   UNL A   1      45.199  28.838  27.666  1.00  0.00     0.167 HD
ATOM     61  C   UNL A   1      43.711  31.033  28.706  1.00  0.00     0.074 A 
ATOM     62  C   UNL A   1      42.647  31.816  29.298  1.00  0.00     0.031 C 
ATOM     63  C   UNL A   1      44.922  31.536  28.358  1.00  0.00     0.037 A 
BRANCH  50  64
ATOM     64  C   UNL A   1      48.818  27.381  25.948  1.00  0.00     0.064 A 
ATOM     65  C   UNL A   1      49.048  27.418  24.562  1.00  0.00     0.173 A 
ATOM     66  C   UNL A   1      49.891  27.033  26.779  1.00  0.00     0.173 A 
ATOM     67  F   UNL A   1      48.050  27.723  23.718  1.00  0.00    -0.203 F 
ATOM     68  C   UNL A   1      50.289  27.074  24.030  1.00  0.00     0.198 A 
ATOM     69  C   UNL A   1      51.141  26.728  26.247  1.00  0.00     0.198 A 
ATOM     70  F   UNL A   1      49.727  26.980  28.110  1.00  0.00    -0.203 F 
ATOM     71  F   UNL A   1      50.459  27.043  22.701  1.00  0.00    -0.200 F 
ATOM     72  C   UNL A   1      51.335  26.737  24.873  1.00  0.00     0.200 A 
ATOM     73  F   UNL A   1      52.156  26.411  27.063  1.00  0.00    -0.200 F 
ATOM     74  F   UNL A   1      52.529  26.410  24.361  1.00  0.00    -0.200 F 
ENDBRANCH  50  64
BRANCH  51  75
ATOM     75  C   UNL A   1      39.649  28.881  29.734  1.00  0.00     0.064 A 
ATOM     76  C   UNL A   1      38.614  29.374  28.925  1.00  0.00     0.173 A 
ATOM     77  C   UNL A   1      39.363  28.668  31.090  1.00  0.00     0.173 A 
ATOM     78  F   UNL A   1      38.839  29.614  27.624  1.00  0.00    -0.203 F 
ATOM     79  C   UNL A   1      37.360  29.673  29.454  1.00  0.00     0.198 A 
ATOM     80  C   UNL A   1      38.098  28.939  31.613  1.00  0.00     0.198 A 
ATOM     81  F   UNL A   1      40.312  28.194  31.912  1.00  0.00    -0.203 F 
ATOM     82  F   UNL A   1      36.410  30.199  28.667  1.00  0.00    -0.200 F 
ATOM     83  C   UNL A   1      37.101  29.453  30.797  1.00  0.00     0.200 A 
ATOM     84  F   UNL A   1      37.848  28.712  32.910  1.00  0.00    -0.200 F 
ATOM     85  F   UNL A   1      35.897  29.745  31.309  1.00  0.00    -0.200 F 
ENDBRANCH  51  75
BRANCH  63  86
ATOM     86  C   UNL A   1      45.141  33.006  28.557  1.00  0.00     0.064 A 
ATOM     87  C   UNL A   1      45.765  33.510  29.708  1.00  0.00     0.173 A 
ATOM     88  C   UNL A   1      44.774  33.916  27.554  1.00  0.00     0.173 A 
ATOM     89  F   UNL A   1      46.125  32.680  30.698  1.00  0.00    -0.203 F 
ATOM     90  C   UNL A   1      45.990  34.875  29.858  1.00  0.00     0.198 A 
ATOM     91  C   UNL A   1      45.032  35.276  27.693  1.00  0.00     0.198 A 
ATOM     92  F   UNL A   1      44.185  33.482  26.429  1.00  0.00    -0.203 F 
ATOM     93  F   UNL A   1      46.544  35.339  30.985  1.00  0.00    -0.200 F 
ATOM     94  C   UNL A   1      45.632  35.754  28.847  1.00  0.00     0.200 A 
ATOM     95  F   UNL A   1      44.703  36.122  26.706  1.00  0.00    -0.200 F 
ATOM     96  F   UNL A   1      45.861  37.068  28.988  1.00  0.00    -0.200 F 
ENDBRANCH  63  86
ENDBRANCH  37  38
ENDBRANCH  29  32
ENDBRANCH  27  28
ENDBRANCH  26  27
ENDBRANCH  25  26
ENDBRANCH   1  25
TORSDOF 18
ENDMDL
MODEL 3
REMARK VINA RESULT:     -11.9      2.183      3.664
REMARK SMILES C=CCN(CC(=O)NCCCCNC(=O)c1ccc(-c2c3nc(c(-c4c(F)c(F)c(F)c(F)c4F)c4ccc([nH]4)c(-c4c(F)c(F)c(F)c(F)c4F)c4nc(c(-c5c(F)c(F)c(F)c(F)c5F)c5ccc2[nH]5)C=C4)C=C3)cc1)C(=O)NC1CC[NH+](CCC)CC1
REMARK SMILES IDX 9 1 8 2 6 3 7 4 5 6 4 7 3 8 2 9 1 10 79 11 80 12 81 13 82 15
REMARK SMILES IDX 83 16 90 17 84 18 89 19 85 20 86 22 87 23 88 24 10 25 11 26
REMARK SMILES IDX 12 27 13 28 14 29 15 31 16 32 17 33 78 34 18 35 77 36 19 37
REMARK SMILES IDX 20 38 21 39 71 40 22 41 76 42 70 43 72 44 23 45 75 46 69 47
REMARK SMILES IDX 68 48 24 50 56 51 36 52 55 53 37 54 40 55 54 56 73 57 38 58
REMARK SMILES IDX 39 59 53 61 74 62 41 63 25 64 26 65 34 66 27 67 28 68 32 69
REMARK SMILES IDX 35 70 29 71 30 72 33 73 31 74 57 75 58 76 66 77 59 78 60 79
REMARK SMILES IDX 64 80 67 81 61 82 62 83 65 84 63 85 42 86 43 87 51 88 44 89
REMARK SMILES IDX 45 90 49 91 52 92 46 93 47 94 50 95 48 96
REMARK H PARENT 8 5 81 14 85 21 13 30 72 49 40 60
REMARK Flexibility Score: inf
ROOT
ATOM      1  C   UNL A   1      34.298  31.315  27.998  1.00  0.00     0.116 C 
ENDROOT
BRANCH   1   2
ATOM      2  N   UNL A   1      33.033  31.364  27.209  1.00  0.00    -0.355 N 
ATOM      3  C   UNL A   1      32.087  30.600  26.494  1.00  0.00     0.239 C 
ATOM      4  O   UNL A   1      31.265  31.578  26.369  1.00  0.00    -0.273 OA
ATOM      5  H   UNL A   1      32.743  32.305  27.171  1.00  0.00     0.163 HD
BRANCH   3   6
ATOM      6  C   UNL A   1      31.846  28.670  25.704  1.00  0.00     0.221 C 
BRANCH   6   7
ATOM      7  N   UNL A   1      31.755  27.937  24.357  1.00  0.00    -0.312 N 
BRANCH   7   8
ATOM      8  C   UNL A   1      30.464  28.131  23.651  1.00  0.00     0.149 C 
BRANCH   8   9
ATOM      9  C   UNL A   1      29.903  29.476  23.386  1.00  0.00    -0.013 C 
ATOM     10  C   UNL A   1      29.658  29.891  22.132  1.00  0.00     0.006 C 
ENDBRANCH   8   9
ENDBRANCH   7   8
BRANCH   7  11
ATOM     11  C   UNL A   1      32.962  27.690  23.730  1.00  0.00     0.318 C 
ATOM     12  O   UNL A   1      33.591  28.475  23.034  1.00  0.00    -0.249 OA
ATOM     13  N   UNL A   1      33.414  26.402  23.933  1.00  0.00    -0.335 N 
ATOM     14  H   UNL A   1      34.361  26.189  23.772  1.00  0.00     0.165 HD
BRANCH  13  15
ATOM     15  C   UNL A   1      32.498  25.346  24.386  1.00  0.00     0.095 C 
ATOM     16  C   UNL A   1      33.206  24.940  26.118  1.00  0.00     0.086 C 
ATOM     17  C   UNL A   1      32.235  23.843  23.138  1.00  0.00     0.086 C 
ATOM     18  C   UNL A   1      34.246  23.362  26.305  1.00  0.00     0.264 C 
ATOM     19  C   UNL A   1      33.158  22.151  23.550  1.00  0.00     0.264 C 
ATOM     20  N   UNL A   1      34.147  21.951  25.138  1.00  0.00    -0.335 N 
ATOM     21  H   UNL A   1      33.546  21.356  25.705  1.00  0.00     0.348 HD
BRANCH  20  22
ATOM     22  C   UNL A   1      35.413  21.213  24.912  1.00  0.00     0.261 C 
BRANCH  22  23
ATOM     23  C   UNL A   1      36.686  21.856  24.305  1.00  0.00     0.058 C 
ATOM     24  C   UNL A   1      36.629  22.988  23.287  1.00  0.00     0.010 C 
ENDBRANCH  22  23
ENDBRANCH  20  22
ENDBRANCH  13  15
ENDBRANCH   7  11
ENDBRANCH   6   7
ENDBRANCH   3   6
ENDBRANCH   1   2
BRANCH   1  25
ATOM     25  C   UNL A   1      34.674  32.645  28.654  1.00  0.00     0.023 C 
BRANCH  25  26
ATOM     26  C   UNL A   1      33.660  33.754  28.694  1.00  0.00     0.023 C 
BRANCH  26  27
ATOM     27  C   UNL A   1      34.020  34.902  29.584  1.00  0.00     0.116 C 
BRANCH  27  28
ATOM     28  N   UNL A   1      32.899  35.560  30.249  1.00  0.00    -0.352 N 
ATOM     29  C   UNL A   1      32.731  35.687  31.618  1.00  0.00     0.251 C 
ATOM     30  H   UNL A   1      32.200  35.947  29.674  1.00  0.00     0.163 HD
ATOM     31  O   UNL A   1      31.754  36.227  32.118  1.00  0.00    -0.269 OA
BRANCH  29  32
ATOM     32  C   UNL A   1      33.783  35.077  32.457  1.00  0.00     0.039 A 
ATOM     33  C   UNL A   1      33.639  33.745  32.853  1.00  0.00     0.014 A 
ATOM     34  C   UNL A   1      35.022  35.716  32.498  1.00  0.00     0.014 A 
ATOM     35  C   UNL A   1      34.779  33.016  33.195  1.00  0.00     0.010 A 
ATOM     36  C   UNL A   1      36.157  34.938  32.661  1.00  0.00     0.010 A 
ATOM     37  C   UNL A   1      36.053  33.588  33.039  1.00  0.00    -0.014 A 
BRANCH  37  38
ATOM     38  C   UNL A   1      37.298  32.836  33.338  1.00  0.00     0.031 A 
ATOM     39  C   UNL A   1      38.009  33.121  34.636  1.00  0.00     0.074 A 
ATOM     40  C   UNL A   1      37.823  31.967  32.449  1.00  0.00     0.049 A 
ATOM     41  N   UNL A   1      39.163  32.682  35.069  1.00  0.00    -0.248 NA
ATOM     42  C   UNL A   1      37.363  34.085  35.546  1.00  0.00     0.031 C 
ATOM     43  C   UNL A   1      37.274  31.655  31.127  1.00  0.00     0.029 A 
ATOM     44  N   UNL A   1      38.947  31.178  32.529  1.00  0.00    -0.354 N 
ATOM     45  C   UNL A   1      39.380  33.342  36.272  1.00  0.00     0.074 A 
ATOM     46  C   UNL A   1      38.311  34.296  36.441  1.00  0.00     0.031 C 
ATOM     47  C   UNL A   1      38.028  30.706  30.546  1.00  0.00     0.029 A 
ATOM     48  C   UNL A   1      39.136  30.368  31.433  1.00  0.00     0.049 A 
ATOM     49  H   UNL A   1      39.559  31.193  33.299  1.00  0.00     0.167 HD
ATOM     50  C   UNL A   1      40.345  33.129  37.194  1.00  0.00     0.037 A 
ATOM     51  C   UNL A   1      40.095  29.452  31.189  1.00  0.00     0.037 A 
ATOM     52  C   UNL A   1      41.365  32.131  37.054  1.00  0.00     0.049 A 
ATOM     53  C   UNL A   1      41.157  29.222  32.237  1.00  0.00     0.074 A 
ATOM     54  C   UNL A   1      42.364  31.785  37.943  1.00  0.00     0.029 A 
ATOM     55  N   UNL A   1      41.500  31.303  35.948  1.00  0.00    -0.354 N 
ATOM     56  N   UNL A   1      41.312  29.802  33.403  1.00  0.00    -0.248 NA
ATOM     57  C   UNL A   1      42.172  28.202  31.937  1.00  0.00     0.031 C 
ATOM     58  C   UNL A   1      43.129  30.772  37.359  1.00  0.00     0.029 A 
ATOM     59  C   UNL A   1      42.574  30.451  36.129  1.00  0.00     0.049 A 
ATOM     60  H   UNL A   1      40.918  31.320  35.154  1.00  0.00     0.167 HD
ATOM     61  C   UNL A   1      42.414  29.194  33.990  1.00  0.00     0.074 A 
ATOM     62  C   UNL A   1      42.879  28.189  33.058  1.00  0.00     0.031 C 
ATOM     63  C   UNL A   1      42.994  29.443  35.191  1.00  0.00     0.037 A 
BRANCH  50  64
ATOM     64  C   UNL A   1      40.306  33.969  38.438  1.00  0.00     0.064 A 
ATOM     65  C   UNL A   1      39.494  33.625  39.532  1.00  0.00     0.173 A 
ATOM     66  C   UNL A   1      41.076  35.136  38.537  1.00  0.00     0.173 A 
ATOM     67  F   UNL A   1      38.718  32.532  39.481  1.00  0.00    -0.203 F 
ATOM     68  C   UNL A   1      39.422  34.441  40.658  1.00  0.00     0.198 A 
ATOM     69  C   UNL A   1      41.033  35.929  39.681  1.00  0.00     0.198 A 
ATOM     70  F   UNL A   1      41.868  35.513  37.521  1.00  0.00    -0.203 F 
ATOM     71  F   UNL A   1      38.582  34.130  41.654  1.00  0.00    -0.200 F 
ATOM     72  C   UNL A   1      40.197  35.587  40.734  1.00  0.00     0.200 A 
ATOM     73  F   UNL A   1      41.790  37.032  39.759  1.00  0.00    -0.200 F 
ATOM     74  F   UNL A   1      40.130  36.370  41.820  1.00  0.00    -0.200 F 
ENDBRANCH  50  64
BRANCH  51  75
ATOM     75  C   UNL A   1      40.078  28.646  29.936  1.00  0.00     0.064 A 
ATOM     76  C   UNL A   1      39.440  27.397  29.892  1.00  0.00     0.173 A 
ATOM     77  C   UNL A   1      40.725  29.081  28.771  1.00  0.00     0.173 A 
ATOM     78  F   UNL A   1      38.822  26.923  30.985  1.00  0.00    -0.203 F 
ATOM     79  C   UNL A   1      39.476  26.604  28.747  1.00  0.00     0.198 A 
ATOM     80  C   UNL A   1      40.735  28.301  27.615  1.00  0.00     0.198 A 
ATOM     81  F   UNL A   1      41.349  30.269  28.752  1.00  0.00    -0.203 F 
ATOM     82  F   UNL A   1      38.908  25.390  28.756  1.00  0.00    -0.200 F 
ATOM     83  C   UNL A   1      40.121  27.058  27.607  1.00  0.00     0.200 A 
ATOM     84  F   UNL A   1      41.349  28.749  26.511  1.00  0.00    -0.200 F 
ATOM     85  F   UNL A   1      40.161  26.294  26.507  1.00  0.00    -0.200 F 
ENDBRANCH  51  75
BRANCH  63  86
ATOM     86  C   UNL A   1      44.157  28.583  35.587  1.00  0.00     0.064 A 
ATOM     87  C   UNL A   1      45.475  28.926  35.254  1.00  0.00     0.173 A 
ATOM     88  C   UNL A   1      43.951  27.431  36.361  1.00  0.00     0.173 A 
ATOM     89  F   UNL A   1      45.722  30.013  34.506  1.00  0.00    -0.203 F 
ATOM     90  C   UNL A   1      46.543  28.132  35.661  1.00  0.00     0.198 A 
ATOM     91  C   UNL A   1      45.023  26.660  36.795  1.00  0.00     0.198 A 
ATOM     92  F   UNL A   1      42.709  27.068  36.716  1.00  0.00    -0.203 F 
ATOM     93  F   UNL A   1      47.790  28.452  35.291  1.00  0.00    -0.200 F 
ATOM     94  C   UNL A   1      46.317  27.006  36.438  1.00  0.00     0.200 A 
ATOM     95  F   UNL A   1      44.804  25.583  37.563  1.00  0.00    -0.200 F 
ATOM     96  F   UNL A   1      47.348  26.250  36.839  1.00  0.00    -0.200 F 
ENDBRANCH  63  86
ENDBRANCH  37  38
ENDBRANCH  29  32
ENDBRANCH  27  28
ENDBRANCH  26  27
ENDBRANCH  25  26
ENDBRANCH   1  25
TORSDOF 18
ENDMDL
