MODEL 1
REMARK VINA RESULT:     -13.2      0.000      0.000
REMARK SMILES CC1(C)[C@H](C(=O)NCCCCNC(=O)c2ccc(-c3c4nc(c(-c5c(F)c(F)c(F)c(F)c5F)c5ccc([nH]5)c(-c5c(F)c(F)c(F)c(F)c5F)c5nc(c(-c6c(F)c(F)c(F)c(F)c6F)c6ccc3[nH]6)C=C5)C=C4)cc2)[C@@H]1C(=O)Nc1ccc(Cl)c(Br)c1
REMARK SMILES IDX 9 1 8 2 7 3 5 4 6 5 4 7 1 8 2 9 3 10 78 11 79 12 80 13 81 14
REMARK SMILES IDX 82 16 83 17 89 18 84 19 87 20 85 21 88 22 86 23 10 24 11 25
REMARK SMILES IDX 12 26 13 27 14 29 15 30 16 31 77 32 17 33 76 34 18 35 19 36
REMARK SMILES IDX 20 37 70 38 21 39 75 40 69 41 71 42 22 43 74 44 68 45 67 46
REMARK SMILES IDX 23 48 55 49 35 50 54 51 36 52 39 53 53 54 72 55 37 56 38 57
REMARK SMILES IDX 52 59 73 60 40 61 24 62 25 63 33 64 26 65 27 66 31 67 34 68
REMARK SMILES IDX 28 69 29 70 32 71 30 72 56 73 57 74 65 75 58 76 59 77 63 78
REMARK SMILES IDX 66 79 60 80 61 81 64 82 62 83 41 84 42 85 50 86 43 87 44 88
REMARK SMILES IDX 48 89 51 90 45 91 46 92 49 93 47 94
REMARK H PARENT 7 6 81 15 12 28 71 47 39 58
REMARK Flexibility Score: inf
ROOT
ATOM      1  C   UNL A   1      36.835  21.435  25.354  1.00  0.00     0.023 C 
ENDROOT
BRANCH   1   2
ATOM      2  C   UNL A   1      35.473  20.771  25.183  1.00  0.00     0.116 C 
BRANCH   2   3
ATOM      3  N   UNL A   1      34.638  20.959  26.346  1.00  0.00    -0.356 N 
ATOM      4  C   UNL A   1      34.044  22.031  26.944  1.00  0.00     0.224 C 
ATOM      5  O   UNL A   1      33.397  21.768  27.961  1.00  0.00    -0.275 OA
ATOM      6  H   UNL A   1      34.455  20.115  26.819  1.00  0.00     0.163 HD
BRANCH   4   7
ATOM      7  C   UNL A   1      34.046  23.454  26.513  1.00  0.00     0.098 C 
ATOM      8  C   UNL A   1      34.626  25.038  24.580  1.00  0.00     0.013 C 
ATOM      9  C   UNL A   1      33.650  24.038  25.170  1.00  0.00    -0.011 C 
ATOM     10  C   UNL A   1      33.024  23.177  24.103  1.00  0.00     0.013 C 
ATOM     11  C   UNL A   1      32.925  24.455  26.468  1.00  0.00     0.098 C 
BRANCH  11  12
ATOM     12  C   UNL A   1      31.511  24.180  26.800  1.00  0.00     0.228 C 
ATOM     13  O   UNL A   1      31.231  23.229  27.524  1.00  0.00    -0.274 OA
ATOM     14  N   UNL A   1      30.499  24.985  26.323  1.00  0.00    -0.326 N 
ATOM     15  H   UNL A   1      29.598  24.743  26.636  1.00  0.00     0.169 HD
BRANCH  14  16
ATOM     16  C   UNL A   1      30.547  26.094  25.464  1.00  0.00     0.042 A 
ATOM     17  C   UNL A   1      29.936  25.960  24.215  1.00  0.00     0.028 A 
ATOM     18  C   UNL A   1      31.134  27.311  25.810  1.00  0.00     0.043 A 
ATOM     19  C   UNL A   1      29.797  27.070  23.376  1.00  0.00     0.024 A 
ATOM     20  C   UNL A   1      31.013  28.422  24.964  1.00  0.00     0.038 A 
ATOM     21  C   UNL A   1      30.318  28.309  23.757  1.00  0.00     0.055 A 
ATOM     22  Br  UNL A   1      31.809  30.046  25.544  1.00  0.00    -0.049 Br
ATOM     23  Cl  UNL A   1      30.068  29.643  22.691  1.00  0.00    -0.083 Cl
ENDBRANCH  14  16
ENDBRANCH  11  12
ENDBRANCH   4   7
ENDBRANCH   2   3
ENDBRANCH   1   2
BRANCH   1  24
ATOM     24  C   UNL A   1      38.017  20.551  24.957  1.00  0.00     0.023 C 
BRANCH  24  25
ATOM     25  C   UNL A   1      39.241  20.661  25.863  1.00  0.00     0.116 C 
BRANCH  25  26
ATOM     26  N   UNL A   1      40.045  19.446  25.895  1.00  0.00    -0.352 N 
ATOM     27  C   UNL A   1      41.397  19.312  26.103  1.00  0.00     0.251 C 
ATOM     28  H   UNL A   1      39.552  18.606  25.747  1.00  0.00     0.163 HD
ATOM     29  O   UNL A   1      41.951  18.225  25.984  1.00  0.00    -0.269 OA
BRANCH  27  30
ATOM     30  C   UNL A   1      42.182  20.512  26.439  1.00  0.00     0.039 A 
ATOM     31  C   UNL A   1      42.729  21.274  25.405  1.00  0.00     0.014 A 
ATOM     32  C   UNL A   1      42.293  20.924  27.770  1.00  0.00     0.014 A 
ATOM     33  C   UNL A   1      43.301  22.512  25.698  1.00  0.00     0.010 A 
ATOM     34  C   UNL A   1      42.805  22.184  28.052  1.00  0.00     0.010 A 
ATOM     35  C   UNL A   1      43.291  22.998  27.016  1.00  0.00    -0.014 A 
BRANCH  35  36
ATOM     36  C   UNL A   1      43.727  24.379  27.336  1.00  0.00     0.031 A 
ATOM     37  C   UNL A   1      42.733  25.388  27.824  1.00  0.00     0.074 A 
ATOM     38  C   UNL A   1      44.998  24.744  27.079  1.00  0.00     0.049 A 
ATOM     39  N   UNL A   1      42.887  26.671  28.025  1.00  0.00    -0.248 NA
ATOM     40  C   UNL A   1      41.373  24.893  28.094  1.00  0.00     0.031 C 
ATOM     41  C   UNL A   1      46.045  23.861  26.559  1.00  0.00     0.029 A 
ATOM     42  N   UNL A   1      45.620  25.961  27.197  1.00  0.00    -0.354 N 
ATOM     43  C   UNL A   1      41.646  27.139  28.430  1.00  0.00     0.074 A 
ATOM     44  C   UNL A   1      40.738  26.014  28.404  1.00  0.00     0.031 C 
ATOM     45  C   UNL A   1      47.181  24.562  26.416  1.00  0.00     0.029 A 
ATOM     46  C   UNL A   1      46.932  25.950  26.790  1.00  0.00     0.049 A 
ATOM     47  H   UNL A   1      45.169  26.766  27.541  1.00  0.00     0.167 HD
ATOM     48  C   UNL A   1      41.304  28.393  28.808  1.00  0.00     0.037 A 
ATOM     49  C   UNL A   1      47.828  26.952  26.710  1.00  0.00     0.037 A 
ATOM     50  C   UNL A   1      42.219  29.502  28.859  1.00  0.00     0.049 A 
ATOM     51  C   UNL A   1      47.414  28.340  27.109  1.00  0.00     0.074 A 
ATOM     52  C   UNL A   1      41.989  30.791  29.307  1.00  0.00     0.029 A 
ATOM     53  N   UNL A   1      43.540  29.454  28.438  1.00  0.00    -0.354 N 
ATOM     54  N   UNL A   1      46.256  28.761  27.556  1.00  0.00    -0.248 NA
ATOM     55  C   UNL A   1      48.428  29.398  26.985  1.00  0.00     0.031 C 
ATOM     56  C   UNL A   1      43.160  31.534  29.119  1.00  0.00     0.029 A 
ATOM     57  C   UNL A   1      44.130  30.699  28.588  1.00  0.00     0.049 A 
ATOM     58  H   UNL A   1      43.991  28.654  28.086  1.00  0.00     0.167 HD
ATOM     59  C   UNL A   1      46.404  30.122  27.782  1.00  0.00     0.074 A 
ATOM     60  C   UNL A   1      47.770  30.456  27.436  1.00  0.00     0.031 C 
ATOM     61  C   UNL A   1      45.489  31.014  28.233  1.00  0.00     0.037 A 
BRANCH  48  62
ATOM     62  C   UNL A   1      39.877  28.630  29.204  1.00  0.00     0.064 A 
ATOM     63  C   UNL A   1      39.432  28.406  30.515  1.00  0.00     0.173 A 
ATOM     64  C   UNL A   1      38.950  29.115  28.268  1.00  0.00     0.173 A 
ATOM     65  F   UNL A   1      40.277  27.929  31.442  1.00  0.00    -0.203 F 
ATOM     66  C   UNL A   1      38.105  28.633  30.869  1.00  0.00     0.198 A 
ATOM     67  C   UNL A   1      37.630  29.365  28.633  1.00  0.00     0.198 A 
ATOM     68  F   UNL A   1      39.327  29.348  27.002  1.00  0.00    -0.203 F 
ATOM     69  F   UNL A   1      37.691  28.366  32.116  1.00  0.00    -0.200 F 
ATOM     70  C   UNL A   1      37.207  29.117  29.931  1.00  0.00     0.200 A 
ATOM     71  F   UNL A   1      36.766  29.843  27.727  1.00  0.00    -0.200 F 
ATOM     72  F   UNL A   1      35.931  29.339  30.274  1.00  0.00    -0.200 F 
ENDBRANCH  48  62
BRANCH  49  73
ATOM     73  C   UNL A   1      49.209  26.675  26.238  1.00  0.00     0.064 A 
ATOM     74  C   UNL A   1      49.563  26.890  24.899  1.00  0.00     0.173 A 
ATOM     75  C   UNL A   1      50.200  26.201  27.108  1.00  0.00     0.173 A 
ATOM     76  F   UNL A   1      48.643  27.323  24.025  1.00  0.00    -0.203 F 
ATOM     77  C   UNL A   1      50.854  26.631  24.446  1.00  0.00     0.198 A 
ATOM     78  C   UNL A   1      51.497  25.963  26.659  1.00  0.00     0.198 A 
ATOM     79  F   UNL A   1      49.911  25.981  28.400  1.00  0.00    -0.203 F 
ATOM     80  F   UNL A   1      51.157  26.813  23.153  1.00  0.00    -0.200 F 
ATOM     81  C   UNL A   1      51.822  26.174  25.328  1.00  0.00     0.200 A 
ATOM     82  F   UNL A   1      52.432  25.533  27.517  1.00  0.00    -0.200 F 
ATOM     83  F   UNL A   1      53.066  25.930  24.893  1.00  0.00    -0.200 F 
ENDBRANCH  49  73
BRANCH  61  84
ATOM     84  C   UNL A   1      45.937  32.436  28.388  1.00  0.00     0.064 A 
ATOM     85  C   UNL A   1      45.774  33.367  27.353  1.00  0.00     0.173 A 
ATOM     86  C   UNL A   1      46.483  32.883  29.600  1.00  0.00     0.173 A 
ATOM     87  F   UNL A   1      45.272  32.981  26.170  1.00  0.00    -0.203 F 
ATOM     88  C   UNL A   1      46.154  34.696  27.522  1.00  0.00     0.198 A 
ATOM     89  C   UNL A   1      46.840  34.217  29.773  1.00  0.00     0.198 A 
ATOM     90  F   UNL A   1      46.654  32.030  30.621  1.00  0.00    -0.203 F 
ATOM     91  F   UNL A   1      46.021  35.563  26.509  1.00  0.00    -0.200 F 
ATOM     92  C   UNL A   1      46.679  35.121  28.734  1.00  0.00     0.200 A 
ATOM     93  F   UNL A   1      47.336  34.629  30.948  1.00  0.00    -0.200 F 
ATOM     94  F   UNL A   1      47.033  36.402  28.899  1.00  0.00    -0.200 F 
ENDBRANCH  61  84
ENDBRANCH  35  36
ENDBRANCH  27  30
ENDBRANCH  25  26
ENDBRANCH  24  25
ENDBRANCH   1  24
TORSDOF 13
ENDMDL
MODEL 2
REMARK VINA RESULT:     -13.1      0.089      1.595
REMARK SMILES CC1(C)[C@H](C(=O)NCCCCNC(=O)c2ccc(-c3c4nc(c(-c5c(F)c(F)c(F)c(F)c5F)c5ccc([nH]5)c(-c5c(F)c(F)c(F)c(F)c5F)c5nc(c(-c6c(F)c(F)c(F)c(F)c6F)c6ccc3[nH]6)C=C5)C=C4)cc2)[C@@H]1C(=O)Nc1ccc(Cl)c(Br)c1
REMARK SMILES IDX 9 1 8 2 7 3 5 4 6 5 4 7 1 8 2 9 3 10 78 11 79 12 80 13 81 14
REMARK SMILES IDX 82 16 83 17 89 18 84 19 87 20 85 21 88 22 86 23 10 24 11 25
REMARK SMILES IDX 12 26 13 27 14 29 15 30 16 31 77 32 17 33 76 34 18 35 19 36
REMARK SMILES IDX 20 37 70 38 21 39 75 40 69 41 71 42 22 43 74 44 68 45 67 46
REMARK SMILES IDX 23 48 55 49 35 50 54 51 36 52 39 53 53 54 72 55 37 56 38 57
REMARK SMILES IDX 52 59 73 60 40 61 24 62 25 63 33 64 26 65 27 66 31 67 34 68
REMARK SMILES IDX 28 69 29 70 32 71 30 72 56 73 57 74 65 75 58 76 59 77 63 78
REMARK SMILES IDX 66 79 60 80 61 81 64 82 62 83 41 84 42 85 50 86 43 87 44 88
REMARK SMILES IDX 48 89 51 90 45 91 46 92 49 93 47 94
REMARK H PARENT 7 6 81 15 12 28 71 47 39 58
REMARK Flexibility Score: inf
ROOT
ATOM      1  C   UNL A   1      36.919  21.449  25.347  1.00  0.00     0.023 C 
ENDROOT
BRANCH   1   2
ATOM      2  C   UNL A   1      35.523  20.887  25.106  1.00  0.00     0.116 C 
BRANCH   2   3
ATOM      3  N   UNL A   1      34.689  21.010  26.280  1.00  0.00    -0.356 N 
ATOM      4  C   UNL A   1      34.087  22.045  26.933  1.00  0.00     0.224 C 
ATOM      5  O   UNL A   1      33.446  21.726  27.936  1.00  0.00    -0.275 OA
ATOM      6  H   UNL A   1      34.514  20.141  26.710  1.00  0.00     0.163 HD
BRANCH   4   7
ATOM      7  C   UNL A   1      34.075  23.488  26.573  1.00  0.00     0.098 C 
ATOM      8  C   UNL A   1      34.669  25.176  24.734  1.00  0.00     0.013 C 
ATOM      9  C   UNL A   1      33.697  24.133  25.253  1.00  0.00    -0.011 C 
ATOM     10  C   UNL A   1      33.106  23.318  24.132  1.00  0.00     0.013 C 
ATOM     11  C   UNL A   1      32.941  24.473  26.556  1.00  0.00     0.098 C 
BRANCH  11  12
ATOM     12  C   UNL A   1      31.525  24.162  26.844  1.00  0.00     0.228 C 
ATOM     13  O   UNL A   1      31.248  23.203  27.560  1.00  0.00    -0.274 OA
ATOM     14  N   UNL A   1      30.507  24.941  26.336  1.00  0.00    -0.326 N 
ATOM     15  H   UNL A   1      29.603  24.675  26.622  1.00  0.00     0.169 HD
BRANCH  14  16
ATOM     16  C   UNL A   1      30.553  26.051  25.479  1.00  0.00     0.042 A 
ATOM     17  C   UNL A   1      29.920  25.925  24.239  1.00  0.00     0.028 A 
ATOM     18  C   UNL A   1      31.156  27.261  25.819  1.00  0.00     0.043 A 
ATOM     19  C   UNL A   1      29.779  27.039  23.406  1.00  0.00     0.024 A 
ATOM     20  C   UNL A   1      31.034  28.375  24.977  1.00  0.00     0.038 A 
ATOM     21  C   UNL A   1      30.319  28.272  23.781  1.00  0.00     0.055 A 
ATOM     22  Br  UNL A   1      31.855  29.989  25.548  1.00  0.00    -0.049 Br
ATOM     23  Cl  UNL A   1      30.064  29.611  22.722  1.00  0.00    -0.083 Cl
ENDBRANCH  14  16
ENDBRANCH  11  12
ENDBRANCH   4   7
ENDBRANCH   2   3
ENDBRANCH   1   2
BRANCH   1  24
ATOM     24  C   UNL A   1      38.052  20.491  24.978  1.00  0.00     0.023 C 
BRANCH  24  25
ATOM     25  C   UNL A   1      39.327  20.648  25.802  1.00  0.00     0.116 C 
BRANCH  25  26
ATOM     26  N   UNL A   1      40.132  19.434  25.854  1.00  0.00    -0.352 N 
ATOM     27  C   UNL A   1      41.479  19.302  26.097  1.00  0.00     0.251 C 
ATOM     28  H   UNL A   1      39.644  18.594  25.694  1.00  0.00     0.163 HD
ATOM     29  O   UNL A   1      42.037  18.216  25.992  1.00  0.00    -0.269 OA
BRANCH  27  30
ATOM     30  C   UNL A   1      42.254  20.503  26.453  1.00  0.00     0.039 A 
ATOM     31  C   UNL A   1      42.868  21.238  25.437  1.00  0.00     0.014 A 
ATOM     32  C   UNL A   1      42.289  20.943  27.779  1.00  0.00     0.014 A 
ATOM     33  C   UNL A   1      43.433  22.477  25.737  1.00  0.00     0.010 A 
ATOM     34  C   UNL A   1      42.794  22.205  28.063  1.00  0.00     0.010 A 
ATOM     35  C   UNL A   1      43.348  22.993  27.041  1.00  0.00    -0.014 A 
BRANCH  35  36
ATOM     36  C   UNL A   1      43.778  24.376  27.356  1.00  0.00     0.031 A 
ATOM     37  C   UNL A   1      42.778  25.382  27.841  1.00  0.00     0.074 A 
ATOM     38  C   UNL A   1      45.047  24.747  27.097  1.00  0.00     0.049 A 
ATOM     39  N   UNL A   1      42.926  26.666  28.038  1.00  0.00    -0.248 NA
ATOM     40  C   UNL A   1      41.421  24.881  28.113  1.00  0.00     0.031 C 
ATOM     41  C   UNL A   1      46.098  23.869  26.581  1.00  0.00     0.029 A 
ATOM     42  N   UNL A   1      45.662  25.968  27.212  1.00  0.00    -0.354 N 
ATOM     43  C   UNL A   1      41.682  27.129  28.441  1.00  0.00     0.074 A 
ATOM     44  C   UNL A   1      40.780  25.999  28.419  1.00  0.00     0.031 C 
ATOM     45  C   UNL A   1      47.231  24.575  26.435  1.00  0.00     0.029 A 
ATOM     46  C   UNL A   1      46.975  25.962  26.805  1.00  0.00     0.049 A 
ATOM     47  H   UNL A   1      45.207  26.772  27.553  1.00  0.00     0.167 HD
ATOM     48  C   UNL A   1      41.333  28.383  28.815  1.00  0.00     0.037 A 
ATOM     49  C   UNL A   1      47.865  26.969  26.721  1.00  0.00     0.037 A 
ATOM     50  C   UNL A   1      42.242  29.497  28.862  1.00  0.00     0.049 A 
ATOM     51  C   UNL A   1      47.443  28.356  27.115  1.00  0.00     0.074 A 
ATOM     52  C   UNL A   1      42.006  30.786  29.306  1.00  0.00     0.029 A 
ATOM     53  N   UNL A   1      43.564  29.454  28.441  1.00  0.00    -0.354 N 
ATOM     54  N   UNL A   1      46.283  28.772  27.561  1.00  0.00    -0.248 NA
ATOM     55  C   UNL A   1      48.452  29.419  26.988  1.00  0.00     0.031 C 
ATOM     56  C   UNL A   1      43.173  31.534  29.116  1.00  0.00     0.029 A 
ATOM     57  C   UNL A   1      44.147  30.702  28.587  1.00  0.00     0.049 A 
ATOM     58  H   UNL A   1      44.019  28.655  28.092  1.00  0.00     0.167 HD
ATOM     59  C   UNL A   1      46.424  30.135  27.782  1.00  0.00     0.074 A 
ATOM     60  C   UNL A   1      47.789  30.475  27.435  1.00  0.00     0.031 C 
ATOM     61  C   UNL A   1      45.505  31.023  28.231  1.00  0.00     0.037 A 
BRANCH  48  62
ATOM     62  C   UNL A   1      39.906  28.614  29.210  1.00  0.00     0.064 A 
ATOM     63  C   UNL A   1      39.460  28.384  30.520  1.00  0.00     0.173 A 
ATOM     64  C   UNL A   1      38.978  29.098  28.275  1.00  0.00     0.173 A 
ATOM     65  F   UNL A   1      40.306  27.908  31.447  1.00  0.00    -0.203 F 
ATOM     66  C   UNL A   1      38.132  28.605  30.874  1.00  0.00     0.198 A 
ATOM     67  C   UNL A   1      37.657  29.343  28.640  1.00  0.00     0.198 A 
ATOM     68  F   UNL A   1      39.355  29.336  27.010  1.00  0.00    -0.203 F 
ATOM     69  F   UNL A   1      37.718  28.334  32.120  1.00  0.00    -0.200 F 
ATOM     70  C   UNL A   1      37.234  29.089  29.936  1.00  0.00     0.200 A 
ATOM     71  F   UNL A   1      36.791  29.820  27.734  1.00  0.00    -0.200 F 
ATOM     72  F   UNL A   1      35.956  29.306  30.279  1.00  0.00    -0.200 F 
ENDBRANCH  48  62
BRANCH  49  73
ATOM     73  C   UNL A   1      49.247  26.697  26.249  1.00  0.00     0.064 A 
ATOM     74  C   UNL A   1      50.226  26.231  27.136  1.00  0.00     0.173 A 
ATOM     75  C   UNL A   1      49.615  26.887  24.910  1.00  0.00     0.173 A 
ATOM     76  F   UNL A   1      49.927  26.054  28.432  1.00  0.00    -0.203 F 
ATOM     77  C   UNL A   1      51.525  25.975  26.703  1.00  0.00     0.198 A 
ATOM     78  C   UNL A   1      50.908  26.609  24.473  1.00  0.00     0.198 A 
ATOM     79  F   UNL A   1      48.712  27.329  24.022  1.00  0.00    -0.203 F 
ATOM     80  F   UNL A   1      52.452  25.562  27.580  1.00  0.00    -0.200 F 
ATOM     81  C   UNL A   1      51.863  26.158  25.371  1.00  0.00     0.200 A 
ATOM     82  F   UNL A   1      51.227  26.776  23.183  1.00  0.00    -0.200 F 
ATOM     83  F   UNL A   1      53.112  25.905  24.954  1.00  0.00    -0.200 F 
ENDBRANCH  49  73
BRANCH  61  84
ATOM     84  C   UNL A   1      45.945  32.448  28.381  1.00  0.00     0.064 A 
ATOM     85  C   UNL A   1      46.554  32.903  29.559  1.00  0.00     0.173 A 
ATOM     86  C   UNL A   1      45.805  33.353  27.318  1.00  0.00     0.173 A 
ATOM     87  F   UNL A   1      46.693  32.078  30.609  1.00  0.00    -0.203 F 
ATOM     88  C   UNL A   1      46.997  34.218  29.672  1.00  0.00     0.198 A 
ATOM     89  C   UNL A   1      46.272  34.659  27.426  1.00  0.00     0.198 A 
ATOM     90  F   UNL A   1      45.233  32.963  26.169  1.00  0.00    -0.203 F 
ATOM     91  F   UNL A   1      47.547  34.641  30.819  1.00  0.00    -0.200 F 
ATOM     92  C   UNL A   1      46.864  35.092  28.603  1.00  0.00     0.200 A 
ATOM     93  F   UNL A   1      46.151  35.500  26.389  1.00  0.00    -0.200 F 
ATOM     94  F   UNL A   1      47.301  36.353  28.710  1.00  0.00    -0.200 F 
ENDBRANCH  61  84
ENDBRANCH  35  36
ENDBRANCH  27  30
ENDBRANCH  25  26
ENDBRANCH  24  25
ENDBRANCH   1  24
TORSDOF 13
ENDMDL
MODEL 3
REMARK VINA RESULT:     -13.1      0.414      7.489
REMARK SMILES CC1(C)[C@H](C(=O)NCCCCNC(=O)c2ccc(-c3c4nc(c(-c5c(F)c(F)c(F)c(F)c5F)c5ccc([nH]5)c(-c5c(F)c(F)c(F)c(F)c5F)c5nc(c(-c6c(F)c(F)c(F)c(F)c6F)c6ccc3[nH]6)C=C5)C=C4)cc2)[C@@H]1C(=O)Nc1ccc(Cl)c(Br)c1
REMARK SMILES IDX 9 1 8 2 7 3 5 4 6 5 4 7 1 8 2 9 3 10 78 11 79 12 80 13 81 14
REMARK SMILES IDX 82 16 83 17 89 18 84 19 87 20 85 21 88 22 86 23 10 24 11 25
REMARK SMILES IDX 12 26 13 27 14 29 15 30 16 31 77 32 17 33 76 34 18 35 19 36
REMARK SMILES IDX 20 37 70 38 21 39 75 40 69 41 71 42 22 43 74 44 68 45 67 46
REMARK SMILES IDX 23 48 55 49 35 50 54 51 36 52 39 53 53 54 72 55 37 56 38 57
REMARK SMILES IDX 52 59 73 60 40 61 24 62 25 63 33 64 26 65 27 66 31 67 34 68
REMARK SMILES IDX 28 69 29 70 32 71 30 72 56 73 57 74 65 75 58 76 59 77 63 78
REMARK SMILES IDX 66 79 60 80 61 81 64 82 62 83 41 84 42 85 50 86 43 87 44 88
REMARK SMILES IDX 48 89 51 90 45 91 46 92 49 93 47 94
REMARK H PARENT 7 6 81 15 12 28 71 47 39 58
REMARK Flexibility Score: inf
ROOT
ATOM      1  C   UNL A   1      36.959  21.065  25.054  1.00  0.00     0.023 C 
ENDROOT
BRANCH   1   2
ATOM      2  C   UNL A   1      35.544  20.513  24.917  1.00  0.00     0.116 C 
BRANCH   2   3
ATOM      3  N   UNL A   1      34.778  20.703  26.127  1.00  0.00    -0.356 N 
ATOM      4  C   UNL A   1      34.254  21.780  26.778  1.00  0.00     0.224 C 
ATOM      5  O   UNL A   1      33.653  21.516  27.822  1.00  0.00    -0.275 OA
ATOM      6  H   UNL A   1      34.591  19.855  26.592  1.00  0.00     0.163 HD
BRANCH   4   7
ATOM      7  C   UNL A   1      34.282  23.212  26.376  1.00  0.00     0.098 C 
ATOM      8  C   UNL A   1      34.776  24.815  24.436  1.00  0.00     0.013 C 
ATOM      9  C   UNL A   1      33.807  23.842  25.081  1.00  0.00    -0.011 C 
ATOM     10  C   UNL A   1      33.065  23.032  24.049  1.00  0.00     0.013 C 
ATOM     11  C   UNL A   1      33.204  24.258  26.440  1.00  0.00     0.098 C 
BRANCH  11  12
ATOM     12  C   UNL A   1      31.810  24.032  26.877  1.00  0.00     0.228 C 
ATOM     13  O   UNL A   1      31.552  23.092  27.623  1.00  0.00    -0.274 OA
ATOM     14  N   UNL A   1      30.794  24.872  26.474  1.00  0.00    -0.326 N 
ATOM     15  H   UNL A   1      29.911  24.662  26.854  1.00  0.00     0.169 HD
BRANCH  14  16
ATOM     16  C   UNL A   1      30.817  25.978  25.611  1.00  0.00     0.042 A 
ATOM     17  C   UNL A   1      30.288  25.798  24.329  1.00  0.00     0.028 A 
ATOM     18  C   UNL A   1      31.299  27.234  25.980  1.00  0.00     0.043 A 
ATOM     19  C   UNL A   1      30.123  26.893  23.476  1.00  0.00     0.024 A 
ATOM     20  C   UNL A   1      31.153  28.330  25.120  1.00  0.00     0.038 A 
ATOM     21  C   UNL A   1      30.538  28.166  23.876  1.00  0.00     0.055 A 
ATOM     22  Br  UNL A   1      31.804  30.006  25.732  1.00  0.00    -0.049 Br
ATOM     23  Cl  UNL A   1      30.260  29.476  22.787  1.00  0.00    -0.083 Cl
ENDBRANCH  14  16
ENDBRANCH  11  12
ENDBRANCH   4   7
ENDBRANCH   2   3
ENDBRANCH   1   2
BRANCH   1  24
ATOM     24  C   UNL A   1      38.054  20.000  25.002  1.00  0.00     0.023 C 
BRANCH  24  25
ATOM     25  C   UNL A   1      39.316  20.329  25.796  1.00  0.00     0.116 C 
BRANCH  25  26
ATOM     26  N   UNL A   1      40.230  19.201  25.917  1.00  0.00    -0.352 N 
ATOM     27  C   UNL A   1      41.589  19.212  26.126  1.00  0.00     0.251 C 
ATOM     28  H   UNL A   1      39.819  18.310  25.840  1.00  0.00     0.163 HD
ATOM     29  O   UNL A   1      42.243  18.176  26.088  1.00  0.00    -0.269 OA
BRANCH  27  30
ATOM     30  C   UNL A   1      42.258  20.503  26.360  1.00  0.00     0.039 A 
ATOM     31  C   UNL A   1      42.784  21.201  25.271  1.00  0.00     0.014 A 
ATOM     32  C   UNL A   1      42.278  21.056  27.643  1.00  0.00     0.014 A 
ATOM     33  C   UNL A   1      43.239  22.507  25.452  1.00  0.00     0.010 A 
ATOM     34  C   UNL A   1      42.672  22.378  27.809  1.00  0.00     0.010 A 
ATOM     35  C   UNL A   1      43.132  23.122  26.710  1.00  0.00    -0.014 A 
BRANCH  35  36
ATOM     36  C   UNL A   1      43.440  24.560  26.898  1.00  0.00     0.031 A 
ATOM     37  C   UNL A   1      44.826  25.071  26.645  1.00  0.00     0.074 A 
ATOM     38  C   UNL A   1      42.493  25.376  27.400  1.00  0.00     0.049 A 
ATOM     39  N   UNL A   1      45.325  26.257  26.879  1.00  0.00    -0.248 NA
ATOM     40  C   UNL A   1      45.787  24.112  26.078  1.00  0.00     0.031 C 
ATOM     41  C   UNL A   1      41.122  24.982  27.729  1.00  0.00     0.029 A 
ATOM     42  N   UNL A   1      42.548  26.703  27.746  1.00  0.00    -0.354 N 
ATOM     43  C   UNL A   1      46.658  26.183  26.505  1.00  0.00     0.074 A 
ATOM     44  C   UNL A   1      46.903  24.826  26.069  1.00  0.00     0.031 C 
ATOM     45  C   UNL A   1      40.463  26.046  28.216  1.00  0.00     0.029 A 
ATOM     46  C   UNL A   1      41.375  27.182  28.275  1.00  0.00     0.049 A 
ATOM     47  H   UNL A   1      43.352  27.259  27.626  1.00  0.00     0.167 HD
ATOM     48  C   UNL A   1      47.588  27.168  26.508  1.00  0.00     0.037 A 
ATOM     49  C   UNL A   1      41.075  28.398  28.771  1.00  0.00     0.037 A 
ATOM     50  C   UNL A   1      47.331  28.523  26.917  1.00  0.00     0.049 A 
ATOM     51  C   UNL A   1      42.134  29.464  28.789  1.00  0.00     0.074 A 
ATOM     52  C   UNL A   1      48.183  29.612  26.877  1.00  0.00     0.029 A 
ATOM     53  N   UNL A   1      46.131  28.972  27.448  1.00  0.00    -0.354 N 
ATOM     54  N   UNL A   1      43.374  29.405  28.369  1.00  0.00    -0.248 NA
ATOM     55  C   UNL A   1      41.755  30.767  29.356  1.00  0.00     0.031 C 
ATOM     56  C   UNL A   1      47.511  30.712  27.423  1.00  0.00     0.029 A 
ATOM     57  C   UNL A   1      46.229  30.316  27.769  1.00  0.00     0.049 A 
ATOM     58  H   UNL A   1      45.328  28.417  27.577  1.00  0.00     0.167 HD
ATOM     59  C   UNL A   1      43.918  30.659  28.605  1.00  0.00     0.074 A 
ATOM     60  C   UNL A   1      42.869  31.466  29.193  1.00  0.00     0.031 C 
ATOM     61  C   UNL A   1      45.175  31.101  28.359  1.00  0.00     0.037 A 
BRANCH  48  62
ATOM     62  C   UNL A   1      48.970  26.814  26.048  1.00  0.00     0.064 A 
ATOM     63  C   UNL A   1      49.382  27.033  24.726  1.00  0.00     0.173 A 
ATOM     64  C   UNL A   1      49.904  26.277  26.947  1.00  0.00     0.173 A 
ATOM     65  F   UNL A   1      48.521  27.533  23.825  1.00  0.00    -0.203 F 
ATOM     66  C   UNL A   1      50.670  26.703  24.313  1.00  0.00     0.198 A 
ATOM     67  C   UNL A   1      51.199  25.972  26.537  1.00  0.00     0.198 A 
ATOM     68  F   UNL A   1      49.560  26.051  28.225  1.00  0.00    -0.203 F 
ATOM     69  F   UNL A   1      51.026  26.877  23.032  1.00  0.00    -0.200 F 
ATOM     70  C   UNL A   1      51.578  26.178  25.219  1.00  0.00     0.200 A 
ATOM     71  F   UNL A   1      52.079  25.474  27.416  1.00  0.00    -0.200 F 
ATOM     72  F   UNL A   1      52.819  25.864  24.821  1.00  0.00    -0.200 F 
ENDBRANCH  48  62
BRANCH  49  73
ATOM     73  C   UNL A   1      39.709  28.671  29.285  1.00  0.00     0.064 A 
ATOM     74  C   UNL A   1      39.376  28.385  30.616  1.00  0.00     0.173 A 
ATOM     75  C   UNL A   1      38.716  29.228  28.468  1.00  0.00     0.173 A 
ATOM     76  F   UNL A   1      40.287  27.832  31.430  1.00  0.00    -0.203 F 
ATOM     77  C   UNL A   1      38.097  28.636  31.107  1.00  0.00     0.198 A 
ATOM     78  C   UNL A   1      37.443  29.499  28.966  1.00  0.00     0.198 A 
ATOM     79  F   UNL A   1      38.986  29.522  27.187  1.00  0.00    -0.203 F 
ATOM     80  F   UNL A   1      37.794  28.321  32.374  1.00  0.00    -0.200 F 
ATOM     81  C   UNL A   1      37.134  29.198  30.283  1.00  0.00     0.200 A 
ATOM     82  F   UNL A   1      36.519  30.054  28.170  1.00  0.00    -0.200 F 
ATOM     83  F   UNL A   1      35.904  29.445  30.758  1.00  0.00    -0.200 F 
ENDBRANCH  49  73
BRANCH  61  84
ATOM     84  C   UNL A   1      45.484  32.524  28.715  1.00  0.00     0.064 A 
ATOM     85  C   UNL A   1      46.047  32.858  29.955  1.00  0.00     0.173 A 
ATOM     86  C   UNL A   1      45.265  33.554  27.789  1.00  0.00     0.173 A 
ATOM     87  F   UNL A   1      46.257  31.909  30.879  1.00  0.00    -0.203 F 
ATOM     88  C   UNL A   1      46.369  34.178  30.259  1.00  0.00     0.198 A 
ATOM     89  C   UNL A   1      45.611  34.869  28.088  1.00  0.00     0.198 A 
ATOM     90  F   UNL A   1      44.733  33.283  26.588  1.00  0.00    -0.203 F 
ATOM     91  F   UNL A   1      46.875  34.481  31.463  1.00  0.00    -0.200 F 
ATOM     92  C   UNL A   1      46.159  35.180  29.323  1.00  0.00     0.200 A 
ATOM     93  F   UNL A   1      45.417  35.834  27.179  1.00  0.00    -0.200 F 
ATOM     94  F   UNL A   1      46.480  36.448  29.614  1.00  0.00    -0.200 F 
ENDBRANCH  61  84
ENDBRANCH  35  36
ENDBRANCH  27  30
ENDBRANCH  25  26
ENDBRANCH  24  25
ENDBRANCH   1  24
TORSDOF 13
ENDMDL
