MODEL 1
REMARK VINA RESULT:     -12.3      0.000      0.000
REMARK SMILES Cc1ccccc1OCC(=O)NCCC(=O)NCCCCNC(=O)c1ccc(-c2c3nc(c(-c4c(F)c(F)c(F)c(F)c4F)c4ccc([nH]4)c(-c4c(F)c(F)c(F)c(F)c4F)c4nc(c(-c5c(F)c(F)c(F)c(F)c5F)c5ccc2[nH]5)C=C4)C=C3)cc1
REMARK SMILES IDX 18 1 17 2 15 3 16 4 14 6 13 7 12 8 10 9 11 10 9 12 8 13 7 14
REMARK SMILES IDX 1 15 2 16 3 17 4 18 6 19 5 20 19 21 20 22 21 23 22 24 23 25
REMARK SMILES IDX 24 27 25 28 26 29 87 30 27 31 86 32 28 33 29 34 30 35 80 36
REMARK SMILES IDX 31 37 85 38 79 39 81 40 32 41 84 42 78 43 77 44 33 46 65 47
REMARK SMILES IDX 45 48 64 49 46 50 49 51 63 52 82 53 47 54 48 55 62 57 83 58
REMARK SMILES IDX 50 59 34 60 35 61 43 62 36 63 37 64 41 65 44 66 38 67 39 68
REMARK SMILES IDX 42 69 40 70 66 71 67 72 75 73 68 74 69 75 73 76 76 77 70 78
REMARK SMILES IDX 71 79 74 80 72 81 51 82 52 83 60 84 53 85 54 86 58 87 61 88
REMARK SMILES IDX 55 89 56 90 59 91 57 92
REMARK H PARENT 17 5 12 11 22 26 81 45 49 56
REMARK Flexibility Score: inf
ROOT
ATOM      1  C   UNL A   1      36.135  21.554  25.573  1.00  0.00     0.116 C 
ENDROOT
BRANCH   1   2
ATOM      2  N   UNL A   1      35.005  20.637  25.557  1.00  0.00    -0.356 N 
ATOM      3  C   UNL A   1      33.696  20.846  25.237  1.00  0.00     0.221 C 
ATOM      4  O   UNL A   1      32.912  19.900  25.347  1.00  0.00    -0.275 OA
ATOM      5  H   UNL A   1      35.220  19.713  25.820  1.00  0.00     0.163 HD
BRANCH   3   6
ATOM      6  C   UNL A   1      33.213  22.200  24.775  1.00  0.00     0.121 C 
BRANCH   6   7
ATOM      7  C   UNL A   1      31.709  22.212  24.522  1.00  0.00     0.126 C 
BRANCH   7   8
ATOM      8  N   UNL A   1      30.926  22.194  25.744  1.00  0.00    -0.353 N 
ATOM      9  C   UNL A   1      30.561  23.230  26.558  1.00  0.00     0.257 C 
ATOM     10  O   UNL A   1      29.998  22.972  27.623  1.00  0.00    -0.271 OA
ATOM     11  H   UNL A   1      30.612  21.305  26.029  1.00  0.00     0.163 HD
BRANCH   9  12
ATOM     12  C   UNL A   1      30.769  24.672  26.096  1.00  0.00     0.329 C 
BRANCH  12  13
ATOM     13  O   UNL A   1      32.019  25.261  26.343  1.00  0.00    -0.484 OA
BRANCH  13  14
ATOM     14  C   UNL A   1      32.419  26.457  25.831  1.00  0.00     0.122 A 
ATOM     15  C   UNL A   1      31.680  28.191  27.624  1.00  0.00     0.048 C 
ATOM     16  C   UNL A   1      32.313  27.761  26.332  1.00  0.00    -0.009 A 
ATOM     17  C   UNL A   1      32.919  28.801  25.588  1.00  0.00     0.007 A 
ATOM     18  C   UNL A   1      33.584  28.577  24.384  1.00  0.00     0.001 A 
ATOM     19  C   UNL A   1      33.087  26.249  24.606  1.00  0.00     0.047 A 
ATOM     20  C   UNL A   1      33.663  27.291  23.885  1.00  0.00     0.004 A 
ENDBRANCH  13  14
ENDBRANCH  12  13
ENDBRANCH   9  12
ENDBRANCH   7   8
ENDBRANCH   6   7
ENDBRANCH   3   6
ENDBRANCH   1   2
BRANCH   1  21
ATOM     21  C   UNL A   1      37.394  20.960  24.927  1.00  0.00     0.023 C 
BRANCH  21  22
ATOM     22  C   UNL A   1      38.675  21.074  25.747  1.00  0.00     0.023 C 
BRANCH  22  23
ATOM     23  C   UNL A   1      39.041  22.503  26.107  1.00  0.00     0.116 C 
BRANCH  23  24
ATOM     24  N   UNL A   1      40.454  22.716  26.394  1.00  0.00    -0.352 N 
ATOM     25  C   UNL A   1      41.127  23.902  26.674  1.00  0.00     0.251 C 
ATOM     26  H   UNL A   1      41.013  21.905  26.389  1.00  0.00     0.163 HD
ATOM     27  O   UNL A   1      42.327  23.911  26.842  1.00  0.00    -0.269 OA
BRANCH  25  28
ATOM     28  C   UNL A   1      40.325  25.131  26.916  1.00  0.00     0.039 A 
ATOM     29  C   UNL A   1      40.701  26.294  26.234  1.00  0.00     0.014 A 
ATOM     30  C   UNL A   1      39.433  25.200  27.978  1.00  0.00     0.014 A 
ATOM     31  C   UNL A   1      40.414  27.532  26.801  1.00  0.00     0.010 A 
ATOM     32  C   UNL A   1      39.271  26.412  28.615  1.00  0.00     0.010 A 
ATOM     33  C   UNL A   1      39.829  27.571  28.064  1.00  0.00    -0.014 A 
BRANCH  33  34
ATOM     34  C   UNL A   1      39.858  28.745  28.928  1.00  0.00     0.031 A 
ATOM     35  C   UNL A   1      38.841  29.807  28.781  1.00  0.00     0.074 A 
ATOM     36  C   UNL A   1      40.747  28.811  29.947  1.00  0.00     0.049 A 
ATOM     37  N   UNL A   1      38.975  31.006  29.238  1.00  0.00    -0.248 NA
ATOM     38  C   UNL A   1      37.589  29.604  28.066  1.00  0.00     0.031 C 
ATOM     39  C   UNL A   1      40.715  29.730  31.084  1.00  0.00     0.029 A 
ATOM     40  N   UNL A   1      41.995  28.168  30.059  1.00  0.00    -0.354 N 
ATOM     41  C   UNL A   1      37.759  31.640  29.131  1.00  0.00     0.074 A 
ATOM     42  C   UNL A   1      36.946  30.743  28.342  1.00  0.00     0.031 C 
ATOM     43  C   UNL A   1      41.954  29.840  31.586  1.00  0.00     0.029 A 
ATOM     44  C   UNL A   1      42.840  29.109  30.700  1.00  0.00     0.049 A 
ATOM     45  H   UNL A   1      42.229  27.261  29.757  1.00  0.00     0.167 HD
ATOM     46  C   UNL A   1      37.551  32.796  29.827  1.00  0.00     0.037 A 
ATOM     47  C   UNL A   1      43.920  29.646  30.060  1.00  0.00     0.037 A 
ATOM     48  C   UNL A   1      38.766  33.239  30.514  1.00  0.00     0.049 A 
ATOM     49  C   UNL A   1      43.904  31.148  29.905  1.00  0.00     0.074 A 
ATOM     50  C   UNL A   1      39.212  33.214  31.826  1.00  0.00     0.029 A 
ATOM     51  N   UNL A   1      39.872  33.577  29.752  1.00  0.00    -0.354 N 
ATOM     52  N   UNL A   1      42.910  31.920  30.239  1.00  0.00    -0.248 NA
ATOM     53  C   UNL A   1      44.984  31.882  29.246  1.00  0.00     0.031 C 
ATOM     54  C   UNL A   1      40.586  33.588  31.841  1.00  0.00     0.029 A 
ATOM     55  C   UNL A   1      40.977  33.831  30.538  1.00  0.00     0.049 A 
ATOM     56  H   UNL A   1      39.869  33.629  28.768  1.00  0.00     0.167 HD
ATOM     57  C   UNL A   1      43.151  33.192  29.785  1.00  0.00     0.074 A 
ATOM     58  C   UNL A   1      44.466  33.118  29.174  1.00  0.00     0.031 C 
ATOM     59  C   UNL A   1      42.228  34.193  29.896  1.00  0.00     0.037 A 
BRANCH  46  60
ATOM     60  C   UNL A   1      36.185  33.402  30.079  1.00  0.00     0.064 A 
ATOM     61  C   UNL A   1      35.467  34.026  29.035  1.00  0.00     0.173 A 
ATOM     62  C   UNL A   1      35.549  33.457  31.334  1.00  0.00     0.173 A 
ATOM     63  F   UNL A   1      35.862  33.939  27.760  1.00  0.00    -0.203 F 
ATOM     64  C   UNL A   1      34.301  34.765  29.260  1.00  0.00     0.198 A 
ATOM     65  C   UNL A   1      34.418  34.245  31.571  1.00  0.00     0.198 A 
ATOM     66  F   UNL A   1      35.954  32.694  32.355  1.00  0.00    -0.203 F 
ATOM     67  F   UNL A   1      33.674  35.343  28.225  1.00  0.00    -0.200 F 
ATOM     68  C   UNL A   1      33.803  34.914  30.536  1.00  0.00     0.200 A 
ATOM     69  F   UNL A   1      33.927  34.345  32.816  1.00  0.00    -0.200 F 
ATOM     70  F   UNL A   1      32.719  35.668  30.759  1.00  0.00    -0.200 F 
ENDBRANCH  46  60
BRANCH  47  71
ATOM     71  C   UNL A   1      44.556  28.712  29.099  1.00  0.00     0.064 A 
ATOM     72  C   UNL A   1      45.429  27.738  29.603  1.00  0.00     0.173 A 
ATOM     73  C   UNL A   1      44.037  28.521  27.815  1.00  0.00     0.173 A 
ATOM     74  F   UNL A   1      45.990  27.913  30.808  1.00  0.00    -0.203 F 
ATOM     75  C   UNL A   1      45.657  26.548  28.918  1.00  0.00     0.198 A 
ATOM     76  C   UNL A   1      44.287  27.338  27.117  1.00  0.00     0.198 A 
ATOM     77  F   UNL A   1      43.194  29.420  27.286  1.00  0.00    -0.203 F 
ATOM     78  F   UNL A   1      46.397  25.583  29.483  1.00  0.00    -0.200 F 
ATOM     79  C   UNL A   1      45.059  26.335  27.688  1.00  0.00     0.200 A 
ATOM     80  F   UNL A   1      43.700  27.132  25.931  1.00  0.00    -0.200 F 
ATOM     81  F   UNL A   1      45.198  25.158  27.065  1.00  0.00    -0.200 F 
ENDBRANCH  47  71
BRANCH  59  82
ATOM     82  C   UNL A   1      42.419  35.592  29.369  1.00  0.00     0.064 A 
ATOM     83  C   UNL A   1      41.879  36.033  28.151  1.00  0.00     0.173 A 
ATOM     84  C   UNL A   1      43.242  36.522  30.044  1.00  0.00     0.173 A 
ATOM     85  F   UNL A   1      41.164  35.205  27.376  1.00  0.00    -0.203 F 
ATOM     86  C   UNL A   1      42.086  37.333  27.681  1.00  0.00     0.198 A 
ATOM     87  C   UNL A   1      43.495  37.798  29.545  1.00  0.00     0.198 A 
ATOM     88  F   UNL A   1      43.812  36.235  31.223  1.00  0.00    -0.203 F 
ATOM     89  F   UNL A   1      41.495  37.731  26.546  1.00  0.00    -0.200 F 
ATOM     90  C   UNL A   1      42.898  38.213  28.373  1.00  0.00     0.200 A 
ATOM     91  F   UNL A   1      44.311  38.624  30.215  1.00  0.00    -0.200 F 
ATOM     92  F   UNL A   1      43.108  39.454  27.914  1.00  0.00    -0.200 F 
ENDBRANCH  59  82
ENDBRANCH  33  34
ENDBRANCH  25  28
ENDBRANCH  23  24
ENDBRANCH  22  23
ENDBRANCH  21  22
ENDBRANCH   1  21
TORSDOF 16
ENDMDL
MODEL 2
REMARK VINA RESULT:     -12.2      3.423      9.924
REMARK SMILES Cc1ccccc1OCC(=O)NCCC(=O)NCCCCNC(=O)c1ccc(-c2c3nc(c(-c4c(F)c(F)c(F)c(F)c4F)c4ccc([nH]4)c(-c4c(F)c(F)c(F)c(F)c4F)c4nc(c(-c5c(F)c(F)c(F)c(F)c5F)c5ccc2[nH]5)C=C4)C=C3)cc1
REMARK SMILES IDX 18 1 17 2 15 3 16 4 14 6 13 7 12 8 10 9 11 10 9 12 8 13 7 14
REMARK SMILES IDX 1 15 2 16 3 17 4 18 6 19 5 20 19 21 20 22 21 23 22 24 23 25
REMARK SMILES IDX 24 27 25 28 26 29 87 30 27 31 86 32 28 33 29 34 30 35 80 36
REMARK SMILES IDX 31 37 85 38 79 39 81 40 32 41 84 42 78 43 77 44 33 46 65 47
REMARK SMILES IDX 45 48 64 49 46 50 49 51 63 52 82 53 47 54 48 55 62 57 83 58
REMARK SMILES IDX 50 59 34 60 35 61 43 62 36 63 37 64 41 65 44 66 38 67 39 68
REMARK SMILES IDX 42 69 40 70 66 71 67 72 75 73 68 74 69 75 73 76 76 77 70 78
REMARK SMILES IDX 71 79 74 80 72 81 51 82 52 83 60 84 53 85 54 86 58 87 61 88
REMARK SMILES IDX 55 89 56 90 59 91 57 92
REMARK H PARENT 17 5 12 11 22 26 81 45 49 56
REMARK Flexibility Score: inf
ROOT
ATOM      1  C   UNL A   1      32.448  29.209  24.893  1.00  0.00     0.116 C 
ENDROOT
BRANCH   1   2
ATOM      2  N   UNL A   1      31.894  28.872  23.590  1.00  0.00    -0.356 N 
ATOM      3  C   UNL A   1      30.970  27.936  23.233  1.00  0.00     0.221 C 
ATOM      4  O   UNL A   1      30.697  27.814  22.036  1.00  0.00    -0.275 OA
ATOM      5  H   UNL A   1      32.246  29.407  22.842  1.00  0.00     0.163 HD
BRANCH   3   6
ATOM      6  C   UNL A   1      30.306  27.061  24.270  1.00  0.00     0.121 C 
BRANCH   6   7
ATOM      7  C   UNL A   1      31.082  25.770  24.507  1.00  0.00     0.126 C 
BRANCH   7   8
ATOM      8  N   UNL A   1      32.025  25.469  23.444  1.00  0.00    -0.353 N 
ATOM      9  C   UNL A   1      33.388  25.381  23.491  1.00  0.00     0.257 C 
ATOM     10  O   UNL A   1      34.006  25.239  22.434  1.00  0.00    -0.271 OA
ATOM     11  H   UNL A   1      31.623  25.304  22.560  1.00  0.00     0.163 HD
BRANCH   9  12
ATOM     12  C   UNL A   1      34.105  25.367  24.840  1.00  0.00     0.329 C 
BRANCH  12  13
ATOM     13  O   UNL A   1      34.177  24.144  25.527  1.00  0.00    -0.484 OA
BRANCH  13  14
ATOM     14  C   UNL A   1      35.188  23.244  25.389  1.00  0.00     0.122 A 
ATOM     15  C   UNL A   1      34.009  21.096  24.517  1.00  0.00     0.048 C 
ATOM     16  C   UNL A   1      35.191  21.914  24.952  1.00  0.00    -0.009 A 
ATOM     17  C   UNL A   1      36.442  21.264  24.834  1.00  0.00     0.007 A 
ATOM     18  C   UNL A   1      37.648  21.885  25.157  1.00  0.00     0.001 A 
ATOM     19  C   UNL A   1      36.415  23.855  25.722  1.00  0.00     0.047 A 
ATOM     20  C   UNL A   1      37.633  23.190  25.612  1.00  0.00     0.004 A 
ENDBRANCH  13  14
ENDBRANCH  12  13
ENDBRANCH   9  12
ENDBRANCH   7   8
ENDBRANCH   6   7
ENDBRANCH   3   6
ENDBRANCH   1   2
BRANCH   1  21
ATOM     21  C   UNL A   1      31.481  30.030  25.757  1.00  0.00     0.023 C 
BRANCH  21  22
ATOM     22  C   UNL A   1      32.125  31.089  26.647  1.00  0.00     0.023 C 
BRANCH  22  23
ATOM     23  C   UNL A   1      33.359  30.595  27.381  1.00  0.00     0.116 C 
BRANCH  23  24
ATOM     24  N   UNL A   1      34.015  31.598  28.211  1.00  0.00    -0.352 N 
ATOM     25  C   UNL A   1      35.182  31.492  28.962  1.00  0.00     0.251 C 
ATOM     26  H   UNL A   1      33.569  32.475  28.246  1.00  0.00     0.163 HD
ATOM     27  O   UNL A   1      35.568  32.417  29.644  1.00  0.00    -0.269 OA
BRANCH  25  28
ATOM     28  C   UNL A   1      36.029  30.281  28.791  1.00  0.00     0.039 A 
ATOM     29  C   UNL A   1      36.377  29.566  29.943  1.00  0.00     0.014 A 
ATOM     30  C   UNL A   1      36.680  30.034  27.590  1.00  0.00     0.014 A 
ATOM     31  C   UNL A   1      37.558  28.831  29.949  1.00  0.00     0.010 A 
ATOM     32  C   UNL A   1      37.918  29.428  27.633  1.00  0.00     0.010 A 
ATOM     33  C   UNL A   1      38.391  28.892  28.835  1.00  0.00    -0.014 A 
BRANCH  33  34
ATOM     34  C   UNL A   1      39.804  28.528  28.866  1.00  0.00     0.031 A 
ATOM     35  C   UNL A   1      40.234  27.169  28.480  1.00  0.00     0.074 A 
ATOM     36  C   UNL A   1      40.737  29.471  29.133  1.00  0.00     0.049 A 
ATOM     37  N   UNL A   1      41.374  26.654  28.796  1.00  0.00    -0.248 NA
ATOM     38  C   UNL A   1      39.383  26.257  27.728  1.00  0.00     0.031 C 
ATOM     39  C   UNL A   1      42.177  29.376  28.898  1.00  0.00     0.029 A 
ATOM     40  N   UNL A   1      40.587  30.664  29.868  1.00  0.00    -0.354 N 
ATOM     41  C   UNL A   1      41.527  25.489  28.081  1.00  0.00     0.074 A 
ATOM     42  C   UNL A   1      40.235  25.258  27.476  1.00  0.00     0.031 C 
ATOM     43  C   UNL A   1      42.806  30.241  29.706  1.00  0.00     0.029 A 
ATOM     44  C   UNL A   1      41.802  30.813  30.584  1.00  0.00     0.049 A 
ATOM     45  H   UNL A   1      39.807  31.263  29.882  1.00  0.00     0.167 HD
ATOM     46  C   UNL A   1      42.766  24.924  27.991  1.00  0.00     0.037 A 
ATOM     47  C   UNL A   1      41.835  30.756  31.948  1.00  0.00     0.037 A 
ATOM     48  C   UNL A   1      43.747  25.639  28.811  1.00  0.00     0.049 A 
ATOM     49  C   UNL A   1      42.694  29.661  32.534  1.00  0.00     0.074 A 
ATOM     50  C   UNL A   1      44.773  26.532  28.551  1.00  0.00     0.029 A 
ATOM     51  N   UNL A   1      43.563  25.673  30.183  1.00  0.00    -0.354 N 
ATOM     52  N   UNL A   1      43.298  28.739  31.841  1.00  0.00    -0.248 NA
ATOM     53  C   UNL A   1      42.841  29.463  33.975  1.00  0.00     0.031 C 
ATOM     54  C   UNL A   1      45.232  27.064  29.790  1.00  0.00     0.029 A 
ATOM     55  C   UNL A   1      44.478  26.501  30.802  1.00  0.00     0.049 A 
ATOM     56  H   UNL A   1      42.864  25.169  30.659  1.00  0.00     0.167 HD
ATOM     57  C   UNL A   1      43.824  27.802  32.694  1.00  0.00     0.074 A 
ATOM     58  C   UNL A   1      43.516  28.303  34.021  1.00  0.00     0.031 C 
ATOM     59  C   UNL A   1      44.421  26.659  32.244  1.00  0.00     0.037 A 
BRANCH  46  60
ATOM     60  C   UNL A   1      43.146  23.863  26.976  1.00  0.00     0.064 A 
ATOM     61  C   UNL A   1      42.775  22.514  27.168  1.00  0.00     0.173 A 
ATOM     62  C   UNL A   1      43.923  24.094  25.826  1.00  0.00     0.173 A 
ATOM     63  F   UNL A   1      41.921  22.149  28.131  1.00  0.00    -0.203 F 
ATOM     64  C   UNL A   1      43.265  21.478  26.368  1.00  0.00     0.198 A 
ATOM     65  C   UNL A   1      44.464  23.055  25.062  1.00  0.00     0.198 A 
ATOM     66  F   UNL A   1      44.126  25.330  25.357  1.00  0.00    -0.203 F 
ATOM     67  F   UNL A   1      42.883  20.215  26.611  1.00  0.00    -0.200 F 
ATOM     68  C   UNL A   1      44.148  21.743  25.344  1.00  0.00     0.200 A 
ATOM     69  F   UNL A   1      45.290  23.338  24.044  1.00  0.00    -0.200 F 
ATOM     70  F   UNL A   1      44.662  20.745  24.612  1.00  0.00    -0.200 F 
ENDBRANCH  46  60
BRANCH  47  71
ATOM     71  C   UNL A   1      40.606  31.287  32.586  1.00  0.00     0.064 A 
ATOM     72  C   UNL A   1      40.425  32.677  32.617  1.00  0.00     0.173 A 
ATOM     73  C   UNL A   1      39.485  30.479  32.797  1.00  0.00     0.173 A 
ATOM     74  F   UNL A   1      41.485  33.485  32.476  1.00  0.00    -0.203 F 
ATOM     75  C   UNL A   1      39.154  33.238  32.704  1.00  0.00     0.198 A 
ATOM     76  C   UNL A   1      38.214  31.043  32.909  1.00  0.00     0.198 A 
ATOM     77  F   UNL A   1      39.602  29.143  32.773  1.00  0.00    -0.203 F 
ATOM     78  F   UNL A   1      39.002  34.567  32.605  1.00  0.00    -0.200 F 
ATOM     79  C   UNL A   1      38.044  32.418  32.817  1.00  0.00     0.200 A 
ATOM     80  F   UNL A   1      37.141  30.247  33.010  1.00  0.00    -0.200 F 
ATOM     81  F   UNL A   1      36.813  32.945  32.807  1.00  0.00    -0.200 F 
ENDBRANCH  47  71
BRANCH  59  82
ATOM     82  C   UNL A   1      44.967  25.573  33.135  1.00  0.00     0.064 A 
ATOM     83  C   UNL A   1      46.322  25.204  33.151  1.00  0.00     0.173 A 
ATOM     84  C   UNL A   1      44.113  24.793  33.948  1.00  0.00     0.173 A 
ATOM     85  F   UNL A   1      47.208  25.806  32.346  1.00  0.00    -0.203 F 
ATOM     86  C   UNL A   1      46.797  24.181  33.978  1.00  0.00     0.198 A 
ATOM     87  C   UNL A   1      44.579  23.737  34.727  1.00  0.00     0.198 A 
ATOM     88  F   UNL A   1      42.799  25.045  34.034  1.00  0.00    -0.203 F 
ATOM     89  F   UNL A   1      48.109  23.909  34.010  1.00  0.00    -0.200 F 
ATOM     90  C   UNL A   1      45.926  23.444  34.759  1.00  0.00     0.200 A 
ATOM     91  F   UNL A   1      43.714  23.014  35.453  1.00  0.00    -0.200 F 
ATOM     92  F   UNL A   1      46.380  22.453  35.539  1.00  0.00    -0.200 F 
ENDBRANCH  59  82
ENDBRANCH  33  34
ENDBRANCH  25  28
ENDBRANCH  23  24
ENDBRANCH  22  23
ENDBRANCH  21  22
ENDBRANCH   1  21
TORSDOF 16
ENDMDL
MODEL 3
REMARK VINA RESULT:     -12.1      3.861     10.009
REMARK SMILES Cc1ccccc1OCC(=O)NCCC(=O)NCCCCNC(=O)c1ccc(-c2c3nc(c(-c4c(F)c(F)c(F)c(F)c4F)c4ccc([nH]4)c(-c4c(F)c(F)c(F)c(F)c4F)c4nc(c(-c5c(F)c(F)c(F)c(F)c5F)c5ccc2[nH]5)C=C4)C=C3)cc1
REMARK SMILES IDX 18 1 17 2 15 3 16 4 14 6 13 7 12 8 10 9 11 10 9 12 8 13 7 14
REMARK SMILES IDX 1 15 2 16 3 17 4 18 6 19 5 20 19 21 20 22 21 23 22 24 23 25
REMARK SMILES IDX 24 27 25 28 26 29 87 30 27 31 86 32 28 33 29 34 30 35 80 36
REMARK SMILES IDX 31 37 85 38 79 39 81 40 32 41 84 42 78 43 77 44 33 46 65 47
REMARK SMILES IDX 45 48 64 49 46 50 49 51 63 52 82 53 47 54 48 55 62 57 83 58
REMARK SMILES IDX 50 59 34 60 35 61 43 62 36 63 37 64 41 65 44 66 38 67 39 68
REMARK SMILES IDX 42 69 40 70 66 71 67 72 75 73 68 74 69 75 73 76 76 77 70 78
REMARK SMILES IDX 71 79 74 80 72 81 51 82 52 83 60 84 53 85 54 86 58 87 61 88
REMARK SMILES IDX 55 89 56 90 59 91 57 92
REMARK H PARENT 17 5 12 11 22 26 81 45 49 56
REMARK Flexibility Score: inf
ROOT
ATOM      1  C   UNL A   1      32.005  29.504  24.786  1.00  0.00     0.116 C 
ENDROOT
BRANCH   1   2
ATOM      2  N   UNL A   1      31.214  29.622  23.569  1.00  0.00    -0.356 N 
ATOM      3  C   UNL A   1      30.339  28.752  22.991  1.00  0.00     0.221 C 
ATOM      4  O   UNL A   1      29.821  29.074  21.919  1.00  0.00    -0.275 OA
ATOM      5  H   UNL A   1      31.331  30.470  23.083  1.00  0.00     0.163 HD
BRANCH   3   6
ATOM      6  C   UNL A   1      30.021  27.423  23.635  1.00  0.00     0.121 C 
BRANCH   6   7
ATOM      7  C   UNL A   1      30.654  26.259  22.881  1.00  0.00     0.126 C 
BRANCH   7   8
ATOM      8  N   UNL A   1      31.910  26.609  22.243  1.00  0.00    -0.353 N 
ATOM      9  C   UNL A   1      33.008  25.832  22.000  1.00  0.00     0.257 C 
ATOM     10  O   UNL A   1      34.024  26.370  21.556  1.00  0.00    -0.271 OA
ATOM     11  H   UNL A   1      31.981  27.544  21.941  1.00  0.00     0.163 HD
BRANCH   9  12
ATOM     12  C   UNL A   1      32.927  24.318  22.190  1.00  0.00     0.329 C 
BRANCH  12  13
ATOM     13  O   UNL A   1      33.414  23.786  23.395  1.00  0.00    -0.484 OA
BRANCH  13  14
ATOM     14  C   UNL A   1      32.735  23.810  24.575  1.00  0.00     0.122 A 
ATOM     15  C   UNL A   1      33.422  26.075  25.654  1.00  0.00     0.048 C 
ATOM     16  C   UNL A   1      32.684  24.768  25.595  1.00  0.00    -0.009 A 
ATOM     17  C   UNL A   1      31.798  24.534  26.672  1.00  0.00     0.007 A 
ATOM     18  C   UNL A   1      31.006  23.390  26.762  1.00  0.00     0.001 A 
ATOM     19  C   UNL A   1      31.936  22.653  24.685  1.00  0.00     0.047 A 
ATOM     20  C   UNL A   1      31.081  22.438  25.762  1.00  0.00     0.004 A 
ENDBRANCH  13  14
ENDBRANCH  12  13
ENDBRANCH   9  12
ENDBRANCH   7   8
ENDBRANCH   6   7
ENDBRANCH   3   6
ENDBRANCH   1   2
BRANCH   1  21
ATOM     21  C   UNL A   1      31.499  30.411  25.916  1.00  0.00     0.023 C 
BRANCH  21  22
ATOM     22  C   UNL A   1      32.241  30.290  27.244  1.00  0.00     0.023 C 
BRANCH  22  23
ATOM     23  C   UNL A   1      33.740  30.502  27.123  1.00  0.00     0.116 C 
BRANCH  23  24
ATOM     24  N   UNL A   1      34.301  31.440  28.087  1.00  0.00    -0.352 N 
ATOM     25  C   UNL A   1      35.395  31.284  28.933  1.00  0.00     0.251 C 
ATOM     26  H   UNL A   1      33.840  32.308  28.149  1.00  0.00     0.163 HD
ATOM     27  O   UNL A   1      35.702  32.154  29.719  1.00  0.00    -0.269 OA
BRANCH  25  28
ATOM     28  C   UNL A   1      36.271  30.096  28.747  1.00  0.00     0.039 A 
ATOM     29  C   UNL A   1      36.563  29.324  29.877  1.00  0.00     0.014 A 
ATOM     30  C   UNL A   1      36.997  29.926  27.576  1.00  0.00     0.014 A 
ATOM     31  C   UNL A   1      37.755  28.606  29.915  1.00  0.00     0.010 A 
ATOM     32  C   UNL A   1      38.241  29.336  27.660  1.00  0.00     0.010 A 
ATOM     33  C   UNL A   1      38.651  28.741  28.858  1.00  0.00    -0.014 A 
BRANCH  33  34
ATOM     34  C   UNL A   1      40.066  28.397  28.954  1.00  0.00     0.031 A 
ATOM     35  C   UNL A   1      40.551  27.090  28.466  1.00  0.00     0.074 A 
ATOM     36  C   UNL A   1      40.957  29.321  29.381  1.00  0.00     0.049 A 
ATOM     37  N   UNL A   1      41.678  26.562  28.810  1.00  0.00    -0.248 NA
ATOM     38  C   UNL A   1      39.776  26.247  27.566  1.00  0.00     0.031 C 
ATOM     39  C   UNL A   1      42.412  29.271  29.243  1.00  0.00     0.029 A 
ATOM     40  N   UNL A   1      40.729  30.430  30.220  1.00  0.00    -0.354 N 
ATOM     41  C   UNL A   1      41.905  25.479  27.994  1.00  0.00     0.074 A 
ATOM     42  C   UNL A   1      40.665  25.292  27.278  1.00  0.00     0.031 C 
ATOM     43  C   UNL A   1      42.963  30.059  30.177  1.00  0.00     0.029 A 
ATOM     44  C   UNL A   1      41.888  30.523  31.033  1.00  0.00     0.049 A 
ATOM     45  H   UNL A   1      39.937  31.014  30.237  1.00  0.00     0.167 HD
ATOM     46  C   UNL A   1      43.160  24.943  27.938  1.00  0.00     0.037 A 
ATOM     47  C   UNL A   1      41.826  30.328  32.383  1.00  0.00     0.037 A 
ATOM     48  C   UNL A   1      44.065  25.586  28.894  1.00  0.00     0.049 A 
ATOM     49  C   UNL A   1      42.666  29.192  32.917  1.00  0.00     0.074 A 
ATOM     50  C   UNL A   1      45.088  26.516  28.800  1.00  0.00     0.029 A 
ATOM     51  N   UNL A   1      43.784  25.478  30.246  1.00  0.00    -0.354 N 
ATOM     52  N   UNL A   1      43.337  28.354  32.180  1.00  0.00    -0.248 NA
ATOM     53  C   UNL A   1      42.715  28.851  34.338  1.00  0.00     0.031 C 
ATOM     54  C   UNL A   1      45.446  26.925  30.116  1.00  0.00     0.029 A 
ATOM     55  C   UNL A   1      44.635  26.252  31.009  1.00  0.00     0.049 A 
ATOM     56  H   UNL A   1      43.065  24.917  30.617  1.00  0.00     0.167 HD
ATOM     57  C   UNL A   1      43.821  27.343  32.971  1.00  0.00     0.074 A 
ATOM     58  C   UNL A   1      43.410  27.702  34.315  1.00  0.00     0.031 C 
ATOM     59  C   UNL A   1      44.473  26.260  32.452  1.00  0.00     0.037 A 
BRANCH  46  60
ATOM     60  C   UNL A   1      43.634  23.998  26.852  1.00  0.00     0.064 A 
ATOM     61  C   UNL A   1      43.164  22.667  26.797  1.00  0.00     0.173 A 
ATOM     62  C   UNL A   1      44.591  24.315  25.871  1.00  0.00     0.173 A 
ATOM     63  F   UNL A   1      42.152  22.246  27.565  1.00  0.00    -0.203 F 
ATOM     64  C   UNL A   1      43.714  21.709  25.941  1.00  0.00     0.198 A 
ATOM     65  C   UNL A   1      45.185  23.346  25.056  1.00  0.00     0.198 A 
ATOM     66  F   UNL A   1      44.933  25.583  25.613  1.00  0.00    -0.203 F 
ATOM     67  F   UNL A   1      43.229  20.458  25.947  1.00  0.00    -0.200 F 
ATOM     68  C   UNL A   1      44.758  22.036  25.104  1.00  0.00     0.200 A 
ATOM     69  F   UNL A   1      46.174  23.695  24.220  1.00  0.00    -0.200 F 
ATOM     70  F   UNL A   1      45.323  21.106  24.323  1.00  0.00    -0.200 F 
ENDBRANCH  46  60
BRANCH  47  71
ATOM     71  C   UNL A   1      40.544  30.774  32.981  1.00  0.00     0.064 A 
ATOM     72  C   UNL A   1      40.329  32.151  33.136  1.00  0.00     0.173 A 
ATOM     73  C   UNL A   1      39.430  29.931  33.030  1.00  0.00     0.173 A 
ATOM     74  F   UNL A   1      41.378  32.985  33.150  1.00  0.00    -0.203 F 
ATOM     75  C   UNL A   1      39.043  32.681  33.186  1.00  0.00     0.198 A 
ATOM     76  C   UNL A   1      38.141  30.461  33.106  1.00  0.00     0.198 A 
ATOM     77  F   UNL A   1      39.578  28.606  32.884  1.00  0.00    -0.203 F 
ATOM     78  F   UNL A   1      38.868  34.010  33.208  1.00  0.00    -0.200 F 
ATOM     79  C   UNL A   1      37.947  31.836  33.138  1.00  0.00     0.200 A 
ATOM     80  F   UNL A   1      37.082  29.642  33.052  1.00  0.00    -0.200 F 
ATOM     81  F   UNL A   1      36.708  32.341  33.092  1.00  0.00    -0.200 F 
ENDBRANCH  47  71
BRANCH  59  82
ATOM     82  C   UNL A   1      44.979  25.097  33.266  1.00  0.00     0.064 A 
ATOM     83  C   UNL A   1      44.132  24.230  33.974  1.00  0.00     0.173 A 
ATOM     84  C   UNL A   1      46.364  24.871  33.437  1.00  0.00     0.173 A 
ATOM     85  F   UNL A   1      42.803  24.410  33.968  1.00  0.00    -0.203 F 
ATOM     86  C   UNL A   1      44.633  23.169  34.734  1.00  0.00     0.198 A 
ATOM     87  C   UNL A   1      46.863  23.848  34.241  1.00  0.00     0.198 A 
ATOM     88  F   UNL A   1      47.283  25.619  32.810  1.00  0.00    -0.203 F 
ATOM     89  F   UNL A   1      43.783  22.326  35.337  1.00  0.00    -0.200 F 
ATOM     90  C   UNL A   1      45.996  22.982  34.873  1.00  0.00     0.200 A 
ATOM     91  F   UNL A   1      48.187  23.704  34.388  1.00  0.00    -0.200 F 
ATOM     92  F   UNL A   1      46.475  21.974  35.614  1.00  0.00    -0.200 F 
ENDBRANCH  59  82
ENDBRANCH  33  34
ENDBRANCH  25  28
ENDBRANCH  23  24
ENDBRANCH  22  23
ENDBRANCH  21  22
ENDBRANCH   1  21
TORSDOF 16
ENDMDL
