MODEL 1
REMARK VINA RESULT:     -12.2      0.000      0.000
REMARK SMILES O=C(NCCCCNC(=O)c1cc(OCc2ccccc2C(F)(F)F)cs1)c1ccc(-c2c3nc(c(-c4c(F)c(F)c(F)c(F)c4F)c4ccc([nH]4)c(-c4c(F)c(F)c(F)c(F)c4F)c4nc(c(-c5c(F)c(F)c(F)c(F)c5F)c5ccc2[nH]5)C=C4)C=C3)cc1
REMARK SMILES IDX 6 1 5 2 4 3 3 4 1 5 2 6 28 8 29 9 90 10 30 11 89 12 31 13
REMARK SMILES IDX 32 14 33 15 83 16 34 17 88 18 82 19 84 20 35 21 87 22 81 23
REMARK SMILES IDX 80 24 36 26 68 27 48 28 67 29 49 30 52 31 66 32 85 33 50 34
REMARK SMILES IDX 51 35 65 37 86 38 53 39 37 40 38 41 46 42 39 43 40 44 44 45
REMARK SMILES IDX 47 46 41 47 42 48 45 49 43 50 69 51 70 52 78 53 71 54 72 55
REMARK SMILES IDX 76 56 79 57 73 58 74 59 77 60 75 61 54 62 55 63 63 64 56 65
REMARK SMILES IDX 57 66 61 67 64 68 58 69 59 70 62 71 60 72 7 73 8 74 9 75
REMARK SMILES IDX 10 77 11 78 12 79 27 80 13 81 26 82 14 83 15 84 16 85 17 86
REMARK SMILES IDX 21 87 18 88 20 89 19 90 22 91 23 92 24 93 25 94
REMARK H PARENT 3 7 84 25 52 36 8 76
REMARK Flexibility Score: inf
ROOT
ATOM      1  C   UNL A   1      31.454  30.826  26.027  1.00  0.00     0.023 C 
ENDROOT
BRANCH   1   2
ATOM      2  C   UNL A   1      31.283  32.255  26.533  1.00  0.00     0.023 C 
BRANCH   2   3
ATOM      3  C   UNL A   1      32.475  32.843  27.280  1.00  0.00     0.116 C 
BRANCH   3   4
ATOM      4  N   UNL A   1      32.287  34.230  27.680  1.00  0.00    -0.352 N 
ATOM      5  O   UNL A   1      32.529  36.123  28.871  1.00  0.00    -0.269 OA
ATOM      6  C   UNL A   1      32.952  35.000  28.606  1.00  0.00     0.251 C 
ATOM      7  H   UNL A   1      31.561  34.696  27.207  1.00  0.00     0.163 HD
BRANCH   6   8
ATOM      8  C   UNL A   1      34.145  34.485  29.320  1.00  0.00     0.039 A 
ATOM      9  C   UNL A   1      35.431  34.619  28.793  1.00  0.00     0.014 A 
ATOM     10  C   UNL A   1      33.971  33.878  30.568  1.00  0.00     0.014 A 
ATOM     11  C   UNL A   1      36.511  33.998  29.418  1.00  0.00     0.010 A 
ATOM     12  C   UNL A   1      35.068  33.331  31.240  1.00  0.00     0.010 A 
ATOM     13  C   UNL A   1      36.341  33.345  30.647  1.00  0.00    -0.014 A 
BRANCH  13  14
ATOM     14  C   UNL A   1      37.496  32.693  31.318  1.00  0.00     0.031 A 
ATOM     15  C   UNL A   1      38.190  31.521  30.680  1.00  0.00     0.074 A 
ATOM     16  C   UNL A   1      37.914  33.148  32.514  1.00  0.00     0.049 A 
ATOM     17  N   UNL A   1      39.157  30.773  31.150  1.00  0.00    -0.248 NA
ATOM     18  C   UNL A   1      37.730  31.132  29.339  1.00  0.00     0.031 C 
ATOM     19  C   UNL A   1      37.327  34.277  33.235  1.00  0.00     0.029 A 
ATOM     20  N   UNL A   1      38.920  32.710  33.338  1.00  0.00    -0.354 N 
ATOM     21  C   UNL A   1      39.400  29.810  30.179  1.00  0.00     0.074 A 
ATOM     22  C   UNL A   1      38.465  30.055  29.101  1.00  0.00     0.031 C 
ATOM     23  C   UNL A   1      37.987  34.451  34.389  1.00  0.00     0.029 A 
ATOM     24  C   UNL A   1      39.001  33.408  34.518  1.00  0.00     0.049 A 
ATOM     25  H   UNL A   1      39.524  31.968  33.106  1.00  0.00     0.167 HD
ATOM     26  C   UNL A   1      40.321  28.815  30.187  1.00  0.00     0.037 A 
ATOM     27  C   UNL A   1      39.778  33.212  35.600  1.00  0.00     0.037 A 
ATOM     28  C   UNL A   1      41.262  28.589  31.253  1.00  0.00     0.049 A 
ATOM     29  C   UNL A   1      40.769  32.085  35.601  1.00  0.00     0.074 A 
ATOM     30  C   UNL A   1      42.265  27.638  31.332  1.00  0.00     0.029 A 
ATOM     31  N   UNL A   1      41.308  29.317  32.434  1.00  0.00    -0.354 N 
ATOM     32  N   UNL A   1      41.011  31.199  34.666  1.00  0.00    -0.248 NA
ATOM     33  C   UNL A   1      41.596  31.929  36.805  1.00  0.00     0.031 C 
ATOM     34  C   UNL A   1      42.885  27.759  32.580  1.00  0.00     0.029 A 
ATOM     35  C   UNL A   1      42.305  28.819  33.258  1.00  0.00     0.049 A 
ATOM     36  H   UNL A   1      40.720  30.075  32.653  1.00  0.00     0.167 HD
ATOM     37  C   UNL A   1      42.031  30.395  35.156  1.00  0.00     0.074 A 
ATOM     38  C   UNL A   1      42.365  30.900  36.471  1.00  0.00     0.031 C 
ATOM     39  C   UNL A   1      42.634  29.337  34.563  1.00  0.00     0.037 A 
BRANCH  26  40
ATOM     40  C   UNL A   1      40.336  27.875  29.016  1.00  0.00     0.064 A 
ATOM     41  C   UNL A   1      41.094  28.133  27.864  1.00  0.00     0.173 A 
ATOM     42  C   UNL A   1      39.594  26.683  29.057  1.00  0.00     0.173 A 
ATOM     43  F   UNL A   1      41.812  29.263  27.769  1.00  0.00    -0.203 F 
ATOM     44  C   UNL A   1      41.082  27.253  26.785  1.00  0.00     0.198 A 
ATOM     45  C   UNL A   1      39.609  25.790  27.988  1.00  0.00     0.198 A 
ATOM     46  F   UNL A   1      38.859  26.381  30.137  1.00  0.00    -0.203 F 
ATOM     47  F   UNL A   1      41.771  27.549  25.674  1.00  0.00    -0.200 F 
ATOM     48  C   UNL A   1      40.343  26.082  26.849  1.00  0.00     0.200 A 
ATOM     49  F   UNL A   1      38.905  24.652  28.058  1.00  0.00    -0.200 F 
ATOM     50  F   UNL A   1      40.333  25.236  25.809  1.00  0.00    -0.200 F 
ENDBRANCH  26  40
BRANCH  27  51
ATOM     51  C   UNL A   1      39.619  34.109  36.771  1.00  0.00     0.064 A 
ATOM     52  C   UNL A   1      38.829  33.735  37.866  1.00  0.00     0.173 A 
ATOM     53  C   UNL A   1      40.303  35.332  36.843  1.00  0.00     0.173 A 
ATOM     54  F   UNL A   1      38.144  32.584  37.835  1.00  0.00    -0.203 F 
ATOM     55  C   UNL A   1      38.734  34.550  38.992  1.00  0.00     0.198 A 
ATOM     56  C   UNL A   1      40.227  36.133  37.979  1.00  0.00     0.198 A 
ATOM     57  F   UNL A   1      41.076  35.729  35.822  1.00  0.00    -0.203 F 
ATOM     58  F   UNL A   1      37.958  34.180  40.020  1.00  0.00    -0.200 F 
ATOM     59  C   UNL A   1      39.441  35.743  39.052  1.00  0.00     0.200 A 
ATOM     60  F   UNL A   1      40.926  37.274  38.040  1.00  0.00    -0.200 F 
ATOM     61  F   UNL A   1      39.365  36.514  40.145  1.00  0.00    -0.200 F 
ENDBRANCH  27  51
BRANCH  39  62
ATOM     62  C   UNL A   1      43.751  28.670  35.309  1.00  0.00     0.064 A 
ATOM     63  C   UNL A   1      45.088  29.055  35.131  1.00  0.00     0.173 A 
ATOM     64  C   UNL A   1      43.471  27.682  36.266  1.00  0.00     0.173 A 
ATOM     65  F   UNL A   1      45.407  29.983  34.217  1.00  0.00    -0.203 F 
ATOM     66  C   UNL A   1      46.105  28.466  35.878  1.00  0.00     0.198 A 
ATOM     67  C   UNL A   1      44.488  27.115  37.028  1.00  0.00     0.198 A 
ATOM     68  F   UNL A   1      42.208  27.283  36.476  1.00  0.00    -0.203 F 
ATOM     69  F   UNL A   1      47.379  28.827  35.672  1.00  0.00    -0.200 F 
ATOM     70  C   UNL A   1      45.804  27.505  36.832  1.00  0.00     0.200 A 
ATOM     71  F   UNL A   1      44.193  26.194  37.957  1.00  0.00    -0.200 F 
ATOM     72  F   UNL A   1      46.784  26.952  37.560  1.00  0.00    -0.200 F 
ENDBRANCH  39  62
ENDBRANCH  13  14
ENDBRANCH   6   8
ENDBRANCH   3   4
ENDBRANCH   2   3
ENDBRANCH   1   2
BRANCH   1  73
ATOM     73  C   UNL A   1      31.840  29.784  27.072  1.00  0.00     0.116 C 
BRANCH  73  74
ATOM     74  N   UNL A   1      33.245  29.757  27.421  1.00  0.00    -0.351 N 
ATOM     75  C   UNL A   1      34.198  28.864  26.958  1.00  0.00     0.261 C 
ATOM     76  H   UNL A   1      33.555  30.443  28.055  1.00  0.00     0.163 HD
ATOM     77  O   UNL A   1      35.342  28.954  27.392  1.00  0.00    -0.268 OA
BRANCH  75  78
ATOM     78  C   UNL A   1      33.768  27.868  25.997  1.00  0.00     0.096 A 
ATOM     79  C   UNL A   1      33.328  26.574  26.216  1.00  0.00     0.072 A 
ATOM     80  S   UNL A   1      33.838  28.239  24.331  1.00  0.00    -0.135 S 
ATOM     81  C   UNL A   1      33.281  25.820  25.004  1.00  0.00     0.131 A 
ATOM     82  C   UNL A   1      33.486  26.622  23.903  1.00  0.00     0.112 A 
BRANCH  81  83
ATOM     83  O   UNL A   1      33.127  24.486  24.802  1.00  0.00    -0.488 OA
BRANCH  83  84
ATOM     84  C   UNL A   1      33.632  23.592  25.800  1.00  0.00     0.266 C 
BRANCH  84  85
ATOM     85  C   UNL A   1      35.008  23.009  25.477  1.00  0.00     0.001 A 
ATOM     86  C   UNL A   1      36.132  23.846  25.616  1.00  0.00     0.008 A 
ATOM     87  C   UNL A   1      35.248  21.661  25.120  1.00  0.00     0.062 A 
ATOM     88  C   UNL A   1      37.442  23.401  25.437  1.00  0.00     0.000 A 
ATOM     89  C   UNL A   1      36.586  21.229  24.926  1.00  0.00     0.013 A 
ATOM     90  C   UNL A   1      37.671  22.083  25.098  1.00  0.00     0.001 A 
BRANCH  87  91
ATOM     91  C   UNL A   1      34.183  20.613  24.859  1.00  0.00     0.416 C 
ATOM     92  F   UNL A   1      34.727  19.414  24.504  1.00  0.00    -0.166 F 
ATOM     93  F   UNL A   1      33.429  20.359  25.968  1.00  0.00    -0.166 F 
ATOM     94  F   UNL A   1      33.283  20.921  23.890  1.00  0.00    -0.166 F 
ENDBRANCH  87  91
ENDBRANCH  84  85
ENDBRANCH  83  84
ENDBRANCH  81  83
ENDBRANCH  75  78
ENDBRANCH  73  74
ENDBRANCH   1  73
TORSDOF 15
ENDMDL
MODEL 2
REMARK VINA RESULT:     -12.1      0.918      2.177
REMARK SMILES O=C(NCCCCNC(=O)c1cc(OCc2ccccc2C(F)(F)F)cs1)c1ccc(-c2c3nc(c(-c4c(F)c(F)c(F)c(F)c4F)c4ccc([nH]4)c(-c4c(F)c(F)c(F)c(F)c4F)c4nc(c(-c5c(F)c(F)c(F)c(F)c5F)c5ccc2[nH]5)C=C4)C=C3)cc1
REMARK SMILES IDX 6 1 5 2 4 3 3 4 1 5 2 6 28 8 29 9 90 10 30 11 89 12 31 13
REMARK SMILES IDX 32 14 33 15 83 16 34 17 88 18 82 19 84 20 35 21 87 22 81 23
REMARK SMILES IDX 80 24 36 26 68 27 48 28 67 29 49 30 52 31 66 32 85 33 50 34
REMARK SMILES IDX 51 35 65 37 86 38 53 39 37 40 38 41 46 42 39 43 40 44 44 45
REMARK SMILES IDX 47 46 41 47 42 48 45 49 43 50 69 51 70 52 78 53 71 54 72 55
REMARK SMILES IDX 76 56 79 57 73 58 74 59 77 60 75 61 54 62 55 63 63 64 56 65
REMARK SMILES IDX 57 66 61 67 64 68 58 69 59 70 62 71 60 72 7 73 8 74 9 75
REMARK SMILES IDX 10 77 11 78 12 79 27 80 13 81 26 82 14 83 15 84 16 85 17 86
REMARK SMILES IDX 21 87 18 88 20 89 19 90 22 91 23 92 24 93 25 94
REMARK H PARENT 3 7 84 25 52 36 8 76
REMARK Flexibility Score: inf
ROOT
ATOM      1  C   UNL A   1      31.450  30.464  26.033  1.00  0.00     0.023 C 
ENDROOT
BRANCH   1   2
ATOM      2  C   UNL A   1      31.302  31.908  26.501  1.00  0.00     0.023 C 
BRANCH   2   3
ATOM      3  C   UNL A   1      32.499  32.490  27.246  1.00  0.00     0.116 C 
BRANCH   3   4
ATOM      4  N   UNL A   1      32.335  33.890  27.610  1.00  0.00    -0.352 N 
ATOM      5  O   UNL A   1      32.613  35.809  28.750  1.00  0.00    -0.269 OA
ATOM      6  C   UNL A   1      33.017  34.673  28.513  1.00  0.00     0.251 C 
ATOM      7  H   UNL A   1      31.613  34.355  27.129  1.00  0.00     0.163 HD
BRANCH   6   8
ATOM      8  C   UNL A   1      34.205  34.159  29.233  1.00  0.00     0.039 A 
ATOM      9  C   UNL A   1      35.498  34.577  28.910  1.00  0.00     0.014 A 
ATOM     10  C   UNL A   1      34.015  33.255  30.284  1.00  0.00     0.014 A 
ATOM     11  C   UNL A   1      36.599  33.966  29.508  1.00  0.00     0.010 A 
ATOM     12  C   UNL A   1      35.118  32.707  30.945  1.00  0.00     0.010 A 
ATOM     13  C   UNL A   1      36.422  33.023  30.530  1.00  0.00    -0.014 A 
BRANCH  13  14
ATOM     14  C   UNL A   1      37.597  32.381  31.174  1.00  0.00     0.031 A 
ATOM     15  C   UNL A   1      38.317  31.247  30.498  1.00  0.00     0.074 A 
ATOM     16  C   UNL A   1      38.012  32.812  32.380  1.00  0.00     0.049 A 
ATOM     17  N   UNL A   1      39.306  30.511  30.939  1.00  0.00    -0.248 NA
ATOM     18  C   UNL A   1      37.857  30.885  29.148  1.00  0.00     0.031 C 
ATOM     19  C   UNL A   1      37.402  33.904  33.138  1.00  0.00     0.029 A 
ATOM     20  N   UNL A   1      39.035  32.377  33.185  1.00  0.00    -0.354 N 
ATOM     21  C   UNL A   1      39.567  29.583  29.939  1.00  0.00     0.074 A 
ATOM     22  C   UNL A   1      38.618  29.835  28.875  1.00  0.00     0.031 C 
ATOM     23  C   UNL A   1      38.065  34.060  34.293  1.00  0.00     0.029 A 
ATOM     24  C   UNL A   1      39.107  33.041  34.384  1.00  0.00     0.049 A 
ATOM     25  H   UNL A   1      39.656  31.658  32.928  1.00  0.00     0.167 HD
ATOM     26  C   UNL A   1      40.513  28.613  29.911  1.00  0.00     0.037 A 
ATOM     27  C   UNL A   1      39.895  32.833  35.455  1.00  0.00     0.037 A 
ATOM     28  C   UNL A   1      41.467  28.380  30.965  1.00  0.00     0.049 A 
ATOM     29  C   UNL A   1      40.916  31.733  35.416  1.00  0.00     0.074 A 
ATOM     30  C   UNL A   1      42.495  27.453  31.009  1.00  0.00     0.029 A 
ATOM     31  N   UNL A   1      41.503  29.074  32.166  1.00  0.00    -0.354 N 
ATOM     32  N   UNL A   1      41.174  30.882  34.455  1.00  0.00    -0.248 NA
ATOM     33  C   UNL A   1      41.754  31.563  36.611  1.00  0.00     0.031 C 
ATOM     34  C   UNL A   1      43.121  27.554  32.257  1.00  0.00     0.029 A 
ATOM     35  C   UNL A   1      42.518  28.578  32.969  1.00  0.00     0.049 A 
ATOM     36  H   UNL A   1      40.897  29.810  32.411  1.00  0.00     0.167 HD
ATOM     37  C   UNL A   1      42.217  30.090  34.914  1.00  0.00     0.074 A 
ATOM     38  C   UNL A   1      42.547  30.565  36.242  1.00  0.00     0.031 C 
ATOM     39  C   UNL A   1      42.843  29.065  34.287  1.00  0.00     0.037 A 
BRANCH  26  40
ATOM     40  C   UNL A   1      40.544  27.708  28.713  1.00  0.00     0.064 A 
ATOM     41  C   UNL A   1      39.814  26.511  28.667  1.00  0.00     0.173 A 
ATOM     42  C   UNL A   1      41.301  28.057  27.583  1.00  0.00     0.173 A 
ATOM     43  F   UNL A   1      39.083  26.126  29.724  1.00  0.00    -0.203 F 
ATOM     44  C   UNL A   1      39.867  25.680  27.550  1.00  0.00     0.198 A 
ATOM     45  C   UNL A   1      41.328  27.239  26.456  1.00  0.00     0.198 A 
ATOM     46  F   UNL A   1      42.010  29.195  27.569  1.00  0.00    -0.203 F 
ATOM     47  F   UNL A   1      39.206  24.515  27.552  1.00  0.00    -0.200 F 
ATOM     48  C   UNL A   1      40.621  26.047  26.445  1.00  0.00     0.200 A 
ATOM     49  F   UNL A   1      42.046  27.601  25.384  1.00  0.00    -0.200 F 
ATOM     50  F   UNL A   1      40.672  25.246  25.372  1.00  0.00    -0.200 F 
ENDBRANCH  26  40
BRANCH  27  51
ATOM     51  C   UNL A   1      39.722  33.691  36.654  1.00  0.00     0.064 A 
ATOM     52  C   UNL A   1      40.395  34.913  36.771  1.00  0.00     0.173 A 
ATOM     53  C   UNL A   1      38.832  33.331  37.678  1.00  0.00     0.173 A 
ATOM     54  F   UNL A   1      41.268  35.290  35.826  1.00  0.00    -0.203 F 
ATOM     55  C   UNL A   1      40.181  35.747  37.867  1.00  0.00     0.198 A 
ATOM     56  C   UNL A   1      38.600  34.178  38.758  1.00  0.00     0.198 A 
ATOM     57  F   UNL A   1      38.159  32.174  37.606  1.00  0.00    -0.203 F 
ATOM     58  F   UNL A   1      40.851  36.904  37.965  1.00  0.00    -0.200 F 
ATOM     59  C   UNL A   1      39.276  35.384  38.853  1.00  0.00     0.200 A 
ATOM     60  F   UNL A   1      37.711  33.831  39.699  1.00  0.00    -0.200 F 
ATOM     61  F   UNL A   1      39.055  36.198  39.895  1.00  0.00    -0.200 F 
ENDBRANCH  27  51
BRANCH  39  62
ATOM     62  C   UNL A   1      43.982  28.406  35.006  1.00  0.00     0.064 A 
ATOM     63  C   UNL A   1      43.790  27.264  35.796  1.00  0.00     0.173 A 
ATOM     64  C   UNL A   1      45.292  28.885  34.845  1.00  0.00     0.173 A 
ATOM     65  F   UNL A   1      42.555  26.779  35.993  1.00  0.00    -0.203 F 
ATOM     66  C   UNL A   1      44.869  26.630  36.407  1.00  0.00     0.198 A 
ATOM     67  C   UNL A   1      46.369  28.233  35.436  1.00  0.00     0.198 A 
ATOM     68  F   UNL A   1      45.526  29.972  34.095  1.00  0.00    -0.203 F 
ATOM     69  F   UNL A   1      44.662  25.556  37.181  1.00  0.00    -0.200 F 
ATOM     70  C   UNL A   1      46.158  27.108  36.218  1.00  0.00     0.200 A 
ATOM     71  F   UNL A   1      47.615  28.691  35.243  1.00  0.00    -0.200 F 
ATOM     72  F   UNL A   1      47.196  26.486  36.794  1.00  0.00    -0.200 F 
ENDBRANCH  39  62
ENDBRANCH  13  14
ENDBRANCH   6   8
ENDBRANCH   3   4
ENDBRANCH   2   3
ENDBRANCH   1   2
BRANCH   1  73
ATOM     73  C   UNL A   1      32.878  29.952  25.868  1.00  0.00     0.116 C 
BRANCH  73  74
ATOM     74  N   UNL A   1      33.288  29.709  24.501  1.00  0.00    -0.351 N 
ATOM     75  C   UNL A   1      33.354  28.483  23.859  1.00  0.00     0.261 C 
ATOM     76  H   UNL A   1      33.549  30.497  23.972  1.00  0.00     0.163 HD
ATOM     77  O   UNL A   1      33.768  28.448  22.706  1.00  0.00    -0.268 OA
BRANCH  75  78
ATOM     78  C   UNL A   1      32.939  27.315  24.611  1.00  0.00     0.096 A 
ATOM     79  C   UNL A   1      33.658  26.561  25.523  1.00  0.00     0.072 A 
ATOM     80  S   UNL A   1      31.377  26.672  24.351  1.00  0.00    -0.135 S 
ATOM     81  C   UNL A   1      33.004  25.326  25.820  1.00  0.00     0.131 A 
ATOM     82  C   UNL A   1      31.735  25.286  25.286  1.00  0.00     0.112 A 
BRANCH  81  83
ATOM     83  O   UNL A   1      33.457  24.224  26.471  1.00  0.00    -0.488 OA
BRANCH  83  84
ATOM     84  C   UNL A   1      33.447  22.975  25.767  1.00  0.00     0.266 C 
BRANCH  84  85
ATOM     85  C   UNL A   1      34.837  22.406  25.486  1.00  0.00     0.001 A 
ATOM     86  C   UNL A   1      35.947  23.261  25.638  1.00  0.00     0.008 A 
ATOM     87  C   UNL A   1      35.104  21.056  25.157  1.00  0.00     0.062 A 
ATOM     88  C   UNL A   1      37.266  22.831  25.497  1.00  0.00     0.000 A 
ATOM     89  C   UNL A   1      36.452  20.640  25.002  1.00  0.00     0.013 A 
ATOM     90  C   UNL A   1      37.521  21.511  25.185  1.00  0.00     0.001 A 
BRANCH  87  91
ATOM     91  C   UNL A   1      34.060  19.989  24.888  1.00  0.00     0.416 C 
ATOM     92  F   UNL A   1      34.627  18.791  24.574  1.00  0.00    -0.166 F 
ATOM     93  F   UNL A   1      33.278  19.749  25.981  1.00  0.00    -0.166 F 
ATOM     94  F   UNL A   1      33.183  20.266  23.889  1.00  0.00    -0.166 F 
ENDBRANCH  87  91
ENDBRANCH  84  85
ENDBRANCH  83  84
ENDBRANCH  81  83
ENDBRANCH  75  78
ENDBRANCH  73  74
ENDBRANCH   1  73
TORSDOF 15
ENDMDL
MODEL 3
REMARK VINA RESULT:     -12.0      5.916     11.429
REMARK SMILES O=C(NCCCCNC(=O)c1cc(OCc2ccccc2C(F)(F)F)cs1)c1ccc(-c2c3nc(c(-c4c(F)c(F)c(F)c(F)c4F)c4ccc([nH]4)c(-c4c(F)c(F)c(F)c(F)c4F)c4nc(c(-c5c(F)c(F)c(F)c(F)c5F)c5ccc2[nH]5)C=C4)C=C3)cc1
REMARK SMILES IDX 6 1 5 2 4 3 3 4 1 5 2 6 28 8 29 9 90 10 30 11 89 12 31 13
REMARK SMILES IDX 32 14 33 15 83 16 34 17 88 18 82 19 84 20 35 21 87 22 81 23
REMARK SMILES IDX 80 24 36 26 68 27 48 28 67 29 49 30 52 31 66 32 85 33 50 34
REMARK SMILES IDX 51 35 65 37 86 38 53 39 37 40 38 41 46 42 39 43 40 44 44 45
REMARK SMILES IDX 47 46 41 47 42 48 45 49 43 50 69 51 70 52 78 53 71 54 72 55
REMARK SMILES IDX 76 56 79 57 73 58 74 59 77 60 75 61 54 62 55 63 63 64 56 65
REMARK SMILES IDX 57 66 61 67 64 68 58 69 59 70 62 71 60 72 7 73 8 74 9 75
REMARK SMILES IDX 10 77 11 78 12 79 27 80 13 81 26 82 14 83 15 84 16 85 17 86
REMARK SMILES IDX 21 87 18 88 20 89 19 90 22 91 23 92 24 93 25 94
REMARK H PARENT 3 7 84 25 52 36 8 76
REMARK Flexibility Score: inf
ROOT
ATOM      1  C   UNL A   1      36.879  20.293  24.998  1.00  0.00     0.023 C 
ENDROOT
BRANCH   1   2
ATOM      2  C   UNL A   1      38.111  19.394  24.986  1.00  0.00     0.023 C 
BRANCH   2   3
ATOM      3  C   UNL A   1      39.320  19.913  25.757  1.00  0.00     0.116 C 
BRANCH   3   4
ATOM      4  N   UNL A   1      40.395  18.939  25.880  1.00  0.00    -0.352 N 
ATOM      5  O   UNL A   1      42.487  18.132  26.058  1.00  0.00    -0.269 OA
ATOM      6  C   UNL A   1      41.739  19.104  26.127  1.00  0.00     0.251 C 
ATOM      7  H   UNL A   1      40.112  18.002  25.769  1.00  0.00     0.163 HD
BRANCH   6   8
ATOM      8  C   UNL A   1      42.305  20.439  26.435  1.00  0.00     0.039 A 
ATOM      9  C   UNL A   1      42.477  20.878  27.749  1.00  0.00     0.014 A 
ATOM     10  C   UNL A   1      42.704  21.260  25.375  1.00  0.00     0.014 A 
ATOM     11  C   UNL A   1      42.876  22.190  27.999  1.00  0.00     0.010 A 
ATOM     12  C   UNL A   1      43.188  22.546  25.629  1.00  0.00     0.010 A 
ATOM     13  C   UNL A   1      43.233  23.040  26.943  1.00  0.00    -0.014 A 
BRANCH  13  14
ATOM     14  C   UNL A   1      43.669  24.434  27.214  1.00  0.00     0.031 A 
ATOM     15  C   UNL A   1      42.684  25.464  27.695  1.00  0.00     0.074 A 
ATOM     16  C   UNL A   1      44.954  24.781  27.012  1.00  0.00     0.049 A 
ATOM     17  N   UNL A   1      42.859  26.745  27.905  1.00  0.00    -0.248 NA
ATOM     18  C   UNL A   1      41.318  24.993  27.970  1.00  0.00     0.031 C 
ATOM     19  C   UNL A   1      46.005  23.875  26.550  1.00  0.00     0.029 A 
ATOM     20  N   UNL A   1      45.591  25.987  27.157  1.00  0.00    -0.354 N 
ATOM     21  C   UNL A   1      41.623  27.238  28.305  1.00  0.00     0.074 A 
ATOM     22  C   UNL A   1      40.701  26.122  28.290  1.00  0.00     0.031 C 
ATOM     23  C   UNL A   1      47.158  24.553  26.457  1.00  0.00     0.029 A 
ATOM     24  C   UNL A   1      46.914  25.953  26.793  1.00  0.00     0.049 A 
ATOM     25  H   UNL A   1      45.143  26.798  27.490  1.00  0.00     0.167 HD
ATOM     26  C   UNL A   1      41.291  28.504  28.656  1.00  0.00     0.037 A 
ATOM     27  C   UNL A   1      47.824  26.941  26.703  1.00  0.00     0.037 A 
ATOM     28  C   UNL A   1      42.218  29.607  28.688  1.00  0.00     0.049 A 
ATOM     29  C   UNL A   1      47.428  28.343  27.066  1.00  0.00     0.074 A 
ATOM     30  C   UNL A   1      41.989  30.916  29.075  1.00  0.00     0.029 A 
ATOM     31  N   UNL A   1      43.551  29.530  28.308  1.00  0.00    -0.354 N 
ATOM     32  N   UNL A   1      46.266  28.792  27.472  1.00  0.00    -0.248 NA
ATOM     33  C   UNL A   1      48.467  29.376  26.958  1.00  0.00     0.031 C 
ATOM     34  C   UNL A   1      43.170  31.642  28.882  1.00  0.00     0.029 A 
ATOM     35  C   UNL A   1      44.149  30.775  28.426  1.00  0.00     0.049 A 
ATOM     36  H   UNL A   1      44.004  28.712  28.000  1.00  0.00     0.167 HD
ATOM     37  C   UNL A   1      46.436  30.152  27.690  1.00  0.00     0.074 A 
ATOM     38  C   UNL A   1      47.817  30.455  27.375  1.00  0.00     0.031 C 
ATOM     39  C   UNL A   1      45.528  31.062  28.117  1.00  0.00     0.037 A 
BRANCH  26  40
ATOM     40  C   UNL A   1      39.856  28.774  29.004  1.00  0.00     0.064 A 
ATOM     41  C   UNL A   1      39.367  28.626  30.311  1.00  0.00     0.173 A 
ATOM     42  C   UNL A   1      38.958  29.209  28.016  1.00  0.00     0.173 A 
ATOM     43  F   UNL A   1      40.181  28.203  31.290  1.00  0.00    -0.203 F 
ATOM     44  C   UNL A   1      38.029  28.870  30.609  1.00  0.00     0.198 A 
ATOM     45  C   UNL A   1      37.627  29.480  28.323  1.00  0.00     0.198 A 
ATOM     46  F   UNL A   1      39.373  29.377  26.752  1.00  0.00    -0.203 F 
ATOM     47  F   UNL A   1      37.574  28.668  31.853  1.00  0.00    -0.200 F 
ATOM     48  C   UNL A   1      37.162  29.299  29.616  1.00  0.00     0.200 A 
ATOM     49  F   UNL A   1      36.794  29.909  27.365  1.00  0.00    -0.200 F 
ATOM     50  F   UNL A   1      35.873  29.532  29.904  1.00  0.00    -0.200 F 
ENDBRANCH  26  40
BRANCH  27  51
ATOM     51  C   UNL A   1      49.193  26.618  26.231  1.00  0.00     0.064 A 
ATOM     52  C   UNL A   1      49.555  26.791  24.890  1.00  0.00     0.173 A 
ATOM     53  C   UNL A   1      50.183  26.185  27.127  1.00  0.00     0.173 A 
ATOM     54  F   UNL A   1      48.638  27.186  23.995  1.00  0.00    -0.203 F 
ATOM     55  C   UNL A   1      50.859  26.549  24.462  1.00  0.00     0.198 A 
ATOM     56  C   UNL A   1      51.491  25.968  26.703  1.00  0.00     0.198 A 
ATOM     57  F   UNL A   1      49.886  26.011  28.422  1.00  0.00    -0.203 F 
ATOM     58  F   UNL A   1      51.176  26.705  23.169  1.00  0.00    -0.200 F 
ATOM     59  C   UNL A   1      51.827  26.148  25.370  1.00  0.00     0.200 A 
ATOM     60  F   UNL A   1      52.428  25.599  27.587  1.00  0.00    -0.200 F 
ATOM     61  F   UNL A   1      53.086  25.937  24.960  1.00  0.00    -0.200 F 
ENDBRANCH  27  51
BRANCH  39  62
ATOM     62  C   UNL A   1      46.000  32.472  28.311  1.00  0.00     0.064 A 
ATOM     63  C   UNL A   1      46.580  32.894  29.517  1.00  0.00     0.173 A 
ATOM     64  C   UNL A   1      45.935  33.392  27.254  1.00  0.00     0.173 A 
ATOM     65  F   UNL A   1      46.650  32.056  30.562  1.00  0.00    -0.203 F 
ATOM     66  C   UNL A   1      47.068  34.190  29.658  1.00  0.00     0.198 A 
ATOM     67  C   UNL A   1      46.447  34.678  27.391  1.00  0.00     0.198 A 
ATOM     68  F   UNL A   1      45.393  33.034  26.080  1.00  0.00    -0.203 F 
ATOM     69  F   UNL A   1      47.593  34.583  30.827  1.00  0.00    -0.200 F 
ATOM     70  C   UNL A   1      47.011  35.077  28.593  1.00  0.00     0.200 A 
ATOM     71  F   UNL A   1      46.401  35.530  26.357  1.00  0.00    -0.200 F 
ATOM     72  F   UNL A   1      47.497  36.320  28.727  1.00  0.00    -0.200 F 
ENDBRANCH  39  62
ENDBRANCH  13  14
ENDBRANCH   6   8
ENDBRANCH   3   4
ENDBRANCH   2   3
ENDBRANCH   1   2
BRANCH   1  73
ATOM     73  C   UNL A   1      37.050  21.677  24.380  1.00  0.00     0.116 C 
BRANCH  73  74
ATOM     74  N   UNL A   1      37.767  22.632  25.200  1.00  0.00    -0.351 N 
ATOM     75  C   UNL A   1      37.227  23.710  25.882  1.00  0.00     0.261 C 
ATOM     76  H   UNL A   1      38.739  22.501  25.280  1.00  0.00     0.163 HD
ATOM     77  O   UNL A   1      37.986  24.451  26.498  1.00  0.00    -0.268 OA
BRANCH  75  78
ATOM     78  C   UNL A   1      35.792  23.897  25.804  1.00  0.00     0.096 A 
ATOM     79  C   UNL A   1      35.067  24.808  25.055  1.00  0.00     0.072 A 
ATOM     80  S   UNL A   1      34.776  22.939  26.791  1.00  0.00    -0.135 S 
ATOM     81  C   UNL A   1      33.704  24.873  25.476  1.00  0.00     0.131 A 
ATOM     82  C   UNL A   1      33.406  23.874  26.377  1.00  0.00     0.112 A 
BRANCH  81  83
ATOM     83  O   UNL A   1      32.730  25.769  25.172  1.00  0.00    -0.488 OA
BRANCH  83  84
ATOM     84  C   UNL A   1      33.115  26.986  24.522  1.00  0.00     0.266 C 
BRANCH  84  85
ATOM     85  C   UNL A   1      32.820  28.247  25.335  1.00  0.00     0.001 A 
ATOM     86  C   UNL A   1      33.643  28.529  26.443  1.00  0.00     0.008 A 
ATOM     87  C   UNL A   1      31.824  29.199  25.011  1.00  0.00     0.062 A 
ATOM     88  C   UNL A   1      33.526  29.693  27.202  1.00  0.00     0.000 A 
ATOM     89  C   UNL A   1      31.710  30.371  25.804  1.00  0.00     0.013 A 
ATOM     90  C   UNL A   1      32.560  30.623  26.877  1.00  0.00     0.001 A 
BRANCH  87  91
ATOM     91  C   UNL A   1      30.798  29.063  23.902  1.00  0.00     0.416 C 
ATOM     92  F   UNL A   1      31.385  28.985  22.675  1.00  0.00    -0.166 F 
ATOM     93  F   UNL A   1      30.056  27.924  24.026  1.00  0.00    -0.166 F 
ATOM     94  F   UNL A   1      29.886  30.066  23.822  1.00  0.00    -0.166 F 
ENDBRANCH  87  91
ENDBRANCH  84  85
ENDBRANCH  83  84
ENDBRANCH  81  83
ENDBRANCH  75  78
ENDBRANCH  73  74
ENDBRANCH   1  73
TORSDOF 15
ENDMDL
