MODEL 1
REMARK VINA RESULT:     -12.8      0.000      0.000
REMARK SMILES CS(=O)(=O)c1ccc(N2N=C(C(=O)NCCCCNC(=O)c3ccc(-c4c5nc(c(-c6c(F)c(F)c(F)c(F)c6F)c6ccc([nH]6)c(-c6c(F)c(F)c(F)c(F)c6F)c6nc(c(-c7c(F)c(F)c(F)c(F)c7F)c7ccc4[nH]7)C=C6)C=C5)cc3)C[C@H]2c2ccco2)cc1
REMARK SMILES IDX 16 1 15 2 14 3 12 4 13 5 11 7 9 8 10 9 86 10 85 11 8 12 5 13
REMARK SMILES IDX 6 14 93 15 7 16 92 17 2 18 1 19 3 20 4 21 87 22 88 23 91 24
REMARK SMILES IDX 89 25 90 26 17 27 18 28 19 29 20 30 21 32 22 33 23 34 84 35
REMARK SMILES IDX 24 36 83 37 25 38 26 39 27 40 77 41 28 42 82 43 76 44 78 45
REMARK SMILES IDX 29 46 81 47 75 48 74 49 30 51 62 52 42 53 61 54 43 55 46 56
REMARK SMILES IDX 60 57 79 58 44 59 45 60 59 62 80 63 47 64 31 65 32 66 40 67
REMARK SMILES IDX 33 68 34 69 38 70 41 71 35 72 36 73 39 74 37 75 63 76 64 77
REMARK SMILES IDX 72 78 65 79 66 80 70 81 73 82 67 83 68 84 71 85 69 86 48 87
REMARK SMILES IDX 49 88 57 89 50 90 51 91 55 92 58 93 52 94 53 95 56 96 54 97
REMARK H PARENT 14 6 19 31 78 50 46 61
REMARK Flexibility Score: inf
ROOT
ATOM      1  C   UNL A   1      31.934  27.665  26.552  1.00  0.00     0.023 C 
ENDROOT
BRANCH   1   2
ATOM      2  C   UNL A   1      31.386  26.243  26.520  1.00  0.00     0.116 C 
BRANCH   2   3
ATOM      3  N   UNL A   1      30.461  26.053  25.421  1.00  0.00    -0.351 N 
ATOM      4  C   UNL A   1      30.480  25.305  24.268  1.00  0.00     0.267 C 
ATOM      5  O   UNL A   1      29.534  25.434  23.495  1.00  0.00    -0.268 OA
ATOM      6  H   UNL A   1      29.634  26.577  25.523  1.00  0.00     0.163 HD
BRANCH   4   7
ATOM      7  C   UNL A   1      31.576  24.308  23.923  1.00  0.00     0.128 C 
ATOM      8  N   UNL A   1      32.639  22.467  23.888  1.00  0.00    -0.254 N 
ATOM      9  N   UNL A   1      31.430  23.035  24.136  1.00  0.00    -0.171 NA
ATOM     10  C   UNL A   1      33.629  23.374  23.307  1.00  0.00     0.180 C 
ATOM     11  C   UNL A   1      32.897  24.713  23.363  1.00  0.00     0.099 C 
BRANCH   8  12
ATOM     12  C   UNL A   1      32.812  21.093  23.945  1.00  0.00     0.060 A 
ATOM     13  C   UNL A   1      33.329  18.340  24.011  1.00  0.00     0.067 A 
ATOM     14  C   UNL A   1      32.451  18.855  23.055  1.00  0.00     0.022 A 
ATOM     15  C   UNL A   1      33.903  19.170  24.971  1.00  0.00     0.022 A 
ATOM     16  C   UNL A   1      32.193  20.231  23.032  1.00  0.00     0.029 A 
ATOM     17  C   UNL A   1      33.637  20.535  24.932  1.00  0.00     0.029 A 
BRANCH  13  18
ATOM     18  S   UNL A   1      33.706  16.606  24.049  1.00  0.00     0.175 S 
ATOM     19  C   UNL A   1      35.154  16.537  25.073  1.00  0.00     0.163 C 
ATOM     20  O   UNL A   1      34.086  16.201  22.708  1.00  0.00    -0.224 OA
ATOM     21  O   UNL A   1      32.630  15.940  24.754  1.00  0.00    -0.224 OA
ENDBRANCH  13  18
ENDBRANCH   8  12
BRANCH  10  22
ATOM     22  C   UNL A   1      34.990  23.438  23.940  1.00  0.00     0.128 A 
ATOM     23  C   UNL A   1      36.251  23.098  23.486  1.00  0.00     0.048 A 
ATOM     24  O   UNL A   1      35.086  23.916  25.219  1.00  0.00    -0.467 OA
ATOM     25  C   UNL A   1      37.149  23.354  24.551  1.00  0.00     0.042 A 
ATOM     26  C   UNL A   1      36.392  23.869  25.575  1.00  0.00     0.195 A 
ENDBRANCH  10  22
ENDBRANCH   4   7
ENDBRANCH   2   3
ENDBRANCH   1   2
BRANCH   1  27
ATOM     27  C   UNL A   1      32.414  28.171  25.194  1.00  0.00     0.023 C 
BRANCH  27  28
ATOM     28  C   UNL A   1      33.343  29.377  25.254  1.00  0.00     0.116 C 
BRANCH  28  29
ATOM     29  N   UNL A   1      32.743  30.540  25.897  1.00  0.00    -0.352 N 
ATOM     30  C   UNL A   1      33.210  31.257  26.973  1.00  0.00     0.251 C 
ATOM     31  H   UNL A   1      31.893  30.852  25.509  1.00  0.00     0.163 HD
ATOM     32  O   UNL A   1      32.530  32.140  27.481  1.00  0.00    -0.269 OA
BRANCH  30  33
ATOM     33  C   UNL A   1      34.530  30.913  27.533  1.00  0.00     0.039 A 
ATOM     34  C   UNL A   1      35.490  31.916  27.670  1.00  0.00     0.014 A 
ATOM     35  C   UNL A   1      34.781  29.617  27.991  1.00  0.00     0.014 A 
ATOM     36  C   UNL A   1      36.679  31.637  28.346  1.00  0.00     0.010 A 
ATOM     37  C   UNL A   1      35.924  29.367  28.740  1.00  0.00     0.010 A 
ATOM     38  C   UNL A   1      36.883  30.374  28.928  1.00  0.00    -0.014 A 
BRANCH  38  39
ATOM     39  C   UNL A   1      38.091  30.083  29.741  1.00  0.00     0.031 A 
ATOM     40  C   UNL A   1      39.142  29.148  29.213  1.00  0.00     0.074 A 
ATOM     41  C   UNL A   1      38.201  30.595  30.981  1.00  0.00     0.049 A 
ATOM     42  N   UNL A   1      40.221  28.696  29.800  1.00  0.00    -0.248 NA
ATOM     43  C   UNL A   1      38.938  28.628  27.851  1.00  0.00     0.031 C 
ATOM     44  C   UNL A   1      37.225  31.477  31.624  1.00  0.00     0.029 A 
ATOM     45  N   UNL A   1      39.181  30.439  31.931  1.00  0.00    -0.354 N 
ATOM     46  C   UNL A   1      40.812  27.832  28.889  1.00  0.00     0.074 A 
ATOM     47  C   UNL A   1      39.943  27.773  27.735  1.00  0.00     0.031 C 
ATOM     48  C   UNL A   1      37.666  31.803  32.850  1.00  0.00     0.029 A 
ATOM     49  C   UNL A   1      38.930  31.117  33.099  1.00  0.00     0.049 A 
ATOM     50  H   UNL A   1      39.987  29.893  31.788  1.00  0.00     0.167 HD
ATOM     51  C   UNL A   1      41.988  27.169  28.994  1.00  0.00     0.037 A 
ATOM     52  C   UNL A   1      39.634  31.169  34.246  1.00  0.00     0.037 A 
ATOM     53  C   UNL A   1      42.857  27.246  30.139  1.00  0.00     0.049 A 
ATOM     54  C   UNL A   1      40.926  30.401  34.347  1.00  0.00     0.074 A 
ATOM     55  C   UNL A   1      44.094  26.655  30.323  1.00  0.00     0.029 A 
ATOM     56  N   UNL A   1      42.574  27.952  31.300  1.00  0.00    -0.354 N 
ATOM     57  N   UNL A   1      41.512  29.643  33.452  1.00  0.00    -0.248 NA
ATOM     58  C   UNL A   1      41.657  30.501  35.618  1.00  0.00     0.031 C 
ATOM     59  C   UNL A   1      44.533  26.954  31.617  1.00  0.00     0.029 A 
ATOM     60  C   UNL A   1      43.603  27.789  32.214  1.00  0.00     0.049 A 
ATOM     61  H   UNL A   1      41.763  28.490  31.451  1.00  0.00     0.167 HD
ATOM     62  C   UNL A   1      42.694  29.206  34.036  1.00  0.00     0.074 A 
ATOM     63  C   UNL A   1      42.748  29.795  35.358  1.00  0.00     0.031 C 
ATOM     64  C   UNL A   1      43.650  28.393  33.522  1.00  0.00     0.037 A 
BRANCH  51  65
ATOM     65  C   UNL A   1      42.402  26.301  27.840  1.00  0.00     0.064 A 
ATOM     66  C   UNL A   1      43.291  26.759  26.854  1.00  0.00     0.173 A 
ATOM     67  C   UNL A   1      41.933  24.983  27.736  1.00  0.00     0.173 A 
ATOM     68  F   UNL A   1      43.761  28.015  26.898  1.00  0.00    -0.203 F 
ATOM     69  C   UNL A   1      43.664  25.942  25.790  1.00  0.00     0.198 A 
ATOM     70  C   UNL A   1      42.337  24.157  26.690  1.00  0.00     0.198 A 
ATOM     71  F   UNL A   1      41.087  24.491  28.654  1.00  0.00    -0.203 F 
ATOM     72  F   UNL A   1      44.466  26.422  24.829  1.00  0.00    -0.200 F 
ATOM     73  C   UNL A   1      43.194  24.640  25.713  1.00  0.00     0.200 A 
ATOM     74  F   UNL A   1      41.895  22.895  26.627  1.00  0.00    -0.200 F 
ATOM     75  F   UNL A   1      43.562  23.853  24.693  1.00  0.00    -0.200 F 
ENDBRANCH  51  65
BRANCH  52  76
ATOM     76  C   UNL A   1      39.146  31.990  35.387  1.00  0.00     0.064 A 
ATOM     77  C   UNL A   1      39.448  33.356  35.471  1.00  0.00     0.173 A 
ATOM     78  C   UNL A   1      38.380  31.427  36.419  1.00  0.00     0.173 A 
ATOM     79  F   UNL A   1      40.193  33.937  34.520  1.00  0.00    -0.203 F 
ATOM     80  C   UNL A   1      39.028  34.122  36.557  1.00  0.00     0.198 A 
ATOM     81  C   UNL A   1      37.932  32.201  37.487  1.00  0.00     0.198 A 
ATOM     82  F   UNL A   1      38.056  30.126  36.384  1.00  0.00    -0.203 F 
ATOM     83  F   UNL A   1      39.377  35.413  36.640  1.00  0.00    -0.200 F 
ATOM     84  C   UNL A   1      38.265  33.545  37.562  1.00  0.00     0.200 A 
ATOM     85  F   UNL A   1      37.180  31.643  38.446  1.00  0.00    -0.200 F 
ATOM     86  F   UNL A   1      37.858  34.282  38.604  1.00  0.00    -0.200 F 
ENDBRANCH  52  76
BRANCH  64  87
ATOM     87  C   UNL A   1      44.863  28.130  34.368  1.00  0.00     0.064 A 
ATOM     88  C   UNL A   1      44.959  27.004  35.200  1.00  0.00     0.173 A 
ATOM     89  C   UNL A   1      45.965  28.996  34.309  1.00  0.00     0.173 A 
ATOM     90  F   UNL A   1      43.928  26.151  35.304  1.00  0.00    -0.203 F 
ATOM     91  C   UNL A   1      46.101  26.772  35.962  1.00  0.00     0.198 A 
ATOM     92  C   UNL A   1      47.120  28.742  35.044  1.00  0.00     0.198 A 
ATOM     93  F   UNL A   1      45.931  30.084  33.525  1.00  0.00    -0.203 F 
ATOM     94  F   UNL A   1      46.149  25.719  36.790  1.00  0.00    -0.200 F 
ATOM     95  C   UNL A   1      47.183  27.635  35.876  1.00  0.00     0.200 A 
ATOM     96  F   UNL A   1      48.171  29.568  34.946  1.00  0.00    -0.200 F 
ATOM     97  F   UNL A   1      48.286  27.404  36.602  1.00  0.00    -0.200 F 
ENDBRANCH  64  87
ENDBRANCH  38  39
ENDBRANCH  30  33
ENDBRANCH  28  29
ENDBRANCH  27  28
ENDBRANCH   1  27
TORSDOF 14
ENDMDL
MODEL 2
REMARK VINA RESULT:     -12.6      4.261      7.777
REMARK SMILES CS(=O)(=O)c1ccc(N2N=C(C(=O)NCCCCNC(=O)c3ccc(-c4c5nc(c(-c6c(F)c(F)c(F)c(F)c6F)c6ccc([nH]6)c(-c6c(F)c(F)c(F)c(F)c6F)c6nc(c(-c7c(F)c(F)c(F)c(F)c7F)c7ccc4[nH]7)C=C6)C=C5)cc3)C[C@H]2c2ccco2)cc1
REMARK SMILES IDX 16 1 15 2 14 3 12 4 13 5 11 7 9 8 10 9 86 10 85 11 8 12 5 13
REMARK SMILES IDX 6 14 93 15 7 16 92 17 2 18 1 19 3 20 4 21 87 22 88 23 91 24
REMARK SMILES IDX 89 25 90 26 17 27 18 28 19 29 20 30 21 32 22 33 23 34 84 35
REMARK SMILES IDX 24 36 83 37 25 38 26 39 27 40 77 41 28 42 82 43 76 44 78 45
REMARK SMILES IDX 29 46 81 47 75 48 74 49 30 51 62 52 42 53 61 54 43 55 46 56
REMARK SMILES IDX 60 57 79 58 44 59 45 60 59 62 80 63 47 64 31 65 32 66 40 67
REMARK SMILES IDX 33 68 34 69 38 70 41 71 35 72 36 73 39 74 37 75 63 76 64 77
REMARK SMILES IDX 72 78 65 79 66 80 70 81 73 82 67 83 68 84 71 85 69 86 48 87
REMARK SMILES IDX 49 88 57 89 50 90 51 91 55 92 58 93 52 94 53 95 56 96 54 97
REMARK H PARENT 14 6 19 31 78 50 46 61
REMARK Flexibility Score: inf
ROOT
ATOM      1  C   UNL A   1      35.785  23.203  23.484  1.00  0.00     0.023 C 
ENDROOT
BRANCH   1   2
ATOM      2  C   UNL A   1      34.359  23.454  23.008  1.00  0.00     0.116 C 
BRANCH   2   3
ATOM      3  N   UNL A   1      33.404  22.642  23.735  1.00  0.00    -0.351 N 
ATOM      4  C   UNL A   1      32.410  22.913  24.645  1.00  0.00     0.267 C 
ATOM      5  O   UNL A   1      31.817  21.956  25.135  1.00  0.00    -0.268 OA
ATOM      6  H   UNL A   1      33.487  21.682  23.534  1.00  0.00     0.163 HD
BRANCH   4   7
ATOM      7  C   UNL A   1      31.981  24.319  25.037  1.00  0.00     0.128 C 
ATOM      8  N   UNL A   1      31.237  26.298  24.813  1.00  0.00    -0.254 N 
ATOM      9  N   UNL A   1      31.291  25.071  24.233  1.00  0.00    -0.171 NA
ATOM     10  C   UNL A   1      31.772  26.351  26.173  1.00  0.00     0.180 C 
ATOM     11  C   UNL A   1      32.350  24.948  26.337  1.00  0.00     0.099 C 
BRANCH   8  12
ATOM     12  C   UNL A   1      30.500  27.327  24.247  1.00  0.00     0.060 A 
ATOM     13  C   UNL A   1      28.982  29.469  23.267  1.00  0.00     0.067 A 
ATOM     14  C   UNL A   1      28.503  28.163  23.133  1.00  0.00     0.022 A 
ATOM     15  C   UNL A   1      30.233  29.713  23.827  1.00  0.00     0.022 A 
ATOM     16  C   UNL A   1      29.270  27.098  23.620  1.00  0.00     0.029 A 
ATOM     17  C   UNL A   1      30.982  28.643  24.306  1.00  0.00     0.029 A 
BRANCH  13  18
ATOM     18  S   UNL A   1      28.022  30.846  22.691  1.00  0.00     0.175 S 
ATOM     19  C   UNL A   1      29.161  32.202  22.812  1.00  0.00     0.163 C 
ATOM     20  O   UNL A   1      26.952  31.074  23.645  1.00  0.00    -0.224 OA
ATOM     21  O   UNL A   1      27.739  30.626  21.288  1.00  0.00    -0.224 OA
ENDBRANCH  13  18
ENDBRANCH   8  12
BRANCH  10  22
ATOM     22  C   UNL A   1      32.771  27.425  26.501  1.00  0.00     0.128 A 
ATOM     23  C   UNL A   1      34.028  27.719  26.006  1.00  0.00     0.048 A 
ATOM     24  O   UNL A   1      32.447  28.333  27.472  1.00  0.00    -0.467 OA
ATOM     25  C   UNL A   1      34.500  28.839  26.732  1.00  0.00     0.042 A 
ATOM     26  C   UNL A   1      33.492  29.185  27.598  1.00  0.00     0.195 A 
ENDBRANCH  10  22
ENDBRANCH   4   7
ENDBRANCH   2   3
ENDBRANCH   1   2
BRANCH   1  27
ATOM     27  C   UNL A   1      35.868  22.499  24.835  1.00  0.00     0.023 C 
BRANCH  27  28
ATOM     28  C   UNL A   1      36.854  23.118  25.819  1.00  0.00     0.116 C 
BRANCH  28  29
ATOM     29  N   UNL A   1      38.039  22.299  26.044  1.00  0.00    -0.352 N 
ATOM     30  C   UNL A   1      39.268  22.688  26.522  1.00  0.00     0.251 C 
ATOM     31  H   UNL A   1      37.946  21.342  25.827  1.00  0.00     0.163 HD
ATOM     32  O   UNL A   1      40.210  21.905  26.541  1.00  0.00    -0.269 OA
BRANCH  30  33
ATOM     33  C   UNL A   1      39.443  24.082  26.971  1.00  0.00     0.039 A 
ATOM     34  C   UNL A   1      39.117  24.416  28.285  1.00  0.00     0.014 A 
ATOM     35  C   UNL A   1      40.004  25.029  26.111  1.00  0.00     0.014 A 
ATOM     36  C   UNL A   1      39.432  25.688  28.765  1.00  0.00     0.010 A 
ATOM     37  C   UNL A   1      40.396  26.262  26.617  1.00  0.00     0.010 A 
ATOM     38  C   UNL A   1      40.117  26.604  27.949  1.00  0.00    -0.014 A 
BRANCH  38  39
ATOM     39  C   UNL A   1      40.556  27.924  28.466  1.00  0.00     0.031 A 
ATOM     40  C   UNL A   1      41.999  28.149  28.820  1.00  0.00     0.074 A 
ATOM     41  C   UNL A   1      39.645  28.891  28.690  1.00  0.00     0.049 A 
ATOM     42  N   UNL A   1      42.566  29.193  29.368  1.00  0.00    -0.248 NA
ATOM     43  C   UNL A   1      42.925  27.036  28.551  1.00  0.00     0.031 C 
ATOM     44  C   UNL A   1      38.208  28.779  28.431  1.00  0.00     0.029 A 
ATOM     45  N   UNL A   1      39.791  30.159  29.198  1.00  0.00    -0.354 N 
ATOM     46  C   UNL A   1      43.904  28.859  29.519  1.00  0.00     0.074 A 
ATOM     47  C   UNL A   1      44.055  27.494  29.066  1.00  0.00     0.031 C 
ATOM     48  C   UNL A   1      37.611  29.936  28.758  1.00  0.00     0.029 A 
ATOM     49  C   UNL A   1      38.611  30.854  29.294  1.00  0.00     0.049 A 
ATOM     50  H   UNL A   1      40.660  30.534  29.469  1.00  0.00     0.167 HD
ATOM     51  C   UNL A   1      44.922  29.631  29.970  1.00  0.00     0.037 A 
ATOM     52  C   UNL A   1      38.362  32.089  29.771  1.00  0.00     0.037 A 
ATOM     53  C   UNL A   1      44.768  30.995  30.404  1.00  0.00     0.049 A 
ATOM     54  C   UNL A   1      39.507  32.917  30.292  1.00  0.00     0.074 A 
ATOM     55  C   UNL A   1      45.743  31.879  30.829  1.00  0.00     0.029 A 
ATOM     56  N   UNL A   1      43.557  31.670  30.477  1.00  0.00    -0.354 N 
ATOM     57  N   UNL A   1      40.781  32.616  30.364  1.00  0.00    -0.248 NA
ATOM     58  C   UNL A   1      39.178  34.259  30.792  1.00  0.00     0.031 C 
ATOM     59  C   UNL A   1      45.117  33.068  31.215  1.00  0.00     0.029 A 
ATOM     60  C   UNL A   1      43.759  32.950  30.965  1.00  0.00     0.049 A 
ATOM     61  H   UNL A   1      42.685  31.293  30.218  1.00  0.00     0.167 HD
ATOM     62  C   UNL A   1      41.409  33.741  30.884  1.00  0.00     0.074 A 
ATOM     63  C   UNL A   1      40.378  34.735  31.094  1.00  0.00     0.031 C 
ATOM     64  C   UNL A   1      42.723  33.934  31.157  1.00  0.00     0.037 A 
BRANCH  51  65
ATOM     65  C   UNL A   1      46.292  29.016  30.019  1.00  0.00     0.064 A 
ATOM     66  C   UNL A   1      46.756  28.336  31.156  1.00  0.00     0.173 A 
ATOM     67  C   UNL A   1      47.140  29.077  28.903  1.00  0.00     0.173 A 
ATOM     68  F   UNL A   1      45.990  28.258  32.256  1.00  0.00    -0.203 F 
ATOM     69  C   UNL A   1      48.028  27.773  31.186  1.00  0.00     0.198 A 
ATOM     70  C   UNL A   1      48.398  28.481  28.924  1.00  0.00     0.198 A 
ATOM     71  F   UNL A   1      46.746  29.709  27.787  1.00  0.00    -0.203 F 
ATOM     72  F   UNL A   1      48.470  27.180  32.304  1.00  0.00    -0.200 F 
ATOM     73  C   UNL A   1      48.845  27.837  30.068  1.00  0.00     0.200 A 
ATOM     74  F   UNL A   1      49.179  28.531  27.837  1.00  0.00    -0.200 F 
ATOM     75  F   UNL A   1      50.066  27.287  30.096  1.00  0.00    -0.200 F 
ENDBRANCH  51  65
BRANCH  52  76
ATOM     76  C   UNL A   1      36.974  32.627  29.765  1.00  0.00     0.064 A 
ATOM     77  C   UNL A   1      36.473  33.311  28.649  1.00  0.00     0.173 A 
ATOM     78  C   UNL A   1      36.127  32.481  30.874  1.00  0.00     0.173 A 
ATOM     79  F   UNL A   1      37.250  33.493  27.571  1.00  0.00    -0.203 F 
ATOM     80  C   UNL A   1      35.189  33.852  28.651  1.00  0.00     0.198 A 
ATOM     81  C   UNL A   1      34.831  32.994  30.862  1.00  0.00     0.198 A 
ATOM     82  F   UNL A   1      36.554  31.829  31.965  1.00  0.00    -0.203 F 
ATOM     83  F   UNL A   1      34.755  34.548  27.591  1.00  0.00    -0.200 F 
ATOM     84  C   UNL A   1      34.367  33.688  29.757  1.00  0.00     0.200 A 
ATOM     85  F   UNL A   1      34.035  32.817  31.925  1.00  0.00    -0.200 F 
ATOM     86  F   UNL A   1      33.131  34.206  29.758  1.00  0.00    -0.200 F 
ENDBRANCH  52  76
BRANCH  64  87
ATOM     87  C   UNL A   1      43.133  35.287  31.667  1.00  0.00     0.064 A 
ATOM     88  C   UNL A   1      43.082  35.613  33.031  1.00  0.00     0.173 A 
ATOM     89  C   UNL A   1      43.628  36.255  30.780  1.00  0.00     0.173 A 
ATOM     90  F   UNL A   1      42.604  34.728  33.920  1.00  0.00    -0.203 F 
ATOM     91  C   UNL A   1      43.484  36.868  33.482  1.00  0.00     0.198 A 
ATOM     92  C   UNL A   1      44.063  37.495  31.239  1.00  0.00     0.198 A 
ATOM     93  F   UNL A   1      43.706  35.994  29.467  1.00  0.00    -0.203 F 
ATOM     94  F   UNL A   1      43.376  37.175  34.783  1.00  0.00    -0.200 F 
ATOM     95  C   UNL A   1      43.982  37.803  32.588  1.00  0.00     0.200 A 
ATOM     96  F   UNL A   1      44.560  38.391  30.376  1.00  0.00    -0.200 F 
ATOM     97  F   UNL A   1      44.379  39.006  33.026  1.00  0.00    -0.200 F 
ENDBRANCH  64  87
ENDBRANCH  38  39
ENDBRANCH  30  33
ENDBRANCH  28  29
ENDBRANCH  27  28
ENDBRANCH   1  27
TORSDOF 14
ENDMDL
MODEL 3
REMARK VINA RESULT:     -12.6      3.970      7.681
REMARK SMILES CS(=O)(=O)c1ccc(N2N=C(C(=O)NCCCCNC(=O)c3ccc(-c4c5nc(c(-c6c(F)c(F)c(F)c(F)c6F)c6ccc([nH]6)c(-c6c(F)c(F)c(F)c(F)c6F)c6nc(c(-c7c(F)c(F)c(F)c(F)c7F)c7ccc4[nH]7)C=C6)C=C5)cc3)C[C@H]2c2ccco2)cc1
REMARK SMILES IDX 16 1 15 2 14 3 12 4 13 5 11 7 9 8 10 9 86 10 85 11 8 12 5 13
REMARK SMILES IDX 6 14 93 15 7 16 92 17 2 18 1 19 3 20 4 21 87 22 88 23 91 24
REMARK SMILES IDX 89 25 90 26 17 27 18 28 19 29 20 30 21 32 22 33 23 34 84 35
REMARK SMILES IDX 24 36 83 37 25 38 26 39 27 40 77 41 28 42 82 43 76 44 78 45
REMARK SMILES IDX 29 46 81 47 75 48 74 49 30 51 62 52 42 53 61 54 43 55 46 56
REMARK SMILES IDX 60 57 79 58 44 59 45 60 59 62 80 63 47 64 31 65 32 66 40 67
REMARK SMILES IDX 33 68 34 69 38 70 41 71 35 72 36 73 39 74 37 75 63 76 64 77
REMARK SMILES IDX 72 78 65 79 66 80 70 81 73 82 67 83 68 84 71 85 69 86 48 87
REMARK SMILES IDX 49 88 57 89 50 90 51 91 55 92 58 93 52 94 53 95 56 96 54 97
REMARK H PARENT 14 6 19 31 78 50 46 61
REMARK Flexibility Score: inf
ROOT
ATOM      1  C   UNL A   1      34.979  21.818  25.155  1.00  0.00     0.023 C 
ENDROOT
BRANCH   1   2
ATOM      2  C   UNL A   1      33.631  22.249  24.588  1.00  0.00     0.116 C 
BRANCH   2   3
ATOM      3  N   UNL A   1      33.780  22.914  23.310  1.00  0.00    -0.351 N 
ATOM      4  C   UNL A   1      33.376  24.127  22.806  1.00  0.00     0.267 C 
ATOM      5  O   UNL A   1      33.614  24.355  21.623  1.00  0.00    -0.268 OA
ATOM      6  H   UNL A   1      34.281  22.376  22.655  1.00  0.00     0.163 HD
BRANCH   4   7
ATOM      7  C   UNL A   1      32.698  25.206  23.638  1.00  0.00     0.128 C 
ATOM      8  N   UNL A   1      31.642  26.999  24.074  1.00  0.00    -0.254 N 
ATOM      9  N   UNL A   1      31.931  26.103  23.095  1.00  0.00    -0.171 NA
ATOM     10  C   UNL A   1      32.095  26.607  25.409  1.00  0.00     0.180 C 
ATOM     11  C   UNL A   1      32.893  25.341  25.109  1.00  0.00     0.099 C 
BRANCH   8  12
ATOM     12  C   UNL A   1      30.770  28.053  23.849  1.00  0.00     0.060 A 
ATOM     13  C   UNL A   1      29.051  30.175  23.223  1.00  0.00     0.067 A 
ATOM     14  C   UNL A   1      30.187  30.413  24.001  1.00  0.00     0.022 A 
ATOM     15  C   UNL A   1      28.731  28.886  22.807  1.00  0.00     0.022 A 
ATOM     16  C   UNL A   1      31.038  29.346  24.315  1.00  0.00     0.029 A 
ATOM     17  C   UNL A   1      29.588  27.838  23.126  1.00  0.00     0.029 A 
BRANCH  13  18
ATOM     18  S   UNL A   1      27.967  31.508  22.778  1.00  0.00     0.175 S 
ATOM     19  C   UNL A   1      28.985  32.943  23.014  1.00  0.00     0.163 C 
ATOM     20  O   UNL A   1      26.893  31.556  23.753  1.00  0.00    -0.224 OA
ATOM     21  O   UNL A   1      27.687  31.390  21.361  1.00  0.00    -0.224 OA
ENDBRANCH  13  18
ENDBRANCH   8  12
BRANCH  10  22
ATOM     22  C   UNL A   1      32.881  27.604  26.212  1.00  0.00     0.128 A 
ATOM     23  C   UNL A   1      32.639  28.235  27.419  1.00  0.00     0.048 A 
ATOM     24  O   UNL A   1      34.088  28.021  25.720  1.00  0.00    -0.467 OA
ATOM     25  C   UNL A   1      33.737  29.097  27.654  1.00  0.00     0.042 A 
ATOM     26  C   UNL A   1      34.599  28.915  26.600  1.00  0.00     0.195 A 
ENDBRANCH  10  22
ENDBRANCH   4   7
ENDBRANCH   2   3
ENDBRANCH   1   2
BRANCH   1  27
ATOM     27  C   UNL A   1      35.624  22.858  26.068  1.00  0.00     0.023 C 
BRANCH  27  28
ATOM     28  C   UNL A   1      36.890  23.499  25.512  1.00  0.00     0.116 C 
BRANCH  28  29
ATOM     29  N   UNL A   1      38.071  22.654  25.639  1.00  0.00    -0.352 N 
ATOM     30  C   UNL A   1      39.295  22.973  26.177  1.00  0.00     0.251 C 
ATOM     31  H   UNL A   1      37.980  21.735  25.296  1.00  0.00     0.163 HD
ATOM     32  O   UNL A   1      40.236  22.193  26.103  1.00  0.00    -0.269 OA
BRANCH  30  33
ATOM     33  C   UNL A   1      39.467  24.294  26.810  1.00  0.00     0.039 A 
ATOM     34  C   UNL A   1      39.045  24.476  28.127  1.00  0.00     0.014 A 
ATOM     35  C   UNL A   1      40.116  25.322  26.121  1.00  0.00     0.014 A 
ATOM     36  C   UNL A   1      39.350  25.668  28.785  1.00  0.00     0.010 A 
ATOM     37  C   UNL A   1      40.496  26.469  26.805  1.00  0.00     0.010 A 
ATOM     38  C   UNL A   1      40.120  26.654  28.145  1.00  0.00    -0.014 A 
BRANCH  38  39
ATOM     39  C   UNL A   1      40.547  27.885  28.855  1.00  0.00     0.031 A 
ATOM     40  C   UNL A   1      41.946  27.993  29.392  1.00  0.00     0.074 A 
ATOM     41  C   UNL A   1      39.656  28.869  29.084  1.00  0.00     0.049 A 
ATOM     42  N   UNL A   1      42.486  28.941  30.116  1.00  0.00    -0.248 NA
ATOM     43  C   UNL A   1      42.852  26.869  29.103  1.00  0.00     0.031 C 
ATOM     44  C   UNL A   1      38.256  28.861  28.654  1.00  0.00     0.029 A 
ATOM     45  N   UNL A   1      39.791  30.064  29.746  1.00  0.00    -0.354 N 
ATOM     46  C   UNL A   1      43.783  28.522  30.377  1.00  0.00     0.074 A 
ATOM     47  C   UNL A   1      43.932  27.209  29.791  1.00  0.00     0.031 C 
ATOM     48  C   UNL A   1      37.670  30.005  29.042  1.00  0.00     0.029 A 
ATOM     49  C   UNL A   1      38.636  30.806  29.787  1.00  0.00     0.049 A 
ATOM     50  H   UNL A   1      40.637  30.361  30.154  1.00  0.00     0.167 HD
ATOM     51  C   UNL A   1      44.770  29.186  31.025  1.00  0.00     0.037 A 
ATOM     52  C   UNL A   1      38.382  31.992  30.372  1.00  0.00     0.037 A 
ATOM     53  C   UNL A   1      44.621  30.500  31.591  1.00  0.00     0.049 A 
ATOM     54  C   UNL A   1      39.490  32.698  31.109  1.00  0.00     0.074 A 
ATOM     55  C   UNL A   1      45.574  31.280  32.221  1.00  0.00     0.029 A 
ATOM     56  N   UNL A   1      43.438  31.226  31.604  1.00  0.00    -0.354 N 
ATOM     57  N   UNL A   1      40.733  32.325  31.289  1.00  0.00    -0.248 NA
ATOM     58  C   UNL A   1      39.158  33.993  31.719  1.00  0.00     0.031 C 
ATOM     59  C   UNL A   1      44.954  32.452  32.668  1.00  0.00     0.029 A 
ATOM     60  C   UNL A   1      43.632  32.434  32.254  1.00  0.00     0.049 A 
ATOM     61  H   UNL A   1      42.587  30.927  31.208  1.00  0.00     0.167 HD
ATOM     62  C   UNL A   1      41.341  33.351  32.000  1.00  0.00     0.074 A 
ATOM     63  C   UNL A   1      40.332  34.369  32.206  1.00  0.00     0.031 C 
ATOM     64  C   UNL A   1      42.620  33.444  32.440  1.00  0.00     0.037 A 
BRANCH  51  65
ATOM     65  C   UNL A   1      46.099  28.498  31.157  1.00  0.00     0.064 A 
ATOM     66  C   UNL A   1      47.107  28.648  30.190  1.00  0.00     0.173 A 
ATOM     67  C   UNL A   1      46.383  27.706  32.279  1.00  0.00     0.173 A 
ATOM     68  F   UNL A   1      46.885  29.385  29.090  1.00  0.00    -0.203 F 
ATOM     69  C   UNL A   1      48.333  28.003  30.326  1.00  0.00     0.198 A 
ATOM     70  C   UNL A   1      47.624  27.092  32.430  1.00  0.00     0.198 A 
ATOM     71  F   UNL A   1      45.460  27.533  33.237  1.00  0.00    -0.203 F 
ATOM     72  F   UNL A   1      49.257  28.114  29.362  1.00  0.00    -0.200 F 
ATOM     73  C   UNL A   1      48.594  27.233  31.449  1.00  0.00     0.200 A 
ATOM     74  F   UNL A   1      47.880  26.362  33.523  1.00  0.00    -0.200 F 
ATOM     75  F   UNL A   1      49.779  26.620  31.583  1.00  0.00    -0.200 F 
ENDBRANCH  51  65
BRANCH  52  76
ATOM     76  C   UNL A   1      37.027  32.600  30.271  1.00  0.00     0.064 A 
ATOM     77  C   UNL A   1      36.685  33.419  29.185  1.00  0.00     0.173 A 
ATOM     78  C   UNL A   1      36.054  32.388  31.258  1.00  0.00     0.173 A 
ATOM     79  F   UNL A   1      37.587  33.669  28.225  1.00  0.00    -0.203 F 
ATOM     80  C   UNL A   1      35.432  34.024  29.105  1.00  0.00     0.198 A 
ATOM     81  C   UNL A   1      34.790  32.966  31.160  1.00  0.00     0.198 A 
ATOM     82  F   UNL A   1      36.326  31.607  32.314  1.00  0.00    -0.203 F 
ATOM     83  F   UNL A   1      35.151  34.846  28.084  1.00  0.00    -0.200 F 
ATOM     84  C   UNL A   1      34.483  33.793  30.090  1.00  0.00     0.200 A 
ATOM     85  F   UNL A   1      33.871  32.725  32.104  1.00  0.00    -0.200 F 
ATOM     86  F   UNL A   1      33.278  34.371  30.011  1.00  0.00    -0.200 F 
ENDBRANCH  52  76
BRANCH  64  87
ATOM     87  C   UNL A   1      43.021  34.710  33.144  1.00  0.00     0.064 A 
ATOM     88  C   UNL A   1      43.456  35.845  32.444  1.00  0.00     0.173 A 
ATOM     89  C   UNL A   1      42.923  34.800  34.541  1.00  0.00     0.173 A 
ATOM     90  F   UNL A   1      43.581  35.807  31.108  1.00  0.00    -0.203 F 
ATOM     91  C   UNL A   1      43.806  37.012  33.118  1.00  0.00     0.198 A 
ATOM     92  C   UNL A   1      43.238  35.979  35.209  1.00  0.00     0.198 A 
ATOM     93  F   UNL A   1      42.506  33.747  35.260  1.00  0.00    -0.203 F 
ATOM     94  F   UNL A   1      44.269  38.066  32.432  1.00  0.00    -0.200 F 
ATOM     95  C   UNL A   1      43.688  37.081  34.498  1.00  0.00     0.200 A 
ATOM     96  F   UNL A   1      43.107  36.050  36.541  1.00  0.00    -0.200 F 
ATOM     97  F   UNL A   1      44.014  38.209  35.144  1.00  0.00    -0.200 F 
ENDBRANCH  64  87
ENDBRANCH  38  39
ENDBRANCH  30  33
ENDBRANCH  28  29
ENDBRANCH  27  28
ENDBRANCH   1  27
TORSDOF 14
ENDMDL
