MODEL 1
REMARK VINA RESULT:     -14.2      0.000      0.000
REMARK SMILES C[C@@H](C(=O)NCCCCNC(=O)c1ccc(-c2c3nc(c(-c4c(F)c(F)c(F)c(F)c4F)c4ccc([nH]4)c(-c4c(F)c(F)c(F)c(F)c4F)c4nc(c(-c5c(F)c(F)c(F)c(F)c5F)c5ccc2[nH]5)C=C4)C=C3)cc1)[N@@H+]1CCc2n[nH]c(C(c3ccccc3)c3ccccc3)c2C1
REMARK SMILES IDX 7 1 6 2 5 3 3 4 4 5 2 7 1 8 76 9 77 10 97 11 78 13 96 14
REMARK SMILES IDX 79 15 82 16 80 17 81 18 83 20 84 21 85 22 89 23 86 24 88 25
REMARK SMILES IDX 87 26 90 27 91 28 95 29 92 30 94 31 93 32 8 33 9 34 10 35
REMARK SMILES IDX 11 36 12 38 13 39 14 40 75 41 15 42 74 43 16 44 17 45 18 46
REMARK SMILES IDX 68 47 19 48 73 49 67 50 69 51 20 52 72 53 66 54 65 55 21 57
REMARK SMILES IDX 53 58 33 59 52 60 34 61 37 62 51 63 70 64 35 65 36 66 50 68
REMARK SMILES IDX 71 69 38 70 22 71 23 72 31 73 24 74 25 75 29 76 32 77 26 78
REMARK SMILES IDX 27 79 30 80 28 81 54 82 55 83 63 84 56 85 57 86 61 87 64 88
REMARK SMILES IDX 58 89 59 90 62 91 60 92 39 93 40 94 48 95 41 96 42 97 46 98
REMARK SMILES IDX 49 99 43 100 44 101 47 102 45 103
REMARK H PARENT 5 6 76 12 81 19 10 37 69 56 37 67
REMARK Flexibility Score: inf
ROOT
ATOM      1  C   UNL A   1      33.039  28.988  23.770  1.00  0.00     0.023 C 
ENDROOT
BRANCH   1   2
ATOM      2  C   UNL A   1      33.846  28.622  22.533  1.00  0.00     0.116 C 
BRANCH   2   3
ATOM      3  N   UNL A   1      33.236  27.685  21.602  1.00  0.00    -0.351 N 
ATOM      4  C   UNL A   1      32.365  26.657  21.864  1.00  0.00     0.278 C 
ATOM      5  O   UNL A   1      31.340  26.638  21.169  1.00  0.00    -0.268 OA
ATOM      6  H   UNL A   1      33.482  27.803  20.656  1.00  0.00     0.163 HD
BRANCH   4   7
ATOM      7  C   UNL A   1      32.673  25.466  22.821  1.00  0.00     0.271 C 
ATOM      8  C   UNL A   1      33.357  24.255  22.216  1.00  0.00     0.086 C 
BRANCH   7   9
ATOM      9  N   UNL A   1      31.463  25.149  23.627  1.00  0.00    -0.321 N 
ATOM     10  C   UNL A   1      31.279  25.987  24.837  1.00  0.00     0.269 C 
ATOM     11  C   UNL A   1      31.197  23.712  23.792  1.00  0.00     0.303 C 
ATOM     12  H   UNL A   1      30.689  25.455  23.039  1.00  0.00     0.349 HD
ATOM     13  C   UNL A   1      30.137  25.507  25.786  1.00  0.00     0.120 C 
ATOM     14  C   UNL A   1      31.150  23.287  25.213  1.00  0.00     0.052 A 
ATOM     15  C   UNL A   1      30.438  24.095  26.121  1.00  0.00     0.077 A 
ATOM     16  C   UNL A   1      31.750  22.335  26.030  1.00  0.00     0.056 A 
ATOM     17  N   UNL A   1      30.259  23.513  27.301  1.00  0.00    -0.180 NA
ATOM     18  N   UNL A   1      30.953  22.371  27.162  1.00  0.00    -0.281 N 
ATOM     19  H   UNL A   1      30.900  21.628  27.806  1.00  0.00     0.190 HD
BRANCH  16  20
ATOM     20  C   UNL A   1      32.915  21.350  25.927  1.00  0.00     0.098 C 
BRANCH  20  21
ATOM     21  C   UNL A   1      32.678  20.135  25.002  1.00  0.00    -0.035 A 
ATOM     22  C   UNL A   1      32.838  18.831  25.516  1.00  0.00     0.005 A 
ATOM     23  C   UNL A   1      32.443  20.266  23.622  1.00  0.00     0.005 A 
ATOM     24  C   UNL A   1      32.677  17.705  24.702  1.00  0.00     0.000 A 
ATOM     25  C   UNL A   1      32.303  19.136  22.805  1.00  0.00     0.000 A 
ATOM     26  C   UNL A   1      32.400  17.858  23.348  1.00  0.00     0.000 A 
ENDBRANCH  20  21
BRANCH  20  27
ATOM     27  C   UNL A   1      34.227  22.062  25.541  1.00  0.00    -0.035 A 
ATOM     28  C   UNL A   1      35.204  21.438  24.739  1.00  0.00     0.005 A 
ATOM     29  C   UNL A   1      34.409  23.411  25.882  1.00  0.00     0.005 A 
ATOM     30  C   UNL A   1      36.311  22.140  24.273  1.00  0.00     0.000 A 
ATOM     31  C   UNL A   1      35.507  24.120  25.390  1.00  0.00     0.000 A 
ATOM     32  C   UNL A   1      36.452  23.486  24.584  1.00  0.00     0.000 A 
ENDBRANCH  20  27
ENDBRANCH  16  20
ENDBRANCH   7   9
ENDBRANCH   4   7
ENDBRANCH   2   3
ENDBRANCH   1   2
BRANCH   1  33
ATOM     33  C   UNL A   1      33.696  28.768  25.133  1.00  0.00     0.023 C 
BRANCH  33  34
ATOM     34  C   UNL A   1      32.804  28.977  26.348  1.00  0.00     0.116 C 
BRANCH  34  35
ATOM     35  N   UNL A   1      32.464  30.372  26.609  1.00  0.00    -0.352 N 
ATOM     36  C   UNL A   1      33.193  31.369  27.219  1.00  0.00     0.251 C 
ATOM     37  H   UNL A   1      31.571  30.645  26.300  1.00  0.00     0.163 HD
ATOM     38  O   UNL A   1      32.690  32.480  27.377  1.00  0.00    -0.269 OA
BRANCH  36  39
ATOM     39  C   UNL A   1      34.559  31.105  27.730  1.00  0.00     0.039 A 
ATOM     40  C   UNL A   1      35.484  32.155  27.795  1.00  0.00     0.014 A 
ATOM     41  C   UNL A   1      34.927  29.837  28.175  1.00  0.00     0.014 A 
ATOM     42  C   UNL A   1      36.730  31.956  28.402  1.00  0.00     0.010 A 
ATOM     43  C   UNL A   1      36.111  29.669  28.878  1.00  0.00     0.010 A 
ATOM     44  C   UNL A   1      37.029  30.724  29.002  1.00  0.00    -0.014 A 
BRANCH  44  45
ATOM     45  C   UNL A   1      38.286  30.468  29.754  1.00  0.00     0.031 A 
ATOM     46  C   UNL A   1      39.296  29.508  29.187  1.00  0.00     0.074 A 
ATOM     47  C   UNL A   1      38.443  30.951  31.002  1.00  0.00     0.049 A 
ATOM     48  N   UNL A   1      40.299  28.909  29.773  1.00  0.00    -0.248 NA
ATOM     49  C   UNL A   1      39.101  29.121  27.781  1.00  0.00     0.031 C 
ATOM     50  C   UNL A   1      37.514  31.845  31.693  1.00  0.00     0.029 A 
ATOM     51  N   UNL A   1      39.430  30.721  31.929  1.00  0.00    -0.354 N 
ATOM     52  C   UNL A   1      40.805  28.021  28.831  1.00  0.00     0.074 A 
ATOM     53  C   UNL A   1      39.973  28.133  27.654  1.00  0.00     0.031 C 
ATOM     54  C   UNL A   1      37.975  32.091  32.930  1.00  0.00     0.029 A 
ATOM     55  C   UNL A   1      39.205  31.334  33.138  1.00  0.00     0.049 A 
ATOM     56  H   UNL A   1      40.224  30.168  31.744  1.00  0.00     0.167 HD
ATOM     57  C   UNL A   1      41.877  27.200  28.936  1.00  0.00     0.037 A 
ATOM     58  C   UNL A   1      39.899  31.274  34.290  1.00  0.00     0.037 A 
ATOM     59  C   UNL A   1      42.745  27.158  30.082  1.00  0.00     0.049 A 
ATOM     60  C   UNL A   1      41.138  30.423  34.359  1.00  0.00     0.074 A 
ATOM     61  C   UNL A   1      43.917  26.446  30.253  1.00  0.00     0.029 A 
ATOM     62  N   UNL A   1      42.537  27.877  31.251  1.00  0.00    -0.354 N 
ATOM     63  N   UNL A   1      41.640  29.625  33.448  1.00  0.00    -0.248 NA
ATOM     64  C   UNL A   1      41.906  30.466  35.609  1.00  0.00     0.031 C 
ATOM     65  C   UNL A   1      44.405  26.711  31.538  1.00  0.00     0.029 A 
ATOM     66  C   UNL A   1      43.558  27.620  32.151  1.00  0.00     0.049 A 
ATOM     67  H   UNL A   1      41.776  28.480  31.416  1.00  0.00     0.167 HD
ATOM     68  C   UNL A   1      42.796  29.092  34.002  1.00  0.00     0.074 A 
ATOM     69  C   UNL A   1      42.923  29.662  35.328  1.00  0.00     0.031 C 
ATOM     70  C   UNL A   1      43.674  28.213  33.460  1.00  0.00     0.037 A 
BRANCH  57  71
ATOM     71  C   UNL A   1      42.162  26.286  27.779  1.00  0.00     0.064 A 
ATOM     72  C   UNL A   1      41.488  25.065  27.613  1.00  0.00     0.173 A 
ATOM     73  C   UNL A   1      43.135  26.629  26.827  1.00  0.00     0.173 A 
ATOM     74  F   UNL A   1      40.557  24.683  28.499  1.00  0.00    -0.203 F 
ATOM     75  C   UNL A   1      41.815  24.200  26.572  1.00  0.00     0.198 A 
ATOM     76  C   UNL A   1      43.433  25.778  25.765  1.00  0.00     0.198 A 
ATOM     77  F   UNL A   1      43.804  27.786  26.929  1.00  0.00    -0.203 F 
ATOM     78  F   UNL A   1      41.213  23.006  26.483  1.00  0.00    -0.200 F 
ATOM     79  C   UNL A   1      42.784  24.558  25.647  1.00  0.00     0.200 A 
ATOM     80  F   UNL A   1      44.359  26.131  24.864  1.00  0.00    -0.200 F 
ATOM     81  F   UNL A   1      43.103  23.721  24.650  1.00  0.00    -0.200 F 
ENDBRANCH  57  71
BRANCH  58  82
ATOM     82  C   UNL A   1      39.447  32.073  35.458  1.00  0.00     0.064 A 
ATOM     83  C   UNL A   1      39.812  33.421  35.584  1.00  0.00     0.173 A 
ATOM     84  C   UNL A   1      38.610  31.528  36.440  1.00  0.00     0.173 A 
ATOM     85  F   UNL A   1      40.625  33.981  34.677  1.00  0.00    -0.203 F 
ATOM     86  C   UNL A   1      39.359  34.191  36.653  1.00  0.00     0.198 A 
ATOM     87  C   UNL A   1      38.140  32.307  37.497  1.00  0.00     0.198 A 
ATOM     88  F   UNL A   1      38.224  30.246  36.359  1.00  0.00    -0.203 F 
ATOM     89  F   UNL A   1      39.743  35.471  36.762  1.00  0.00    -0.200 F 
ATOM     90  C   UNL A   1      38.517  33.636  37.605  1.00  0.00     0.200 A 
ATOM     91  F   UNL A   1      37.311  31.770  38.405  1.00  0.00    -0.200 F 
ATOM     92  F   UNL A   1      38.069  34.383  38.623  1.00  0.00    -0.200 F 
ENDBRANCH  58  82
BRANCH  70  93
ATOM     93  C   UNL A   1      44.876  27.842  34.276  1.00  0.00     0.064 A 
ATOM     94  C   UNL A   1      44.876  26.723  35.119  1.00  0.00     0.173 A 
ATOM     95  C   UNL A   1      46.065  28.577  34.153  1.00  0.00     0.173 A 
ATOM     96  F   UNL A   1      43.758  25.998  35.280  1.00  0.00    -0.203 F 
ATOM     97  C   UNL A   1      46.023  26.357  35.817  1.00  0.00     0.198 A 
ATOM     98  C   UNL A   1      47.216  28.194  34.833  1.00  0.00     0.198 A 
ATOM     99  F   UNL A   1      46.114  29.654  33.354  1.00  0.00    -0.203 F 
ATOM    100  F   UNL A   1      45.996  25.299  36.640  1.00  0.00    -0.200 F 
ATOM    101  C   UNL A   1      47.194  27.086  35.667  1.00  0.00     0.200 A 
ATOM    102  F   UNL A   1      48.349  28.893  34.677  1.00  0.00    -0.200 F 
ATOM    103  F   UNL A   1      48.301  26.722  36.328  1.00  0.00    -0.200 F 
ENDBRANCH  70  93
ENDBRANCH  44  45
ENDBRANCH  36  39
ENDBRANCH  34  35
ENDBRANCH  33  34
ENDBRANCH   1  33
TORSDOF 15
ENDMDL
MODEL 2
REMARK VINA RESULT:     -14.2      0.525      2.075
REMARK SMILES C[C@@H](C(=O)NCCCCNC(=O)c1ccc(-c2c3nc(c(-c4c(F)c(F)c(F)c(F)c4F)c4ccc([nH]4)c(-c4c(F)c(F)c(F)c(F)c4F)c4nc(c(-c5c(F)c(F)c(F)c(F)c5F)c5ccc2[nH]5)C=C4)C=C3)cc1)[N@@H+]1CCc2n[nH]c(C(c3ccccc3)c3ccccc3)c2C1
REMARK SMILES IDX 7 1 6 2 5 3 3 4 4 5 2 7 1 8 76 9 77 10 97 11 78 13 96 14
REMARK SMILES IDX 79 15 82 16 80 17 81 18 83 20 84 21 85 22 89 23 86 24 88 25
REMARK SMILES IDX 87 26 90 27 91 28 95 29 92 30 94 31 93 32 8 33 9 34 10 35
REMARK SMILES IDX 11 36 12 38 13 39 14 40 75 41 15 42 74 43 16 44 17 45 18 46
REMARK SMILES IDX 68 47 19 48 73 49 67 50 69 51 20 52 72 53 66 54 65 55 21 57
REMARK SMILES IDX 53 58 33 59 52 60 34 61 37 62 51 63 70 64 35 65 36 66 50 68
REMARK SMILES IDX 71 69 38 70 22 71 23 72 31 73 24 74 25 75 29 76 32 77 26 78
REMARK SMILES IDX 27 79 30 80 28 81 54 82 55 83 63 84 56 85 57 86 61 87 64 88
REMARK SMILES IDX 58 89 59 90 62 91 60 92 39 93 40 94 48 95 41 96 42 97 46 98
REMARK SMILES IDX 49 99 43 100 44 101 47 102 45 103
REMARK H PARENT 5 6 76 12 81 19 10 37 69 56 37 67
REMARK Flexibility Score: inf
ROOT
ATOM      1  C   UNL A   1      31.628  28.949  23.525  1.00  0.00     0.023 C 
ENDROOT
BRANCH   1   2
ATOM      2  C   UNL A   1      31.340  27.994  22.375  1.00  0.00     0.116 C 
BRANCH   2   3
ATOM      3  N   UNL A   1      32.489  27.398  21.710  1.00  0.00    -0.351 N 
ATOM      4  C   UNL A   1      32.906  26.091  21.722  1.00  0.00     0.278 C 
ATOM      5  O   UNL A   1      33.128  25.593  20.609  1.00  0.00    -0.268 OA
ATOM      6  H   UNL A   1      33.043  28.017  21.181  1.00  0.00     0.163 HD
BRANCH   4   7
ATOM      7  C   UNL A   1      33.274  25.296  23.012  1.00  0.00     0.271 C 
ATOM      8  C   UNL A   1      34.187  24.097  22.846  1.00  0.00     0.086 C 
BRANCH   7   9
ATOM      9  N   UNL A   1      32.040  25.025  23.797  1.00  0.00    -0.321 N 
ATOM     10  C   UNL A   1      31.884  25.846  25.023  1.00  0.00     0.269 C 
ATOM     11  C   UNL A   1      31.698  23.600  23.927  1.00  0.00     0.303 C 
ATOM     12  H   UNL A   1      31.289  25.382  23.207  1.00  0.00     0.349 HD
ATOM     13  C   UNL A   1      30.707  25.405  25.949  1.00  0.00     0.120 C 
ATOM     14  C   UNL A   1      31.613  23.148  25.338  1.00  0.00     0.052 A 
ATOM     15  C   UNL A   1      30.932  23.972  26.256  1.00  0.00     0.077 A 
ATOM     16  C   UNL A   1      32.154  22.150  26.141  1.00  0.00     0.056 A 
ATOM     17  N   UNL A   1      30.710  23.375  27.421  1.00  0.00    -0.180 NA
ATOM     18  N   UNL A   1      31.346  22.202  27.265  1.00  0.00    -0.281 N 
ATOM     19  H   UNL A   1      31.248  21.449  27.892  1.00  0.00     0.190 HD
BRANCH  16  20
ATOM     20  C   UNL A   1      33.269  21.109  26.029  1.00  0.00     0.098 C 
BRANCH  20  21
ATOM     21  C   UNL A   1      32.982  19.929  25.075  1.00  0.00    -0.035 A 
ATOM     22  C   UNL A   1      32.646  20.191  23.730  1.00  0.00     0.005 A 
ATOM     23  C   UNL A   1      32.903  18.596  25.517  1.00  0.00     0.005 A 
ATOM     24  C   UNL A   1      32.335  19.154  22.843  1.00  0.00     0.000 A 
ATOM     25  C   UNL A   1      32.571  17.562  24.632  1.00  0.00     0.000 A 
ATOM     26  C   UNL A   1      32.307  17.838  23.292  1.00  0.00     0.000 A 
ENDBRANCH  20  21
BRANCH  20  27
ATOM     27  C   UNL A   1      34.620  21.761  25.675  1.00  0.00    -0.035 A 
ATOM     28  C   UNL A   1      34.998  23.016  26.193  1.00  0.00     0.005 A 
ATOM     29  C   UNL A   1      35.561  21.041  24.922  1.00  0.00     0.005 A 
ATOM     30  C   UNL A   1      36.277  23.524  25.990  1.00  0.00     0.000 A 
ATOM     31  C   UNL A   1      36.851  21.542  24.743  1.00  0.00     0.000 A 
ATOM     32  C   UNL A   1      37.209  22.779  25.280  1.00  0.00     0.000 A 
ENDBRANCH  20  27
ENDBRANCH  16  20
ENDBRANCH   7   9
ENDBRANCH   4   7
ENDBRANCH   2   3
ENDBRANCH   1   2
BRANCH   1  33
ATOM     33  C   UNL A   1      33.087  29.124  23.948  1.00  0.00     0.023 C 
BRANCH  33  34
ATOM     34  C   UNL A   1      33.344  29.205  25.446  1.00  0.00     0.116 C 
BRANCH  34  35
ATOM     35  N   UNL A   1      32.759  30.375  26.092  1.00  0.00    -0.352 N 
ATOM     36  C   UNL A   1      33.270  31.207  27.065  1.00  0.00     0.251 C 
ATOM     37  H   UNL A   1      31.853  30.608  25.784  1.00  0.00     0.163 HD
ATOM     38  O   UNL A   1      32.577  32.122  27.505  1.00  0.00    -0.269 OA
BRANCH  36  39
ATOM     39  C   UNL A   1      34.625  30.981  27.619  1.00  0.00     0.039 A 
ATOM     40  C   UNL A   1      35.508  32.062  27.739  1.00  0.00     0.014 A 
ATOM     41  C   UNL A   1      35.024  29.718  28.050  1.00  0.00     0.014 A 
ATOM     42  C   UNL A   1      36.737  31.895  28.387  1.00  0.00     0.010 A 
ATOM     43  C   UNL A   1      36.188  29.577  28.792  1.00  0.00     0.010 A 
ATOM     44  C   UNL A   1      37.061  30.662  28.971  1.00  0.00    -0.014 A 
BRANCH  44  45
ATOM     45  C   UNL A   1      38.299  30.435  29.763  1.00  0.00     0.031 A 
ATOM     46  C   UNL A   1      39.349  29.502  29.227  1.00  0.00     0.074 A 
ATOM     47  C   UNL A   1      38.404  30.919  31.016  1.00  0.00     0.049 A 
ATOM     48  N   UNL A   1      40.348  28.925  29.844  1.00  0.00    -0.248 NA
ATOM     49  C   UNL A   1      39.209  29.113  27.815  1.00  0.00     0.031 C 
ATOM     50  C   UNL A   1      37.432  31.788  31.678  1.00  0.00     0.029 A 
ATOM     51  N   UNL A   1      39.367  30.710  31.974  1.00  0.00    -0.354 N 
ATOM     52  C   UNL A   1      40.905  28.052  28.918  1.00  0.00     0.074 A 
ATOM     53  C   UNL A   1      40.109  28.147  27.714  1.00  0.00     0.031 C 
ATOM     54  C   UNL A   1      37.847  32.042  32.929  1.00  0.00     0.029 A 
ATOM     55  C   UNL A   1      39.088  31.315  33.176  1.00  0.00     0.049 A 
ATOM     56  H   UNL A   1      40.179  30.178  31.814  1.00  0.00     0.167 HD
ATOM     57  C   UNL A   1      41.994  27.258  29.055  1.00  0.00     0.037 A 
ATOM     58  C   UNL A   1      39.746  31.269  34.349  1.00  0.00     0.037 A 
ATOM     59  C   UNL A   1      42.825  27.234  30.228  1.00  0.00     0.049 A 
ATOM     60  C   UNL A   1      41.002  30.448  34.456  1.00  0.00     0.074 A 
ATOM     61  C   UNL A   1      44.008  26.550  30.436  1.00  0.00     0.029 A 
ATOM     62  N   UNL A   1      42.562  27.945  31.392  1.00  0.00    -0.354 N 
ATOM     63  N   UNL A   1      41.553  29.666  33.561  1.00  0.00    -0.248 NA
ATOM     64  C   UNL A   1      41.729  30.507  35.731  1.00  0.00     0.031 C 
ATOM     65  C   UNL A   1      44.448  26.824  31.736  1.00  0.00     0.029 A 
ATOM     66  C   UNL A   1      43.559  27.711  32.323  1.00  0.00     0.049 A 
ATOM     67  H   UNL A   1      41.782  28.528  31.533  1.00  0.00     0.167 HD
ATOM     68  C   UNL A   1      42.703  29.160  34.151  1.00  0.00     0.074 A 
ATOM     69  C   UNL A   1      42.773  29.729  35.482  1.00  0.00     0.031 C 
ATOM     70  C   UNL A   1      43.619  28.304  33.636  1.00  0.00     0.037 A 
BRANCH  57  71
ATOM     71  C   UNL A   1      42.338  26.353  27.906  1.00  0.00     0.064 A 
ATOM     72  C   UNL A   1      43.306  26.701  26.951  1.00  0.00     0.173 A 
ATOM     73  C   UNL A   1      41.679  25.124  27.750  1.00  0.00     0.173 A 
ATOM     74  F   UNL A   1      43.959  27.869  27.046  1.00  0.00    -0.203 F 
ATOM     75  C   UNL A   1      43.562  25.880  25.856  1.00  0.00     0.198 A 
ATOM     76  C   UNL A   1      41.964  24.288  26.673  1.00  0.00     0.198 A 
ATOM     77  F   UNL A   1      40.751  24.735  28.637  1.00  0.00    -0.203 F 
ATOM     78  F   UNL A   1      44.434  26.273  24.916  1.00  0.00    -0.200 F 
ATOM     79  C   UNL A   1      42.894  24.673  25.720  1.00  0.00     0.200 A 
ATOM     80  F   UNL A   1      41.327  23.115  26.550  1.00  0.00    -0.200 F 
ATOM     81  F   UNL A   1      43.135  23.887  24.661  1.00  0.00    -0.200 F 
ENDBRANCH  57  71
BRANCH  58  82
ATOM     82  C   UNL A   1      39.237  32.054  35.504  1.00  0.00     0.064 A 
ATOM     83  C   UNL A   1      38.412  31.456  36.466  1.00  0.00     0.173 A 
ATOM     84  C   UNL A   1      39.599  33.395  35.695  1.00  0.00     0.173 A 
ATOM     85  F   UNL A   1      38.028  30.180  36.316  1.00  0.00    -0.203 F 
ATOM     86  C   UNL A   1      37.965  32.171  37.575  1.00  0.00     0.198 A 
ATOM     87  C   UNL A   1      39.167  34.102  36.816  1.00  0.00     0.198 A 
ATOM     88  F   UNL A   1      40.394  34.010  34.808  1.00  0.00    -0.203 F 
ATOM     89  F   UNL A   1      37.158  31.581  38.468  1.00  0.00    -0.200 F 
ATOM     90  C   UNL A   1      38.349  33.491  37.754  1.00  0.00     0.200 A 
ATOM     91  F   UNL A   1      39.556  35.373  36.994  1.00  0.00    -0.200 F 
ATOM     92  F   UNL A   1      37.931  34.173  38.828  1.00  0.00    -0.200 F 
ENDBRANCH  58  82
BRANCH  70  93
ATOM     93  C   UNL A   1      44.803  27.960  34.490  1.00  0.00     0.064 A 
ATOM     94  C   UNL A   1      45.975  28.729  34.466  1.00  0.00     0.173 A 
ATOM     95  C   UNL A   1      44.732  26.891  35.396  1.00  0.00     0.173 A 
ATOM     96  F   UNL A   1      46.094  29.752  33.606  1.00  0.00    -0.203 F 
ATOM     97  C   UNL A   1      47.038  28.433  35.314  1.00  0.00     0.198 A 
ATOM     98  C   UNL A   1      45.787  26.614  36.259  1.00  0.00     0.198 A 
ATOM     99  F   UNL A   1      43.628  26.130  35.458  1.00  0.00    -0.203 F 
ATOM    100  F   UNL A   1      48.161  29.163  35.257  1.00  0.00    -0.200 F 
ATOM    101  C   UNL A   1      46.940  27.383  36.216  1.00  0.00     0.200 A 
ATOM    102  F   UNL A   1      45.685  25.607  37.138  1.00  0.00    -0.200 F 
ATOM    103  F   UNL A   1      47.959  27.111  37.042  1.00  0.00    -0.200 F 
ENDBRANCH  70  93
ENDBRANCH  44  45
ENDBRANCH  36  39
ENDBRANCH  34  35
ENDBRANCH  33  34
ENDBRANCH   1  33
TORSDOF 15
ENDMDL
MODEL 3
REMARK VINA RESULT:     -14.2      2.965      7.420
REMARK SMILES C[C@@H](C(=O)NCCCCNC(=O)c1ccc(-c2c3nc(c(-c4c(F)c(F)c(F)c(F)c4F)c4ccc([nH]4)c(-c4c(F)c(F)c(F)c(F)c4F)c4nc(c(-c5c(F)c(F)c(F)c(F)c5F)c5ccc2[nH]5)C=C4)C=C3)cc1)[N@@H+]1CCc2n[nH]c(C(c3ccccc3)c3ccccc3)c2C1
REMARK SMILES IDX 7 1 6 2 5 3 3 4 4 5 2 7 1 8 76 9 77 10 97 11 78 13 96 14
REMARK SMILES IDX 79 15 82 16 80 17 81 18 83 20 84 21 85 22 89 23 86 24 88 25
REMARK SMILES IDX 87 26 90 27 91 28 95 29 92 30 94 31 93 32 8 33 9 34 10 35
REMARK SMILES IDX 11 36 12 38 13 39 14 40 75 41 15 42 74 43 16 44 17 45 18 46
REMARK SMILES IDX 68 47 19 48 73 49 67 50 69 51 20 52 72 53 66 54 65 55 21 57
REMARK SMILES IDX 53 58 33 59 52 60 34 61 37 62 51 63 70 64 35 65 36 66 50 68
REMARK SMILES IDX 71 69 38 70 22 71 23 72 31 73 24 74 25 75 29 76 32 77 26 78
REMARK SMILES IDX 27 79 30 80 28 81 54 82 55 83 63 84 56 85 57 86 61 87 64 88
REMARK SMILES IDX 58 89 59 90 62 91 60 92 39 93 40 94 48 95 41 96 42 97 46 98
REMARK SMILES IDX 49 99 43 100 44 101 47 102 45 103
REMARK H PARENT 5 6 76 12 81 19 10 37 69 56 37 67
REMARK Flexibility Score: inf
ROOT
ATOM      1  C   UNL A   1      33.187  29.090  24.650  1.00  0.00     0.023 C 
ENDROOT
BRANCH   1   2
ATOM      2  C   UNL A   1      33.757  28.971  23.244  1.00  0.00     0.116 C 
BRANCH   2   3
ATOM      3  N   UNL A   1      32.903  28.361  22.236  1.00  0.00    -0.351 N 
ATOM      4  C   UNL A   1      31.961  27.375  22.391  1.00  0.00     0.278 C 
ATOM      5  O   UNL A   1      30.849  27.622  21.904  1.00  0.00    -0.268 OA
ATOM      6  H   UNL A   1      33.017  28.701  21.319  1.00  0.00     0.163 HD
BRANCH   4   7
ATOM      7  C   UNL A   1      32.259  25.955  22.960  1.00  0.00     0.271 C 
ATOM      8  C   UNL A   1      32.795  24.922  21.988  1.00  0.00     0.086 C 
BRANCH   7   9
ATOM      9  N   UNL A   1      31.103  25.493  23.774  1.00  0.00    -0.321 N 
ATOM     10  C   UNL A   1      30.926  26.195  25.069  1.00  0.00     0.269 C 
ATOM     11  C   UNL A   1      30.919  24.033  23.801  1.00  0.00     0.303 C 
ATOM     12  H   UNL A   1      30.289  25.811  23.249  1.00  0.00     0.349 HD
ATOM     13  C   UNL A   1      29.852  25.559  26.005  1.00  0.00     0.120 C 
ATOM     14  C   UNL A   1      30.955  23.467  25.173  1.00  0.00     0.052 A 
ATOM     15  C   UNL A   1      30.240  24.140  26.184  1.00  0.00     0.077 A 
ATOM     16  C   UNL A   1      31.638  22.475  25.866  1.00  0.00     0.056 A 
ATOM     17  N   UNL A   1      30.143  23.434  27.305  1.00  0.00    -0.180 NA
ATOM     18  N   UNL A   1      30.889  22.352  27.025  1.00  0.00    -0.281 N 
ATOM     19  H   UNL A   1      30.903  21.547  27.592  1.00  0.00     0.190 HD
BRANCH  16  20
ATOM     20  C   UNL A   1      32.848  21.572  25.621  1.00  0.00     0.098 C 
BRANCH  20  21
ATOM     21  C   UNL A   1      32.620  20.411  24.628  1.00  0.00    -0.035 A 
ATOM     22  C   UNL A   1      32.885  19.087  25.037  1.00  0.00     0.005 A 
ATOM     23  C   UNL A   1      32.289  20.620  23.277  1.00  0.00     0.005 A 
ATOM     24  C   UNL A   1      32.735  18.010  24.156  1.00  0.00     0.000 A 
ATOM     25  C   UNL A   1      32.160  19.542  22.392  1.00  0.00     0.000 A 
ATOM     26  C   UNL A   1      32.364  18.238  22.835  1.00  0.00     0.000 A 
ENDBRANCH  20  21
BRANCH  20  27
ATOM     27  C   UNL A   1      34.089  22.387  25.207  1.00  0.00    -0.035 A 
ATOM     28  C   UNL A   1      34.365  23.654  25.760  1.00  0.00     0.005 A 
ATOM     29  C   UNL A   1      35.044  21.812  24.354  1.00  0.00     0.005 A 
ATOM     30  C   UNL A   1      35.561  24.312  25.494  1.00  0.00     0.000 A 
ATOM     31  C   UNL A   1      36.255  22.463  24.111  1.00  0.00     0.000 A 
ATOM     32  C   UNL A   1      36.513  23.708  24.683  1.00  0.00     0.000 A 
ENDBRANCH  20  27
ENDBRANCH  16  20
ENDBRANCH   7   9
ENDBRANCH   4   7
ENDBRANCH   2   3
ENDBRANCH   1   2
BRANCH   1  33
ATOM     33  C   UNL A   1      33.856  28.271  25.754  1.00  0.00     0.023 C 
BRANCH  33  34
ATOM     34  C   UNL A   1      33.350  28.515  27.168  1.00  0.00     0.116 C 
BRANCH  34  35
ATOM     35  N   UNL A   1      33.357  29.916  27.575  1.00  0.00    -0.352 N 
ATOM     36  C   UNL A   1      34.374  30.691  28.089  1.00  0.00     0.251 C 
ATOM     37  H   UNL A   1      32.499  30.384  27.464  1.00  0.00     0.163 HD
ATOM     38  O   UNL A   1      34.148  31.856  28.409  1.00  0.00    -0.269 OA
BRANCH  36  39
ATOM     39  C   UNL A   1      35.725  30.121  28.305  1.00  0.00     0.039 A 
ATOM     40  C   UNL A   1      36.678  30.205  27.281  1.00  0.00     0.014 A 
ATOM     41  C   UNL A   1      36.071  29.532  29.518  1.00  0.00     0.014 A 
ATOM     42  C   UNL A   1      37.997  29.798  27.516  1.00  0.00     0.010 A 
ATOM     43  C   UNL A   1      37.399  29.238  29.790  1.00  0.00     0.010 A 
ATOM     44  C   UNL A   1      38.381  29.366  28.793  1.00  0.00    -0.014 A 
BRANCH  44  45
ATOM     45  C   UNL A   1      39.782  29.016  29.149  1.00  0.00     0.031 A 
ATOM     46  C   UNL A   1      40.647  30.051  29.815  1.00  0.00     0.074 A 
ATOM     47  C   UNL A   1      40.322  27.856  28.730  1.00  0.00     0.049 A 
ATOM     48  N   UNL A   1      41.947  30.091  29.950  1.00  0.00    -0.248 NA
ATOM     49  C   UNL A   1      39.951  31.237  30.337  1.00  0.00     0.031 C 
ATOM     50  C   UNL A   1      39.610  26.791  28.024  1.00  0.00     0.029 A 
ATOM     51  N   UNL A   1      41.615  27.396  28.804  1.00  0.00    -0.354 N 
ATOM     52  C   UNL A   1      42.227  31.334  30.504  1.00  0.00     0.074 A 
ATOM     53  C   UNL A   1      40.967  32.031  30.639  1.00  0.00     0.031 C 
ATOM     54  C   UNL A   1      40.471  25.802  27.733  1.00  0.00     0.029 A 
ATOM     55  C   UNL A   1      41.804  26.183  28.187  1.00  0.00     0.049 A 
ATOM     56  H   UNL A   1      42.337  27.890  29.256  1.00  0.00     0.167 HD
ATOM     57  C   UNL A   1      43.426  31.841  30.880  1.00  0.00     0.037 A 
ATOM     58  C   UNL A   1      42.930  25.471  27.989  1.00  0.00     0.037 A 
ATOM     59  C   UNL A   1      44.660  31.106  30.816  1.00  0.00     0.049 A 
ATOM     60  C   UNL A   1      44.240  26.012  28.492  1.00  0.00     0.074 A 
ATOM     61  C   UNL A   1      45.913  31.480  31.268  1.00  0.00     0.029 A 
ATOM     62  N   UNL A   1      44.790  29.834  30.276  1.00  0.00    -0.354 N 
ATOM     63  N   UNL A   1      44.491  27.166  29.060  1.00  0.00    -0.248 NA
ATOM     64  C   UNL A   1      45.421  25.153  28.331  1.00  0.00     0.031 C 
ATOM     65  C   UNL A   1      46.808  30.444  30.976  1.00  0.00     0.029 A 
ATOM     66  C   UNL A   1      46.105  29.410  30.380  1.00  0.00     0.049 A 
ATOM     67  H   UNL A   1      44.057  29.311  29.879  1.00  0.00     0.167 HD
ATOM     68  C   UNL A   1      45.848  27.163  29.349  1.00  0.00     0.074 A 
ATOM     69  C   UNL A   1      46.368  25.888  28.898  1.00  0.00     0.031 C 
ATOM     70  C   UNL A   1      46.596  28.128  29.939  1.00  0.00     0.037 A 
BRANCH  57  71
ATOM     71  C   UNL A   1      43.449  33.253  31.390  1.00  0.00     0.064 A 
ATOM     72  C   UNL A   1      43.335  33.552  32.757  1.00  0.00     0.173 A 
ATOM     73  C   UNL A   1      43.575  34.328  30.495  1.00  0.00     0.173 A 
ATOM     74  F   UNL A   1      43.202  32.564  33.654  1.00  0.00    -0.203 F 
ATOM     75  C   UNL A   1      43.291  34.870  33.202  1.00  0.00     0.198 A 
ATOM     76  C   UNL A   1      43.568  35.645  30.948  1.00  0.00     0.198 A 
ATOM     77  F   UNL A   1      43.697  34.103  29.179  1.00  0.00    -0.203 F 
ATOM     78  F   UNL A   1      43.101  35.129  34.504  1.00  0.00    -0.200 F 
ATOM     79  C   UNL A   1      43.410  35.915  32.299  1.00  0.00     0.200 A 
ATOM     80  F   UNL A   1      43.697  36.653  30.076  1.00  0.00    -0.200 F 
ATOM     81  F   UNL A   1      43.359  37.184  32.729  1.00  0.00    -0.200 F 
ENDBRANCH  57  71
BRANCH  58  82
ATOM     82  C   UNL A   1      42.850  24.153  27.308  1.00  0.00     0.064 A 
ATOM     83  C   UNL A   1      43.146  24.036  25.943  1.00  0.00     0.173 A 
ATOM     84  C   UNL A   1      42.526  22.983  28.010  1.00  0.00     0.173 A 
ATOM     85  F   UNL A   1      43.445  25.130  25.228  1.00  0.00    -0.203 F 
ATOM     86  C   UNL A   1      43.116  22.798  25.304  1.00  0.00     0.198 A 
ATOM     87  C   UNL A   1      42.518  21.743  27.373  1.00  0.00     0.198 A 
ATOM     88  F   UNL A   1      42.246  23.041  29.320  1.00  0.00    -0.203 F 
ATOM     89  F   UNL A   1      43.380  22.718  23.992  1.00  0.00    -0.200 F 
ATOM     90  C   UNL A   1      42.810  21.651  26.021  1.00  0.00     0.200 A 
ATOM     91  F   UNL A   1      42.240  20.635  28.075  1.00  0.00    -0.200 F 
ATOM     92  F   UNL A   1      42.797  20.459  25.409  1.00  0.00    -0.200 F 
ENDBRANCH  58  82
BRANCH  70  93
ATOM     93  C   UNL A   1      48.047  27.833  30.174  1.00  0.00     0.064 A 
ATOM     94  C   UNL A   1      49.030  28.180  29.237  1.00  0.00     0.173 A 
ATOM     95  C   UNL A   1      48.463  27.262  31.386  1.00  0.00     0.173 A 
ATOM     96  F   UNL A   1      48.680  28.716  28.057  1.00  0.00    -0.203 F 
ATOM     97  C   UNL A   1      50.378  27.958  29.503  1.00  0.00     0.198 A 
ATOM     98  C   UNL A   1      49.813  27.064  31.659  1.00  0.00     0.198 A 
ATOM     99  F   UNL A   1      47.558  26.917  32.316  1.00  0.00    -0.203 F 
ATOM    100  F   UNL A   1      51.301  28.272  28.583  1.00  0.00    -0.200 F 
ATOM    101  C   UNL A   1      50.769  27.410  30.716  1.00  0.00     0.200 A 
ATOM    102  F   UNL A   1      50.189  26.545  32.836  1.00  0.00    -0.200 F 
ATOM    103  F   UNL A   1      52.069  27.212  30.975  1.00  0.00    -0.200 F 
ENDBRANCH  70  93
ENDBRANCH  44  45
ENDBRANCH  36  39
ENDBRANCH  34  35
ENDBRANCH  33  34
ENDBRANCH   1  33
TORSDOF 15
ENDMDL
