MODEL 1
REMARK VINA RESULT:     -12.2      0.000      0.000
REMARK SMILES O=C(NCCCCNC(=O)[C@@H]1CC[C@@H](CNC(=O)c2ccc(Cl)cc2)O1)c1ccc(-c2c3nc(c(-c4c(F)c(F)c(F)c(F)c4F)c4ccc([nH]4)c(-c4c(F)c(F)c(F)c(F)c4F)c4nc(c(-c5c(F)c(F)c(F)c(F)c5F)c5ccc2[nH]5)C=C4)C=C3)cc1
REMARK SMILES IDX 6 1 5 2 4 3 3 4 1 5 2 6 27 8 28 9 89 10 29 11 88 12 30 13
REMARK SMILES IDX 31 14 32 15 82 16 33 17 87 18 81 19 83 20 34 21 86 22 80 23
REMARK SMILES IDX 79 24 35 26 67 27 47 28 66 29 48 30 51 31 65 32 84 33 49 34
REMARK SMILES IDX 50 35 64 37 85 38 52 39 36 40 37 41 45 42 38 43 39 44 43 45
REMARK SMILES IDX 46 46 40 47 41 48 44 49 42 50 68 51 69 52 77 53 70 54 71 55
REMARK SMILES IDX 75 56 78 57 72 58 73 59 76 60 74 61 53 62 54 63 62 64 55 65
REMARK SMILES IDX 56 66 60 67 63 68 57 69 58 70 61 71 59 72 7 73 8 74 9 75
REMARK SMILES IDX 10 77 11 78 12 79 26 80 13 81 14 82 15 83 16 84 17 85 18 87
REMARK SMILES IDX 19 88 20 89 25 90 21 91 24 92 22 93 23 94
REMARK H PARENT 3 7 83 25 51 36 8 76 16 86
REMARK Flexibility Score: inf
ROOT
ATOM      1  C   UNL A   1      37.371  21.072  24.640  1.00  0.00     0.023 C 
ENDROOT
BRANCH   1   2
ATOM      2  C   UNL A   1      38.202  19.843  24.989  1.00  0.00     0.023 C 
BRANCH   2   3
ATOM      3  C   UNL A   1      39.316  20.099  25.987  1.00  0.00     0.116 C 
BRANCH   3   4
ATOM      4  N   UNL A   1      40.377  19.105  25.939  1.00  0.00    -0.352 N 
ATOM      5  O   UNL A   1      42.526  18.394  25.906  1.00  0.00    -0.269 OA
ATOM      6  C   UNL A   1      41.729  19.312  26.066  1.00  0.00     0.251 C 
ATOM      7  H   UNL A   1      40.092  18.173  25.800  1.00  0.00     0.163 HD
BRANCH   6   8
ATOM      8  C   UNL A   1      42.206  20.675  26.362  1.00  0.00     0.039 A 
ATOM      9  C   UNL A   1      42.385  21.082  27.686  1.00  0.00     0.014 A 
ATOM     10  C   UNL A   1      42.423  21.564  25.307  1.00  0.00     0.014 A 
ATOM     11  C   UNL A   1      42.657  22.413  27.962  1.00  0.00     0.010 A 
ATOM     12  C   UNL A   1      42.779  22.883  25.584  1.00  0.00     0.010 A 
ATOM     13  C   UNL A   1      42.877  23.320  26.914  1.00  0.00    -0.014 A 
BRANCH  13  14
ATOM     14  C   UNL A   1      43.303  24.700  27.241  1.00  0.00     0.031 A 
ATOM     15  C   UNL A   1      44.695  25.176  26.955  1.00  0.00     0.074 A 
ATOM     16  C   UNL A   1      42.389  25.528  27.783  1.00  0.00     0.049 A 
ATOM     17  N   UNL A   1      45.221  26.353  27.180  1.00  0.00    -0.248 NA
ATOM     18  C   UNL A   1      45.623  24.210  26.347  1.00  0.00     0.031 C 
ATOM     19  C   UNL A   1      41.010  25.155  28.112  1.00  0.00     0.029 A 
ATOM     20  N   UNL A   1      42.470  26.847  28.139  1.00  0.00    -0.354 N 
ATOM     21  C   UNL A   1      46.543  26.265  26.764  1.00  0.00     0.074 A 
ATOM     22  C   UNL A   1      46.746  24.915  26.282  1.00  0.00     0.031 C 
ATOM     23  C   UNL A   1      40.364  26.230  28.582  1.00  0.00     0.029 A 
ATOM     24  C   UNL A   1      41.297  27.348  28.646  1.00  0.00     0.049 A 
ATOM     25  H   UNL A   1      43.290  27.384  28.040  1.00  0.00     0.167 HD
ATOM     26  C   UNL A   1      47.493  27.230  26.784  1.00  0.00     0.037 A 
ATOM     27  C   UNL A   1      41.010  28.569  29.129  1.00  0.00     0.037 A 
ATOM     28  C   UNL A   1      47.269  28.578  27.242  1.00  0.00     0.049 A 
ATOM     29  C   UNL A   1      42.086  29.614  29.138  1.00  0.00     0.074 A 
ATOM     30  C   UNL A   1      48.154  29.643  27.255  1.00  0.00     0.029 A 
ATOM     31  N   UNL A   1      46.074  29.045  27.768  1.00  0.00    -0.354 N 
ATOM     32  N   UNL A   1      43.323  29.527  28.712  1.00  0.00    -0.248 NA
ATOM     33  C   UNL A   1      41.732  30.922  29.700  1.00  0.00     0.031 C 
ATOM     34  C   UNL A   1      47.505  30.744  27.826  1.00  0.00     0.029 A 
ATOM     35  C   UNL A   1      46.205  30.377  28.131  1.00  0.00     0.049 A 
ATOM     36  H   UNL A   1      45.254  28.511  27.870  1.00  0.00     0.167 HD
ATOM     37  C   UNL A   1      43.894  30.767  28.950  1.00  0.00     0.074 A 
ATOM     38  C   UNL A   1      42.859  31.598  29.531  1.00  0.00     0.031 C 
ATOM     39  C   UNL A   1      45.162  31.179  28.714  1.00  0.00     0.037 A 
BRANCH  26  40
ATOM     40  C   UNL A   1      48.870  26.873  26.311  1.00  0.00     0.064 A 
ATOM     41  C   UNL A   1      49.820  26.304  27.170  1.00  0.00     0.173 A 
ATOM     42  C   UNL A   1      49.215  27.026  24.959  1.00  0.00     0.173 A 
ATOM     43  F   UNL A   1      49.542  26.146  28.473  1.00  0.00    -0.203 F 
ATOM     44  C   UNL A   1      51.068  25.907  26.695  1.00  0.00     0.198 A 
ATOM     45  C   UNL A   1      50.455  26.610  24.484  1.00  0.00     0.198 A 
ATOM     46  F   UNL A   1      48.339  27.562  24.094  1.00  0.00    -0.203 F 
ATOM     47  F   UNL A   1      51.969  25.384  27.539  1.00  0.00    -0.200 F 
ATOM     48  C   UNL A   1      51.381  26.052  25.352  1.00  0.00     0.200 A 
ATOM     49  F   UNL A   1      50.752  26.742  23.183  1.00  0.00    -0.200 F 
ATOM     50  F   UNL A   1      52.577  25.654  24.893  1.00  0.00    -0.200 F 
ENDBRANCH  26  40
BRANCH  27  51
ATOM     51  C   UNL A   1      39.651  28.853  29.652  1.00  0.00     0.064 A 
ATOM     52  C   UNL A   1      38.667  29.419  28.833  1.00  0.00     0.173 A 
ATOM     53  C   UNL A   1      39.305  28.545  30.976  1.00  0.00     0.173 A 
ATOM     54  F   UNL A   1      38.956  29.746  27.565  1.00  0.00    -0.203 F 
ATOM     55  C   UNL A   1      37.389  29.680  29.324  1.00  0.00     0.198 A 
ATOM     56  C   UNL A   1      38.021  28.779  31.457  1.00  0.00     0.198 A 
ATOM     57  F   UNL A   1      40.213  27.994  31.796  1.00  0.00    -0.203 F 
ATOM     58  F   UNL A   1      36.475  30.257  28.532  1.00  0.00    -0.200 F 
ATOM     59  C   UNL A   1      37.065  29.353  30.633  1.00  0.00     0.200 A 
ATOM     60  F   UNL A   1      37.707  28.445  32.716  1.00  0.00    -0.200 F 
ATOM     61  F   UNL A   1      35.833  29.596  31.101  1.00  0.00    -0.200 F 
ENDBRANCH  27  51
BRANCH  39  62
ATOM     62  C   UNL A   1      45.489  32.594  29.083  1.00  0.00     0.064 A 
ATOM     63  C   UNL A   1      45.281  33.649  28.182  1.00  0.00     0.173 A 
ATOM     64  C   UNL A   1      46.001  32.899  30.354  1.00  0.00     0.173 A 
ATOM     65  F   UNL A   1      44.813  33.401  26.950  1.00  0.00    -0.203 F 
ATOM     66  C   UNL A   1      45.598  34.958  28.533  1.00  0.00     0.198 A 
ATOM     67  C   UNL A   1      46.292  34.212  30.709  1.00  0.00     0.198 A 
ATOM     68  F   UNL A   1      46.213  31.923  31.249  1.00  0.00    -0.203 F 
ATOM     69  F   UNL A   1      45.435  35.945  27.641  1.00  0.00    -0.200 F 
ATOM     70  C   UNL A   1      46.097  35.238  29.797  1.00  0.00     0.200 A 
ATOM     71  F   UNL A   1      46.767  34.484  31.932  1.00  0.00    -0.200 F 
ATOM     72  F   UNL A   1      46.401  36.501  30.132  1.00  0.00    -0.200 F 
ENDBRANCH  39  62
ENDBRANCH  13  14
ENDBRANCH   6   8
ENDBRANCH   3   4
ENDBRANCH   2   3
ENDBRANCH   1   2
BRANCH   1  73
ATOM     73  C   UNL A   1      36.209  21.354  25.591  1.00  0.00     0.116 C 
BRANCH  73  74
ATOM     74  N   UNL A   1      35.114  20.422  25.402  1.00  0.00    -0.354 N 
ATOM     75  C   UNL A   1      33.791  20.710  25.180  1.00  0.00     0.249 C 
ATOM     76  H   UNL A   1      35.349  19.467  25.438  1.00  0.00     0.163 HD
ATOM     77  O   UNL A   1      33.002  19.773  25.061  1.00  0.00    -0.272 OA
BRANCH  75  78
ATOM     78  C   UNL A   1      33.362  22.192  25.114  1.00  0.00     0.207 C 
ATOM     79  C   UNL A   1      32.401  22.517  26.254  1.00  0.00     0.045 C 
ATOM     80  O   UNL A   1      32.706  22.574  23.899  1.00  0.00    -0.363 OA
ATOM     81  C   UNL A   1      31.401  23.446  25.634  1.00  0.00     0.037 C 
ATOM     82  C   UNL A   1      31.354  22.945  24.207  1.00  0.00     0.138 C 
BRANCH  82  83
ATOM     83  C   UNL A   1      30.849  24.031  23.259  1.00  0.00     0.148 C 
BRANCH  83  84
ATOM     84  N   UNL A   1      31.873  24.473  22.330  1.00  0.00    -0.349 N 
ATOM     85  C   UNL A   1      32.822  25.449  22.446  1.00  0.00     0.251 C 
ATOM     86  H   UNL A   1      31.885  23.990  21.472  1.00  0.00     0.163 HD
ATOM     87  O   UNL A   1      33.596  25.685  21.523  1.00  0.00    -0.269 OA
BRANCH  85  88
ATOM     88  C   UNL A   1      32.879  26.276  23.667  1.00  0.00     0.039 A 
ATOM     89  C   UNL A   1      32.011  27.353  23.878  1.00  0.00     0.015 A 
ATOM     90  C   UNL A   1      33.840  25.944  24.628  1.00  0.00     0.015 A 
ATOM     91  C   UNL A   1      32.156  28.144  25.020  1.00  0.00     0.021 A 
ATOM     92  C   UNL A   1      33.975  26.728  25.774  1.00  0.00     0.021 A 
ATOM     93  C   UNL A   1      33.143  27.832  25.957  1.00  0.00     0.041 A 
ATOM     94  Cl  UNL A   1      33.336  28.821  27.351  1.00  0.00    -0.084 Cl
ENDBRANCH  85  88
ENDBRANCH  83  84
ENDBRANCH  82  83
ENDBRANCH  75  78
ENDBRANCH  73  74
ENDBRANCH   1  73
TORSDOF 14
ENDMDL
MODEL 2
REMARK VINA RESULT:     -12.0      5.293     10.835
REMARK SMILES O=C(NCCCCNC(=O)[C@@H]1CC[C@@H](CNC(=O)c2ccc(Cl)cc2)O1)c1ccc(-c2c3nc(c(-c4c(F)c(F)c(F)c(F)c4F)c4ccc([nH]4)c(-c4c(F)c(F)c(F)c(F)c4F)c4nc(c(-c5c(F)c(F)c(F)c(F)c5F)c5ccc2[nH]5)C=C4)C=C3)cc1
REMARK SMILES IDX 6 1 5 2 4 3 3 4 1 5 2 6 27 8 28 9 89 10 29 11 88 12 30 13
REMARK SMILES IDX 31 14 32 15 82 16 33 17 87 18 81 19 83 20 34 21 86 22 80 23
REMARK SMILES IDX 79 24 35 26 67 27 47 28 66 29 48 30 51 31 65 32 84 33 49 34
REMARK SMILES IDX 50 35 64 37 85 38 52 39 36 40 37 41 45 42 38 43 39 44 43 45
REMARK SMILES IDX 46 46 40 47 41 48 44 49 42 50 68 51 69 52 77 53 70 54 71 55
REMARK SMILES IDX 75 56 78 57 72 58 73 59 76 60 74 61 53 62 54 63 62 64 55 65
REMARK SMILES IDX 56 66 60 67 63 68 57 69 58 70 61 71 59 72 7 73 8 74 9 75
REMARK SMILES IDX 10 77 11 78 12 79 26 80 13 81 14 82 15 83 16 84 17 85 18 87
REMARK SMILES IDX 19 88 20 89 25 90 21 91 24 92 22 93 23 94
REMARK H PARENT 3 7 83 25 51 36 8 76 16 86
REMARK Flexibility Score: inf
ROOT
ATOM      1  C   UNL A   1      30.916  31.540  25.580  1.00  0.00     0.023 C 
ENDROOT
BRANCH   1   2
ATOM      2  C   UNL A   1      31.480  31.802  26.972  1.00  0.00     0.023 C 
BRANCH   2   3
ATOM      3  C   UNL A   1      32.710  32.691  26.996  1.00  0.00     0.116 C 
BRANCH   3   4
ATOM      4  N   UNL A   1      32.459  34.013  27.552  1.00  0.00    -0.352 N 
ATOM      5  O   UNL A   1      32.756  35.716  29.012  1.00  0.00    -0.269 OA
ATOM      6  C   UNL A   1      33.135  34.637  28.571  1.00  0.00     0.251 C 
ATOM      7  H   UNL A   1      31.718  34.519  27.149  1.00  0.00     0.163 HD
BRANCH   6   8
ATOM      8  C   UNL A   1      34.308  33.960  29.154  1.00  0.00     0.039 A 
ATOM      9  C   UNL A   1      34.135  32.977  30.131  1.00  0.00     0.014 A 
ATOM     10  C   UNL A   1      35.588  34.353  28.756  1.00  0.00     0.014 A 
ATOM     11  C   UNL A   1      35.240  32.477  30.802  1.00  0.00     0.010 A 
ATOM     12  C   UNL A   1      36.702  33.786  29.374  1.00  0.00     0.010 A 
ATOM     13  C   UNL A   1      36.533  32.861  30.416  1.00  0.00    -0.014 A 
BRANCH  13  14
ATOM     14  C   UNL A   1      37.696  32.204  31.057  1.00  0.00     0.031 A 
ATOM     15  C   UNL A   1      38.125  32.561  32.448  1.00  0.00     0.074 A 
ATOM     16  C   UNL A   1      38.344  31.254  30.357  1.00  0.00     0.049 A 
ATOM     17  N   UNL A   1      39.119  32.076  33.148  1.00  0.00    -0.248 NA
ATOM     18  C   UNL A   1      37.350  33.599  33.145  1.00  0.00     0.031 C 
ATOM     19  C   UNL A   1      38.011  30.845  28.990  1.00  0.00     0.029 A 
ATOM     20  N   UNL A   1      39.401  30.453  30.695  1.00  0.00    -0.354 N 
ATOM     21  C   UNL A   1      39.104  32.762  34.355  1.00  0.00     0.074 A 
ATOM     22  C   UNL A   1      38.009  33.707  34.292  1.00  0.00     0.031 C 
ATOM     23  C   UNL A   1      38.819  29.842  28.621  1.00  0.00     0.029 A 
ATOM     24  C   UNL A   1      39.764  29.580  29.699  1.00  0.00     0.049 A 
ATOM     25  H   UNL A   1      39.856  30.497  31.568  1.00  0.00     0.167 HD
ATOM     26  C   UNL A   1      39.932  32.607  35.416  1.00  0.00     0.037 A 
ATOM     27  C   UNL A   1      40.763  28.683  29.652  1.00  0.00     0.037 A 
ATOM     28  C   UNL A   1      41.002  31.644  35.475  1.00  0.00     0.049 A 
ATOM     29  C   UNL A   1      41.663  28.539  30.843  1.00  0.00     0.074 A 
ATOM     30  C   UNL A   1      41.865  31.376  36.524  1.00  0.00     0.029 A 
ATOM     31  N   UNL A   1      41.355  30.791  34.440  1.00  0.00    -0.354 N 
ATOM     32  N   UNL A   1      41.618  29.171  31.991  1.00  0.00    -0.248 NA
ATOM     33  C   UNL A   1      42.755  27.566  30.732  1.00  0.00     0.031 C 
ATOM     34  C   UNL A   1      42.765  30.388  36.109  1.00  0.00     0.029 A 
ATOM     35  C   UNL A   1      42.438  30.011  34.817  1.00  0.00     0.049 A 
ATOM     36  H   UNL A   1      40.904  30.745  33.567  1.00  0.00     0.167 HD
ATOM     37  C   UNL A   1      42.670  28.670  32.741  1.00  0.00     0.074 A 
ATOM     38  C   UNL A   1      43.319  27.661  31.928  1.00  0.00     0.031 C 
ATOM     39  C   UNL A   1      43.069  29.019  33.987  1.00  0.00     0.037 A 
BRANCH  26  40
ATOM     40  C   UNL A   1      39.733  33.503  36.601  1.00  0.00     0.064 A 
ATOM     41  C   UNL A   1      40.317  34.776  36.669  1.00  0.00     0.173 A 
ATOM     42  C   UNL A   1      38.880  33.115  37.646  1.00  0.00     0.173 A 
ATOM     43  F   UNL A   1      41.148  35.190  35.701  1.00  0.00    -0.203 F 
ATOM     44  C   UNL A   1      40.058  35.626  37.742  1.00  0.00     0.198 A 
ATOM     45  C   UNL A   1      38.608  33.974  38.707  1.00  0.00     0.198 A 
ATOM     46  F   UNL A   1      38.293  31.908  37.626  1.00  0.00    -0.203 F 
ATOM     47  F   UNL A   1      40.643  36.831  37.797  1.00  0.00    -0.200 F 
ATOM     48  C   UNL A   1      39.198  35.228  38.755  1.00  0.00     0.200 A 
ATOM     49  F   UNL A   1      37.768  33.592  39.679  1.00  0.00    -0.200 F 
ATOM     50  F   UNL A   1      38.937  36.054  39.779  1.00  0.00    -0.200 F 
ENDBRANCH  26  40
BRANCH  27  51
ATOM     51  C   UNL A   1      40.963  27.868  28.428  1.00  0.00     0.064 A 
ATOM     52  C   UNL A   1      40.377  26.604  28.299  1.00  0.00     0.173 A 
ATOM     53  C   UNL A   1      41.730  28.349  27.356  1.00  0.00     0.173 A 
ATOM     54  F   UNL A   1      39.649  26.096  29.304  1.00  0.00    -0.203 F 
ATOM     55  C   UNL A   1      40.561  25.842  27.146  1.00  0.00     0.198 A 
ATOM     56  C   UNL A   1      41.890  27.600  26.193  1.00  0.00     0.198 A 
ATOM     57  F   UNL A   1      42.305  29.558  27.430  1.00  0.00    -0.203 F 
ATOM     58  F   UNL A   1      40.021  24.619  27.061  1.00  0.00    -0.200 F 
ATOM     59  C   UNL A   1      41.311  26.343  26.092  1.00  0.00     0.200 A 
ATOM     60  F   UNL A   1      42.599  28.096  25.171  1.00  0.00    -0.200 F 
ATOM     61  F   UNL A   1      41.480  25.615  24.981  1.00  0.00    -0.200 F 
ENDBRANCH  27  51
BRANCH  39  62
ATOM     62  C   UNL A   1      44.257  28.294  34.541  1.00  0.00     0.064 A 
ATOM     63  C   UNL A   1      44.113  27.090  35.247  1.00  0.00     0.173 A 
ATOM     64  C   UNL A   1      45.552  28.800  34.352  1.00  0.00     0.173 A 
ATOM     65  F   UNL A   1      42.893  26.580  35.468  1.00  0.00    -0.203 F 
ATOM     66  C   UNL A   1      45.224  26.431  35.765  1.00  0.00     0.198 A 
ATOM     67  C   UNL A   1      46.661  28.124  34.850  1.00  0.00     0.198 A 
ATOM     68  F   UNL A   1      45.739  29.947  33.682  1.00  0.00    -0.203 F 
ATOM     69  F   UNL A   1      45.060  25.306  36.476  1.00  0.00    -0.200 F 
ATOM     70  C   UNL A   1      46.496  26.945  35.561  1.00  0.00     0.200 A 
ATOM     71  F   UNL A   1      47.891  28.617  34.647  1.00  0.00    -0.200 F 
ATOM     72  F   UNL A   1      47.564  26.308  36.062  1.00  0.00    -0.200 F 
ENDBRANCH  39  62
ENDBRANCH  13  14
ENDBRANCH   6   8
ENDBRANCH   3   4
ENDBRANCH   2   3
ENDBRANCH   1   2
BRANCH   1  73
ATOM     73  C   UNL A   1      31.141  30.123  25.053  1.00  0.00     0.116 C 
BRANCH  73  74
ATOM     74  N   UNL A   1      30.436  29.888  23.808  1.00  0.00    -0.354 N 
ATOM     75  C   UNL A   1      30.442  28.754  23.036  1.00  0.00     0.249 C 
ATOM     76  H   UNL A   1      29.886  30.635  23.476  1.00  0.00     0.163 HD
ATOM     77  O   UNL A   1      29.787  28.753  21.995  1.00  0.00    -0.272 OA
BRANCH  75  78
ATOM     78  C   UNL A   1      31.288  27.550  23.507  1.00  0.00     0.207 C 
ATOM     79  C   UNL A   1      32.264  27.129  22.413  1.00  0.00     0.045 C 
ATOM     80  O   UNL A   1      30.531  26.385  23.857  1.00  0.00    -0.363 OA
ATOM     81  C   UNL A   1      32.274  25.631  22.489  1.00  0.00     0.037 C 
ATOM     82  C   UNL A   1      30.859  25.334  22.936  1.00  0.00     0.138 C 
BRANCH  82  83
ATOM     83  C   UNL A   1      30.770  23.964  23.605  1.00  0.00     0.148 C 
BRANCH  83  84
ATOM     84  N   UNL A   1      30.506  24.062  25.030  1.00  0.00    -0.349 N 
ATOM     85  C   UNL A   1      31.354  24.016  26.100  1.00  0.00     0.251 C 
ATOM     86  H   UNL A   1      29.557  24.179  25.264  1.00  0.00     0.163 HD
ATOM     87  O   UNL A   1      30.924  24.099  27.246  1.00  0.00    -0.269 OA
BRANCH  85  88
ATOM     88  C   UNL A   1      32.798  23.795  25.883  1.00  0.00     0.039 A 
ATOM     89  C   UNL A   1      33.376  22.524  25.953  1.00  0.00     0.015 A 
ATOM     90  C   UNL A   1      33.585  24.916  25.595  1.00  0.00     0.015 A 
ATOM     91  C   UNL A   1      34.759  22.385  25.808  1.00  0.00     0.021 A 
ATOM     92  C   UNL A   1      34.964  24.773  25.438  1.00  0.00     0.021 A 
ATOM     93  C   UNL A   1      35.546  23.511  25.560  1.00  0.00     0.041 A 
ATOM     94  Cl  UNL A   1      37.250  23.341  25.406  1.00  0.00    -0.084 Cl
ENDBRANCH  85  88
ENDBRANCH  83  84
ENDBRANCH  82  83
ENDBRANCH  75  78
ENDBRANCH  73  74
ENDBRANCH   1  73
TORSDOF 14
ENDMDL
MODEL 3
REMARK VINA RESULT:     -12.0      5.370      9.579
REMARK SMILES O=C(NCCCCNC(=O)[C@@H]1CC[C@@H](CNC(=O)c2ccc(Cl)cc2)O1)c1ccc(-c2c3nc(c(-c4c(F)c(F)c(F)c(F)c4F)c4ccc([nH]4)c(-c4c(F)c(F)c(F)c(F)c4F)c4nc(c(-c5c(F)c(F)c(F)c(F)c5F)c5ccc2[nH]5)C=C4)C=C3)cc1
REMARK SMILES IDX 6 1 5 2 4 3 3 4 1 5 2 6 27 8 28 9 89 10 29 11 88 12 30 13
REMARK SMILES IDX 31 14 32 15 82 16 33 17 87 18 81 19 83 20 34 21 86 22 80 23
REMARK SMILES IDX 79 24 35 26 67 27 47 28 66 29 48 30 51 31 65 32 84 33 49 34
REMARK SMILES IDX 50 35 64 37 85 38 52 39 36 40 37 41 45 42 38 43 39 44 43 45
REMARK SMILES IDX 46 46 40 47 41 48 44 49 42 50 68 51 69 52 77 53 70 54 71 55
REMARK SMILES IDX 75 56 78 57 72 58 73 59 76 60 74 61 53 62 54 63 62 64 55 65
REMARK SMILES IDX 56 66 60 67 63 68 57 69 58 70 61 71 59 72 7 73 8 74 9 75
REMARK SMILES IDX 10 77 11 78 12 79 26 80 13 81 14 82 15 83 16 84 17 85 18 87
REMARK SMILES IDX 19 88 20 89 25 90 21 91 24 92 22 93 23 94
REMARK H PARENT 3 7 83 25 51 36 8 76 16 86
REMARK Flexibility Score: inf
ROOT
ATOM      1  C   UNL A   1      30.969  31.696  25.626  1.00  0.00     0.023 C 
ENDROOT
BRANCH   1   2
ATOM      2  C   UNL A   1      31.453  31.949  27.049  1.00  0.00     0.023 C 
BRANCH   2   3
ATOM      3  C   UNL A   1      32.687  32.826  27.148  1.00  0.00     0.116 C 
BRANCH   3   4
ATOM      4  N   UNL A   1      32.399  34.185  27.584  1.00  0.00    -0.352 N 
ATOM      5  O   UNL A   1      32.609  36.001  28.918  1.00  0.00    -0.269 OA
ATOM      6  C   UNL A   1      33.018  34.895  28.583  1.00  0.00     0.251 C 
ATOM      7  H   UNL A   1      31.676  34.649  27.105  1.00  0.00     0.163 HD
BRANCH   6   8
ATOM      8  C   UNL A   1      34.164  34.279  29.276  1.00  0.00     0.039 A 
ATOM      9  C   UNL A   1      35.466  34.546  28.848  1.00  0.00     0.014 A 
ATOM     10  C   UNL A   1      33.927  33.389  30.326  1.00  0.00     0.014 A 
ATOM     11  C   UNL A   1      36.524  33.826  29.383  1.00  0.00     0.010 A 
ATOM     12  C   UNL A   1      35.001  32.728  30.921  1.00  0.00     0.010 A 
ATOM     13  C   UNL A   1      36.303  32.927  30.438  1.00  0.00    -0.014 A 
BRANCH  13  14
ATOM     14  C   UNL A   1      37.470  32.280  31.081  1.00  0.00     0.031 A 
ATOM     15  C   UNL A   1      38.252  31.209  30.383  1.00  0.00     0.074 A 
ATOM     16  C   UNL A   1      37.823  32.702  32.309  1.00  0.00     0.049 A 
ATOM     17  N   UNL A   1      39.297  30.547  30.810  1.00  0.00    -0.248 NA
ATOM     18  C   UNL A   1      37.805  30.821  29.036  1.00  0.00     0.031 C 
ATOM     19  C   UNL A   1      37.116  33.730  33.079  1.00  0.00     0.029 A 
ATOM     20  N   UNL A   1      38.863  32.337  33.121  1.00  0.00    -0.354 N 
ATOM     21  C   UNL A   1      39.620  29.651  29.800  1.00  0.00     0.074 A 
ATOM     22  C   UNL A   1      38.653  29.844  28.739  1.00  0.00     0.031 C 
ATOM     23  C   UNL A   1      37.767  33.942  34.231  1.00  0.00     0.029 A 
ATOM     24  C   UNL A   1      38.896  33.025  34.309  1.00  0.00     0.049 A 
ATOM     25  H   UNL A   1      39.524  31.649  32.876  1.00  0.00     0.167 HD
ATOM     26  C   UNL A   1      40.635  28.755  29.768  1.00  0.00     0.037 A 
ATOM     27  C   UNL A   1      39.733  32.913  35.355  1.00  0.00     0.037 A 
ATOM     28  C   UNL A   1      41.605  28.592  30.821  1.00  0.00     0.049 A 
ATOM     29  C   UNL A   1      40.844  31.909  35.288  1.00  0.00     0.074 A 
ATOM     30  C   UNL A   1      42.700  27.746  30.862  1.00  0.00     0.029 A 
ATOM     31  N   UNL A   1      41.596  29.292  32.019  1.00  0.00    -0.354 N 
ATOM     32  N   UNL A   1      41.158  31.090  34.313  1.00  0.00    -0.248 NA
ATOM     33  C   UNL A   1      41.713  31.806  36.465  1.00  0.00     0.031 C 
ATOM     34  C   UNL A   1      43.331  27.906  32.101  1.00  0.00     0.029 A 
ATOM     35  C   UNL A   1      42.653  28.879  32.816  1.00  0.00     0.049 A 
ATOM     36  H   UNL A   1      40.936  29.978  32.267  1.00  0.00     0.167 HD
ATOM     37  C   UNL A   1      42.261  30.379  34.756  1.00  0.00     0.074 A 
ATOM     38  C   UNL A   1      42.581  30.882  36.076  1.00  0.00     0.031 C 
ATOM     39  C   UNL A   1      42.945  29.392  34.129  1.00  0.00     0.037 A 
BRANCH  26  40
ATOM     40  C   UNL A   1      40.751  27.864  28.568  1.00  0.00     0.064 A 
ATOM     41  C   UNL A   1      40.060  26.647  28.484  1.00  0.00     0.173 A 
ATOM     42  C   UNL A   1      41.498  28.275  27.453  1.00  0.00     0.173 A 
ATOM     43  F   UNL A   1      39.341  26.206  29.526  1.00  0.00    -0.203 F 
ATOM     44  C   UNL A   1      40.119  25.870  27.329  1.00  0.00     0.198 A 
ATOM     45  C   UNL A   1      41.538  27.505  26.294  1.00  0.00     0.198 A 
ATOM     46  F   UNL A   1      42.174  29.434  27.482  1.00  0.00    -0.203 F 
ATOM     47  F   UNL A   1      39.467  24.699  27.277  1.00  0.00    -0.200 F 
ATOM     48  C   UNL A   1      40.849  26.303  26.233  1.00  0.00     0.200 A 
ATOM     49  F   UNL A   1      42.237  27.931  25.232  1.00  0.00    -0.200 F 
ATOM     50  F   UNL A   1      40.891  25.562  25.116  1.00  0.00    -0.200 F 
ENDBRANCH  26  40
BRANCH  27  51
ATOM     51  C   UNL A   1      39.533  33.769  36.551  1.00  0.00     0.064 A 
ATOM     52  C   UNL A   1      40.091  35.051  36.622  1.00  0.00     0.173 A 
ATOM     53  C   UNL A   1      38.764  33.327  37.637  1.00  0.00     0.173 A 
ATOM     54  F   UNL A   1      40.848  35.510  35.614  1.00  0.00    -0.203 F 
ATOM     55  C   UNL A   1      39.899  35.855  37.744  1.00  0.00     0.198 A 
ATOM     56  C   UNL A   1      38.548  34.142  38.745  1.00  0.00     0.198 A 
ATOM     57  F   UNL A   1      38.203  32.109  37.611  1.00  0.00    -0.203 F 
ATOM     58  F   UNL A   1      40.473  37.064  37.804  1.00  0.00    -0.200 F 
ATOM     59  C   UNL A   1      39.121  35.403  38.800  1.00  0.00     0.200 A 
ATOM     60  F   UNL A   1      37.782  33.708  39.754  1.00  0.00    -0.200 F 
ATOM     61  F   UNL A   1      38.929  36.181  39.874  1.00  0.00    -0.200 F 
ENDBRANCH  27  51
BRANCH  39  62
ATOM     62  C   UNL A   1      44.107  28.803  34.869  1.00  0.00     0.064 A 
ATOM     63  C   UNL A   1      45.391  29.360  34.771  1.00  0.00     0.173 A 
ATOM     64  C   UNL A   1      43.932  27.682  35.694  1.00  0.00     0.173 A 
ATOM     65  F   UNL A   1      45.608  30.420  33.979  1.00  0.00    -0.203 F 
ATOM     66  C   UNL A   1      46.464  28.799  35.456  1.00  0.00     0.198 A 
ATOM     67  C   UNL A   1      45.003  27.140  36.396  1.00  0.00     0.198 A 
ATOM     68  F   UNL A   1      42.722  27.117  35.820  1.00  0.00    -0.203 F 
ATOM     69  F   UNL A   1      47.692  29.319  35.313  1.00  0.00    -0.200 F 
ATOM     70  C   UNL A   1      46.269  27.694  36.271  1.00  0.00     0.200 A 
ATOM     71  F   UNL A   1      44.813  26.077  37.190  1.00  0.00    -0.200 F 
ATOM     72  F   UNL A   1      47.305  27.156  36.930  1.00  0.00    -0.200 F 
ENDBRANCH  39  62
ENDBRANCH  13  14
ENDBRANCH   6   8
ENDBRANCH   3   4
ENDBRANCH   2   3
ENDBRANCH   1   2
BRANCH   1  73
ATOM     73  C   UNL A   1      31.134  30.258  25.136  1.00  0.00     0.116 C 
BRANCH  73  74
ATOM     74  N   UNL A   1      30.448  30.028  23.880  1.00  0.00    -0.354 N 
ATOM     75  C   UNL A   1      30.467  28.897  23.103  1.00  0.00     0.249 C 
ATOM     76  H   UNL A   1      29.902  30.775  23.544  1.00  0.00     0.163 HD
ATOM     77  O   UNL A   1      29.828  28.901  22.052  1.00  0.00    -0.272 OA
BRANCH  75  78
ATOM     78  C   UNL A   1      31.308  27.693  23.580  1.00  0.00     0.207 C 
ATOM     79  C   UNL A   1      32.342  27.317  22.523  1.00  0.00     0.045 C 
ATOM     80  O   UNL A   1      30.553  26.507  23.860  1.00  0.00    -0.363 OA
ATOM     81  C   UNL A   1      32.371  25.818  22.558  1.00  0.00     0.037 C 
ATOM     82  C   UNL A   1      30.941  25.488  22.927  1.00  0.00     0.138 C 
BRANCH  82  83
ATOM     83  C   UNL A   1      30.841  24.098  23.552  1.00  0.00     0.148 C 
BRANCH  83  84
ATOM     84  N   UNL A   1      30.593  24.153  24.982  1.00  0.00    -0.349 N 
ATOM     85  C   UNL A   1      31.451  24.057  26.041  1.00  0.00     0.251 C 
ATOM     86  H   UNL A   1      29.649  24.278  25.230  1.00  0.00     0.163 HD
ATOM     87  O   UNL A   1      31.033  24.109  27.193  1.00  0.00    -0.269 OA
BRANCH  85  88
ATOM     88  C   UNL A   1      32.889  23.820  25.802  1.00  0.00     0.039 A 
ATOM     89  C   UNL A   1      33.429  22.532  25.728  1.00  0.00     0.015 A 
ATOM     90  C   UNL A   1      33.709  24.941  25.644  1.00  0.00     0.015 A 
ATOM     91  C   UNL A   1      34.807  22.369  25.570  1.00  0.00     0.021 A 
ATOM     92  C   UNL A   1      35.084  24.776  25.473  1.00  0.00     0.021 A 
ATOM     93  C   UNL A   1      35.628  23.492  25.452  1.00  0.00     0.041 A 
ATOM     94  Cl  UNL A   1      37.328  23.291  25.281  1.00  0.00    -0.084 Cl
ENDBRANCH  85  88
ENDBRANCH  83  84
ENDBRANCH  82  83
ENDBRANCH  75  78
ENDBRANCH  73  74
ENDBRANCH   1  73
TORSDOF 14
ENDMDL
