MODEL 1
REMARK VINA RESULT:     -10.2      0.000      0.000
REMARK SMILES C[C@@H](CO)CS[C@@H](C)C[C@@](C)([NH3+])C(=O)NCCCCNC(=O)c1ccc(-c2c3nc(c(-c4c(F)c(F)c(F)c(F)c4F)c4ccc([nH]4)c(-c4c(F)c(F)c(F)c(F)c4F)c4nc(c(-c5c(F)c(F)c(F)c(F)c5F)c5ccc2[nH]5)C=C4)C=C3)cc1
REMARK SMILES IDX 13 1 14 2 15 3 10 5 11 6 9 7 7 8 8 9 6 10 5 11 2 12 1 13
REMARK SMILES IDX 3 14 4 15 12 17 16 21 17 22 18 23 19 24 20 25 21 26 22 28
REMARK SMILES IDX 23 29 24 30 85 31 25 32 84 33 26 34 27 35 28 36 78 37 29 38
REMARK SMILES IDX 83 39 77 40 79 41 30 42 82 43 76 44 75 45 31 47 63 48 43 49
REMARK SMILES IDX 62 50 44 51 47 52 61 53 80 54 45 55 46 56 60 58 81 59 48 60
REMARK SMILES IDX 32 61 33 62 41 63 34 64 35 65 39 66 42 67 36 68 37 69 40 70
REMARK SMILES IDX 38 71 64 72 65 73 73 74 66 75 67 76 71 77 74 78 68 79 69 80
REMARK SMILES IDX 72 81 70 82 49 83 50 84 58 85 51 86 52 87 56 88 59 89 53 90
REMARK SMILES IDX 54 91 57 92 55 93
REMARK H PARENT 15 4 4 16 12 18 12 19 12 20 20 27 79 46 47 57
REMARK Flexibility Score: inf
ROOT
ATOM      1  C   UNL A   1      31.289  28.946  23.113  1.00  0.00     0.281 C 
ATOM      2  O   UNL A   1      30.498  29.362  22.271  1.00  0.00    -0.268 OA
ATOM      3  N   UNL A   1      31.175  29.605  24.298  1.00  0.00    -0.351 N 
ATOM      4  H   UNL A   1      30.252  29.840  24.546  1.00  0.00     0.163 HD
ENDROOT
BRANCH   1   5
ATOM      5  C   UNL A   1      32.372  27.846  22.858  1.00  0.00     0.172 C 
ATOM      6  C   UNL A   1      33.680  28.495  22.369  1.00  0.00     0.090 C 
BRANCH   5   7
ATOM      7  C   UNL A   1      32.717  26.875  24.038  1.00  0.00     0.093 C 
BRANCH   7   8
ATOM      8  C   UNL A   1      31.670  26.036  24.806  1.00  0.00     0.050 C 
ATOM      9  C   UNL A   1      31.612  26.493  26.273  1.00  0.00     0.019 C 
BRANCH   8  10
ATOM     10  S   UNL A   1      31.699  24.198  24.754  1.00  0.00    -0.158 SA
BRANCH  10  11
ATOM     11  C   UNL A   1      33.128  23.656  25.795  1.00  0.00     0.075 C 
BRANCH  11  12
ATOM     12  C   UNL A   1      34.587  23.774  25.285  1.00  0.00     0.021 C 
ATOM     13  C   UNL A   1      35.626  23.176  26.229  1.00  0.00     0.011 C 
BRANCH  12  14
ATOM     14  C   UNL A   1      34.734  23.089  23.917  1.00  0.00     0.160 C 
BRANCH  14  15
ATOM     15  O   UNL A   1      34.809  24.037  22.862  1.00  0.00    -0.396 OA
ATOM     16  H   UNL A   1      35.738  24.266  22.699  1.00  0.00     0.210 HD
ENDBRANCH  14  15
ENDBRANCH  12  14
ENDBRANCH  11  12
ENDBRANCH  10  11
ENDBRANCH   8  10
ENDBRANCH   7   8
ENDBRANCH   5   7
BRANCH   5  17
ATOM     17  N   UNL A   1      31.840  26.929  21.807  1.00  0.00    -0.345 N 
ATOM     18  H   UNL A   1      32.381  27.043  20.950  1.00  0.00     0.345 HD
ATOM     19  H   UNL A   1      30.862  27.152  21.624  1.00  0.00     0.345 HD
ATOM     20  H   UNL A   1      31.913  25.964  22.130  1.00  0.00     0.345 HD
ENDBRANCH   5  17
ENDBRANCH   1   5
BRANCH   3  21
ATOM     21  C   UNL A   1      32.175  30.020  25.257  1.00  0.00     0.116 C 
BRANCH  21  22
ATOM     22  C   UNL A   1      31.505  30.609  26.503  1.00  0.00     0.023 C 
BRANCH  22  23
ATOM     23  C   UNL A   1      31.482  32.142  26.564  1.00  0.00     0.023 C 
BRANCH  23  24
ATOM     24  C   UNL A   1      32.640  32.781  27.323  1.00  0.00     0.116 C 
BRANCH  24  25
ATOM     25  N   UNL A   1      32.386  34.173  27.659  1.00  0.00    -0.352 N 
ATOM     26  C   UNL A   1      32.991  34.971  28.592  1.00  0.00     0.251 C 
ATOM     27  H   UNL A   1      31.672  34.606  27.137  1.00  0.00     0.163 HD
ATOM     28  O   UNL A   1      32.540  36.089  28.829  1.00  0.00    -0.269 OA
BRANCH  26  29
ATOM     29  C   UNL A   1      34.163  34.475  29.339  1.00  0.00     0.039 A 
ATOM     30  C   UNL A   1      33.955  33.868  30.579  1.00  0.00     0.014 A 
ATOM     31  C   UNL A   1      35.454  34.594  28.819  1.00  0.00     0.014 A 
ATOM     32  C   UNL A   1      35.037  33.320  31.268  1.00  0.00     0.010 A 
ATOM     33  C   UNL A   1      36.520  33.978  29.470  1.00  0.00     0.010 A 
ATOM     34  C   UNL A   1      36.322  33.334  30.700  1.00  0.00    -0.014 A 
BRANCH  34  35
ATOM     35  C   UNL A   1      37.457  32.657  31.375  1.00  0.00     0.031 A 
ATOM     36  C   UNL A   1      38.164  31.509  30.713  1.00  0.00     0.074 A 
ATOM     37  C   UNL A   1      37.816  33.048  32.613  1.00  0.00     0.049 A 
ATOM     38  N   UNL A   1      39.156  30.780  31.157  1.00  0.00    -0.248 NA
ATOM     39  C   UNL A   1      37.674  31.107  29.386  1.00  0.00     0.031 C 
ATOM     40  C   UNL A   1      37.169  34.111  33.382  1.00  0.00     0.029 A 
ATOM     41  N   UNL A   1      38.808  32.592  33.445  1.00  0.00    -0.354 N 
ATOM     42  C   UNL A   1      39.401  29.832  30.173  1.00  0.00     0.074 A 
ATOM     43  C   UNL A   1      38.417  30.039  29.134  1.00  0.00     0.031 C 
ATOM     44  C   UNL A   1      37.797  34.246  34.560  1.00  0.00     0.029 A 
ATOM     45  C   UNL A   1      38.862  33.253  34.648  1.00  0.00     0.049 A 
ATOM     46  H   UNL A   1      39.420  31.861  33.203  1.00  0.00     0.167 HD
ATOM     47  C   UNL A   1      40.375  28.891  30.130  1.00  0.00     0.037 A 
ATOM     48  C   UNL A   1      39.677  33.074  35.706  1.00  0.00     0.037 A 
ATOM     49  C   UNL A   1      41.358  28.698  31.164  1.00  0.00     0.049 A 
ATOM     50  C   UNL A   1      40.742  32.014  35.638  1.00  0.00     0.074 A 
ATOM     51  C   UNL A   1      42.425  27.817  31.187  1.00  0.00     0.029 A 
ATOM     52  N   UNL A   1      41.388  29.391  32.366  1.00  0.00    -0.354 N 
ATOM     53  N   UNL A   1      41.020  31.181  34.665  1.00  0.00    -0.248 NA
ATOM     54  C   UNL A   1      41.612  31.876  36.812  1.00  0.00     0.031 C 
ATOM     55  C   UNL A   1      43.061  27.932  32.428  1.00  0.00     0.029 A 
ATOM     56  C   UNL A   1      42.435  28.933  33.152  1.00  0.00     0.049 A 
ATOM     57  H   UNL A   1      40.759  30.103  32.625  1.00  0.00     0.167 HD
ATOM     58  C   UNL A   1      42.110  30.438  35.097  1.00  0.00     0.074 A 
ATOM     59  C   UNL A   1      42.456  30.936  36.414  1.00  0.00     0.031 C 
ATOM     60  C   UNL A   1      42.766  29.434  34.463  1.00  0.00     0.037 A 
BRANCH  47  61
ATOM     61  C   UNL A   1      40.417  27.991  28.928  1.00  0.00     0.064 A 
ATOM     62  C   UNL A   1      41.163  28.319  27.784  1.00  0.00     0.173 A 
ATOM     63  C   UNL A   1      39.729  26.768  28.929  1.00  0.00     0.173 A 
ATOM     64  F   UNL A   1      41.833  29.480  27.725  1.00  0.00    -0.203 F 
ATOM     65  C   UNL A   1      41.187  27.476  26.676  1.00  0.00     0.198 A 
ATOM     66  C   UNL A   1      39.783  25.912  27.832  1.00  0.00     0.198 A 
ATOM     67  F   UNL A   1      39.006  26.400  29.996  1.00  0.00    -0.203 F 
ATOM     68  F   UNL A   1      41.859  27.840  25.574  1.00  0.00    -0.200 F 
ATOM     69  C   UNL A   1      40.504  26.270  26.703  1.00  0.00     0.200 A 
ATOM     70  F   UNL A   1      39.136  24.738  27.867  1.00  0.00    -0.200 F 
ATOM     71  F   UNL A   1      40.533  25.458  25.638  1.00  0.00    -0.200 F 
ENDBRANCH  47  61
BRANCH  48  72
ATOM     72  C   UNL A   1      39.526  33.933  36.909  1.00  0.00     0.064 A 
ATOM     73  C   UNL A   1      38.778  33.503  38.014  1.00  0.00     0.173 A 
ATOM     74  C   UNL A   1      40.129  35.197  36.984  1.00  0.00     0.173 A 
ATOM     75  F   UNL A   1      38.166  32.310  37.985  1.00  0.00    -0.203 F 
ATOM     76  C   UNL A   1      38.622  34.311  39.138  1.00  0.00     0.198 A 
ATOM     77  C   UNL A   1      40.000  35.992  38.121  1.00  0.00     0.198 A 
ATOM     78  F   UNL A   1      40.862  35.653  35.957  1.00  0.00    -0.203 F 
ATOM     79  F   UNL A   1      37.864  33.894  40.161  1.00  0.00    -0.200 F 
ATOM     80  C   UNL A   1      39.239  35.552  39.194  1.00  0.00     0.200 A 
ATOM     81  F   UNL A   1      40.613  37.182  38.177  1.00  0.00    -0.200 F 
ATOM     82  F   UNL A   1      39.096  36.326  40.278  1.00  0.00    -0.200 F 
ENDBRANCH  48  72
BRANCH  60  83
ATOM     83  C   UNL A   1      43.944  28.826  35.171  1.00  0.00     0.064 A 
ATOM     84  C   UNL A   1      45.244  29.326  35.008  1.00  0.00     0.173 A 
ATOM     85  C   UNL A   1      43.763  27.745  36.047  1.00  0.00     0.173 A 
ATOM     86  F   UNL A   1      45.475  30.350  34.171  1.00  0.00    -0.203 F 
ATOM     87  C   UNL A   1      46.323  28.747  35.670  1.00  0.00     0.198 A 
ATOM     88  C   UNL A   1      44.839  27.191  36.736  1.00  0.00     0.198 A 
ATOM     89  F   UNL A   1      42.540  27.232  36.246  1.00  0.00    -0.203 F 
ATOM     90  F   UNL A   1      47.564  29.204  35.454  1.00  0.00    -0.200 F 
ATOM     91  C   UNL A   1      46.118  27.685  36.539  1.00  0.00     0.200 A 
ATOM     92  F   UNL A   1      44.636  26.176  37.588  1.00  0.00    -0.200 F 
ATOM     93  F   UNL A   1      47.157  27.132  37.181  1.00  0.00    -0.200 F 
ENDBRANCH  60  83
ENDBRANCH  34  35
ENDBRANCH  26  29
ENDBRANCH  24  25
ENDBRANCH  23  24
ENDBRANCH  22  23
ENDBRANCH  21  22
ENDBRANCH   3  21
TORSDOF 19
ENDMDL
MODEL 2
REMARK VINA RESULT:     -10.2      1.114      2.185
REMARK SMILES C[C@@H](CO)CS[C@@H](C)C[C@@](C)([NH3+])C(=O)NCCCCNC(=O)c1ccc(-c2c3nc(c(-c4c(F)c(F)c(F)c(F)c4F)c4ccc([nH]4)c(-c4c(F)c(F)c(F)c(F)c4F)c4nc(c(-c5c(F)c(F)c(F)c(F)c5F)c5ccc2[nH]5)C=C4)C=C3)cc1
REMARK SMILES IDX 13 1 14 2 15 3 10 5 11 6 9 7 7 8 8 9 6 10 5 11 2 12 1 13
REMARK SMILES IDX 3 14 4 15 12 17 16 21 17 22 18 23 19 24 20 25 21 26 22 28
REMARK SMILES IDX 23 29 24 30 85 31 25 32 84 33 26 34 27 35 28 36 78 37 29 38
REMARK SMILES IDX 83 39 77 40 79 41 30 42 82 43 76 44 75 45 31 47 63 48 43 49
REMARK SMILES IDX 62 50 44 51 47 52 61 53 80 54 45 55 46 56 60 58 81 59 48 60
REMARK SMILES IDX 32 61 33 62 41 63 34 64 35 65 39 66 42 67 36 68 37 69 40 70
REMARK SMILES IDX 38 71 64 72 65 73 73 74 66 75 67 76 71 77 74 78 68 79 69 80
REMARK SMILES IDX 72 81 70 82 49 83 50 84 58 85 51 86 52 87 56 88 59 89 53 90
REMARK SMILES IDX 54 91 57 92 55 93
REMARK H PARENT 15 4 4 16 12 18 12 19 12 20 20 27 79 46 47 57
REMARK Flexibility Score: inf
ROOT
ATOM      1  C   UNL A   1      31.740  27.613  24.467  1.00  0.00     0.281 C 
ATOM      2  O   UNL A   1      30.941  26.895  23.873  1.00  0.00    -0.268 OA
ATOM      3  N   UNL A   1      31.158  28.741  24.955  1.00  0.00    -0.351 N 
ATOM      4  H   UNL A   1      30.244  28.612  25.297  1.00  0.00     0.163 HD
ENDROOT
BRANCH   1   5
ATOM      5  C   UNL A   1      33.274  27.330  24.595  1.00  0.00     0.172 C 
ATOM      6  C   UNL A   1      33.652  27.125  26.075  1.00  0.00     0.090 C 
BRANCH   5   7
ATOM      7  C   UNL A   1      33.867  26.139  23.769  1.00  0.00     0.093 C 
BRANCH   7   8
ATOM      8  C   UNL A   1      33.747  24.653  24.178  1.00  0.00     0.050 C 
ATOM      9  C   UNL A   1      35.148  24.067  24.422  1.00  0.00     0.019 C 
BRANCH   8  10
ATOM     10  S   UNL A   1      32.770  23.464  23.173  1.00  0.00    -0.158 SA
BRANCH  10  11
ATOM     11  C   UNL A   1      31.233  23.089  24.128  1.00  0.00     0.075 C 
BRANCH  11  12
ATOM     12  C   UNL A   1      31.280  22.265  25.440  1.00  0.00     0.021 C 
ATOM     13  C   UNL A   1      32.552  21.439  25.611  1.00  0.00     0.011 C 
BRANCH  12  14
ATOM     14  C   UNL A   1      31.143  23.190  26.660  1.00  0.00     0.160 C 
BRANCH  14  15
ATOM     15  O   UNL A   1      30.248  22.657  27.624  1.00  0.00    -0.396 OA
ATOM     16  H   UNL A   1      29.557  23.309  27.819  1.00  0.00     0.210 HD
ENDBRANCH  14  15
ENDBRANCH  12  14
ENDBRANCH  11  12
ENDBRANCH  10  11
ENDBRANCH   8  10
ENDBRANCH   7   8
ENDBRANCH   5   7
BRANCH   5  17
ATOM     17  N   UNL A   1      33.996  28.516  24.050  1.00  0.00    -0.345 N 
ATOM     18  H   UNL A   1      33.876  28.552  23.037  1.00  0.00     0.345 HD
ATOM     19  H   UNL A   1      34.989  28.442  24.272  1.00  0.00     0.345 HD
ATOM     20  H   UNL A   1      33.617  29.366  24.468  1.00  0.00     0.345 HD
ENDBRANCH   5  17
ENDBRANCH   1   5
BRANCH   3  21
ATOM     21  C   UNL A   1      31.647  30.098  25.057  1.00  0.00     0.116 C 
BRANCH  21  22
ATOM     22  C   UNL A   1      31.564  30.586  26.506  1.00  0.00     0.023 C 
BRANCH  22  23
ATOM     23  C   UNL A   1      31.441  32.107  26.673  1.00  0.00     0.023 C 
BRANCH  23  24
ATOM     24  C   UNL A   1      32.662  32.798  27.272  1.00  0.00     0.116 C 
BRANCH  24  25
ATOM     25  N   UNL A   1      32.400  34.184  27.627  1.00  0.00    -0.352 N 
ATOM     26  C   UNL A   1      32.987  34.966  28.585  1.00  0.00     0.251 C 
ATOM     27  H   UNL A   1      31.695  34.625  27.100  1.00  0.00     0.163 HD
ATOM     28  O   UNL A   1      32.530  36.079  28.833  1.00  0.00    -0.269 OA
BRANCH  26  29
ATOM     29  C   UNL A   1      34.146  34.458  29.344  1.00  0.00     0.039 A 
ATOM     30  C   UNL A   1      33.917  33.836  30.573  1.00  0.00     0.014 A 
ATOM     31  C   UNL A   1      35.446  34.581  28.846  1.00  0.00     0.014 A 
ATOM     32  C   UNL A   1      34.987  33.278  31.272  1.00  0.00     0.010 A 
ATOM     33  C   UNL A   1      36.499  33.955  29.506  1.00  0.00     0.010 A 
ATOM     34  C   UNL A   1      36.280  33.296  30.725  1.00  0.00    -0.014 A 
BRANCH  34  35
ATOM     35  C   UNL A   1      37.404  32.608  31.409  1.00  0.00     0.031 A 
ATOM     36  C   UNL A   1      38.102  31.450  30.755  1.00  0.00     0.074 A 
ATOM     37  C   UNL A   1      37.759  32.999  32.648  1.00  0.00     0.049 A 
ATOM     38  N   UNL A   1      39.083  30.712  31.208  1.00  0.00    -0.248 NA
ATOM     39  C   UNL A   1      37.616  31.050  29.426  1.00  0.00     0.031 C 
ATOM     40  C   UNL A   1      37.119  34.072  33.410  1.00  0.00     0.029 A 
ATOM     41  N   UNL A   1      38.740  32.534  33.488  1.00  0.00    -0.354 N 
ATOM     42  C   UNL A   1      39.324  29.758  30.228  1.00  0.00     0.074 A 
ATOM     43  C   UNL A   1      38.348  29.973  29.182  1.00  0.00     0.031 C 
ATOM     44  C   UNL A   1      37.741  34.203  34.591  1.00  0.00     0.029 A 
ATOM     45  C   UNL A   1      38.794  33.198  34.690  1.00  0.00     0.049 A 
ATOM     46  H   UNL A   1      39.346  31.796  33.253  1.00  0.00     0.167 HD
ATOM     47  C   UNL A   1      40.287  28.806  30.195  1.00  0.00     0.037 A 
ATOM     48  C   UNL A   1      39.600  33.013  35.753  1.00  0.00     0.037 A 
ATOM     49  C   UNL A   1      41.261  28.605  31.236  1.00  0.00     0.049 A 
ATOM     50  C   UNL A   1      40.653  31.941  35.695  1.00  0.00     0.074 A 
ATOM     51  C   UNL A   1      42.318  27.712  31.268  1.00  0.00     0.029 A 
ATOM     52  N   UNL A   1      41.291  29.301  32.436  1.00  0.00    -0.354 N 
ATOM     53  N   UNL A   1      40.929  31.102  34.727  1.00  0.00    -0.248 NA
ATOM     54  C   UNL A   1      41.515  31.797  36.876  1.00  0.00     0.031 C 
ATOM     55  C   UNL A   1      42.947  27.824  32.512  1.00  0.00     0.029 A 
ATOM     56  C   UNL A   1      42.327  28.834  33.229  1.00  0.00     0.049 A 
ATOM     57  H   UNL A   1      40.668  30.021  32.688  1.00  0.00     0.167 HD
ATOM     58  C   UNL A   1      42.007  30.348  35.168  1.00  0.00     0.074 A 
ATOM     59  C   UNL A   1      42.350  30.846  36.486  1.00  0.00     0.031 C 
ATOM     60  C   UNL A   1      42.656  29.335  34.541  1.00  0.00     0.037 A 
BRANCH  47  61
ATOM     61  C   UNL A   1      40.327  27.902  28.995  1.00  0.00     0.064 A 
ATOM     62  C   UNL A   1      41.078  28.221  27.852  1.00  0.00     0.173 A 
ATOM     63  C   UNL A   1      39.631  26.683  28.998  1.00  0.00     0.173 A 
ATOM     64  F   UNL A   1      41.756  29.378  27.791  1.00  0.00    -0.203 F 
ATOM     65  C   UNL A   1      41.100  27.375  26.747  1.00  0.00     0.198 A 
ATOM     66  C   UNL A   1      39.683  25.823  27.904  1.00  0.00     0.198 A 
ATOM     67  F   UNL A   1      38.903  26.322  30.065  1.00  0.00    -0.203 F 
ATOM     68  F   UNL A   1      41.777  27.731  25.646  1.00  0.00    -0.200 F 
ATOM     69  C   UNL A   1      40.410  26.174  26.776  1.00  0.00     0.200 A 
ATOM     70  F   UNL A   1      39.029  24.653  27.941  1.00  0.00    -0.200 F 
ATOM     71  F   UNL A   1      40.436  25.358  25.713  1.00  0.00    -0.200 F 
ENDBRANCH  47  61
BRANCH  48  72
ATOM     72  C   UNL A   1      39.451  33.878  36.953  1.00  0.00     0.064 A 
ATOM     73  C   UNL A   1      40.060  35.139  37.013  1.00  0.00     0.173 A 
ATOM     74  C   UNL A   1      38.694  33.466  38.059  1.00  0.00     0.173 A 
ATOM     75  F   UNL A   1      40.808  35.571  35.988  1.00  0.00    -0.203 F 
ATOM     76  C   UNL A   1      39.934  35.947  38.142  1.00  0.00     0.198 A 
ATOM     77  C   UNL A   1      38.542  34.288  39.175  1.00  0.00     0.198 A 
ATOM     78  F   UNL A   1      38.085  32.271  38.050  1.00  0.00    -0.203 F 
ATOM     79  F   UNL A   1      40.564  37.128  38.191  1.00  0.00    -0.200 F 
ATOM     80  C   UNL A   1      39.170  35.524  39.219  1.00  0.00     0.200 A 
ATOM     81  F   UNL A   1      37.788  33.882  40.205  1.00  0.00    -0.200 F 
ATOM     82  F   UNL A   1      39.042  36.304  40.301  1.00  0.00    -0.200 F 
ENDBRANCH  48  72
BRANCH  60  83
ATOM     83  C   UNL A   1      43.822  28.716  35.259  1.00  0.00     0.064 A 
ATOM     84  C   UNL A   1      43.660  27.634  36.138  1.00  0.00     0.173 A 
ATOM     85  C   UNL A   1      45.123  29.195  35.043  1.00  0.00     0.173 A 
ATOM     86  F   UNL A   1      42.436  27.147  36.391  1.00  0.00    -0.203 F 
ATOM     87  C   UNL A   1      44.753  27.077  36.796  1.00  0.00     0.198 A 
ATOM     88  C   UNL A   1      46.218  28.611  35.675  1.00  0.00     0.198 A 
ATOM     89  F   UNL A   1      45.336  30.222  34.207  1.00  0.00    -0.203 F 
ATOM     90  F   UNL A   1      44.566  26.083  37.676  1.00  0.00    -0.200 F 
ATOM     91  C   UNL A   1      46.030  27.561  36.559  1.00  0.00     0.200 A 
ATOM     92  F   UNL A   1      47.453  29.070  35.430  1.00  0.00    -0.200 F 
ATOM     93  F   UNL A   1      47.082  27.019  37.189  1.00  0.00    -0.200 F 
ENDBRANCH  60  83
ENDBRANCH  34  35
ENDBRANCH  26  29
ENDBRANCH  24  25
ENDBRANCH  23  24
ENDBRANCH  22  23
ENDBRANCH  21  22
ENDBRANCH   3  21
TORSDOF 19
ENDMDL
MODEL 3
REMARK VINA RESULT:     -10.1      4.379     10.480
REMARK SMILES C[C@@H](CO)CS[C@@H](C)C[C@@](C)([NH3+])C(=O)NCCCCNC(=O)c1ccc(-c2c3nc(c(-c4c(F)c(F)c(F)c(F)c4F)c4ccc([nH]4)c(-c4c(F)c(F)c(F)c(F)c4F)c4nc(c(-c5c(F)c(F)c(F)c(F)c5F)c5ccc2[nH]5)C=C4)C=C3)cc1
REMARK SMILES IDX 13 1 14 2 15 3 10 5 11 6 9 7 7 8 8 9 6 10 5 11 2 12 1 13
REMARK SMILES IDX 3 14 4 15 12 17 16 21 17 22 18 23 19 24 20 25 21 26 22 28
REMARK SMILES IDX 23 29 24 30 85 31 25 32 84 33 26 34 27 35 28 36 78 37 29 38
REMARK SMILES IDX 83 39 77 40 79 41 30 42 82 43 76 44 75 45 31 47 63 48 43 49
REMARK SMILES IDX 62 50 44 51 47 52 61 53 80 54 45 55 46 56 60 58 81 59 48 60
REMARK SMILES IDX 32 61 33 62 41 63 34 64 35 65 39 66 42 67 36 68 37 69 40 70
REMARK SMILES IDX 38 71 64 72 65 73 73 74 66 75 67 76 71 77 74 78 68 79 69 80
REMARK SMILES IDX 72 81 70 82 49 83 50 84 58 85 51 86 52 87 56 88 59 89 53 90
REMARK SMILES IDX 54 91 57 92 55 93
REMARK H PARENT 15 4 4 16 12 18 12 19 12 20 20 27 79 46 47 57
REMARK Flexibility Score: inf
ROOT
ATOM      1  C   UNL A   1      33.705  34.193  32.809  1.00  0.00     0.281 C 
ATOM      2  O   UNL A   1      33.286  33.086  33.133  1.00  0.00    -0.268 OA
ATOM      3  N   UNL A   1      32.974  34.747  31.804  1.00  0.00    -0.351 N 
ATOM      4  H   UNL A   1      32.008  34.568  31.857  1.00  0.00     0.163 HD
ENDROOT
BRANCH   1   5
ATOM      5  C   UNL A   1      34.978  34.879  33.406  1.00  0.00     0.172 C 
ATOM      6  C   UNL A   1      35.275  34.312  34.807  1.00  0.00     0.090 C 
BRANCH   5   7
ATOM      7  C   UNL A   1      36.297  34.826  32.564  1.00  0.00     0.093 C 
BRANCH   7   8
ATOM      8  C   UNL A   1      37.408  33.768  32.757  1.00  0.00     0.050 C 
ATOM      9  C   UNL A   1      38.558  34.038  31.774  1.00  0.00     0.019 C 
BRANCH   8  10
ATOM     10  S   UNL A   1      37.022  31.970  32.744  1.00  0.00    -0.158 SA
BRANCH  10  11
ATOM     11  C   UNL A   1      38.526  31.094  33.367  1.00  0.00     0.075 C 
BRANCH  11  12
ATOM     12  C   UNL A   1      39.087  31.368  34.786  1.00  0.00     0.021 C 
ATOM     13  C   UNL A   1      39.933  32.634  34.887  1.00  0.00     0.011 C 
BRANCH  12  14
ATOM     14  C   UNL A   1      37.941  31.476  35.804  1.00  0.00     0.160 C 
BRANCH  14  15
ATOM     15  O   UNL A   1      37.836  30.307  36.602  1.00  0.00    -0.396 OA
ATOM     16  H   UNL A   1      37.644  30.557  37.520  1.00  0.00     0.210 HD
ENDBRANCH  14  15
ENDBRANCH  12  14
ENDBRANCH  11  12
ENDBRANCH  10  11
ENDBRANCH   8  10
ENDBRANCH   7   8
ENDBRANCH   5   7
BRANCH   5  17
ATOM     17  N   UNL A   1      34.695  36.342  33.504  1.00  0.00    -0.345 N 
ATOM     18  H   UNL A   1      35.338  36.854  32.900  1.00  0.00     0.345 HD
ATOM     19  H   UNL A   1      34.818  36.648  34.469  1.00  0.00     0.345 HD
ATOM     20  H   UNL A   1      33.735  36.522  33.211  1.00  0.00     0.345 HD
ENDBRANCH   5  17
ENDBRANCH   1   5
BRANCH   3  21
ATOM     21  C   UNL A   1      33.371  35.552  30.670  1.00  0.00     0.116 C 
BRANCH  21  22
ATOM     22  C   UNL A   1      33.504  34.679  29.418  1.00  0.00     0.023 C 
BRANCH  22  23
ATOM     23  C   UNL A   1      34.911  34.121  29.164  1.00  0.00     0.023 C 
BRANCH  23  24
ATOM     24  C   UNL A   1      35.120  32.667  29.576  1.00  0.00     0.116 C 
BRANCH  24  25
ATOM     25  N   UNL A   1      34.357  31.740  28.756  1.00  0.00    -0.352 N 
ATOM     26  C   UNL A   1      34.754  30.577  28.153  1.00  0.00     0.251 C 
ATOM     27  H   UNL A   1      33.414  31.985  28.613  1.00  0.00     0.163 HD
ATOM     28  O   UNL A   1      33.997  29.998  27.377  1.00  0.00    -0.269 OA
BRANCH  26  29
ATOM     29  C   UNL A   1      36.104  30.037  28.407  1.00  0.00     0.039 A 
ATOM     30  C   UNL A   1      37.074  30.176  27.412  1.00  0.00     0.014 A 
ATOM     31  C   UNL A   1      36.416  29.412  29.617  1.00  0.00     0.014 A 
ATOM     32  C   UNL A   1      38.378  29.746  27.659  1.00  0.00     0.010 A 
ATOM     33  C   UNL A   1      37.734  29.056  29.889  1.00  0.00     0.010 A 
ATOM     34  C   UNL A   1      38.728  29.220  28.913  1.00  0.00    -0.014 A 
BRANCH  34  35
ATOM     35  C   UNL A   1      40.136  28.863  29.221  1.00  0.00     0.031 A 
ATOM     36  C   UNL A   1      41.011  29.805  29.995  1.00  0.00     0.074 A 
ATOM     37  C   UNL A   1      40.639  27.705  28.752  1.00  0.00     0.049 A 
ATOM     38  N   UNL A   1      42.268  29.677  30.336  1.00  0.00    -0.248 NA
ATOM     39  C   UNL A   1      40.402  31.074  30.422  1.00  0.00     0.031 C 
ATOM     40  C   UNL A   1      39.905  26.734  27.939  1.00  0.00     0.029 A 
ATOM     41  N   UNL A   1      41.888  27.150  28.884  1.00  0.00    -0.354 N 
ATOM     42  C   UNL A   1      42.601  30.847  31.005  1.00  0.00     0.074 A 
ATOM     43  C   UNL A   1      41.433  31.698  30.972  1.00  0.00     0.031 C 
ATOM     44  C   UNL A   1      40.706  25.691  27.670  1.00  0.00     0.029 A 
ATOM     45  C   UNL A   1      42.020  25.938  28.253  1.00  0.00     0.049 A 
ATOM     46  H   UNL A   1      42.618  27.581  29.384  1.00  0.00     0.167 HD
ATOM     47  C   UNL A   1      43.769  31.170  31.613  1.00  0.00     0.037 A 
ATOM     48  C   UNL A   1      43.085  25.119  28.151  1.00  0.00     0.037 A 
ATOM     49  C   UNL A   1      44.924  30.312  31.651  1.00  0.00     0.049 A 
ATOM     50  C   UNL A   1      44.373  25.506  28.825  1.00  0.00     0.074 A 
ATOM     51  C   UNL A   1      46.132  30.517  32.296  1.00  0.00     0.029 A 
ATOM     52  N   UNL A   1      45.021  29.087  31.007  1.00  0.00    -0.354 N 
ATOM     53  N   UNL A   1      44.650  26.576  29.530  1.00  0.00    -0.248 NA
ATOM     54  C   UNL A   1      45.494  24.566  28.697  1.00  0.00     0.031 C 
ATOM     55  C   UNL A   1      46.979  29.448  31.989  1.00  0.00     0.029 A 
ATOM     56  C   UNL A   1      46.279  28.541  31.211  1.00  0.00     0.049 A 
ATOM     57  H   UNL A   1      44.302  28.665  30.482  1.00  0.00     0.167 HD
ATOM     58  C   UNL A   1      45.965  26.428  29.949  1.00  0.00     0.074 A 
ATOM     59  C   UNL A   1      46.423  25.152  29.437  1.00  0.00     0.031 C 
ATOM     60  C   UNL A   1      46.725  27.272  30.692  1.00  0.00     0.037 A 
BRANCH  47  61
ATOM     61  C   UNL A   1      43.855  32.514  32.280  1.00  0.00     0.064 A 
ATOM     62  C   UNL A   1      43.528  32.691  33.633  1.00  0.00     0.173 A 
ATOM     63  C   UNL A   1      44.301  33.636  31.564  1.00  0.00     0.173 A 
ATOM     64  F   UNL A   1      43.087  31.655  34.363  1.00  0.00    -0.203 F 
ATOM     65  C   UNL A   1      43.609  33.945  34.234  1.00  0.00     0.198 A 
ATOM     66  C   UNL A   1      44.414  34.881  32.178  1.00  0.00     0.198 A 
ATOM     67  F   UNL A   1      44.634  33.525  30.270  1.00  0.00    -0.203 F 
ATOM     68  F   UNL A   1      43.235  34.098  35.512  1.00  0.00    -0.200 F 
ATOM     69  C   UNL A   1      44.058  35.037  33.509  1.00  0.00     0.200 A 
ATOM     70  F   UNL A   1      44.865  35.933  31.479  1.00  0.00    -0.200 F 
ATOM     71  F   UNL A   1      44.141  36.242  34.090  1.00  0.00    -0.200 F 
ENDBRANCH  47  61
BRANCH  48  72
ATOM     72  C   UNL A   1      42.967  23.843  27.397  1.00  0.00     0.064 A 
ATOM     73  C   UNL A   1      42.475  22.684  28.013  1.00  0.00     0.173 A 
ATOM     74  C   UNL A   1      43.337  23.757  26.047  1.00  0.00     0.173 A 
ATOM     75  F   UNL A   1      42.125  22.710  29.307  1.00  0.00    -0.203 F 
ATOM     76  C   UNL A   1      42.377  21.482  27.313  1.00  0.00     0.198 A 
ATOM     77  C   UNL A   1      43.209  22.563  25.339  1.00  0.00     0.198 A 
ATOM     78  F   UNL A   1      43.807  24.839  25.409  1.00  0.00    -0.203 F 
ATOM     79  F   UNL A   1      41.946  20.379  27.939  1.00  0.00    -0.200 F 
ATOM     80  C   UNL A   1      42.737  21.425  25.975  1.00  0.00     0.200 A 
ATOM     81  F   UNL A   1      43.540  22.518  24.042  1.00  0.00    -0.200 F 
ATOM     82  F   UNL A   1      42.634  20.272  25.300  1.00  0.00    -0.200 F 
ENDBRANCH  48  72
BRANCH  60  83
ATOM     83  C   UNL A   1      48.123  26.830  31.019  1.00  0.00     0.064 A 
ATOM     84  C   UNL A   1      48.397  25.988  32.108  1.00  0.00     0.173 A 
ATOM     85  C   UNL A   1      49.201  27.232  30.216  1.00  0.00     0.173 A 
ATOM     86  F   UNL A   1      47.405  25.586  32.917  1.00  0.00    -0.203 F 
ATOM     87  C   UNL A   1      49.700  25.593  32.397  1.00  0.00     0.198 A 
ATOM     88  C   UNL A   1      50.498  26.805  30.487  1.00  0.00     0.198 A 
ATOM     89  F   UNL A   1      48.995  28.030  29.157  1.00  0.00    -0.203 F 
ATOM     90  F   UNL A   1      49.944  24.836  33.477  1.00  0.00    -0.200 F 
ATOM     91  C   UNL A   1      50.747  25.994  31.583  1.00  0.00     0.200 A 
ATOM     92  F   UNL A   1      51.506  27.181  29.687  1.00  0.00    -0.200 F 
ATOM     93  F   UNL A   1      52.001  25.607  31.860  1.00  0.00    -0.200 F 
ENDBRANCH  60  83
ENDBRANCH  34  35
ENDBRANCH  26  29
ENDBRANCH  24  25
ENDBRANCH  23  24
ENDBRANCH  22  23
ENDBRANCH  21  22
ENDBRANCH   3  21
TORSDOF 19
ENDMDL
