MODEL 1
REMARK VINA RESULT:     -13.4      0.000      0.000
REMARK SMILES Cc1cccc(CC(=O)N2CCCC[C@@H]2C(=O)NCCCCNC(=O)c2ccc(-c3c4nc(c(-c5c(F)c(F)c(F)c(F)c5F)c5ccc([nH]5)c(-c5c(F)c(F)c(F)c(F)c5F)c5nc(c(-c6c(F)c(F)c(F)c(F)c6F)c6ccc3[nH]6)C=C5)C=C4)cc2)c1
REMARK SMILES IDX 20 1 19 2 18 3 16 4 17 5 15 7 10 8 11 9 12 10 14 11 13 12
REMARK SMILES IDX 8 13 9 14 7 15 6 16 1 17 2 18 3 19 89 20 4 21 5 22 21 23
REMARK SMILES IDX 22 24 23 25 24 26 25 28 26 29 27 30 88 31 28 32 87 33 29 34
REMARK SMILES IDX 30 35 31 36 81 37 32 38 86 39 80 40 82 41 33 42 85 43 79 44
REMARK SMILES IDX 78 45 34 47 66 48 46 49 65 50 47 51 50 52 64 53 83 54 48 55
REMARK SMILES IDX 49 56 63 58 84 59 51 60 35 61 36 62 44 63 37 64 38 65 42 66
REMARK SMILES IDX 45 67 39 68 40 69 43 70 41 71 67 72 68 73 76 74 69 75 70 76
REMARK SMILES IDX 74 77 77 78 71 79 72 80 75 81 73 82 52 83 53 84 61 85 54 86
REMARK SMILES IDX 55 87 59 88 62 89 56 90 57 91 60 92 58 93
REMARK H PARENT 18 6 23 27 82 46 50 57
REMARK Flexibility Score: inf
ROOT
ATOM      1  C   UNL A   1      33.329  27.542  26.638  1.00  0.00     0.023 C 
ENDROOT
BRANCH   1   2
ATOM      2  C   UNL A   1      32.016  27.029  26.039  1.00  0.00     0.116 C 
BRANCH   2   3
ATOM      3  N   UNL A   1      31.516  25.868  26.758  1.00  0.00    -0.354 N 
ATOM      4  C   UNL A   1      31.911  24.565  26.718  1.00  0.00     0.242 C 
ATOM      5  O   UNL A   1      31.170  23.731  27.252  1.00  0.00    -0.273 OA
ATOM      6  H   UNL A   1      30.770  26.055  27.373  1.00  0.00     0.163 HD
BRANCH   4   7
ATOM      7  C   UNL A   1      33.088  24.095  25.840  1.00  0.00     0.174 C 
ATOM      8  N   UNL A   1      32.756  23.440  24.551  1.00  0.00    -0.330 N 
ATOM      9  C   UNL A   1      33.794  22.587  23.978  1.00  0.00     0.120 C 
ATOM     10  C   UNL A   1      34.311  21.548  24.955  1.00  0.00     0.022 C 
ATOM     11  C   UNL A   1      33.838  23.141  26.815  1.00  0.00     0.035 C 
ATOM     12  C   UNL A   1      34.879  22.236  26.183  1.00  0.00     0.004 C 
BRANCH   8  13
ATOM     13  C   UNL A   1      31.805  23.875  23.628  1.00  0.00     0.227 C 
ATOM     14  O   UNL A   1      30.635  23.486  23.720  1.00  0.00    -0.275 OA
BRANCH  13  15
ATOM     15  C   UNL A   1      32.224  24.684  22.410  1.00  0.00     0.135 C 
BRANCH  15  16
ATOM     16  C   UNL A   1      32.383  26.167  22.593  1.00  0.00    -0.038 A 
ATOM     17  C   UNL A   1      30.124  29.219  22.372  1.00  0.00     0.044 C 
ATOM     18  C   UNL A   1      31.344  28.374  22.597  1.00  0.00    -0.051 A 
ATOM     19  C   UNL A   1      32.604  28.957  22.755  1.00  0.00     0.003 A 
ATOM     20  C   UNL A   1      31.243  26.981  22.532  1.00  0.00     0.007 A 
ATOM     21  C   UNL A   1      33.740  28.156  22.887  1.00  0.00     0.001 A 
ATOM     22  C   UNL A   1      33.631  26.765  22.818  1.00  0.00     0.004 A 
ENDBRANCH  15  16
ENDBRANCH  13  15
ENDBRANCH   8  13
ENDBRANCH   4   7
ENDBRANCH   2   3
ENDBRANCH   1   2
BRANCH   1  23
ATOM     23  C   UNL A   1      33.247  28.939  27.253  1.00  0.00     0.023 C 
BRANCH  23  24
ATOM     24  C   UNL A   1      34.044  29.980  26.484  1.00  0.00     0.116 C 
BRANCH  24  25
ATOM     25  N   UNL A   1      34.543  31.062  27.312  1.00  0.00    -0.352 N 
ATOM     26  C   UNL A   1      35.530  31.084  28.281  1.00  0.00     0.251 C 
ATOM     27  H   UNL A   1      34.104  31.930  27.157  1.00  0.00     0.163 HD
ATOM     28  O   UNL A   1      35.645  32.080  28.971  1.00  0.00    -0.269 OA
BRANCH  26  29
ATOM     29  C   UNL A   1      36.534  29.987  28.398  1.00  0.00     0.039 A 
ATOM     30  C   UNL A   1      36.634  29.325  29.637  1.00  0.00     0.014 A 
ATOM     31  C   UNL A   1      37.469  29.709  27.409  1.00  0.00     0.014 A 
ATOM     32  C   UNL A   1      37.772  28.581  29.946  1.00  0.00     0.010 A 
ATOM     33  C   UNL A   1      38.641  29.076  27.744  1.00  0.00     0.010 A 
ATOM     34  C   UNL A   1      38.815  28.562  29.030  1.00  0.00    -0.014 A 
BRANCH  34  35
ATOM     35  C   UNL A   1      40.155  28.063  29.281  1.00  0.00     0.031 A 
ATOM     36  C   UNL A   1      40.540  26.735  28.766  1.00  0.00     0.074 A 
ATOM     37  C   UNL A   1      41.081  28.952  29.700  1.00  0.00     0.049 A 
ATOM     38  N   UNL A   1      41.665  26.158  29.006  1.00  0.00    -0.248 NA
ATOM     39  C   UNL A   1      39.650  25.924  27.945  1.00  0.00     0.031 C 
ATOM     40  C   UNL A   1      42.531  28.865  29.559  1.00  0.00     0.029 A 
ATOM     41  N   UNL A   1      40.879  30.074  30.524  1.00  0.00    -0.354 N 
ATOM     42  C   UNL A   1      41.770  25.061  28.180  1.00  0.00     0.074 A 
ATOM     43  C   UNL A   1      40.458  24.918  27.598  1.00  0.00     0.031 C 
ATOM     44  C   UNL A   1      43.104  29.659  30.478  1.00  0.00     0.029 A 
ATOM     45  C   UNL A   1      42.036  30.132  31.341  1.00  0.00     0.049 A 
ATOM     46  H   UNL A   1      40.106  30.683  30.532  1.00  0.00     0.167 HD
ATOM     47  C   UNL A   1      43.001  24.490  28.021  1.00  0.00     0.037 A 
ATOM     48  C   UNL A   1      41.965  29.884  32.682  1.00  0.00     0.037 A 
ATOM     49  C   UNL A   1      43.959  25.100  28.945  1.00  0.00     0.049 A 
ATOM     50  C   UNL A   1      42.838  28.736  33.134  1.00  0.00     0.074 A 
ATOM     51  C   UNL A   1      44.920  26.087  28.799  1.00  0.00     0.029 A 
ATOM     52  N   UNL A   1      43.778  24.924  30.312  1.00  0.00    -0.354 N 
ATOM     53  N   UNL A   1      43.219  27.761  32.356  1.00  0.00    -0.248 NA
ATOM     54  C   UNL A   1      43.355  28.605  34.492  1.00  0.00     0.031 C 
ATOM     55  C   UNL A   1      45.284  26.538  30.094  1.00  0.00     0.029 A 
ATOM     56  C   UNL A   1      44.563  25.806  31.023  1.00  0.00     0.049 A 
ATOM     57  H   UNL A   1      43.173  24.260  30.717  1.00  0.00     0.167 HD
ATOM     58  C   UNL A   1      44.022  26.900  33.061  1.00  0.00     0.074 A 
ATOM     59  C   UNL A   1      44.079  27.475  34.391  1.00  0.00     0.031 C 
ATOM     60  C   UNL A   1      44.567  25.789  32.479  1.00  0.00     0.037 A 
BRANCH  47  61
ATOM     61  C   UNL A   1      43.427  23.555  26.903  1.00  0.00     0.064 A 
ATOM     62  C   UNL A   1      43.016  22.199  26.913  1.00  0.00     0.173 A 
ATOM     63  C   UNL A   1      44.274  23.889  25.830  1.00  0.00     0.173 A 
ATOM     64  F   UNL A   1      42.148  21.736  27.821  1.00  0.00    -0.203 F 
ATOM     65  C   UNL A   1      43.481  21.258  25.988  1.00  0.00     0.198 A 
ATOM     66  C   UNL A   1      44.765  22.942  24.924  1.00  0.00     0.198 A 
ATOM     67  F   UNL A   1      44.625  25.149  25.569  1.00  0.00    -0.203 F 
ATOM     68  F   UNL A   1      43.060  19.987  26.063  1.00  0.00    -0.200 F 
ATOM     69  C   UNL A   1      44.376  21.624  25.007  1.00  0.00     0.200 A 
ATOM     70  F   UNL A   1      45.617  23.327  23.961  1.00  0.00    -0.200 F 
ATOM     71  F   UNL A   1      44.842  20.721  24.134  1.00  0.00    -0.200 F 
ENDBRANCH  47  61
BRANCH  48  72
ATOM     72  C   UNL A   1      40.641  30.242  33.259  1.00  0.00     0.064 A 
ATOM     73  C   UNL A   1      40.335  31.611  33.400  1.00  0.00     0.173 A 
ATOM     74  C   UNL A   1      39.571  29.339  33.237  1.00  0.00     0.173 A 
ATOM     75  F   UNL A   1      41.327  32.517  33.435  1.00  0.00    -0.203 F 
ATOM     76  C   UNL A   1      39.020  32.066  33.368  1.00  0.00     0.198 A 
ATOM     77  C   UNL A   1      38.252  29.799  33.228  1.00  0.00     0.198 A 
ATOM     78  F   UNL A   1      39.794  28.024  33.099  1.00  0.00    -0.203 F 
ATOM     79  F   UNL A   1      38.766  33.383  33.372  1.00  0.00    -0.200 F 
ATOM     80  C   UNL A   1      37.979  31.160  33.248  1.00  0.00     0.200 A 
ATOM     81  F   UNL A   1      37.242  28.926  33.096  1.00  0.00    -0.200 F 
ATOM     82  F   UNL A   1      36.719  31.597  33.111  1.00  0.00    -0.200 F 
ENDBRANCH  48  72
BRANCH  60  83
ATOM     83  C   UNL A   1      45.228  24.614  33.176  1.00  0.00     0.064 A 
ATOM     84  C   UNL A   1      46.558  24.601  33.622  1.00  0.00     0.173 A 
ATOM     85  C   UNL A   1      44.455  23.488  33.567  1.00  0.00     0.173 A 
ATOM     86  F   UNL A   1      47.373  25.646  33.433  1.00  0.00    -0.203 F 
ATOM     87  C   UNL A   1      47.089  23.529  34.350  1.00  0.00     0.198 A 
ATOM     88  C   UNL A   1      44.968  22.454  34.349  1.00  0.00     0.198 A 
ATOM     89  F   UNL A   1      43.161  23.366  33.234  1.00  0.00    -0.203 F 
ATOM     90  F   UNL A   1      48.378  23.553  34.716  1.00  0.00    -0.200 F 
ATOM     91  C   UNL A   1      46.292  22.466  34.728  1.00  0.00     0.200 A 
ATOM     92  F   UNL A   1      44.161  21.461  34.752  1.00  0.00    -0.200 F 
ATOM     93  F   UNL A   1      46.790  21.472  35.473  1.00  0.00    -0.200 F 
ENDBRANCH  60  83
ENDBRANCH  34  35
ENDBRANCH  26  29
ENDBRANCH  24  25
ENDBRANCH  23  24
ENDBRANCH   1  23
TORSDOF 14
ENDMDL
MODEL 2
REMARK VINA RESULT:     -13.4      1.028      1.679
REMARK SMILES Cc1cccc(CC(=O)N2CCCC[C@@H]2C(=O)NCCCCNC(=O)c2ccc(-c3c4nc(c(-c5c(F)c(F)c(F)c(F)c5F)c5ccc([nH]5)c(-c5c(F)c(F)c(F)c(F)c5F)c5nc(c(-c6c(F)c(F)c(F)c(F)c6F)c6ccc3[nH]6)C=C5)C=C4)cc2)c1
REMARK SMILES IDX 20 1 19 2 18 3 16 4 17 5 15 7 10 8 11 9 12 10 14 11 13 12
REMARK SMILES IDX 8 13 9 14 7 15 6 16 1 17 2 18 3 19 89 20 4 21 5 22 21 23
REMARK SMILES IDX 22 24 23 25 24 26 25 28 26 29 27 30 88 31 28 32 87 33 29 34
REMARK SMILES IDX 30 35 31 36 81 37 32 38 86 39 80 40 82 41 33 42 85 43 79 44
REMARK SMILES IDX 78 45 34 47 66 48 46 49 65 50 47 51 50 52 64 53 83 54 48 55
REMARK SMILES IDX 49 56 63 58 84 59 51 60 35 61 36 62 44 63 37 64 38 65 42 66
REMARK SMILES IDX 45 67 39 68 40 69 43 70 41 71 67 72 68 73 76 74 69 75 70 76
REMARK SMILES IDX 74 77 77 78 71 79 72 80 75 81 73 82 52 83 53 84 61 85 54 86
REMARK SMILES IDX 55 87 59 88 62 89 56 90 57 91 60 92 58 93
REMARK H PARENT 18 6 23 27 82 46 50 57
REMARK Flexibility Score: inf
ROOT
ATOM      1  C   UNL A   1      31.432  29.506  26.700  1.00  0.00     0.023 C 
ENDROOT
BRANCH   1   2
ATOM      2  C   UNL A   1      31.794  28.202  27.418  1.00  0.00     0.116 C 
BRANCH   2   3
ATOM      3  N   UNL A   1      31.033  27.076  26.900  1.00  0.00    -0.354 N 
ATOM      4  C   UNL A   1      31.336  26.180  25.920  1.00  0.00     0.242 C 
ATOM      5  O   UNL A   1      30.419  25.458  25.508  1.00  0.00    -0.273 OA
ATOM      6  H   UNL A   1      30.157  26.940  27.328  1.00  0.00     0.163 HD
BRANCH   4   7
ATOM      7  C   UNL A   1      32.680  26.217  25.166  1.00  0.00     0.174 C 
ATOM      8  N   UNL A   1      32.631  26.165  23.684  1.00  0.00    -0.330 N 
ATOM      9  C   UNL A   1      33.851  25.716  23.018  1.00  0.00     0.120 C 
ATOM     10  C   UNL A   1      34.364  24.393  23.553  1.00  0.00     0.022 C 
ATOM     11  C   UNL A   1      33.411  24.986  25.780  1.00  0.00     0.035 C 
ATOM     12  C   UNL A   1      34.648  24.517  25.039  1.00  0.00     0.004 C 
BRANCH   8  13
ATOM     13  C   UNL A   1      31.771  26.893  22.863  1.00  0.00     0.227 C 
ATOM     14  O   UNL A   1      31.394  26.414  21.787  1.00  0.00    -0.275 OA
BRANCH  13  15
ATOM     15  C   UNL A   1      31.426  28.337  23.193  1.00  0.00     0.135 C 
BRANCH  15  16
ATOM     16  C   UNL A   1      29.973  28.720  23.166  1.00  0.00    -0.038 A 
ATOM     17  C   UNL A   1      27.988  31.964  23.128  1.00  0.00     0.044 C 
ATOM     18  C   UNL A   1      28.302  30.497  23.108  1.00  0.00    -0.051 A 
ATOM     19  C   UNL A   1      27.295  29.543  23.275  1.00  0.00     0.003 A 
ATOM     20  C   UNL A   1      29.634  30.075  23.041  1.00  0.00     0.007 A 
ATOM     21  C   UNL A   1      27.613  28.184  23.331  1.00  0.00     0.001 A 
ATOM     22  C   UNL A   1      28.946  27.771  23.265  1.00  0.00     0.004 A 
ENDBRANCH  15  16
ENDBRANCH  13  15
ENDBRANCH   8  13
ENDBRANCH   4   7
ENDBRANCH   2   3
ENDBRANCH   1   2
BRANCH   1  23
ATOM     23  C   UNL A   1      32.627  30.277  26.138  1.00  0.00     0.023 C 
BRANCH  23  24
ATOM     24  C   UNL A   1      33.936  29.946  26.837  1.00  0.00     0.116 C 
BRANCH  24  25
ATOM     25  N   UNL A   1      34.546  31.082  27.503  1.00  0.00    -0.352 N 
ATOM     26  C   UNL A   1      35.643  31.163  28.341  1.00  0.00     0.251 C 
ATOM     27  H   UNL A   1      34.102  31.943  27.328  1.00  0.00     0.163 HD
ATOM     28  O   UNL A   1      35.854  32.211  28.924  1.00  0.00    -0.269 OA
BRANCH  26  29
ATOM     29  C   UNL A   1      36.640  30.056  28.431  1.00  0.00     0.039 A 
ATOM     30  C   UNL A   1      36.711  29.340  29.641  1.00  0.00     0.014 A 
ATOM     31  C   UNL A   1      37.595  29.818  27.451  1.00  0.00     0.014 A 
ATOM     32  C   UNL A   1      37.839  28.577  29.941  1.00  0.00     0.010 A 
ATOM     33  C   UNL A   1      38.757  29.165  27.782  1.00  0.00     0.010 A 
ATOM     34  C   UNL A   1      38.901  28.594  29.047  1.00  0.00    -0.014 A 
BRANCH  34  35
ATOM     35  C   UNL A   1      40.234  28.078  29.304  1.00  0.00     0.031 A 
ATOM     36  C   UNL A   1      40.611  26.755  28.773  1.00  0.00     0.074 A 
ATOM     37  C   UNL A   1      41.164  28.951  29.748  1.00  0.00     0.049 A 
ATOM     38  N   UNL A   1      41.727  26.162  29.016  1.00  0.00    -0.248 NA
ATOM     39  C   UNL A   1      39.721  25.965  27.931  1.00  0.00     0.031 C 
ATOM     40  C   UNL A   1      42.614  28.852  29.620  1.00  0.00     0.029 A 
ATOM     41  N   UNL A   1      40.965  30.062  30.587  1.00  0.00    -0.354 N 
ATOM     42  C   UNL A   1      41.830  25.077  28.175  1.00  0.00     0.074 A 
ATOM     43  C   UNL A   1      40.523  24.957  27.576  1.00  0.00     0.031 C 
ATOM     44  C   UNL A   1      43.185  29.625  30.557  1.00  0.00     0.029 A 
ATOM     45  C   UNL A   1      42.113  30.096  31.416  1.00  0.00     0.049 A 
ATOM     46  H   UNL A   1      40.198  30.679  30.595  1.00  0.00     0.167 HD
ATOM     47  C   UNL A   1      43.057  24.497  28.019  1.00  0.00     0.037 A 
ATOM     48  C   UNL A   1      42.026  29.828  32.752  1.00  0.00     0.037 A 
ATOM     49  C   UNL A   1      44.011  25.083  28.963  1.00  0.00     0.049 A 
ATOM     50  C   UNL A   1      42.883  28.665  33.196  1.00  0.00     0.074 A 
ATOM     51  C   UNL A   1      44.984  26.062  28.842  1.00  0.00     0.029 A 
ATOM     52  N   UNL A   1      43.815  24.887  30.325  1.00  0.00    -0.354 N 
ATOM     53  N   UNL A   1      43.262  27.698  32.406  1.00  0.00    -0.248 NA
ATOM     54  C   UNL A   1      43.383  28.508  34.556  1.00  0.00     0.031 C 
ATOM     55  C   UNL A   1      45.338  26.489  30.147  1.00  0.00     0.029 A 
ATOM     56  C   UNL A   1      44.601  25.750  31.058  1.00  0.00     0.049 A 
ATOM     57  H   UNL A   1      43.198  24.223  30.713  1.00  0.00     0.167 HD
ATOM     58  C   UNL A   1      44.049  26.818  33.107  1.00  0.00     0.074 A 
ATOM     59  C   UNL A   1      44.098  27.372  34.446  1.00  0.00     0.031 C 
ATOM     60  C   UNL A   1      44.590  25.711  32.513  1.00  0.00     0.037 A 
BRANCH  47  61
ATOM     61  C   UNL A   1      43.486  23.574  26.892  1.00  0.00     0.064 A 
ATOM     62  C   UNL A   1      43.025  22.236  26.852  1.00  0.00     0.173 A 
ATOM     63  C   UNL A   1      44.381  23.903  25.856  1.00  0.00     0.173 A 
ATOM     64  F   UNL A   1      42.109  21.783  27.718  1.00  0.00    -0.203 F 
ATOM     65  C   UNL A   1      43.485  21.301  25.918  1.00  0.00     0.198 A 
ATOM     66  C   UNL A   1      44.867  22.961  24.942  1.00  0.00     0.198 A 
ATOM     67  F   UNL A   1      44.787  25.155  25.641  1.00  0.00    -0.203 F 
ATOM     68  F   UNL A   1      43.015  20.046  25.945  1.00  0.00    -0.200 F 
ATOM     69  C   UNL A   1      44.426  21.657  24.977  1.00  0.00     0.200 A 
ATOM     70  F   UNL A   1      45.765  23.338  24.019  1.00  0.00    -0.200 F 
ATOM     71  F   UNL A   1      44.888  20.759  24.097  1.00  0.00    -0.200 F 
ENDBRANCH  47  61
BRANCH  48  72
ATOM     72  C   UNL A   1      40.699  30.190  33.321  1.00  0.00     0.064 A 
ATOM     73  C   UNL A   1      40.414  31.559  33.502  1.00  0.00     0.173 A 
ATOM     74  C   UNL A   1      39.614  29.308  33.254  1.00  0.00     0.173 A 
ATOM     75  F   UNL A   1      41.420  32.446  33.581  1.00  0.00    -0.203 F 
ATOM     76  C   UNL A   1      39.107  32.038  33.465  1.00  0.00     0.198 A 
ATOM     77  C   UNL A   1      38.304  29.791  33.240  1.00  0.00     0.198 A 
ATOM     78  F   UNL A   1      39.817  27.994  33.076  1.00  0.00    -0.203 F 
ATOM     79  F   UNL A   1      38.876  33.358  33.507  1.00  0.00    -0.200 F 
ATOM     80  C   UNL A   1      38.054  31.155  33.300  1.00  0.00     0.200 A 
ATOM     81  F   UNL A   1      37.281  28.940  33.065  1.00  0.00    -0.200 F 
ATOM     82  F   UNL A   1      36.803  31.618  33.159  1.00  0.00    -0.200 F 
ENDBRANCH  48  72
BRANCH  60  83
ATOM     83  C   UNL A   1      45.231  24.519  33.198  1.00  0.00     0.064 A 
ATOM     84  C   UNL A   1      46.562  24.479  33.641  1.00  0.00     0.173 A 
ATOM     85  C   UNL A   1      44.439  23.404  33.583  1.00  0.00     0.173 A 
ATOM     86  F   UNL A   1      47.395  25.511  33.458  1.00  0.00    -0.203 F 
ATOM     87  C   UNL A   1      47.076  23.392  34.358  1.00  0.00     0.198 A 
ATOM     88  C   UNL A   1      44.936  22.355  34.355  1.00  0.00     0.198 A 
ATOM     89  F   UNL A   1      43.143  23.308  33.253  1.00  0.00    -0.203 F 
ATOM     90  F   UNL A   1      48.366  23.390  34.720  1.00  0.00    -0.200 F 
ATOM     91  C   UNL A   1      46.261  22.340  34.730  1.00  0.00     0.200 A 
ATOM     92  F   UNL A   1      44.113  21.373  34.752  1.00  0.00    -0.200 F 
ATOM     93  F   UNL A   1      46.744  21.331  35.465  1.00  0.00    -0.200 F 
ENDBRANCH  60  83
ENDBRANCH  34  35
ENDBRANCH  26  29
ENDBRANCH  24  25
ENDBRANCH  23  24
ENDBRANCH   1  23
TORSDOF 14
ENDMDL
MODEL 3
REMARK VINA RESULT:     -13.2      0.920      2.121
REMARK SMILES Cc1cccc(CC(=O)N2CCCC[C@@H]2C(=O)NCCCCNC(=O)c2ccc(-c3c4nc(c(-c5c(F)c(F)c(F)c(F)c5F)c5ccc([nH]5)c(-c5c(F)c(F)c(F)c(F)c5F)c5nc(c(-c6c(F)c(F)c(F)c(F)c6F)c6ccc3[nH]6)C=C5)C=C4)cc2)c1
REMARK SMILES IDX 20 1 19 2 18 3 16 4 17 5 15 7 10 8 11 9 12 10 14 11 13 12
REMARK SMILES IDX 8 13 9 14 7 15 6 16 1 17 2 18 3 19 89 20 4 21 5 22 21 23
REMARK SMILES IDX 22 24 23 25 24 26 25 28 26 29 27 30 88 31 28 32 87 33 29 34
REMARK SMILES IDX 30 35 31 36 81 37 32 38 86 39 80 40 82 41 33 42 85 43 79 44
REMARK SMILES IDX 78 45 34 47 66 48 46 49 65 50 47 51 50 52 64 53 83 54 48 55
REMARK SMILES IDX 49 56 63 58 84 59 51 60 35 61 36 62 44 63 37 64 38 65 42 66
REMARK SMILES IDX 45 67 39 68 40 69 43 70 41 71 67 72 68 73 76 74 69 75 70 76
REMARK SMILES IDX 74 77 77 78 71 79 72 80 75 81 73 82 52 83 53 84 61 85 54 86
REMARK SMILES IDX 55 87 59 88 62 89 56 90 57 91 60 92 58 93
REMARK H PARENT 18 6 23 27 82 46 50 57
REMARK Flexibility Score: inf
ROOT
ATOM      1  C   UNL A   1      31.676  28.962  26.147  1.00  0.00     0.023 C 
ENDROOT
BRANCH   1   2
ATOM      2  C   UNL A   1      31.861  27.882  27.217  1.00  0.00     0.116 C 
BRANCH   2   3
ATOM      3  N   UNL A   1      31.176  26.650  26.859  1.00  0.00    -0.354 N 
ATOM      4  C   UNL A   1      31.550  25.641  26.024  1.00  0.00     0.242 C 
ATOM      5  O   UNL A   1      30.685  24.815  25.709  1.00  0.00    -0.273 OA
ATOM      6  H   UNL A   1      30.300  26.526  27.291  1.00  0.00     0.163 HD
BRANCH   4   7
ATOM      7  C   UNL A   1      32.906  25.648  25.291  1.00  0.00     0.174 C 
ATOM      8  N   UNL A   1      32.888  25.432  23.823  1.00  0.00    -0.330 N 
ATOM      9  C   UNL A   1      34.136  24.961  23.228  1.00  0.00     0.120 C 
ATOM     10  C   UNL A   1      34.687  23.726  23.913  1.00  0.00     0.022 C 
ATOM     11  C   UNL A   1      33.670  24.521  26.047  1.00  0.00     0.035 C 
ATOM     12  C   UNL A   1      34.938  24.022  25.380  1.00  0.00     0.004 C 
BRANCH   8  13
ATOM     13  C   UNL A   1      32.016  26.033  22.914  1.00  0.00     0.227 C 
ATOM     14  O   UNL A   1      31.539  25.367  21.987  1.00  0.00    -0.275 OA
BRANCH  13  15
ATOM     15  C   UNL A   1      31.779  27.534  22.947  1.00  0.00     0.135 C 
BRANCH  15  16
ATOM     16  C   UNL A   1      30.353  28.006  22.883  1.00  0.00    -0.038 A 
ATOM     17  C   UNL A   1      28.530  31.057  21.530  1.00  0.00     0.044 C 
ATOM     18  C   UNL A   1      28.772  29.719  22.164  1.00  0.00    -0.051 A 
ATOM     19  C   UNL A   1      27.753  29.052  22.849  1.00  0.00     0.003 A 
ATOM     20  C   UNL A   1      30.063  29.181  22.175  1.00  0.00     0.007 A 
ATOM     21  C   UNL A   1      28.013  27.845  23.500  1.00  0.00     0.001 A 
ATOM     22  C   UNL A   1      29.307  27.316  23.509  1.00  0.00     0.004 A 
ENDBRANCH  15  16
ENDBRANCH  13  15
ENDBRANCH   8  13
ENDBRANCH   4   7
ENDBRANCH   2   3
ENDBRANCH   1   2
BRANCH   1  23
ATOM     23  C   UNL A   1      32.579  30.185  26.313  1.00  0.00     0.023 C 
BRANCH  23  24
ATOM     24  C   UNL A   1      33.791  29.920  27.191  1.00  0.00     0.116 C 
BRANCH  24  25
ATOM     25  N   UNL A   1      34.489  31.124  27.603  1.00  0.00    -0.352 N 
ATOM     26  C   UNL A   1      35.696  31.297  28.255  1.00  0.00     0.251 C 
ATOM     27  H   UNL A   1      34.023  31.962  27.379  1.00  0.00     0.163 HD
ATOM     28  O   UNL A   1      35.987  32.410  28.655  1.00  0.00    -0.269 OA
BRANCH  26  29
ATOM     29  C   UNL A   1      36.698  30.195  28.349  1.00  0.00     0.039 A 
ATOM     30  C   UNL A   1      36.688  29.403  29.514  1.00  0.00     0.014 A 
ATOM     31  C   UNL A   1      37.726  30.028  27.430  1.00  0.00     0.014 A 
ATOM     32  C   UNL A   1      37.801  28.632  29.848  1.00  0.00     0.010 A 
ATOM     33  C   UNL A   1      38.869  29.364  27.805  1.00  0.00     0.010 A 
ATOM     34  C   UNL A   1      38.926  28.715  29.039  1.00  0.00    -0.014 A 
BRANCH  34  35
ATOM     35  C   UNL A   1      40.243  28.194  29.362  1.00  0.00     0.031 A 
ATOM     36  C   UNL A   1      40.638  26.865  28.858  1.00  0.00     0.074 A 
ATOM     37  C   UNL A   1      41.156  29.067  29.842  1.00  0.00     0.049 A 
ATOM     38  N   UNL A   1      41.738  26.269  29.157  1.00  0.00    -0.248 NA
ATOM     39  C   UNL A   1      39.784  26.074  27.981  1.00  0.00     0.031 C 
ATOM     40  C   UNL A   1      42.609  28.959  29.782  1.00  0.00     0.029 A 
ATOM     41  N   UNL A   1      40.923  30.184  30.662  1.00  0.00    -0.354 N 
ATOM     42  C   UNL A   1      41.875  25.177  28.329  1.00  0.00     0.074 A 
ATOM     43  C   UNL A   1      40.596  25.059  27.671  1.00  0.00     0.031 C 
ATOM     44  C   UNL A   1      43.140  29.737  30.739  1.00  0.00     0.029 A 
ATOM     45  C   UNL A   1      42.032  30.219  31.544  1.00  0.00     0.049 A 
ATOM     46  H   UNL A   1      40.160  30.805  30.631  1.00  0.00     0.167 HD
ATOM     47  C   UNL A   1      43.105  24.590  28.236  1.00  0.00     0.037 A 
ATOM     48  C   UNL A   1      41.881  29.961  32.876  1.00  0.00     0.037 A 
ATOM     49  C   UNL A   1      44.017  25.179  29.218  1.00  0.00     0.049 A 
ATOM     50  C   UNL A   1      42.710  28.798  33.368  1.00  0.00     0.074 A 
ATOM     51  C   UNL A   1      44.999  26.153  29.136  1.00  0.00     0.029 A 
ATOM     52  N   UNL A   1      43.756  24.994  30.571  1.00  0.00    -0.354 N 
ATOM     53  N   UNL A   1      43.121  27.823  32.604  1.00  0.00    -0.248 NA
ATOM     54  C   UNL A   1      43.146  28.648  34.751  1.00  0.00     0.031 C 
ATOM     55  C   UNL A   1      45.294  26.587  30.453  1.00  0.00     0.029 A 
ATOM     56  C   UNL A   1      44.511  25.859  31.333  1.00  0.00     0.049 A 
ATOM     57  H   UNL A   1      43.119  24.336  30.935  1.00  0.00     0.167 HD
ATOM     58  C   UNL A   1      43.870  26.944  33.347  1.00  0.00     0.074 A 
ATOM     59  C   UNL A   1      43.859  27.508  34.683  1.00  0.00     0.031 C 
ATOM     60  C   UNL A   1      44.432  25.830  32.787  1.00  0.00     0.037 A 
BRANCH  47  61
ATOM     61  C   UNL A   1      43.581  23.657  27.136  1.00  0.00     0.064 A 
ATOM     62  C   UNL A   1      44.418  24.144  26.102  1.00  0.00     0.173 A 
ATOM     63  C   UNL A   1      43.221  22.304  26.993  1.00  0.00     0.173 A 
ATOM     64  F   UNL A   1      44.915  25.387  26.128  1.00  0.00    -0.203 F 
ATOM     65  C   UNL A   1      44.783  23.372  24.993  1.00  0.00     0.198 A 
ATOM     66  C   UNL A   1      43.558  21.541  25.869  1.00  0.00     0.198 A 
ATOM     67  F   UNL A   1      42.577  21.637  27.951  1.00  0.00    -0.203 F 
ATOM     68  F   UNL A   1      45.568  23.900  24.044  1.00  0.00    -0.200 F 
ATOM     69  C   UNL A   1      44.331  22.077  24.863  1.00  0.00     0.200 A 
ATOM     70  F   UNL A   1      43.127  20.274  25.777  1.00  0.00    -0.200 F 
ATOM     71  F   UNL A   1      44.658  21.342  23.792  1.00  0.00    -0.200 F 
ENDBRANCH  47  61
BRANCH  48  72
ATOM     72  C   UNL A   1      40.531  30.334  33.380  1.00  0.00     0.064 A 
ATOM     73  C   UNL A   1      40.250  31.705  33.552  1.00  0.00     0.173 A 
ATOM     74  C   UNL A   1      39.443  29.462  33.257  1.00  0.00     0.173 A 
ATOM     75  F   UNL A   1      41.259  32.583  33.683  1.00  0.00    -0.203 F 
ATOM     76  C   UNL A   1      38.951  32.196  33.452  1.00  0.00     0.198 A 
ATOM     77  C   UNL A   1      38.139  29.957  33.180  1.00  0.00     0.198 A 
ATOM     78  F   UNL A   1      39.642  28.147  33.085  1.00  0.00    -0.203 F 
ATOM     79  F   UNL A   1      38.730  33.518  33.488  1.00  0.00    -0.200 F 
ATOM     80  C   UNL A   1      37.899  31.323  33.232  1.00  0.00     0.200 A 
ATOM     81  F   UNL A   1      37.119  29.116  32.951  1.00  0.00    -0.200 F 
ATOM     82  F   UNL A   1      36.661  31.798  33.031  1.00  0.00    -0.200 F 
ENDBRANCH  48  72
BRANCH  60  83
ATOM     83  C   UNL A   1      45.035  24.640  33.510  1.00  0.00     0.064 A 
ATOM     84  C   UNL A   1      44.356  23.439  33.765  1.00  0.00     0.173 A 
ATOM     85  C   UNL A   1      46.419  24.626  33.832  1.00  0.00     0.173 A 
ATOM     86  F   UNL A   1      43.079  23.263  33.405  1.00  0.00    -0.203 F 
ATOM     87  C   UNL A   1      44.990  22.334  34.346  1.00  0.00     0.198 A 
ATOM     88  C   UNL A   1      47.062  23.501  34.348  1.00  0.00     0.198 A 
ATOM     89  F   UNL A   1      47.206  25.692  33.626  1.00  0.00    -0.203 F 
ATOM     90  F   UNL A   1      44.282  21.227  34.605  1.00  0.00    -0.200 F 
ATOM     91  C   UNL A   1      46.344  22.359  34.621  1.00  0.00     0.200 A 
ATOM     92  F   UNL A   1      48.387  23.529  34.553  1.00  0.00    -0.200 F 
ATOM     93  F   UNL A   1      46.957  21.280  35.123  1.00  0.00    -0.200 F 
ENDBRANCH  60  83
ENDBRANCH  34  35
ENDBRANCH  26  29
ENDBRANCH  24  25
ENDBRANCH  23  24
ENDBRANCH   1  23
TORSDOF 14
ENDMDL
