MODEL 1
REMARK VINA RESULT:     -12.8      0.000      0.000
REMARK SMILES CCCCn1c(C[N@H+]2C[C@H]3C(=O)NC[C@@]3(C(=O)NCCCCNC(=O)c3ccc(-c4c5nc(c(-c6c(F)c(F)c(F)c(F)c6F)c6ccc([nH]6)c(-c6c(F)c(F)c(F)c(F)c6F)c6nc(c(-c7c(F)c(F)c(F)c(F)c7F)c7ccc4[nH]7)C=C6)C=C5)cc3)C2)nc2ccccc21
REMARK SMILES IDX 19 1 18 2 16 3 17 4 15 6 8 7 9 8 89 9 10 11 11 12 14 13
REMARK SMILES IDX 12 14 13 15 7 17 6 18 5 19 96 20 90 21 91 22 95 23 92 24
REMARK SMILES IDX 94 25 93 26 4 27 3 28 2 29 1 30 20 31 21 32 22 33 23 34
REMARK SMILES IDX 24 35 25 37 26 38 27 39 88 40 28 41 87 42 29 43 30 44 31 45
REMARK SMILES IDX 81 46 32 47 86 48 80 49 82 50 33 51 85 52 79 53 78 54 34 56
REMARK SMILES IDX 66 57 46 58 65 59 47 60 50 61 64 62 83 63 48 64 49 65 63 67
REMARK SMILES IDX 84 68 51 69 35 70 36 71 44 72 37 73 38 74 42 75 45 76 39 77
REMARK SMILES IDX 40 78 43 79 41 80 67 81 68 82 76 83 69 84 70 85 74 86 77 87
REMARK SMILES IDX 71 88 72 89 75 90 73 91 52 92 53 93 61 94 54 95 55 96 59 97
REMARK SMILES IDX 62 98 56 99 57 100 60 101 58 102
REMARK H PARENT 18 5 8 10 13 16 23 36 82 55 50 66
REMARK Flexibility Score: inf
ROOT
ATOM      1  C   UNL A   1      33.862  28.078  26.412  1.00  0.00     0.116 C 
ENDROOT
BRANCH   1   2
ATOM      2  N   UNL A   1      34.151  28.615  25.094  1.00  0.00    -0.355 N 
ATOM      3  C   UNL A   1      33.462  28.361  23.926  1.00  0.00     0.234 C 
ATOM      4  O   UNL A   1      33.982  28.702  22.862  1.00  0.00    -0.274 OA
ATOM      5  H   UNL A   1      34.921  29.223  25.027  1.00  0.00     0.163 HD
BRANCH   3   6
ATOM      6  C   UNL A   1      32.050  27.678  24.063  1.00  0.00     0.132 C 
ATOM      7  N   UNL A   1      31.953  25.190  23.816  1.00  0.00    -0.327 N 
ATOM      8  C   UNL A   1      30.629  25.687  23.515  1.00  0.00     0.277 C 
ATOM      9  C   UNL A   1      32.836  26.353  23.682  1.00  0.00     0.282 C 
ATOM     10  H   UNL A   1      32.214  24.460  23.153  1.00  0.00     0.348 HD
ATOM     11  C   UNL A   1      30.898  27.120  23.111  1.00  0.00     0.156 C 
ATOM     12  C   UNL A   1      29.658  27.910  23.361  1.00  0.00     0.230 C 
ATOM     13  C   UNL A   1      31.510  29.147  23.775  1.00  0.00     0.139 C 
ATOM     14  O   UNL A   1      28.493  27.582  23.148  1.00  0.00    -0.275 OA
ATOM     15  N   UNL A   1      30.082  29.116  23.802  1.00  0.00    -0.354 N 
ATOM     16  H   UNL A   1      29.500  29.855  24.096  1.00  0.00     0.163 HD
BRANCH   7  17
ATOM     17  C   UNL A   1      32.112  24.362  25.020  1.00  0.00     0.339 C 
BRANCH  17  18
ATOM     18  C   UNL A   1      33.454  23.728  25.310  1.00  0.00     0.165 A 
ATOM     19  N   UNL A   1      33.843  22.458  24.892  1.00  0.00    -0.323 N 
ATOM     20  C   UNL A   1      35.212  22.350  25.083  1.00  0.00     0.068 A 
ATOM     21  N   UNL A   1      34.478  24.349  25.869  1.00  0.00    -0.227 NA
ATOM     22  C   UNL A   1      35.570  23.540  25.700  1.00  0.00     0.089 A 
ATOM     23  C   UNL A   1      36.167  21.380  24.735  1.00  0.00     0.028 A 
ATOM     24  C   UNL A   1      36.922  23.807  25.976  1.00  0.00     0.030 A 
ATOM     25  C   UNL A   1      37.514  21.683  24.974  1.00  0.00     0.002 A 
ATOM     26  C   UNL A   1      37.891  22.881  25.575  1.00  0.00     0.002 A 
BRANCH  19  27
ATOM     27  C   UNL A   1      33.051  21.485  24.154  1.00  0.00     0.124 C 
BRANCH  27  28
ATOM     28  C   UNL A   1      32.252  20.488  25.005  1.00  0.00     0.022 C 
BRANCH  28  29
ATOM     29  C   UNL A   1      32.965  19.185  25.365  1.00  0.00    -0.002 C 
ATOM     30  C   UNL A   1      33.759  18.536  24.240  1.00  0.00     0.004 C 
ENDBRANCH  28  29
ENDBRANCH  27  28
ENDBRANCH  19  27
ENDBRANCH  17  18
ENDBRANCH   7  17
ENDBRANCH   3   6
ENDBRANCH   1   2
BRANCH   1  31
ATOM     31  C   UNL A   1      33.976  29.171  27.485  1.00  0.00     0.023 C 
BRANCH  31  32
ATOM     32  C   UNL A   1      35.193  30.076  27.316  1.00  0.00     0.023 C 
BRANCH  32  33
ATOM     33  C   UNL A   1      34.943  31.530  27.720  1.00  0.00     0.116 C 
BRANCH  33  34
ATOM     34  N   UNL A   1      34.569  31.678  29.112  1.00  0.00    -0.352 N 
ATOM     35  C   UNL A   1      35.312  31.819  30.250  1.00  0.00     0.251 C 
ATOM     36  H   UNL A   1      33.597  31.678  29.266  1.00  0.00     0.163 HD
ATOM     37  O   UNL A   1      34.836  32.467  31.182  1.00  0.00    -0.269 OA
BRANCH  35  38
ATOM     38  C   UNL A   1      36.589  31.100  30.468  1.00  0.00     0.039 A 
ATOM     39  C   UNL A   1      37.843  31.682  30.300  1.00  0.00     0.014 A 
ATOM     40  C   UNL A   1      36.498  29.711  30.677  1.00  0.00     0.014 A 
ATOM     41  C   UNL A   1      38.973  30.893  30.239  1.00  0.00     0.010 A 
ATOM     42  C   UNL A   1      37.632  28.912  30.631  1.00  0.00     0.010 A 
ATOM     43  C   UNL A   1      38.859  29.509  30.363  1.00  0.00    -0.014 A 
BRANCH  43  44
ATOM     44  C   UNL A   1      40.101  28.761  30.274  1.00  0.00     0.031 A 
ATOM     45  C   UNL A   1      40.851  28.644  31.556  1.00  0.00     0.074 A 
ATOM     46  C   UNL A   1      40.527  28.190  29.136  1.00  0.00     0.049 A 
ATOM     47  N   UNL A   1      42.065  29.009  31.816  1.00  0.00    -0.248 NA
ATOM     48  C   UNL A   1      40.106  28.150  32.725  1.00  0.00     0.031 C 
ATOM     49  C   UNL A   1      39.795  28.006  27.882  1.00  0.00     0.029 A 
ATOM     50  N   UNL A   1      41.706  27.550  28.907  1.00  0.00    -0.354 N 
ATOM     51  C   UNL A   1      42.292  28.659  33.144  1.00  0.00     0.074 A 
ATOM     52  C   UNL A   1      41.025  28.240  33.685  1.00  0.00     0.031 C 
ATOM     53  C   UNL A   1      40.452  27.107  27.118  1.00  0.00     0.029 A 
ATOM     54  C   UNL A   1      41.699  26.753  27.775  1.00  0.00     0.049 A 
ATOM     55  H   UNL A   1      42.491  27.645  29.492  1.00  0.00     0.167 HD
ATOM     56  C   UNL A   1      43.546  28.560  33.662  1.00  0.00     0.037 A 
ATOM     57  C   UNL A   1      42.606  25.794  27.473  1.00  0.00     0.037 A 
ATOM     58  C   UNL A   1      44.498  29.324  32.908  1.00  0.00     0.049 A 
ATOM     59  C   UNL A   1      43.844  26.085  28.241  1.00  0.00     0.074 A 
ATOM     60  C   UNL A   1      44.650  30.667  32.624  1.00  0.00     0.029 A 
ATOM     61  N   UNL A   1      45.334  28.668  32.040  1.00  0.00    -0.354 N 
ATOM     62  N   UNL A   1      44.614  27.117  28.028  1.00  0.00    -0.248 NA
ATOM     63  C   UNL A   1      44.005  25.446  29.539  1.00  0.00     0.031 C 
ATOM     64  C   UNL A   1      45.177  30.709  31.302  1.00  0.00     0.029 A 
ATOM     65  C   UNL A   1      45.341  29.390  30.876  1.00  0.00     0.049 A 
ATOM     66  H   UNL A   1      45.832  27.837  32.218  1.00  0.00     0.167 HD
ATOM     67  C   UNL A   1      45.049  27.502  29.288  1.00  0.00     0.074 A 
ATOM     68  C   UNL A   1      44.721  26.383  30.165  1.00  0.00     0.031 C 
ATOM     69  C   UNL A   1      45.381  28.798  29.559  1.00  0.00     0.037 A 
BRANCH  56  70
ATOM     70  C   UNL A   1      43.953  27.510  34.662  1.00  0.00     0.064 A 
ATOM     71  C   UNL A   1      43.846  26.147  34.325  1.00  0.00     0.173 A 
ATOM     72  C   UNL A   1      44.156  27.786  36.032  1.00  0.00     0.173 A 
ATOM     73  F   UNL A   1      43.625  25.771  33.057  1.00  0.00    -0.203 F 
ATOM     74  C   UNL A   1      43.869  25.144  35.297  1.00  0.00     0.198 A 
ATOM     75  C   UNL A   1      44.233  26.780  36.992  1.00  0.00     0.198 A 
ATOM     76  F   UNL A   1      44.173  29.037  36.509  1.00  0.00    -0.203 F 
ATOM     77  F   UNL A   1      43.640  23.871  34.946  1.00  0.00    -0.200 F 
ATOM     78  C   UNL A   1      44.058  25.462  36.630  1.00  0.00     0.200 A 
ATOM     79  F   UNL A   1      44.396  27.112  38.281  1.00  0.00    -0.200 F 
ATOM     80  F   UNL A   1      44.020  24.510  37.570  1.00  0.00    -0.200 F 
ENDBRANCH  56  70
BRANCH  57  81
ATOM     81  C   UNL A   1      42.317  24.477  26.855  1.00  0.00     0.064 A 
ATOM     82  C   UNL A   1      43.141  23.950  25.849  1.00  0.00     0.173 A 
ATOM     83  C   UNL A   1      41.365  23.594  27.408  1.00  0.00     0.173 A 
ATOM     84  F   UNL A   1      44.113  24.702  25.312  1.00  0.00    -0.203 F 
ATOM     85  C   UNL A   1      43.020  22.622  25.425  1.00  0.00     0.198 A 
ATOM     86  C   UNL A   1      41.236  22.276  26.975  1.00  0.00     0.198 A 
ATOM     87  F   UNL A   1      40.600  23.962  28.446  1.00  0.00    -0.203 F 
ATOM     88  F   UNL A   1      43.862  22.135  24.502  1.00  0.00    -0.200 F 
ATOM     89  C   UNL A   1      42.070  21.786  25.991  1.00  0.00     0.200 A 
ATOM     90  F   UNL A   1      40.337  21.471  27.558  1.00  0.00    -0.200 F 
ATOM     91  F   UNL A   1      41.987  20.501  25.618  1.00  0.00    -0.200 F 
ENDBRANCH  57  81
BRANCH  69  92
ATOM     92  C   UNL A   1      45.515  29.756  28.411  1.00  0.00     0.064 A 
ATOM     93  C   UNL A   1      44.426  30.445  27.850  1.00  0.00     0.173 A 
ATOM     94  C   UNL A   1      46.801  30.146  28.014  1.00  0.00     0.173 A 
ATOM     95  F   UNL A   1      43.173  30.200  28.255  1.00  0.00    -0.203 F 
ATOM     96  C   UNL A   1      44.618  31.463  26.919  1.00  0.00     0.198 A 
ATOM     97  C   UNL A   1      46.992  31.187  27.110  1.00  0.00     0.198 A 
ATOM     98  F   UNL A   1      47.879  29.564  28.562  1.00  0.00    -0.203 F 
ATOM     99  F   UNL A   1      43.564  32.114  26.407  1.00  0.00    -0.200 F 
ATOM    100  C   UNL A   1      45.902  31.842  26.559  1.00  0.00     0.200 A 
ATOM    101  F   UNL A   1      48.235  31.586  26.805  1.00  0.00    -0.200 F 
ATOM    102  F   UNL A   1      46.089  32.862  25.711  1.00  0.00    -0.200 F 
ENDBRANCH  69  92
ENDBRANCH  43  44
ENDBRANCH  35  38
ENDBRANCH  33  34
ENDBRANCH  32  33
ENDBRANCH  31  32
ENDBRANCH   1  31
TORSDOF 16
ENDMDL
MODEL 2
REMARK VINA RESULT:     -12.5      3.346      8.814
REMARK SMILES CCCCn1c(C[N@H+]2C[C@H]3C(=O)NC[C@@]3(C(=O)NCCCCNC(=O)c3ccc(-c4c5nc(c(-c6c(F)c(F)c(F)c(F)c6F)c6ccc([nH]6)c(-c6c(F)c(F)c(F)c(F)c6F)c6nc(c(-c7c(F)c(F)c(F)c(F)c7F)c7ccc4[nH]7)C=C6)C=C5)cc3)C2)nc2ccccc21
REMARK SMILES IDX 19 1 18 2 16 3 17 4 15 6 8 7 9 8 89 9 10 11 11 12 14 13
REMARK SMILES IDX 12 14 13 15 7 17 6 18 5 19 96 20 90 21 91 22 95 23 92 24
REMARK SMILES IDX 94 25 93 26 4 27 3 28 2 29 1 30 20 31 21 32 22 33 23 34
REMARK SMILES IDX 24 35 25 37 26 38 27 39 88 40 28 41 87 42 29 43 30 44 31 45
REMARK SMILES IDX 81 46 32 47 86 48 80 49 82 50 33 51 85 52 79 53 78 54 34 56
REMARK SMILES IDX 66 57 46 58 65 59 47 60 50 61 64 62 83 63 48 64 49 65 63 67
REMARK SMILES IDX 84 68 51 69 35 70 36 71 44 72 37 73 38 74 42 75 45 76 39 77
REMARK SMILES IDX 40 78 43 79 41 80 67 81 68 82 76 83 69 84 70 85 74 86 77 87
REMARK SMILES IDX 71 88 72 89 75 90 73 91 52 92 53 93 61 94 54 95 55 96 59 97
REMARK SMILES IDX 62 98 56 99 57 100 60 101 58 102
REMARK H PARENT 18 5 8 10 13 16 23 36 82 55 50 66
REMARK Flexibility Score: inf
ROOT
ATOM      1  C   UNL A   1      36.537  23.444  25.703  1.00  0.00     0.116 C 
ENDROOT
BRANCH   1   2
ATOM      2  N   UNL A   1      35.708  23.029  26.820  1.00  0.00    -0.355 N 
ATOM      3  C   UNL A   1      34.378  22.665  26.774  1.00  0.00     0.234 C 
ATOM      4  O   UNL A   1      33.766  22.576  27.841  1.00  0.00    -0.274 OA
ATOM      5  H   UNL A   1      36.141  23.005  27.703  1.00  0.00     0.163 HD
BRANCH   3   6
ATOM      6  C   UNL A   1      33.764  22.372  25.354  1.00  0.00     0.132 C 
ATOM      7  N   UNL A   1      32.132  24.035  24.445  1.00  0.00    -0.327 N 
ATOM      8  C   UNL A   1      31.865  22.784  23.771  1.00  0.00     0.277 C 
ATOM      9  C   UNL A   1      32.896  23.669  25.641  1.00  0.00     0.282 C 
ATOM     10  H   UNL A   1      31.256  24.490  24.701  1.00  0.00     0.348 HD
ATOM     11  C   UNL A   1      32.426  21.763  24.737  1.00  0.00     0.156 C 
ATOM     12  C   UNL A   1      32.780  20.540  23.960  1.00  0.00     0.230 C 
ATOM     13  C   UNL A   1      34.246  20.885  25.653  1.00  0.00     0.139 C 
ATOM     14  O   UNL A   1      32.152  20.013  23.045  1.00  0.00    -0.275 OA
ATOM     15  N   UNL A   1      33.914  20.068  24.528  1.00  0.00    -0.354 N 
ATOM     16  H   UNL A   1      34.429  19.289  24.216  1.00  0.00     0.163 HD
BRANCH   7  17
ATOM     17  C   UNL A   1      32.647  25.149  23.635  1.00  0.00     0.339 C 
BRANCH  17  18
ATOM     18  C   UNL A   1      32.865  26.497  24.285  1.00  0.00     0.165 A 
ATOM     19  N   UNL A   1      31.919  27.516  24.342  1.00  0.00    -0.323 N 
ATOM     20  C   UNL A   1      32.367  28.458  25.255  1.00  0.00     0.068 A 
ATOM     21  N   UNL A   1      33.924  26.826  25.004  1.00  0.00    -0.227 NA
ATOM     22  C   UNL A   1      33.619  28.001  25.639  1.00  0.00     0.089 A 
ATOM     23  C   UNL A   1      31.795  29.610  25.820  1.00  0.00     0.028 A 
ATOM     24  C   UNL A   1      34.342  28.686  26.631  1.00  0.00     0.030 A 
ATOM     25  C   UNL A   1      32.507  30.254  26.841  1.00  0.00     0.002 A 
ATOM     26  C   UNL A   1      33.757  29.796  27.251  1.00  0.00     0.002 A 
BRANCH  19  27
ATOM     27  C   UNL A   1      30.582  27.520  23.767  1.00  0.00     0.124 C 
BRANCH  27  28
ATOM     28  C   UNL A   1      30.420  28.297  22.453  1.00  0.00     0.022 C 
BRANCH  28  29
ATOM     29  C   UNL A   1      29.234  29.258  22.379  1.00  0.00    -0.002 C 
ATOM     30  C   UNL A   1      29.155  30.294  23.492  1.00  0.00     0.004 C 
ENDBRANCH  28  29
ENDBRANCH  27  28
ENDBRANCH  19  27
ENDBRANCH  17  18
ENDBRANCH   7  17
ENDBRANCH   3   6
ENDBRANCH   1   2
BRANCH   1  31
ATOM     31  C   UNL A   1      37.887  22.712  25.721  1.00  0.00     0.023 C 
BRANCH  31  32
ATOM     32  C   UNL A   1      38.882  23.279  26.730  1.00  0.00     0.023 C 
BRANCH  32  33
ATOM     33  C   UNL A   1      40.143  22.430  26.898  1.00  0.00     0.116 C 
BRANCH  33  34
ATOM     34  N   UNL A   1      41.119  22.647  25.850  1.00  0.00    -0.352 N 
ATOM     35  C   UNL A   1      42.214  23.460  25.772  1.00  0.00     0.251 C 
ATOM     36  H   UNL A   1      40.965  22.105  25.043  1.00  0.00     0.163 HD
ATOM     37  O   UNL A   1      43.167  23.093  25.085  1.00  0.00    -0.269 OA
BRANCH  35  38
ATOM     38  C   UNL A   1      42.241  24.826  26.347  1.00  0.00     0.039 A 
ATOM     39  C   UNL A   1      42.912  25.157  27.521  1.00  0.00     0.014 A 
ATOM     40  C   UNL A   1      41.386  25.773  25.752  1.00  0.00     0.014 A 
ATOM     41  C   UNL A   1      42.664  26.362  28.147  1.00  0.00     0.010 A 
ATOM     42  C   UNL A   1      41.141  26.991  26.369  1.00  0.00     0.010 A 
ATOM     43  C   UNL A   1      41.749  27.256  27.592  1.00  0.00    -0.014 A 
BRANCH  43  44
ATOM     44  C   UNL A   1      41.545  28.491  28.328  1.00  0.00     0.031 A 
ATOM     45  C   UNL A   1      42.614  29.511  28.142  1.00  0.00     0.074 A 
ATOM     46  C   UNL A   1      40.462  28.713  29.090  1.00  0.00     0.049 A 
ATOM     47  N   UNL A   1      43.352  30.079  29.041  1.00  0.00    -0.248 NA
ATOM     48  C   UNL A   1      42.973  29.861  26.758  1.00  0.00     0.031 C 
ATOM     49  C   UNL A   1      39.231  27.927  29.172  1.00  0.00     0.029 A 
ATOM     50  N   UNL A   1      40.204  29.782  29.893  1.00  0.00    -0.354 N 
ATOM     51  C   UNL A   1      44.173  30.969  28.353  1.00  0.00     0.074 A 
ATOM     52  C   UNL A   1      43.978  30.714  26.950  1.00  0.00     0.031 C 
ATOM     53  C   UNL A   1      38.280  28.662  29.789  1.00  0.00     0.029 A 
ATOM     54  C   UNL A   1      38.873  29.907  30.247  1.00  0.00     0.049 A 
ATOM     55  H   UNL A   1      40.902  30.408  30.194  1.00  0.00     0.167 HD
ATOM     56  C   UNL A   1      44.823  31.985  28.981  1.00  0.00     0.037 A 
ATOM     57  C   UNL A   1      38.291  31.010  30.776  1.00  0.00     0.037 A 
ATOM     58  C   UNL A   1      44.993  31.728  30.383  1.00  0.00     0.049 A 
ATOM     59  C   UNL A   1      39.364  31.837  31.385  1.00  0.00     0.074 A 
ATOM     60  C   UNL A   1      45.660  30.763  31.113  1.00  0.00     0.029 A 
ATOM     61  N   UNL A   1      44.164  32.358  31.276  1.00  0.00    -0.354 N 
ATOM     62  N   UNL A   1      40.052  31.489  32.438  1.00  0.00    -0.248 NA
ATOM     63  C   UNL A   1      39.966  32.880  30.567  1.00  0.00     0.031 C 
ATOM     64  C   UNL A   1      44.849  30.543  32.263  1.00  0.00     0.029 A 
ATOM     65  C   UNL A   1      43.757  31.408  32.176  1.00  0.00     0.049 A 
ATOM     66  H   UNL A   1      43.909  33.309  31.271  1.00  0.00     0.167 HD
ATOM     67  C   UNL A   1      41.335  31.958  32.197  1.00  0.00     0.074 A 
ATOM     68  C   UNL A   1      41.198  32.887  31.079  1.00  0.00     0.031 C 
ATOM     69  C   UNL A   1      42.429  31.347  32.739  1.00  0.00     0.037 A 
BRANCH  56  70
ATOM     70  C   UNL A   1      45.014  33.351  28.375  1.00  0.00     0.064 A 
ATOM     71  C   UNL A   1      46.314  33.868  28.218  1.00  0.00     0.173 A 
ATOM     72  C   UNL A   1      43.963  34.282  28.222  1.00  0.00     0.173 A 
ATOM     73  F   UNL A   1      47.387  33.078  28.368  1.00  0.00    -0.203 F 
ATOM     74  C   UNL A   1      46.544  35.228  27.997  1.00  0.00     0.198 A 
ATOM     75  C   UNL A   1      44.194  35.628  27.948  1.00  0.00     0.198 A 
ATOM     76  F   UNL A   1      42.685  33.953  28.445  1.00  0.00    -0.203 F 
ATOM     77  F   UNL A   1      47.799  35.697  27.978  1.00  0.00    -0.200 F 
ATOM     78  C   UNL A   1      45.484  36.108  27.868  1.00  0.00     0.200 A 
ATOM     79  F   UNL A   1      43.154  36.467  27.846  1.00  0.00    -0.200 F 
ATOM     80  F   UNL A   1      45.701  37.420  27.717  1.00  0.00    -0.200 F 
ENDBRANCH  56  70
BRANCH  57  81
ATOM     81  C   UNL A   1      36.940  31.529  30.454  1.00  0.00     0.064 A 
ATOM     82  C   UNL A   1      36.026  31.855  31.468  1.00  0.00     0.173 A 
ATOM     83  C   UNL A   1      36.602  31.950  29.150  1.00  0.00     0.173 A 
ATOM     84  F   UNL A   1      36.297  31.547  32.744  1.00  0.00    -0.203 F 
ATOM     85  C   UNL A   1      34.848  32.559  31.192  1.00  0.00     0.198 A 
ATOM     86  C   UNL A   1      35.422  32.638  28.875  1.00  0.00     0.198 A 
ATOM     87  F   UNL A   1      37.452  31.785  28.127  1.00  0.00    -0.203 F 
ATOM     88  F   UNL A   1      34.025  32.902  32.193  1.00  0.00    -0.200 F 
ATOM     89  C   UNL A   1      34.549  32.952  29.897  1.00  0.00     0.200 A 
ATOM     90  F   UNL A   1      35.166  33.043  27.623  1.00  0.00    -0.200 F 
ATOM     91  F   UNL A   1      33.445  33.667  29.641  1.00  0.00    -0.200 F 
ENDBRANCH  57  81
BRANCH  69  92
ATOM     92  C   UNL A   1      42.213  30.313  33.805  1.00  0.00     0.064 A 
ATOM     93  C   UNL A   1      41.930  28.965  33.527  1.00  0.00     0.173 A 
ATOM     94  C   UNL A   1      42.513  30.651  35.132  1.00  0.00     0.173 A 
ATOM     95  F   UNL A   1      41.735  28.547  32.270  1.00  0.00    -0.203 F 
ATOM     96  C   UNL A   1      41.927  28.005  34.537  1.00  0.00     0.198 A 
ATOM     97  C   UNL A   1      42.545  29.684  36.133  1.00  0.00     0.198 A 
ATOM     98  F   UNL A   1      42.850  31.912  35.445  1.00  0.00    -0.203 F 
ATOM     99  F   UNL A   1      41.666  26.723  34.245  1.00  0.00    -0.200 F 
ATOM    100  C   UNL A   1      42.247  28.363  35.837  1.00  0.00     0.200 A 
ATOM    101  F   UNL A   1      42.907  30.024  37.378  1.00  0.00    -0.200 F 
ATOM    102  F   UNL A   1      42.306  27.429  36.796  1.00  0.00    -0.200 F 
ENDBRANCH  69  92
ENDBRANCH  43  44
ENDBRANCH  35  38
ENDBRANCH  33  34
ENDBRANCH  32  33
ENDBRANCH  31  32
ENDBRANCH   1  31
TORSDOF 16
ENDMDL
MODEL 3
REMARK VINA RESULT:     -12.4      1.078      2.292
REMARK SMILES CCCCn1c(C[N@H+]2C[C@H]3C(=O)NC[C@@]3(C(=O)NCCCCNC(=O)c3ccc(-c4c5nc(c(-c6c(F)c(F)c(F)c(F)c6F)c6ccc([nH]6)c(-c6c(F)c(F)c(F)c(F)c6F)c6nc(c(-c7c(F)c(F)c(F)c(F)c7F)c7ccc4[nH]7)C=C6)C=C5)cc3)C2)nc2ccccc21
REMARK SMILES IDX 19 1 18 2 16 3 17 4 15 6 8 7 9 8 89 9 10 11 11 12 14 13
REMARK SMILES IDX 12 14 13 15 7 17 6 18 5 19 96 20 90 21 91 22 95 23 92 24
REMARK SMILES IDX 94 25 93 26 4 27 3 28 2 29 1 30 20 31 21 32 22 33 23 34
REMARK SMILES IDX 24 35 25 37 26 38 27 39 88 40 28 41 87 42 29 43 30 44 31 45
REMARK SMILES IDX 81 46 32 47 86 48 80 49 82 50 33 51 85 52 79 53 78 54 34 56
REMARK SMILES IDX 66 57 46 58 65 59 47 60 50 61 64 62 83 63 48 64 49 65 63 67
REMARK SMILES IDX 84 68 51 69 35 70 36 71 44 72 37 73 38 74 42 75 45 76 39 77
REMARK SMILES IDX 40 78 43 79 41 80 67 81 68 82 76 83 69 84 70 85 74 86 77 87
REMARK SMILES IDX 71 88 72 89 75 90 73 91 52 92 53 93 61 94 54 95 55 96 59 97
REMARK SMILES IDX 62 98 56 99 57 100 60 101 58 102
REMARK H PARENT 18 5 8 10 13 16 23 36 82 55 50 66
REMARK Flexibility Score: inf
ROOT
ATOM      1  C   UNL A   1      33.958  28.598  25.415  1.00  0.00     0.116 C 
ENDROOT
BRANCH   1   2
ATOM      2  N   UNL A   1      32.831  29.142  24.679  1.00  0.00    -0.355 N 
ATOM      3  C   UNL A   1      31.774  28.437  24.140  1.00  0.00     0.234 C 
ATOM      4  O   UNL A   1      31.036  29.020  23.345  1.00  0.00    -0.274 OA
ATOM      5  H   UNL A   1      32.819  30.117  24.551  1.00  0.00     0.163 HD
BRANCH   3   6
ATOM      6  C   UNL A   1      31.593  26.946  24.615  1.00  0.00     0.132 C 
ATOM      7  N   UNL A   1      31.561  25.177  22.846  1.00  0.00    -0.327 N 
ATOM      8  C   UNL A   1      30.873  24.627  23.992  1.00  0.00     0.277 C 
ATOM      9  C   UNL A   1      31.560  26.628  23.060  1.00  0.00     0.282 C 
ATOM     10  H   UNL A   1      31.062  24.938  21.989  1.00  0.00     0.348 HD
ATOM     11  C   UNL A   1      30.425  25.867  24.735  1.00  0.00     0.156 C 
ATOM     12  C   UNL A   1      30.262  25.509  26.174  1.00  0.00     0.230 C 
ATOM     13  C   UNL A   1      31.037  27.625  25.942  1.00  0.00     0.139 C 
ATOM     14  O   UNL A   1      29.778  24.486  26.651  1.00  0.00    -0.275 OA
ATOM     15  N   UNL A   1      30.686  26.592  26.864  1.00  0.00    -0.354 N 
ATOM     16  H   UNL A   1      30.745  26.658  27.845  1.00  0.00     0.163 HD
BRANCH   7  17
ATOM     17  C   UNL A   1      32.835  24.558  22.454  1.00  0.00     0.339 C 
BRANCH  17  18
ATOM     18  C   UNL A   1      33.107  23.119  22.834  1.00  0.00     0.165 A 
ATOM     19  N   UNL A   1      34.050  22.707  23.770  1.00  0.00    -0.323 N 
ATOM     20  C   UNL A   1      33.804  21.374  24.060  1.00  0.00     0.068 A 
ATOM     21  N   UNL A   1      32.387  22.084  22.435  1.00  0.00    -0.227 NA
ATOM     22  C   UNL A   1      32.771  21.019  23.205  1.00  0.00     0.089 A 
ATOM     23  C   UNL A   1      34.327  20.473  25.003  1.00  0.00     0.028 A 
ATOM     24  C   UNL A   1      32.207  19.733  23.283  1.00  0.00     0.030 A 
ATOM     25  C   UNL A   1      33.723  19.212  25.100  1.00  0.00     0.002 A 
ATOM     26  C   UNL A   1      32.671  18.848  24.262  1.00  0.00     0.002 A 
BRANCH  19  27
ATOM     27  C   UNL A   1      34.977  23.539  24.522  1.00  0.00     0.124 C 
BRANCH  27  28
ATOM     28  C   UNL A   1      36.461  23.385  24.159  1.00  0.00     0.022 C 
BRANCH  28  29
ATOM     29  C   UNL A   1      37.381  22.886  25.273  1.00  0.00    -0.002 C 
ATOM     30  C   UNL A   1      37.835  23.940  26.273  1.00  0.00     0.004 C 
ENDBRANCH  28  29
ENDBRANCH  27  28
ENDBRANCH  19  27
ENDBRANCH  17  18
ENDBRANCH   7  17
ENDBRANCH   3   6
ENDBRANCH   1   2
BRANCH   1  31
ATOM     31  C   UNL A   1      33.893  29.004  26.895  1.00  0.00     0.023 C 
BRANCH  31  32
ATOM     32  C   UNL A   1      35.118  29.776  27.377  1.00  0.00     0.023 C 
BRANCH  32  33
ATOM     33  C   UNL A   1      34.858  31.264  27.614  1.00  0.00     0.116 C 
BRANCH  33  34
ATOM     34  N   UNL A   1      34.547  31.575  28.994  1.00  0.00    -0.352 N 
ATOM     35  C   UNL A   1      35.341  31.829  30.078  1.00  0.00     0.251 C 
ATOM     36  H   UNL A   1      33.583  31.611  29.187  1.00  0.00     0.163 HD
ATOM     37  O   UNL A   1      34.915  32.587  30.949  1.00  0.00    -0.269 OA
BRANCH  35  38
ATOM     38  C   UNL A   1      36.615  31.113  30.322  1.00  0.00     0.039 A 
ATOM     39  C   UNL A   1      37.871  31.673  30.099  1.00  0.00     0.014 A 
ATOM     40  C   UNL A   1      36.516  29.742  30.621  1.00  0.00     0.014 A 
ATOM     41  C   UNL A   1      38.994  30.871  30.073  1.00  0.00     0.010 A 
ATOM     42  C   UNL A   1      37.643  28.931  30.609  1.00  0.00     0.010 A 
ATOM     43  C   UNL A   1      38.871  29.499  30.287  1.00  0.00    -0.014 A 
BRANCH  43  44
ATOM     44  C   UNL A   1      40.105  28.736  30.228  1.00  0.00     0.031 A 
ATOM     45  C   UNL A   1      40.819  28.606  31.529  1.00  0.00     0.074 A 
ATOM     46  C   UNL A   1      40.554  28.164  29.099  1.00  0.00     0.049 A 
ATOM     47  N   UNL A   1      42.031  28.954  31.822  1.00  0.00    -0.248 NA
ATOM     48  C   UNL A   1      40.037  28.116  32.676  1.00  0.00     0.031 C 
ATOM     49  C   UNL A   1      39.854  27.994  27.825  1.00  0.00     0.029 A 
ATOM     50  N   UNL A   1      41.731  27.510  28.899  1.00  0.00    -0.354 N 
ATOM     51  C   UNL A   1      42.218  28.596  33.155  1.00  0.00     0.074 A 
ATOM     52  C   UNL A   1      40.932  28.191  33.660  1.00  0.00     0.031 C 
ATOM     53  C   UNL A   1      40.520  27.089  27.076  1.00  0.00     0.029 A 
ATOM     54  C   UNL A   1      41.744  26.717  27.764  1.00  0.00     0.049 A 
ATOM     55  H   UNL A   1      42.501  27.593  29.505  1.00  0.00     0.167 HD
ATOM     56  C   UNL A   1      43.456  28.480  33.705  1.00  0.00     0.037 A 
ATOM     57  C   UNL A   1      42.647  25.748  27.482  1.00  0.00     0.037 A 
ATOM     58  C   UNL A   1      44.438  29.235  32.980  1.00  0.00     0.049 A 
ATOM     59  C   UNL A   1      43.867  26.021  28.284  1.00  0.00     0.074 A 
ATOM     60  C   UNL A   1      44.614  30.577  32.705  1.00  0.00     0.029 A 
ATOM     61  N   UNL A   1      45.288  28.571  32.131  1.00  0.00    -0.354 N 
ATOM     62  N   UNL A   1      44.656  27.044  28.096  1.00  0.00    -0.248 NA
ATOM     63  C   UNL A   1      43.986  25.375  29.584  1.00  0.00     0.031 C 
ATOM     64  C   UNL A   1      45.176  30.617  31.398  1.00  0.00     0.029 A 
ATOM     65  C   UNL A   1      45.334  29.298  30.971  1.00  0.00     0.049 A 
ATOM     66  H   UNL A   1      45.770  27.734  32.319  1.00  0.00     0.167 HD
ATOM     67  C   UNL A   1      45.062  27.420  29.368  1.00  0.00     0.074 A 
ATOM     68  C   UNL A   1      44.697  26.301  30.232  1.00  0.00     0.031 C 
ATOM     69  C   UNL A   1      45.403  28.710  29.654  1.00  0.00     0.037 A 
BRANCH  56  70
ATOM     70  C   UNL A   1      43.823  27.421  34.711  1.00  0.00     0.064 A 
ATOM     71  C   UNL A   1      44.305  27.802  35.979  1.00  0.00     0.173 A 
ATOM     72  C   UNL A   1      44.002  26.062  34.373  1.00  0.00     0.173 A 
ATOM     73  F   UNL A   1      44.211  29.074  36.393  1.00  0.00    -0.203 F 
ATOM     74  C   UNL A   1      44.978  26.904  36.811  1.00  0.00     0.198 A 
ATOM     75  C   UNL A   1      44.626  25.156  35.228  1.00  0.00     0.198 A 
ATOM     76  F   UNL A   1      43.686  25.584  33.162  1.00  0.00    -0.203 F 
ATOM     77  F   UNL A   1      45.528  27.338  37.952  1.00  0.00    -0.200 F 
ATOM     78  C   UNL A   1      45.142  25.583  36.432  1.00  0.00     0.200 A 
ATOM     79  F   UNL A   1      44.792  23.886  34.833  1.00  0.00    -0.200 F 
ATOM     80  F   UNL A   1      45.840  24.736  37.199  1.00  0.00    -0.200 F 
ENDBRANCH  56  70
BRANCH  57  81
ATOM     81  C   UNL A   1      42.358  24.438  26.852  1.00  0.00     0.064 A 
ATOM     82  C   UNL A   1      43.174  23.927  25.831  1.00  0.00     0.173 A 
ATOM     83  C   UNL A   1      41.418  23.542  27.405  1.00  0.00     0.173 A 
ATOM     84  F   UNL A   1      44.135  24.690  25.292  1.00  0.00    -0.203 F 
ATOM     85  C   UNL A   1      43.056  22.603  25.392  1.00  0.00     0.198 A 
ATOM     86  C   UNL A   1      41.291  22.229  26.957  1.00  0.00     0.198 A 
ATOM     87  F   UNL A   1      40.662  23.893  28.455  1.00  0.00    -0.203 F 
ATOM     88  F   UNL A   1      43.890  22.133  24.454  1.00  0.00    -0.200 F 
ATOM     89  C   UNL A   1      42.117  21.755  25.958  1.00  0.00     0.200 A 
ATOM     90  F   UNL A   1      40.403  21.412  27.540  1.00  0.00    -0.200 F 
ATOM     91  F   UNL A   1      42.036  20.475  25.571  1.00  0.00    -0.200 F 
ENDBRANCH  57  81
BRANCH  69  92
ATOM     92  C   UNL A   1      45.578  29.670  28.513  1.00  0.00     0.064 A 
ATOM     93  C   UNL A   1      44.515  30.381  27.932  1.00  0.00     0.173 A 
ATOM     94  C   UNL A   1      46.881  30.039  28.147  1.00  0.00     0.173 A 
ATOM     95  F   UNL A   1      43.249  30.156  28.307  1.00  0.00    -0.203 F 
ATOM     96  C   UNL A   1      44.746  31.399  27.009  1.00  0.00     0.198 A 
ATOM     97  C   UNL A   1      47.110  31.080  27.252  1.00  0.00     0.198 A 
ATOM     98  F   UNL A   1      47.936  29.436  28.716  1.00  0.00    -0.203 F 
ATOM     99  F   UNL A   1      43.715  32.071  26.477  1.00  0.00    -0.200 F 
ATOM    100  C   UNL A   1      46.043  31.757  26.680  1.00  0.00     0.200 A 
ATOM    101  F   UNL A   1      48.366  31.459  26.977  1.00  0.00    -0.200 F 
ATOM    102  F   UNL A   1      46.267  32.777  25.841  1.00  0.00    -0.200 F 
ENDBRANCH  69  92
ENDBRANCH  43  44
ENDBRANCH  35  38
ENDBRANCH  33  34
ENDBRANCH  32  33
ENDBRANCH  31  32
ENDBRANCH   1  31
TORSDOF 16
ENDMDL
