MODEL 1
REMARK VINA RESULT:     -13.7      0.000      0.000
REMARK SMILES CCC(=O)N1CCc2cc(C(=O)NC3(C(=O)NCCCCNC(=O)c4ccc(-c5c6nc(c(-c7c(F)c(F)c(F)c(F)c7F)c7ccc([nH]7)c(-c7c(F)c(F)c(F)c(F)c7F)c7nc(c(-c8c(F)c(F)c(F)c(F)c8F)c8ccc5[nH]8)C=C7)C=C6)cc4)CCCC3)ccc21
REMARK SMILES IDX 18 1 17 2 15 3 16 4 14 6 88 7 91 8 89 9 90 10 13 11 11 12
REMARK SMILES IDX 12 13 10 15 5 16 6 17 94 18 7 19 8 20 93 21 9 22 92 23 3 24
REMARK SMILES IDX 4 25 2 26 1 27 19 28 20 29 21 30 22 31 23 32 24 34 25 35
REMARK SMILES IDX 26 36 87 37 27 38 86 39 28 40 29 41 30 42 80 43 31 44 85 45
REMARK SMILES IDX 79 46 81 47 32 48 84 49 78 50 77 51 33 53 65 54 45 55 64 56
REMARK SMILES IDX 46 57 49 58 63 59 82 60 47 61 48 62 62 64 83 65 50 66 34 67
REMARK SMILES IDX 35 68 43 69 36 70 37 71 41 72 44 73 38 74 39 75 42 76 40 77
REMARK SMILES IDX 66 78 67 79 75 80 68 81 69 82 73 83 76 84 70 85 71 86 74 87
REMARK SMILES IDX 72 88 51 89 52 90 60 91 53 92 54 93 58 94 61 95 55 96 56 97
REMARK SMILES IDX 59 98 57 99
REMARK H PARENT 17 5 13 14 22 33 81 52 49 63
REMARK Flexibility Score: inf
ROOT
ATOM      1  C   UNL A   1      32.426  29.897  25.470  1.00  0.00     0.116 C 
ENDROOT
BRANCH   1   2
ATOM      2  N   UNL A   1      31.336  29.613  24.559  1.00  0.00    -0.354 N 
ATOM      3  C   UNL A   1      30.830  28.467  24.029  1.00  0.00     0.245 C 
ATOM      4  O   UNL A   1      29.734  28.604  23.465  1.00  0.00    -0.272 OA
ATOM      5  H   UNL A   1      30.860  30.421  24.260  1.00  0.00     0.163 HD
BRANCH   3   6
ATOM      6  C   UNL A   1      31.499  27.047  24.129  1.00  0.00     0.119 C 
ATOM      7  C   UNL A   1      30.362  26.000  23.993  1.00  0.00     0.038 C 
ATOM      8  C   UNL A   1      32.226  26.602  25.414  1.00  0.00     0.038 C 
ATOM      9  C   UNL A   1      30.003  25.589  25.410  1.00  0.00     0.003 C 
ATOM     10  C   UNL A   1      31.332  25.596  26.143  1.00  0.00     0.003 C 
BRANCH   6  11
ATOM     11  N   UNL A   1      32.418  26.890  22.956  1.00  0.00    -0.338 N 
ATOM     12  C   UNL A   1      33.016  25.846  22.289  1.00  0.00     0.252 C 
ATOM     13  O   UNL A   1      33.598  26.130  21.239  1.00  0.00    -0.269 OA
ATOM     14  H   UNL A   1      32.655  27.760  22.562  1.00  0.00     0.164 HD
BRANCH  12  15
ATOM     15  C   UNL A   1      33.069  24.430  22.755  1.00  0.00     0.040 A 
ATOM     16  N   UNL A   1      33.480  20.574  24.369  1.00  0.00    -0.312 N 
ATOM     17  C   UNL A   1      34.796  20.662  25.017  1.00  0.00     0.130 C 
ATOM     18  C   UNL A   1      33.212  21.798  23.749  1.00  0.00     0.047 A 
ATOM     19  C   UNL A   1      35.409  22.021  24.641  1.00  0.00     0.059 C 
ATOM     20  C   UNL A   1      34.296  22.664  23.872  1.00  0.00    -0.022 A 
ATOM     21  C   UNL A   1      32.052  22.249  23.179  1.00  0.00     0.027 A 
ATOM     22  C   UNL A   1      34.245  23.969  23.377  1.00  0.00     0.019 A 
ATOM     23  C   UNL A   1      32.007  23.536  22.640  1.00  0.00     0.016 A 
BRANCH  16  24
ATOM     24  C   UNL A   1      32.709  19.440  24.500  1.00  0.00     0.226 C 
ATOM     25  O   UNL A   1      32.327  19.054  25.610  1.00  0.00    -0.275 OA
BRANCH  24  26
ATOM     26  C   UNL A   1      32.524  18.525  23.293  1.00  0.00     0.097 C 
ATOM     27  C   UNL A   1      33.484  17.366  23.126  1.00  0.00     0.014 C 
ENDBRANCH  24  26
ENDBRANCH  16  24
ENDBRANCH  12  15
ENDBRANCH   6  11
ENDBRANCH   3   6
ENDBRANCH   1   2
BRANCH   1  28
ATOM     28  C   UNL A   1      31.984  30.433  26.827  1.00  0.00     0.023 C 
BRANCH  28  29
ATOM     29  C   UNL A   1      31.693  31.928  26.879  1.00  0.00     0.023 C 
BRANCH  29  30
ATOM     30  C   UNL A   1      32.858  32.817  27.288  1.00  0.00     0.116 C 
BRANCH  30  31
ATOM     31  N   UNL A   1      32.465  34.168  27.656  1.00  0.00    -0.352 N 
ATOM     32  C   UNL A   1      32.995  35.005  28.614  1.00  0.00     0.251 C 
ATOM     33  H   UNL A   1      31.710  34.541  27.144  1.00  0.00     0.163 HD
ATOM     34  O   UNL A   1      32.481  36.089  28.838  1.00  0.00    -0.269 OA
BRANCH  32  35
ATOM     35  C   UNL A   1      34.163  34.558  29.408  1.00  0.00     0.039 A 
ATOM     36  C   UNL A   1      33.942  33.957  30.650  1.00  0.00     0.014 A 
ATOM     37  C   UNL A   1      35.460  34.684  28.909  1.00  0.00     0.014 A 
ATOM     38  C   UNL A   1      35.017  33.403  31.348  1.00  0.00     0.010 A 
ATOM     39  C   UNL A   1      36.511  34.041  29.554  1.00  0.00     0.010 A 
ATOM     40  C   UNL A   1      36.303  33.397  30.783  1.00  0.00    -0.014 A 
BRANCH  40  41
ATOM     41  C   UNL A   1      37.447  32.737  31.462  1.00  0.00     0.031 A 
ATOM     42  C   UNL A   1      38.154  31.589  30.794  1.00  0.00     0.074 A 
ATOM     43  C   UNL A   1      37.799  33.113  32.708  1.00  0.00     0.049 A 
ATOM     44  N   UNL A   1      39.110  30.823  31.254  1.00  0.00    -0.248 NA
ATOM     45  C   UNL A   1      37.698  31.229  29.442  1.00  0.00     0.031 C 
ATOM     46  C   UNL A   1      37.149  34.164  33.492  1.00  0.00     0.029 A 
ATOM     47  N   UNL A   1      38.786  32.642  33.539  1.00  0.00    -0.354 N 
ATOM     48  C   UNL A   1      39.344  29.876  30.266  1.00  0.00     0.074 A 
ATOM     49  C   UNL A   1      38.395  30.127  29.204  1.00  0.00     0.031 C 
ATOM     50  C   UNL A   1      37.773  34.279  34.676  1.00  0.00     0.029 A 
ATOM     51  C   UNL A   1      38.840  33.287  34.751  1.00  0.00     0.049 A 
ATOM     52  H   UNL A   1      39.395  31.911  33.290  1.00  0.00     0.167 HD
ATOM     53  C   UNL A   1      40.284  28.904  30.231  1.00  0.00     0.037 A 
ATOM     54  C   UNL A   1      39.660  33.098  35.802  1.00  0.00     0.037 A 
ATOM     55  C   UNL A   1      41.263  28.690  31.263  1.00  0.00     0.049 A 
ATOM     56  C   UNL A   1      40.723  32.036  35.723  1.00  0.00     0.074 A 
ATOM     57  C   UNL A   1      42.312  27.789  31.283  1.00  0.00     0.029 A 
ATOM     58  N   UNL A   1      41.314  29.394  32.457  1.00  0.00    -0.354 N 
ATOM     59  N   UNL A   1      40.985  31.199  34.750  1.00  0.00    -0.248 NA
ATOM     60  C   UNL A   1      41.608  31.897  36.888  1.00  0.00     0.031 C 
ATOM     61  C   UNL A   1      42.976  27.921  32.508  1.00  0.00     0.029 A 
ATOM     62  C   UNL A   1      42.368  28.935  33.230  1.00  0.00     0.049 A 
ATOM     63  H   UNL A   1      40.693  30.112  32.718  1.00  0.00     0.167 HD
ATOM     64  C   UNL A   1      42.077  30.453  35.171  1.00  0.00     0.074 A 
ATOM     65  C   UNL A   1      42.440  30.947  36.483  1.00  0.00     0.031 C 
ATOM     66  C   UNL A   1      42.721  29.447  34.529  1.00  0.00     0.037 A 
BRANCH  53  67
ATOM     67  C   UNL A   1      40.308  28.005  29.030  1.00  0.00     0.064 A 
ATOM     68  C   UNL A   1      41.066  28.317  27.891  1.00  0.00     0.173 A 
ATOM     69  C   UNL A   1      39.588  26.801  29.027  1.00  0.00     0.173 A 
ATOM     70  F   UNL A   1      41.762  29.464  27.838  1.00  0.00    -0.203 F 
ATOM     71  C   UNL A   1      41.075  27.476  26.782  1.00  0.00     0.198 A 
ATOM     72  C   UNL A   1      39.624  25.947  27.928  1.00  0.00     0.198 A 
ATOM     73  F   UNL A   1      38.850  26.451  30.091  1.00  0.00    -0.203 F 
ATOM     74  F   UNL A   1      41.763  27.823  25.685  1.00  0.00    -0.200 F 
ATOM     75  C   UNL A   1      40.360  26.288  26.805  1.00  0.00     0.200 A 
ATOM     76  F   UNL A   1      38.942  24.792  27.956  1.00  0.00    -0.200 F 
ATOM     77  F   UNL A   1      40.375  25.476  25.738  1.00  0.00    -0.200 F 
ENDBRANCH  53  67
BRANCH  54  78
ATOM     78  C   UNL A   1      39.535  33.963  37.004  1.00  0.00     0.064 A 
ATOM     79  C   UNL A   1      40.166  35.214  37.056  1.00  0.00     0.173 A 
ATOM     80  C   UNL A   1      38.789  33.562  38.121  1.00  0.00     0.173 A 
ATOM     81  F   UNL A   1      40.909  35.631  36.020  1.00  0.00    -0.203 F 
ATOM     82  C   UNL A   1      40.067  36.025  38.184  1.00  0.00     0.198 A 
ATOM     83  C   UNL A   1      38.669  34.385  39.239  1.00  0.00     0.198 A 
ATOM     84  F   UNL A   1      38.164  32.376  38.119  1.00  0.00    -0.203 F 
ATOM     85  F   UNL A   1      40.713  37.198  38.221  1.00  0.00    -0.200 F 
ATOM     86  C   UNL A   1      39.315  35.613  39.272  1.00  0.00     0.200 A 
ATOM     87  F   UNL A   1      37.931  33.989  40.285  1.00  0.00    -0.200 F 
ATOM     88  F   UNL A   1      39.216  36.395  40.356  1.00  0.00    -0.200 F 
ENDBRANCH  54  78
BRANCH  66  89
ATOM     89  C   UNL A   1      43.905  28.837  35.219  1.00  0.00     0.064 A 
ATOM     90  C   UNL A   1      43.771  27.730  36.068  1.00  0.00     0.173 A 
ATOM     91  C   UNL A   1      45.196  29.337  34.985  1.00  0.00     0.173 A 
ATOM     92  F   UNL A   1      42.556  27.226  36.333  1.00  0.00    -0.203 F 
ATOM     93  C   UNL A   1      44.884  27.158  36.676  1.00  0.00     0.198 A 
ATOM     94  C   UNL A   1      46.309  28.745  35.573  1.00  0.00     0.198 A 
ATOM     95  F   UNL A   1      45.378  30.390  34.174  1.00  0.00    -0.203 F 
ATOM     96  F   UNL A   1      44.729  26.126  37.517  1.00  0.00    -0.200 F 
ATOM     97  C   UNL A   1      46.152  27.660  36.423  1.00  0.00     0.200 A 
ATOM     98  F   UNL A   1      47.535  29.223  35.316  1.00  0.00    -0.200 F 
ATOM     99  F   UNL A   1      47.224  27.102  37.002  1.00  0.00    -0.200 F 
ENDBRANCH  66  89
ENDBRANCH  40  41
ENDBRANCH  32  35
ENDBRANCH  30  31
ENDBRANCH  29  30
ENDBRANCH  28  29
ENDBRANCH   1  28
TORSDOF 15
ENDMDL
MODEL 2
REMARK VINA RESULT:     -13.7      0.262      1.575
REMARK SMILES CCC(=O)N1CCc2cc(C(=O)NC3(C(=O)NCCCCNC(=O)c4ccc(-c5c6nc(c(-c7c(F)c(F)c(F)c(F)c7F)c7ccc([nH]7)c(-c7c(F)c(F)c(F)c(F)c7F)c7nc(c(-c8c(F)c(F)c(F)c(F)c8F)c8ccc5[nH]8)C=C7)C=C6)cc4)CCCC3)ccc21
REMARK SMILES IDX 18 1 17 2 15 3 16 4 14 6 88 7 91 8 89 9 90 10 13 11 11 12
REMARK SMILES IDX 12 13 10 15 5 16 6 17 94 18 7 19 8 20 93 21 9 22 92 23 3 24
REMARK SMILES IDX 4 25 2 26 1 27 19 28 20 29 21 30 22 31 23 32 24 34 25 35
REMARK SMILES IDX 26 36 87 37 27 38 86 39 28 40 29 41 30 42 80 43 31 44 85 45
REMARK SMILES IDX 79 46 81 47 32 48 84 49 78 50 77 51 33 53 65 54 45 55 64 56
REMARK SMILES IDX 46 57 49 58 63 59 82 60 47 61 48 62 62 64 83 65 50 66 34 67
REMARK SMILES IDX 35 68 43 69 36 70 37 71 41 72 44 73 38 74 39 75 42 76 40 77
REMARK SMILES IDX 66 78 67 79 75 80 68 81 69 82 73 83 76 84 70 85 71 86 74 87
REMARK SMILES IDX 72 88 51 89 52 90 60 91 53 92 54 93 58 94 61 95 55 96 56 97
REMARK SMILES IDX 59 98 57 99
REMARK H PARENT 17 5 13 14 22 33 81 52 49 63
REMARK Flexibility Score: inf
ROOT
ATOM      1  C   UNL A   1      32.445  29.867  25.508  1.00  0.00     0.116 C 
ENDROOT
BRANCH   1   2
ATOM      2  N   UNL A   1      31.350  29.600  24.599  1.00  0.00    -0.354 N 
ATOM      3  C   UNL A   1      30.845  28.464  24.045  1.00  0.00     0.245 C 
ATOM      4  O   UNL A   1      29.745  28.609  23.494  1.00  0.00    -0.272 OA
ATOM      5  H   UNL A   1      30.869  30.412  24.323  1.00  0.00     0.163 HD
BRANCH   3   6
ATOM      6  C   UNL A   1      31.521  27.046  24.106  1.00  0.00     0.119 C 
ATOM      7  C   UNL A   1      30.385  25.996  23.985  1.00  0.00     0.038 C 
ATOM      8  C   UNL A   1      32.284  26.584  25.364  1.00  0.00     0.038 C 
ATOM      9  C   UNL A   1      30.066  25.563  25.404  1.00  0.00     0.003 C 
ATOM     10  C   UNL A   1      31.414  25.563  26.102  1.00  0.00     0.003 C 
BRANCH   6  11
ATOM     11  N   UNL A   1      32.409  26.909  22.907  1.00  0.00    -0.338 N 
ATOM     12  C   UNL A   1      33.065  25.888  22.261  1.00  0.00     0.252 C 
ATOM     13  O   UNL A   1      33.587  26.170  21.179  1.00  0.00    -0.269 OA
ATOM     14  H   UNL A   1      32.564  27.777  22.469  1.00  0.00     0.164 HD
BRANCH  12  15
ATOM     15  C   UNL A   1      33.246  24.501  22.781  1.00  0.00     0.040 A 
ATOM     16  N   UNL A   1      33.985  20.767  24.556  1.00  0.00    -0.312 N 
ATOM     17  C   UNL A   1      35.249  21.018  25.262  1.00  0.00     0.130 C 
ATOM     18  C   UNL A   1      33.620  21.934  23.879  1.00  0.00     0.047 A 
ATOM     19  C   UNL A   1      35.731  22.424  24.866  1.00  0.00     0.059 C 
ATOM     20  C   UNL A   1      34.597  22.916  24.022  1.00  0.00    -0.022 A 
ATOM     21  C   UNL A   1      32.448  22.237  23.237  1.00  0.00     0.027 A 
ATOM     22  C   UNL A   1      34.431  24.191  23.476  1.00  0.00     0.019 A 
ATOM     23  C   UNL A   1      32.294  23.493  22.649  1.00  0.00     0.016 A 
BRANCH  16  24
ATOM     24  C   UNL A   1      33.335  19.560  24.693  1.00  0.00     0.226 C 
ATOM     25  O   UNL A   1      32.220  19.492  25.221  1.00  0.00    -0.275 OA
BRANCH  24  26
ATOM     26  C   UNL A   1      34.097  18.270  24.405  1.00  0.00     0.097 C 
ATOM     27  C   UNL A   1      33.584  17.370  23.302  1.00  0.00     0.014 C 
ENDBRANCH  24  26
ENDBRANCH  16  24
ENDBRANCH  12  15
ENDBRANCH   6  11
ENDBRANCH   3   6
ENDBRANCH   1   2
BRANCH   1  28
ATOM     28  C   UNL A   1      32.015  30.425  26.861  1.00  0.00     0.023 C 
BRANCH  28  29
ATOM     29  C   UNL A   1      31.722  31.920  26.890  1.00  0.00     0.023 C 
BRANCH  29  30
ATOM     30  C   UNL A   1      32.882  32.815  27.300  1.00  0.00     0.116 C 
BRANCH  30  31
ATOM     31  N   UNL A   1      32.481  34.164  27.668  1.00  0.00    -0.352 N 
ATOM     32  C   UNL A   1      33.001  35.001  28.632  1.00  0.00     0.251 C 
ATOM     33  H   UNL A   1      31.728  34.535  27.153  1.00  0.00     0.163 HD
ATOM     34  O   UNL A   1      32.481  36.082  28.855  1.00  0.00    -0.269 OA
BRANCH  32  35
ATOM     35  C   UNL A   1      34.165  34.557  29.432  1.00  0.00     0.039 A 
ATOM     36  C   UNL A   1      33.940  33.966  30.679  1.00  0.00     0.014 A 
ATOM     37  C   UNL A   1      35.464  34.675  28.936  1.00  0.00     0.014 A 
ATOM     38  C   UNL A   1      35.012  33.414  31.384  1.00  0.00     0.010 A 
ATOM     39  C   UNL A   1      36.512  34.033  29.589  1.00  0.00     0.010 A 
ATOM     40  C   UNL A   1      36.299  33.400  30.822  1.00  0.00    -0.014 A 
BRANCH  40  41
ATOM     41  C   UNL A   1      37.440  32.742  31.509  1.00  0.00     0.031 A 
ATOM     42  C   UNL A   1      38.144  31.587  30.852  1.00  0.00     0.074 A 
ATOM     43  C   UNL A   1      37.790  33.126  32.753  1.00  0.00     0.049 A 
ATOM     44  N   UNL A   1      39.097  30.821  31.320  1.00  0.00    -0.248 NA
ATOM     45  C   UNL A   1      37.691  31.218  29.501  1.00  0.00     0.031 C 
ATOM     46  C   UNL A   1      37.141  34.186  33.527  1.00  0.00     0.029 A 
ATOM     47  N   UNL A   1      38.772  32.659  33.590  1.00  0.00    -0.354 N 
ATOM     48  C   UNL A   1      39.331  29.867  30.340  1.00  0.00     0.074 A 
ATOM     49  C   UNL A   1      38.385  30.112  29.274  1.00  0.00     0.031 C 
ATOM     50  C   UNL A   1      37.761  34.308  34.712  1.00  0.00     0.029 A 
ATOM     51  C   UNL A   1      38.826  33.314  34.797  1.00  0.00     0.049 A 
ATOM     52  H   UNL A   1      39.380  31.924  33.348  1.00  0.00     0.167 HD
ATOM     53  C   UNL A   1      40.268  28.892  30.315  1.00  0.00     0.037 A 
ATOM     54  C   UNL A   1      39.643  33.131  35.852  1.00  0.00     0.037 A 
ATOM     55  C   UNL A   1      41.244  28.683  31.351  1.00  0.00     0.049 A 
ATOM     56  C   UNL A   1      40.702  32.065  35.784  1.00  0.00     0.074 A 
ATOM     57  C   UNL A   1      42.291  27.779  31.381  1.00  0.00     0.029 A 
ATOM     58  N   UNL A   1      41.294  29.395  32.540  1.00  0.00    -0.354 N 
ATOM     59  N   UNL A   1      40.964  31.219  34.817  1.00  0.00    -0.248 NA
ATOM     60  C   UNL A   1      41.585  31.933  36.952  1.00  0.00     0.031 C 
ATOM     61  C   UNL A   1      42.952  27.919  32.606  1.00  0.00     0.029 A 
ATOM     62  C   UNL A   1      42.345  28.940  33.318  1.00  0.00     0.049 A 
ATOM     63  H   UNL A   1      40.674  30.118  32.794  1.00  0.00     0.167 HD
ATOM     64  C   UNL A   1      42.053  30.473  35.247  1.00  0.00     0.074 A 
ATOM     65  C   UNL A   1      42.414  30.977  36.556  1.00  0.00     0.031 C 
ATOM     66  C   UNL A   1      42.696  29.461  34.615  1.00  0.00     0.037 A 
BRANCH  53  67
ATOM     67  C   UNL A   1      40.293  27.983  29.121  1.00  0.00     0.064 A 
ATOM     68  C   UNL A   1      39.557  26.789  29.088  1.00  0.00     0.173 A 
ATOM     69  C   UNL A   1      41.039  28.325  27.982  1.00  0.00     0.173 A 
ATOM     70  F   UNL A   1      38.838  26.410  30.156  1.00  0.00    -0.203 F 
ATOM     71  C   UNL A   1      39.593  25.955  27.974  1.00  0.00     0.198 A 
ATOM     72  C   UNL A   1      41.047  27.503  26.858  1.00  0.00     0.198 A 
ATOM     73  F   UNL A   1      41.757  29.457  27.958  1.00  0.00    -0.203 F 
ATOM     74  F   UNL A   1      38.924  24.793  27.988  1.00  0.00    -0.200 F 
ATOM     75  C   UNL A   1      40.332  26.316  26.858  1.00  0.00     0.200 A 
ATOM     76  F   UNL A   1      41.752  27.859  25.775  1.00  0.00    -0.200 F 
ATOM     77  F   UNL A   1      40.360  25.514  25.784  1.00  0.00    -0.200 F 
ENDBRANCH  53  67
BRANCH  54  78
ATOM     78  C   UNL A   1      39.517  34.005  37.047  1.00  0.00     0.064 A 
ATOM     79  C   UNL A   1      40.144  35.258  37.087  1.00  0.00     0.173 A 
ATOM     80  C   UNL A   1      38.773  33.612  38.168  1.00  0.00     0.173 A 
ATOM     81  F   UNL A   1      40.885  35.669  36.046  1.00  0.00    -0.203 F 
ATOM     82  C   UNL A   1      40.045  36.078  38.208  1.00  0.00     0.198 A 
ATOM     83  C   UNL A   1      38.653  34.443  39.279  1.00  0.00     0.198 A 
ATOM     84  F   UNL A   1      38.152  32.424  38.177  1.00  0.00    -0.203 F 
ATOM     85  F   UNL A   1      40.688  37.254  38.235  1.00  0.00    -0.200 F 
ATOM     86  C   UNL A   1      39.295  35.673  39.301  1.00  0.00     0.200 A 
ATOM     87  F   UNL A   1      37.918  34.055  40.330  1.00  0.00    -0.200 F 
ATOM     88  F   UNL A   1      39.196  36.464  40.378  1.00  0.00    -0.200 F 
ENDBRANCH  54  78
BRANCH  66  89
ATOM     89  C   UNL A   1      43.876  28.853  35.312  1.00  0.00     0.064 A 
ATOM     90  C   UNL A   1      45.177  29.336  35.112  1.00  0.00     0.173 A 
ATOM     91  C   UNL A   1      43.695  27.807  36.230  1.00  0.00     0.173 A 
ATOM     92  F   UNL A   1      45.403  30.325  34.234  1.00  0.00    -0.203 F 
ATOM     93  C   UNL A   1      46.257  28.779  35.791  1.00  0.00     0.198 A 
ATOM     94  C   UNL A   1      44.774  27.272  36.928  1.00  0.00     0.198 A 
ATOM     95  F   UNL A   1      42.468  27.316  36.463  1.00  0.00    -0.203 F 
ATOM     96  F   UNL A   1      47.498  29.228  35.554  1.00  0.00    -0.200 F 
ATOM     97  C   UNL A   1      46.054  27.754  36.704  1.00  0.00     0.200 A 
ATOM     98  F   UNL A   1      44.573  26.291  37.819  1.00  0.00    -0.200 F 
ATOM     99  F   UNL A   1      47.095  27.226  37.362  1.00  0.00    -0.200 F 
ENDBRANCH  66  89
ENDBRANCH  40  41
ENDBRANCH  32  35
ENDBRANCH  30  31
ENDBRANCH  29  30
ENDBRANCH  28  29
ENDBRANCH   1  28
TORSDOF 15
ENDMDL
MODEL 3
REMARK VINA RESULT:     -13.5      5.418     11.283
REMARK SMILES CCC(=O)N1CCc2cc(C(=O)NC3(C(=O)NCCCCNC(=O)c4ccc(-c5c6nc(c(-c7c(F)c(F)c(F)c(F)c7F)c7ccc([nH]7)c(-c7c(F)c(F)c(F)c(F)c7F)c7nc(c(-c8c(F)c(F)c(F)c(F)c8F)c8ccc5[nH]8)C=C7)C=C6)cc4)CCCC3)ccc21
REMARK SMILES IDX 18 1 17 2 15 3 16 4 14 6 88 7 91 8 89 9 90 10 13 11 11 12
REMARK SMILES IDX 12 13 10 15 5 16 6 17 94 18 7 19 8 20 93 21 9 22 92 23 3 24
REMARK SMILES IDX 4 25 2 26 1 27 19 28 20 29 21 30 22 31 23 32 24 34 25 35
REMARK SMILES IDX 26 36 87 37 27 38 86 39 28 40 29 41 30 42 80 43 31 44 85 45
REMARK SMILES IDX 79 46 81 47 32 48 84 49 78 50 77 51 33 53 65 54 45 55 64 56
REMARK SMILES IDX 46 57 49 58 63 59 82 60 47 61 48 62 62 64 83 65 50 66 34 67
REMARK SMILES IDX 35 68 43 69 36 70 37 71 41 72 44 73 38 74 39 75 42 76 40 77
REMARK SMILES IDX 66 78 67 79 75 80 68 81 69 82 73 83 76 84 70 85 71 86 74 87
REMARK SMILES IDX 72 88 51 89 52 90 60 91 53 92 54 93 58 94 61 95 55 96 56 97
REMARK SMILES IDX 59 98 57 99
REMARK H PARENT 17 5 13 14 22 33 81 52 49 63
REMARK Flexibility Score: inf
ROOT
ATOM      1  C   UNL A   1      36.055  21.563  25.520  1.00  0.00     0.116 C 
ENDROOT
BRANCH   1   2
ATOM      2  N   UNL A   1      34.864  20.862  25.087  1.00  0.00    -0.354 N 
ATOM      3  C   UNL A   1      33.651  21.268  24.622  1.00  0.00     0.245 C 
ATOM      4  O   UNL A   1      32.963  20.363  24.129  1.00  0.00    -0.272 OA
ATOM      5  H   UNL A   1      34.950  19.883  25.142  1.00  0.00     0.163 HD
BRANCH   3   6
ATOM      6  C   UNL A   1      33.125  22.749  24.631  1.00  0.00     0.119 C 
ATOM      7  C   UNL A   1      32.252  22.928  23.361  1.00  0.00     0.038 C 
ATOM      8  C   UNL A   1      34.103  23.939  24.547  1.00  0.00     0.038 C 
ATOM      9  C   UNL A   1      33.150  23.581  22.326  1.00  0.00     0.003 C 
ATOM     10  C   UNL A   1      34.018  24.527  23.136  1.00  0.00     0.003 C 
BRANCH   6  11
ATOM     11  N   UNL A   1      32.241  22.915  25.829  1.00  0.00    -0.338 N 
ATOM     12  C   UNL A   1      31.238  23.770  26.220  1.00  0.00     0.252 C 
ATOM     13  O   UNL A   1      30.632  23.468  27.252  1.00  0.00    -0.269 OA
ATOM     14  H   UNL A   1      32.429  22.234  26.515  1.00  0.00     0.164 HD
BRANCH  12  15
ATOM     15  C   UNL A   1      30.867  25.047  25.542  1.00  0.00     0.040 A 
ATOM     16  N   UNL A   1      30.214  28.773  23.717  1.00  0.00    -0.312 N 
ATOM     17  C   UNL A   1      31.185  29.623  24.421  1.00  0.00     0.130 C 
ATOM     18  C   UNL A   1      30.294  27.482  24.248  1.00  0.00     0.047 A 
ATOM     19  C   UNL A   1      31.806  28.782  25.549  1.00  0.00     0.059 C 
ATOM     20  C   UNL A   1      31.193  27.437  25.310  1.00  0.00    -0.022 A 
ATOM     21  C   UNL A   1      29.720  26.321  23.802  1.00  0.00     0.027 A 
ATOM     22  C   UNL A   1      31.482  26.240  25.969  1.00  0.00     0.019 A 
ATOM     23  C   UNL A   1      29.967  25.128  24.483  1.00  0.00     0.016 A 
BRANCH  16  24
ATOM     24  C   UNL A   1      29.472  29.276  22.672  1.00  0.00     0.226 C 
ATOM     25  O   UNL A   1      30.012  29.644  21.624  1.00  0.00    -0.275 OA
BRANCH  24  26
ATOM     26  C   UNL A   1      27.998  29.603  22.899  1.00  0.00     0.097 C 
ATOM     27  C   UNL A   1      27.652  30.948  23.499  1.00  0.00     0.014 C 
ENDBRANCH  24  26
ENDBRANCH  16  24
ENDBRANCH  12  15
ENDBRANCH   6  11
ENDBRANCH   3   6
ENDBRANCH   1   2
BRANCH   1  28
ATOM     28  C   UNL A   1      37.283  21.306  24.653  1.00  0.00     0.023 C 
BRANCH  28  29
ATOM     29  C   UNL A   1      38.090  20.064  25.012  1.00  0.00     0.023 C 
BRANCH  29  30
ATOM     30  C   UNL A   1      39.277  20.289  25.936  1.00  0.00     0.116 C 
BRANCH  30  31
ATOM     31  N   UNL A   1      40.233  19.193  25.941  1.00  0.00    -0.352 N 
ATOM     32  C   UNL A   1      41.598  19.221  26.129  1.00  0.00     0.251 C 
ATOM     33  H   UNL A   1      39.849  18.298  25.789  1.00  0.00     0.163 HD
ATOM     34  O   UNL A   1      42.257  18.199  26.023  1.00  0.00    -0.269 OA
BRANCH  32  35
ATOM     35  C   UNL A   1      42.269  20.511  26.411  1.00  0.00     0.039 A 
ATOM     36  C   UNL A   1      42.744  21.271  25.339  1.00  0.00     0.014 A 
ATOM     37  C   UNL A   1      42.383  20.991  27.717  1.00  0.00     0.014 A 
ATOM     38  C   UNL A   1      43.251  22.551  25.572  1.00  0.00     0.010 A 
ATOM     39  C   UNL A   1      42.790  22.303  27.935  1.00  0.00     0.010 A 
ATOM     40  C   UNL A   1      43.233  23.097  26.866  1.00  0.00    -0.014 A 
BRANCH  40  41
ATOM     41  C   UNL A   1      43.683  24.488  27.130  1.00  0.00     0.031 A 
ATOM     42  C   UNL A   1      42.707  25.503  27.657  1.00  0.00     0.074 A 
ATOM     43  C   UNL A   1      44.942  24.858  26.822  1.00  0.00     0.049 A 
ATOM     44  N   UNL A   1      42.874  26.784  27.867  1.00  0.00    -0.248 NA
ATOM     45  C   UNL A   1      41.347  25.023  27.953  1.00  0.00     0.031 C 
ATOM     46  C   UNL A   1      45.964  23.986  26.241  1.00  0.00     0.029 A 
ATOM     47  N   UNL A   1      45.572  26.072  26.944  1.00  0.00    -0.354 N 
ATOM     48  C   UNL A   1      41.640  27.264  28.283  1.00  0.00     0.074 A 
ATOM     49  C   UNL A   1      40.717  26.151  28.245  1.00  0.00     0.031 C 
ATOM     50  C   UNL A   1      47.100  24.685  26.085  1.00  0.00     0.029 A 
ATOM     51  C   UNL A   1      46.879  26.059  26.520  1.00  0.00     0.049 A 
ATOM     52  H   UNL A   1      45.129  26.874  27.302  1.00  0.00     0.167 HD
ATOM     53  C   UNL A   1      41.311  28.512  28.690  1.00  0.00     0.037 A 
ATOM     54  C   UNL A   1      47.793  27.048  26.487  1.00  0.00     0.037 A 
ATOM     55  C   UNL A   1      42.242  29.604  28.779  1.00  0.00     0.049 A 
ATOM     56  C   UNL A   1      47.413  28.417  26.980  1.00  0.00     0.074 A 
ATOM     57  C   UNL A   1      42.028  30.883  29.261  1.00  0.00     0.029 A 
ATOM     58  N   UNL A   1      43.569  29.541  28.381  1.00  0.00    -0.354 N 
ATOM     59  N   UNL A   1      46.262  28.838  27.446  1.00  0.00    -0.248 NA
ATOM     60  C   UNL A   1      48.460  29.447  26.950  1.00  0.00     0.031 C 
ATOM     61  C   UNL A   1      43.217  31.606  29.120  1.00  0.00     0.029 A 
ATOM     62  C   UNL A   1      44.183  30.764  28.592  1.00  0.00     0.049 A 
ATOM     63  H   UNL A   1      44.010  28.745  28.005  1.00  0.00     0.167 HD
ATOM     64  C   UNL A   1      46.453  30.171  27.787  1.00  0.00     0.074 A 
ATOM     65  C   UNL A   1      47.835  30.484  27.489  1.00  0.00     0.031 C 
ATOM     66  C   UNL A   1      45.563  31.055  28.300  1.00  0.00     0.037 A 
BRANCH  53  67
ATOM     67  C   UNL A   1      39.884  28.759  29.084  1.00  0.00     0.064 A 
ATOM     68  C   UNL A   1      38.924  29.179  28.150  1.00  0.00     0.173 A 
ATOM     69  C   UNL A   1      39.462  28.544  30.405  1.00  0.00     0.173 A 
ATOM     70  F   UNL A   1      39.279  29.412  26.877  1.00  0.00    -0.203 F 
ATOM     71  C   UNL A   1      37.605  29.408  28.531  1.00  0.00     0.198 A 
ATOM     72  C   UNL A   1      38.135  28.743  30.775  1.00  0.00     0.198 A 
ATOM     73  F   UNL A   1      40.337  28.137  31.337  1.00  0.00    -0.203 F 
ATOM     74  F   UNL A   1      36.719  29.862  27.633  1.00  0.00    -0.200 F 
ATOM     75  C   UNL A   1      37.210  29.183  29.841  1.00  0.00     0.200 A 
ATOM     76  F   UNL A   1      37.752  28.514  32.039  1.00  0.00    -0.200 F 
ATOM     77  F   UNL A   1      35.938  29.398  30.205  1.00  0.00    -0.200 F 
ENDBRANCH  53  67
BRANCH  54  78
ATOM     78  C   UNL A   1      49.170  26.767  26.005  1.00  0.00     0.064 A 
ATOM     79  C   UNL A   1      50.148  26.273  26.879  1.00  0.00     0.173 A 
ATOM     80  C   UNL A   1      49.538  26.984  24.670  1.00  0.00     0.173 A 
ATOM     81  F   UNL A   1      49.849  26.070  28.171  1.00  0.00    -0.203 F 
ATOM     82  C   UNL A   1      51.446  26.022  26.441  1.00  0.00     0.198 A 
ATOM     83  C   UNL A   1      50.830  26.708  24.226  1.00  0.00     0.198 A 
ATOM     84  F   UNL A   1      48.638  27.453  23.794  1.00  0.00    -0.203 F 
ATOM     85  F   UNL A   1      52.371  25.587  27.307  1.00  0.00    -0.200 F 
ATOM     86  C   UNL A   1      51.785  26.234  25.114  1.00  0.00     0.200 A 
ATOM     87  F   UNL A   1      51.151  26.903  22.940  1.00  0.00    -0.200 F 
ATOM     88  F   UNL A   1      53.032  25.987  24.691  1.00  0.00    -0.200 F 
ENDBRANCH  54  78
BRANCH  66  89
ATOM     89  C   UNL A   1      46.063  32.436  28.604  1.00  0.00     0.064 A 
ATOM     90  C   UNL A   1      45.938  33.483  27.681  1.00  0.00     0.173 A 
ATOM     91  C   UNL A   1      46.627  32.725  29.857  1.00  0.00     0.173 A 
ATOM     92  F   UNL A   1      45.418  33.253  26.466  1.00  0.00    -0.203 F 
ATOM     93  C   UNL A   1      46.380  34.766  27.992  1.00  0.00     0.198 A 
ATOM     94  C   UNL A   1      47.042  34.015  30.174  1.00  0.00     0.198 A 
ATOM     95  F   UNL A   1      46.761  31.759  30.778  1.00  0.00    -0.203 F 
ATOM     96  F   UNL A   1      46.289  35.743  27.079  1.00  0.00    -0.200 F 
ATOM     97  C   UNL A   1      46.924  35.032  29.240  1.00  0.00     0.200 A 
ATOM     98  F   UNL A   1      47.554  34.273  31.386  1.00  0.00    -0.200 F 
ATOM     99  F   UNL A   1      47.340  36.270  29.540  1.00  0.00    -0.200 F 
ENDBRANCH  66  89
ENDBRANCH  40  41
ENDBRANCH  32  35
ENDBRANCH  30  31
ENDBRANCH  29  30
ENDBRANCH  28  29
ENDBRANCH   1  28
TORSDOF 15
ENDMDL
